MODEL 4781
MODEL 1
REMARK VINA RESULT:    -6.294      0.000      0.000
REMARK INTER + INTRA:          -7.832
REMARK INTER:                  -7.398
REMARK INTRA:                  -0.434
REMARK UNBOUND:                -0.434
REMARK  Name = No_4781-gen_results/8p0m/2024-11-27-11-27-31/
REMARK  3 active torsions:
REMARK  status: ('A' for Active; 'I' for Inactive)
REMARK    1  A    between atoms: C_3  and  C_7
REMARK    2  A    between atoms: N_8  and  C_10
REMARK    3  A    between atoms: N_8  and  C_11
REMARK                            x       y       z     vdW  Elec       q    Type
REMARK                         _______ _______ _______ _____ _____    ______ ____
ROOT
ATOM      1  C   UNL A   1     -24.184  -0.959  29.605  0.00  0.00    +0.253 C 
ATOM      2  N   UNL A   1     -24.452  -0.185  28.732  0.00  0.00    -0.256 N 
ATOM      3  O   UNL A   1     -23.551  -0.602  30.667  0.00  0.00    -0.270 OA
ENDROOT
BRANCH   1   6
ATOM      4  C   UNL A   1     -25.954  -2.798  29.971  0.00  0.00    +0.016 A 
ATOM      5  C   UNL A   1     -26.163  -3.814  29.787  0.00  0.00    +0.058 A 
ATOM      6  C   UNL A   1     -24.645  -2.372  29.476  0.00  0.00    +0.055 A 
ATOM      7  C   UNL A   1     -23.797  -3.230  28.820  0.00  0.00    +0.005 A 
ATOM      8  C   UNL A   1     -25.479  -4.928  29.132  0.00  0.00    +0.011 A 
ATOM      9  C   UNL A   1     -24.211  -4.526  28.650  0.00  0.00    +0.001 A 
ATOM     10 CL   UNL A   1     -27.806  -4.480  30.333  0.00  0.00    -0.082 Cl
ENDBRANCH   1   6
BRANCH   2  11
ATOM     11  C   UNL A   1     -25.454  -0.171  27.717  0.00  0.00    +0.050 A 
ATOM     12  C   UNL A   1     -26.693   0.412  28.001  0.00  0.00    -0.008 A 
ATOM     13  C   UNL A   1     -27.493   0.654  26.921  0.00  0.00    -0.003 A 
ATOM     14  C   UNL A   1     -27.097   0.357  25.603  0.00  0.00    -0.000 A 
ATOM     15  C   UNL A   1     -25.848  -0.155  25.331  0.00  0.00    +0.001 A 
ATOM     16  C   UNL A   1     -24.984  -0.311  26.342  0.00  0.00    +0.015 A 
ATOM     17  C   UNL A   1     -27.095   0.628  29.306  0.00  0.00    +0.032 C 
ENDBRANCH   2  11
BRANCH   2  18
ATOM     18  C   UNL A   1     -23.926   1.187  28.669  0.00  0.00    +0.099 C 
ATOM     19  C   UNL A   1     -22.661   1.164  28.129  0.00  0.00    +0.024 C 
ENDBRANCH   2  18
TORSDOF 3
ENDMDL
ENDMDL
