REMARK  Name = outputs/IAG933/test6/raw/output_4781_IAG933_linker_design_.xyz
REMARK  12 active torsions:
REMARK  status: ('A' for Active; 'I' for Inactive)
REMARK    1  A    between atoms: C_1  and  C_2
REMARK    2  A    between atoms: C_1  and  C_8
REMARK    3  A    between atoms: C_1  and  N_40
REMARK    4  A    between atoms: C_13  and  C_32
REMARK    5  A    between atoms: C_14  and  C_15
REMARK    6  A    between atoms: C_21  and  O_22
REMARK    7  A    between atoms: O_22  and  C_23
REMARK    8  A    between atoms: C_23  and  C_24
REMARK    9  A    between atoms: C_29  and  O_42
REMARK   10  A    between atoms: C_32  and  C_37
REMARK   11  A    between atoms: C_38  and  O_42
REMARK   12  A    between atoms: C_39  and  C_41
REMARK                            x       y       z     vdW  Elec       q    Type
REMARK                         _______ _______ _______ _____ _____    ______ ____
ROOT
ATOM      1  C   UNL A   1     -21.118   0.001  28.465  0.00  0.00    +0.191 C 
ATOM      2  F   UNL A   1     -21.097   1.880  27.123  0.00  0.00    -0.232 F 
ATOM      3  O   UNL A   1     -19.972   0.376  28.388  0.00  0.00    -0.220 OA
ATOM      4  C   UNL A   1     -21.754   0.939  27.481  0.00  0.00    +0.223 C 
ATOM      5  O   UNL A   1     -24.459  -0.359  28.107  0.00  0.00    -0.277 OA
ATOM      6  C   UNL A   1     -23.410   0.524  27.439  0.00  0.00    +0.203 C 
ATOM      7  C   UNL A   1     -23.096   0.652  29.917  0.00  0.00    +0.218 C 
ATOM      8  N   UNL A   1     -24.124  -0.199  29.398  0.00  0.00    -0.135 NA
ATOM      9  C   UNL A   1     -21.802  -0.266  29.820  0.00  0.00    +0.086 C 
ENDROOT
BRANCH   6  11
ATOM     10  O   UNL A   1     -23.233   2.344  25.832  0.00  0.00    -0.220 OA
ATOM     11  C   UNL A   1     -24.148   1.659  26.700  0.00  0.00    +0.191 C 
BRANCH  11  12
ATOM     12  C   UNL A   1     -25.688   1.614  26.461  0.00  0.00    +0.103 C 
ATOM     13  C   UNL A   1     -26.250   2.920  26.395  0.00  0.00    +0.057 C 
ATOM     14  C   UNL A   1     -27.438   3.091  25.645  0.00  0.00    +0.102 C 
ATOM     15  N   UNL A   1     -28.075   2.089  25.003  0.00  0.00    -0.212 NA
ATOM     16  C   UNL A   1     -27.543   0.849  25.079  0.00  0.00    +0.234 C 
ATOM     17  C   UNL A   1     -26.354   0.576  25.777  0.00  0.00    +0.242 C 
ATOM     18  F   UNL A   1     -25.860  -0.681  25.795  0.00  0.00    -0.227 F 
BRANCH  13  19
ATOM     19  C   UNL A   1     -25.642   4.093  27.123  0.00  0.00    +0.263 C 
ATOM     20  N   UNL A   1     -25.614   5.252  26.449  0.00  0.00    -0.200 NA
ATOM     21  C   UNL A   1     -25.026   6.479  26.963  0.00  0.00    +0.139 C 
ATOM     22  O   UNL A   1     -25.143   3.966  28.243  0.00  0.00    -0.269 OA
ENDBRANCH  13  19
BRANCH  16  23
ATOM     23  O   UNL A   1     -28.193  -0.208  24.477  0.00  0.00    -0.459 OA
BRANCH  23  24
ATOM     24  C   UNL A   1     -29.460   0.005  23.866  0.00  0.00    +0.242 C 
BRANCH  24  25
ATOM     25  C   UNL A   1     -30.065  -1.377  23.573  0.00  0.00    +0.229 C 
ATOM     26  O   UNL A   1     -30.729  -1.878  24.721  0.00  0.00    -0.216 OA
ENDBRANCH  24  25
ENDBRANCH  23  24
ENDBRANCH  16  23
ENDBRANCH  11  12
ENDBRANCH   6  11
BRANCH   8  27
ATOM     27  C   UNL A   1     -24.855  -1.012  30.143  0.00  0.00    +0.125 C 
BRANCH  27  28
ATOM     28  C   UNL A   1     -24.973  -2.505  29.788  0.00  0.00    -0.004 C 
ATOM     29  C   UNL A   1     -23.906  -3.173  29.146  0.00  0.00    -0.003 C 
ATOM     30  C   UNL A   1     -23.989  -4.549  28.853  0.00  0.00    -0.000 C 
ATOM     31  C   UNL A   1     -25.137  -5.280  29.205  0.00  0.00    -0.000 C 
ATOM     32  C   UNL A   1     -26.232  -4.611  29.784  0.00  0.00    -0.000 C 
ATOM     33  C   UNL A   1     -26.155  -3.232  30.065  0.00  0.00    -0.003 C 
ENDBRANCH  27  28
BRANCH  27  34
ATOM     34  C   UNL A   1     -25.387  -0.679  31.571  0.00  0.00    +0.094 C 
ATOM     35  C   UNL A   1     -25.189   0.773  32.028  0.00  0.00    +0.021 C 
ATOM     36  C   UNL A   1     -25.336   0.684  33.544  0.00  0.00    +0.020 C 
ATOM     37  C   UNL A   1     -24.829  -0.715  33.905  0.00  0.00    +0.089 C 
ATOM     38  N   UNL A   1     -24.758  -1.481  32.646  0.00  0.00    -0.218 NA
ENDBRANCH  27  34
ENDBRANCH   8  27
BRANCH   7  39
ATOM     39  O   UNL A   1     -23.753   1.989  29.705  0.00  0.00    -0.268 OA
BRANCH  39  40
ATOM     40  C   UNL A   1     -23.797   2.989  30.678  0.00  0.00    +0.059 C 
ATOM     41  C   UNL A   1     -24.140   3.748  31.578  0.00  0.00    -0.026 C 
BRANCH  41  43
ATOM     42  O   UNL A   1     -24.005   5.753  32.783  0.00  0.00    -0.205 OA
ATOM     43  C   UNL A   1     -24.637   4.503  32.672  0.00  0.00    +0.260 C 
ENDBRANCH  41  43
ENDBRANCH  39  40
ENDBRANCH   7  39
TORSDOF 12
