REMARK  Name = No_4782-gen_results/8p0m/2024-11-27-11-27-31/
REMARK  3 active torsions:
REMARK  status: ('A' for Active; 'I' for Inactive)
REMARK    1  A    between atoms: P_1  and  O_2
REMARK    2  A    between atoms: O_2  and  C_6
REMARK    3  A    between atoms: C_6  and  C_7
REMARK                            x       y       z     vdW  Elec       q    Type
REMARK                         _______ _______ _______ _____ _____    ______ ____
ROOT
ATOM      1  C   UNL A   1     -27.084   0.487  27.288  0.00  0.00    +0.180 C 
ENDROOT
BRANCH   1   2
ATOM      2  C   UNL A   1     -25.762   0.736  26.833  0.00  0.00    +0.008 A 
ATOM      3  C   UNL A   1     -25.520   1.517  25.765  0.00  0.00    -0.002 A 
ATOM      4  C   UNL A   1     -24.672  -0.006  27.432  0.00  0.00    -0.002 A 
ATOM      5  C   UNL A   1     -24.094   1.648  25.404  0.00  0.00    -0.000 A 
ATOM      6  C   UNL A   1     -23.324   0.395  27.287  0.00  0.00    -0.000 A 
ATOM      7  C   UNL A   1     -23.046   1.291  26.245  0.00  0.00    -0.000 A 
ENDBRANCH   1   2
BRANCH   1   8
ATOM      8  O   UNL A   1     -27.240   0.061  28.428  0.00  0.00    -0.265 OA
BRANCH   8   9
ATOM      9  P   UNL A   1     -27.951  -0.579  29.040  0.00  0.00    +0.533 P 
ATOM     10  O   UNL A   1     -27.244  -1.982  29.377  0.00  0.00    -0.222 OA
ATOM     11  O   UNL A   1     -28.188  -0.014  30.526  0.00  0.00    -0.115 OA
ATOM     12  O   UNL A   1     -29.399  -0.923  28.648  0.00  0.00    -0.115 OA
ENDBRANCH   8   9
ENDBRANCH   1   8
TORSDOF 3
