MODEL 4782
MODEL 1
REMARK VINA RESULT:    -5.514      0.000      0.000
REMARK INTER + INTRA:          -6.571
REMARK INTER:                  -6.482
REMARK INTRA:                  -0.089
REMARK UNBOUND:                -0.089
REMARK  Name = No_4782-gen_results/8p0m/2024-11-27-11-27-31/
REMARK  3 active torsions:
REMARK  status: ('A' for Active; 'I' for Inactive)
REMARK    1  A    between atoms: P_1  and  O_2
REMARK    2  A    between atoms: O_2  and  C_6
REMARK    3  A    between atoms: C_6  and  C_7
REMARK                            x       y       z     vdW  Elec       q    Type
REMARK                         _______ _______ _______ _____ _____    ______ ____
ROOT
ATOM      1  C   UNL A   1     -29.125 -10.850  32.454  0.00  0.00    +0.180 C 
ENDROOT
BRANCH   1   2
ATOM      2  C   UNL A   1     -29.347 -10.910  31.052  0.00  0.00    +0.008 A 
ATOM      3  C   UNL A   1     -28.670 -11.767  30.267  0.00  0.00    -0.002 A 
ATOM      4  C   UNL A   1     -30.196  -9.907  30.442  0.00  0.00    -0.002 A 
ATOM      5  C   UNL A   1     -28.996 -11.680  28.830  0.00  0.00    -0.000 A 
ATOM      6  C   UNL A   1     -30.732 -10.069  29.144  0.00  0.00    -0.000 A 
ATOM      7  C   UNL A   1     -30.117 -11.028  28.327  0.00  0.00    -0.000 A 
ENDBRANCH   1   2
BRANCH   1   8
ATOM      8  O   UNL A   1     -28.091 -11.334  32.903  0.00  0.00    -0.265 OA
BRANCH   8   9
ATOM      9  P   UNL A   1     -27.685 -11.828  33.842  0.00  0.00    +0.533 P 
ATOM     10  O   UNL A   1     -26.526 -12.864  33.435  0.00  0.00    -0.222 OA
ATOM     11  O   UNL A   1     -26.851 -10.819  34.775  0.00  0.00    -0.115 OA
ATOM     12  O   UNL A   1     -28.532 -12.544  34.908  0.00  0.00    -0.115 OA
ENDBRANCH   8   9
ENDBRANCH   1   8
TORSDOF 3
ENDMDL
ENDMDL
