REMARK  Name = No_4783-gen_results/8p0m/2024-11-27-11-27-31/
REMARK  0 active torsions:
REMARK  status: ('A' for Active; 'I' for Inactive)
REMARK                            x       y       z     vdW  Elec       q    Type
REMARK                         _______ _______ _______ _____ _____    ______ ____
ROOT
ATOM      1  C   UNL A   1     -28.016  -0.814  28.878  0.00  0.00    +0.001 A 
ATOM      2  C   UNL A   1     -27.064  -0.119  28.608  0.00  0.00    -0.000 A 
ATOM      3  C   UNL A   1     -26.972   0.714  27.506  0.00  0.00    -0.003 A 
ATOM      4  C   UNL A   1     -28.105   0.774  26.642  0.00  0.00    -0.008 A 
ATOM      5  C   UNL A   1     -29.201   0.104  27.053  0.00  0.00    +0.051 A 
ATOM      6  C   UNL A   1     -29.210  -0.603  28.185  0.00  0.00    +0.015 A 
ATOM      7  N   UNL A   1     -30.308   0.222  26.222  0.00  0.00    -0.246 N 
ATOM      8  C   UNL A   1     -30.238   0.236  24.922  0.00  0.00    +0.100 C 
ATOM      9  C   UNL A   1     -29.159   1.008  24.407  0.00  0.00    +0.027 C 
ATOM     10  C   UNL A   1     -27.887   1.000  25.188  0.00  0.00    +0.029 C 
ATOM     11  C   UNL A   1     -31.614  -0.320  26.721  0.00  0.00    +0.314 C 
ATOM     12 CL   UNL A   1     -32.723   0.219  26.172  0.00  0.00    -0.022 Cl
ATOM     13  O   UNL A   1     -31.555  -1.203  27.664  0.00  0.00    -0.256 OA
ENDROOT
TORSDOF 0
