MODEL 4784
MODEL 1
REMARK VINA RESULT:    -6.249      0.000      0.000
REMARK INTER + INTRA:          -6.846
REMARK INTER:                  -6.615
REMARK INTRA:                  -0.231
REMARK UNBOUND:                -0.231
REMARK  Name = No_4784-gen_results/8p0m/2024-11-27-11-27-31/
REMARK  1 active torsions:
REMARK  status: ('A' for Active; 'I' for Inactive)
REMARK    1  A    between atoms: C_11  and  C_12
REMARK                            x       y       z     vdW  Elec       q    Type
REMARK                         _______ _______ _______ _____ _____    ______ ____
ROOT
ATOM      1  O   UNL A   1     -26.955   0.143  31.060  0.00  0.00    -0.273 OA
ATOM      2  C   UNL A   1     -26.256  -0.692  30.684  0.00  0.00    +0.246 C 
ATOM      3  C   UNL A   1     -26.690  -1.997  30.565  0.00  0.00    +0.113 C 
ATOM      4  N   UNL A   1     -24.815  -0.498  30.439  0.00  0.00    -0.198 NA
ATOM      5  C   UNL A   1     -25.908  -2.903  29.867  0.00  0.00    -0.015 A 
ATOM      6  C   UNL A   1     -26.261  -4.293  29.678  0.00  0.00    -0.004 A 
ATOM      7  C   UNL A   1     -25.284  -5.229  29.204  0.00  0.00    -0.000 A 
ATOM      8  C   UNL A   1     -24.153  -4.677  28.641  0.00  0.00    -0.000 A 
ATOM      9  C   UNL A   1     -23.786  -3.388  28.735  0.00  0.00    -0.003 A 
ATOM     10  C   UNL A   1     -24.624  -2.512  29.397  0.00  0.00    -0.002 A 
ATOM     11  C   UNL A   1     -24.105  -1.345  29.726  0.00  0.00    +0.139 C 
ENDROOT
BRANCH  11  12
ATOM     12  C   UNL A   1     -23.361  -0.613  28.778  0.00  0.00    -0.005 C 
ATOM     13  C   UNL A   1     -22.747   0.428  28.798  0.00  0.00    -0.028 C 
ATOM     14  C   UNL A   1     -22.182   1.181  27.735  0.00  0.00    +0.030 C 
ENDBRANCH  11  12
TORSDOF 1
ENDMDL
ENDMDL
