MODEL 4785
MODEL 1
REMARK VINA RESULT:    -6.602      0.000      0.000
REMARK INTER + INTRA:          -8.280
REMARK INTER:                  -7.760
REMARK INTRA:                  -0.520
REMARK UNBOUND:                -0.520
REMARK  Name = No_4785-gen_results/8p0m/2024-11-27-11-27-31/
REMARK  3 active torsions:
REMARK  status: ('A' for Active; 'I' for Inactive)
REMARK    1  A    between atoms: C_4  and  C_15
REMARK    2  A    between atoms: C_6  and  C_7
REMARK    3  A    between atoms: C_15  and  C_17
REMARK                            x       y       z     vdW  Elec       q    Type
REMARK                         _______ _______ _______ _____ _____    ______ ____
ROOT
ATOM      1  C   UNL A   1     -24.862  -0.007  26.665  0.00  0.00    +0.004 A 
ATOM      2  C   UNL A   1     -25.045  -0.857  27.506  0.00  0.00    -0.000 A 
ATOM      3  C   UNL A   1     -24.393  -0.805  28.733  0.00  0.00    -0.004 A 
ATOM      4  C   UNL A   1     -24.525  -1.793  29.842  0.00  0.00    -0.015 A 
ATOM      5  C   UNL A   1     -23.827  -1.733  31.098  0.00  0.00    -0.004 A 
ATOM      6  C   UNL A   1     -23.803   0.998  26.850  0.00  0.00    +0.071 A 
ATOM      7  C   UNL A   1     -23.131  -0.494  31.252  0.00  0.00    -0.000 A 
ATOM      8  C   UNL A   1     -23.035   0.475  30.307  0.00  0.00    -0.000 A 
ATOM      9  C   UNL A   1     -23.628   0.363  29.106  0.00  0.00    -0.000 A 
ATOM     10  C   UNL A   1     -23.263   1.216  28.056  0.00  0.00    +0.004 A 
ENDROOT
BRANCH   6  11
ATOM     11  C   UNL A   1     -23.530   1.988  25.830  0.00  0.00    +0.419 C 
ATOM     12  F   UNL A   1     -24.144   2.939  25.814  0.00  0.00    -0.166 F 
ATOM     13  F   UNL A   1     -22.176   2.237  25.723  0.00  0.00    -0.166 F 
ATOM     14  F   UNL A   1     -23.743   1.245  24.604  0.00  0.00    -0.166 F 
ENDBRANCH   6  11
BRANCH   4  15
ATOM     15  C   UNL A   1     -25.393  -2.996  29.664  0.00  0.00    +0.087 C 
ATOM     16  C   UNL A   1     -24.837  -4.092  29.080  0.00  0.00    +0.013 C 
BRANCH  15  17
ATOM     17  C   UNL A   1     -26.741  -2.962  30.118  0.00  0.00    +0.211 C 
ATOM     18  O   UNL A   1     -27.515  -3.791  29.833  0.00  0.00    -0.288 OA
ENDBRANCH  15  17
ENDBRANCH   4  15
TORSDOF 3
ENDMDL
ENDMDL
