MODEL 4786
MODEL 1
REMARK VINA RESULT:    -5.986      0.000      0.000
REMARK INTER + INTRA:          -7.861
REMARK INTER:                  -7.386
REMARK INTRA:                  -0.475
REMARK UNBOUND:                -0.475
REMARK  Name = No_4786-gen_results/8p0m/2024-11-27-11-27-31/
REMARK  4 active torsions:
REMARK  status: ('A' for Active; 'I' for Inactive)
REMARK    1  A    between atoms: C_3  and  C_7
REMARK    2  A    between atoms: C_7  and  C_8
REMARK    3  A    between atoms: C_9  and  C_10
REMARK    4  A    between atoms: C_11  and  C_12
REMARK                            x       y       z     vdW  Elec       q    Type
REMARK                         _______ _______ _______ _____ _____    ______ ____
ROOT
ATOM      1  C   UNL A   1     -24.710  -1.127  29.418  0.00  0.00    +0.052 C 
ENDROOT
BRANCH   1   4
ATOM      2  C   UNL A   1     -26.011  -3.267  29.839  0.00  0.00    -0.004 A 
ATOM      3  C   UNL A   1     -26.128  -4.299  29.662  0.00  0.00    -0.000 A 
ATOM      4  C   UNL A   1     -24.844  -2.655  29.269  0.00  0.00    -0.018 A 
ATOM      5  C   UNL A   1     -23.864  -3.354  28.689  0.00  0.00    -0.004 A 
ATOM      6  C   UNL A   1     -24.067  -4.701  28.569  0.00  0.00    -0.000 A 
ATOM      7  C   UNL A   1     -25.221  -5.252  29.058  0.00  0.00    -0.000 A 
ENDBRANCH   1   4
BRANCH   1   8
ATOM      8  C   UNL A   1     -23.494  -0.515  28.834  0.00  0.00    -0.021 C 
ATOM      9  C   UNL A   1     -23.479   0.796  28.479  0.00  0.00    -0.004 C 
BRANCH   9  10
ATOM     10  C   UNL A   1     -22.353   1.338  27.823  0.00  0.00    -0.000 C 
ATOM     11  C   UNL A   1     -22.444   1.877  26.480  0.00  0.00    -0.000 C 
BRANCH  11  12
ATOM     12  C   UNL A   1     -23.750   2.171  26.016  0.00  0.00    -0.000 C 
ATOM     13  C   UNL A   1     -24.248   3.461  25.951  0.00  0.00    -0.000 C 
ENDBRANCH  11  12
ENDBRANCH   9  10
ENDBRANCH   1   8
TORSDOF 4
ENDMDL
ENDMDL
