REMARK  Name = outputs/IAG933/test6/raw/output_4786_IAG933_linker_design_.xyz
REMARK  10 active torsions:
REMARK  status: ('A' for Active; 'I' for Inactive)
REMARK    1  A    between atoms: C_1  and  C_2
REMARK    2  A    between atoms: C_1  and  C_8
REMARK    3  A    between atoms: C_1  and  O_34
REMARK    4  A    between atoms: C_13  and  C_36
REMARK    5  A    between atoms: C_14  and  C_15
REMARK    6  A    between atoms: C_21  and  O_22
REMARK    7  A    between atoms: O_22  and  C_23
REMARK    8  A    between atoms: C_23  and  C_24
REMARK    9  A    between atoms: N_29  and  C_41
REMARK   10  A    between atoms: O_34  and  C_42
REMARK                            x       y       z     vdW  Elec       q    Type
REMARK                         _______ _______ _______ _____ _____    ______ ____
ROOT
ATOM      1  C   UNL A   1     -22.401   0.838  28.295  0.00  0.00    +0.177 C 
ATOM      2  C   UNL A   1     -24.649   1.547  27.151  0.00  0.00    +0.049 C 
ATOM      3  F   UNL A   1     -21.176   0.519  28.671  0.00  0.00    -0.201 F 
ATOM      4  F   UNL A   1     -23.250   2.893  25.553  0.00  0.00    -0.204 F 
ATOM      5  C   UNL A   1     -22.300   1.546  27.174  0.00  0.00    +0.062 C 
ATOM      6  C   UNL A   1     -24.883   1.054  28.361  0.00  0.00    +0.113 C 
ATOM      7  C   UNL A   1     -23.640   0.499  28.918  0.00  0.00    +0.181 C 
ATOM      8  C   UNL A   1     -23.391   2.000  26.635  0.00  0.00    +0.144 C 
ENDROOT
BRANCH   2   9
ATOM      9  C   UNL A   1     -25.688   1.614  26.461  0.00  0.00    +0.042 C 
ATOM     10  C   UNL A   1     -26.250   2.920  26.395  0.00  0.00    +0.077 C 
ATOM     11  C   UNL A   1     -27.438   3.091  25.645  0.00  0.00    +0.107 C 
ATOM     12  N   UNL A   1     -28.075   2.089  25.003  0.00  0.00    -0.208 NA
ATOM     13  C   UNL A   1     -27.543   0.849  25.079  0.00  0.00    +0.253 C 
ATOM     14  C   UNL A   1     -26.354   0.576  25.777  0.00  0.00    +0.193 C 
ATOM     15  F   UNL A   1     -25.860  -0.681  25.795  0.00  0.00    -0.199 F 
BRANCH  10  16
ATOM     16  C   UNL A   1     -25.642   4.093  27.123  0.00  0.00    +0.266 C 
ATOM     17  N   UNL A   1     -25.614   5.252  26.449  0.00  0.00    -0.200 NA
ATOM     18  C   UNL A   1     -25.026   6.479  26.963  0.00  0.00    +0.139 C 
ATOM     19  O   UNL A   1     -25.143   3.966  28.243  0.00  0.00    -0.268 OA
ENDBRANCH  10  16
BRANCH  13  20
ATOM     20  O   UNL A   1     -28.193  -0.208  24.477  0.00  0.00    -0.456 OA
BRANCH  20  21
ATOM     21  C   UNL A   1     -29.460   0.005  23.866  0.00  0.00    +0.243 C 
BRANCH  21  22
ATOM     22  C   UNL A   1     -30.065  -1.377  23.573  0.00  0.00    +0.229 C 
ATOM     23  O   UNL A   1     -30.729  -1.878  24.721  0.00  0.00    -0.216 OA
ENDBRANCH  21  22
ENDBRANCH  20  21
ENDBRANCH  13  20
ENDBRANCH   2   9
BRANCH   6  25
ATOM     24  O   UNL A   1     -28.221   0.368  28.949  0.00  0.00    -0.250 OA
ATOM     25  N   UNL A   1     -26.097   1.059  28.832  0.00  0.00    -0.159 NA
ATOM     26  C   UNL A   1     -28.600   3.418  29.163  0.00  0.00    +0.097 C 
ATOM     27  C   UNL A   1     -28.416   4.186  30.459  0.00  0.00    +0.043 C 
ATOM     28  C   UNL A   1     -27.142   3.468  30.895  0.00  0.00    +0.097 C 
ATOM     29  N   UNL A   1     -27.633   2.521  29.732  0.00  0.00    -0.263 N 
ATOM     30  C   UNL A   1     -27.343   1.281  29.145  0.00  0.00    +0.328 C 
ENDBRANCH   6  25
BRANCH   7  31
ATOM     31  O   UNL A   1     -23.547  -0.398  29.940  0.00  0.00    -0.470 OA
BRANCH  31  32
ATOM     32  C   UNL A   1     -24.855  -1.012  30.143  0.00  0.00    +0.204 C 
BRANCH  32  33
ATOM     33  C   UNL A   1     -24.973  -2.505  29.788  0.00  0.00    +0.019 C 
ATOM     34  C   UNL A   1     -23.906  -3.173  29.146  0.00  0.00    -0.001 C 
ATOM     35  C   UNL A   1     -23.989  -4.549  28.853  0.00  0.00    -0.000 C 
ATOM     36  C   UNL A   1     -25.137  -5.280  29.205  0.00  0.00    -0.000 C 
ATOM     37  C   UNL A   1     -26.232  -4.611  29.784  0.00  0.00    -0.000 C 
ATOM     38  C   UNL A   1     -26.155  -3.232  30.065  0.00  0.00    -0.001 C 
ENDBRANCH  32  33
BRANCH  32  39
ATOM     39  C   UNL A   1     -25.387  -0.679  31.571  0.00  0.00    +0.117 C 
ATOM     40  C   UNL A   1     -25.189   0.773  32.028  0.00  0.00    +0.023 C 
ATOM     41  C   UNL A   1     -25.336   0.684  33.544  0.00  0.00    +0.020 C 
ATOM     42  C   UNL A   1     -24.829  -0.715  33.905  0.00  0.00    +0.089 C 
ATOM     43  N   UNL A   1     -24.758  -1.481  32.646  0.00  0.00    -0.215 NA
ENDBRANCH  32  39
ENDBRANCH  31  32
ENDBRANCH   7  31
TORSDOF 10
