REMARK  Name = No_4787-gen_results/8p0m/2024-11-27-11-27-31/
REMARK  6 active torsions:
REMARK  status: ('A' for Active; 'I' for Inactive)
REMARK    1  A    between atoms: N_4  and  C_8
REMARK    2  A    between atoms: C_6  and  C_32
REMARK    3  A    between atoms: C_14  and  C_15
REMARK    4  A    between atoms: C_16  and  C_17
REMARK    5  A    between atoms: C_17  and  C_18
REMARK    6  A    between atoms: C_17  and  O_29
REMARK                            x       y       z     vdW  Elec       q    Type
REMARK                         _______ _______ _______ _____ _____    ______ ____
ROOT
ATOM      1  O   UNL A   1     -28.123  -1.335  28.487  0.00  0.00    -0.266 OA
ATOM      2  C   UNL A   1     -27.481  -0.404  28.709  0.00  0.00    +0.288 C 
ATOM      3  C   UNL A   1     -26.380  -0.087  27.939  0.00  0.00    +0.229 C 
ATOM      4  N   UNL A   1     -27.899   0.646  29.632  0.00  0.00    -0.250 N 
ATOM      5  C   UNL A   1     -25.374   0.747  28.567  0.00  0.00    +0.101 C 
ATOM      6  C   UNL A   1     -25.851   1.882  29.317  0.00  0.00    +0.230 C 
ATOM      7  C   UNL A   1     -26.970   1.533  30.166  0.00  0.00    +0.141 C 
ATOM      8  C   UNL A   1     -24.302   1.242  27.481  0.00  0.00    +0.032 C 
ATOM      9  C   UNL A   1     -24.577  -0.087  29.580  0.00  0.00    +0.011 C 
ATOM     10  C   UNL A   1     -23.200  -0.103  29.508  0.00  0.00    +0.001 C 
ATOM     11  C   UNL A   1     -23.008   0.555  27.613  0.00  0.00    +0.005 C 
ATOM     12  C   UNL A   1     -22.441  -0.023  28.451  0.00  0.00    +0.000 C 
ATOM     13  F   UNL A   1     -26.325   2.852  28.334  0.00  0.00    -0.228 F 
ATOM     14  O   UNL A   1     -25.921  -0.978  27.201  0.00  0.00    -0.286 OA
ENDROOT
BRANCH   4  15
ATOM     15  C   UNL A   1     -29.097   0.342  30.328  0.00  0.00    +0.054 A 
ATOM     16  C   UNL A   1     -29.069  -0.381  31.436  0.00  0.00    +0.015 A 
ATOM     17  C   UNL A   1     -30.203  -0.731  32.148  0.00  0.00    +0.001 A 
ATOM     18  C   UNL A   1     -31.433  -0.324  31.697  0.00  0.00    +0.000 A 
ATOM     19  C   UNL A   1     -31.467   0.428  30.522  0.00  0.00    +0.001 A 
ATOM     20  C   UNL A   1     -30.322   0.767  29.852  0.00  0.00    +0.015 A 
ENDBRANCH   4  15
BRANCH   6  21
ATOM     21  C   UNL A   1     -24.760   2.669  30.071  0.00  0.00    +0.292 C 
ATOM     22  O   UNL A   1     -23.780   2.202  30.371  0.00  0.00    -0.269 OA
ATOM     23  N   UNL A   1     -25.055   4.044  30.393  0.00  0.00    -0.085 NA
ENDBRANCH   6  21
BRANCH   8  24
ATOM     24  C   UNL A   1     -24.541   2.231  26.621  0.00  0.00    -0.026 C 
ATOM     25  C   UNL A   1     -25.627   2.971  26.576  0.00  0.00    +0.019 C 
BRANCH  25  26
ATOM     26  C   UNL A   1     -26.713   2.735  26.953  0.00  0.00    +0.234 C 
ATOM     27 CL   UNL A   1     -27.280   2.406  27.928  0.00  0.00    -0.074 Cl
BRANCH  26  28
ATOM     28  C   UNL A   1     -27.799   3.747  26.742  0.00  0.00    +0.024 A 
ATOM     29  C   UNL A   1     -28.500   4.124  27.441  0.00  0.00    -0.000 A 
ATOM     30  C   UNL A   1     -29.448   5.193  27.209  0.00  0.00    -0.000 A 
ATOM     31  C   UNL A   1     -29.593   5.540  25.869  0.00  0.00    -0.000 A 
ATOM     32  C   UNL A   1     -28.818   4.953  24.971  0.00  0.00    -0.000 A 
ATOM     33  C   UNL A   1     -27.870   4.039  25.345  0.00  0.00    -0.000 A 
ENDBRANCH  26  28
BRANCH  26  34
ATOM     34  O   UNL A   1     -27.270   1.511  26.762  0.00  0.00    -0.161 OA
ATOM     35  F   UNL A   1     -28.060   0.660  26.685  0.00  0.00    -0.045 F 
ENDBRANCH  26  34
ENDBRANCH  25  26
ENDBRANCH   8  24
TORSDOF 6
