MODEL 4787
MODEL 1
REMARK VINA RESULT:    -8.171      0.000      0.000
REMARK INTER + INTRA:         -12.238
REMARK INTER:                 -11.037
REMARK INTRA:                  -1.201
REMARK UNBOUND:                -1.201
REMARK  Name = No_4787-gen_results/8p0m/2024-11-27-11-27-31/
REMARK  6 active torsions:
REMARK  status: ('A' for Active; 'I' for Inactive)
REMARK    1  A    between atoms: N_4  and  C_8
REMARK    2  A    between atoms: C_6  and  C_32
REMARK    3  A    between atoms: C_14  and  C_15
REMARK    4  A    between atoms: C_16  and  C_17
REMARK    5  A    between atoms: C_17  and  C_18
REMARK    6  A    between atoms: C_17  and  O_29
REMARK                            x       y       z     vdW  Elec       q    Type
REMARK                         _______ _______ _______ _____ _____    ______ ____
ROOT
ATOM      1  O   UNL A   1     -28.963   0.008  27.279  0.00  0.00    -0.266 OA
ATOM      2  C   UNL A   1     -27.965   0.572  27.158  0.00  0.00    +0.288 C 
ATOM      3  C   UNL A   1     -26.971   0.494  28.113  0.00  0.00    +0.229 C 
ATOM      4  N   UNL A   1     -27.555   1.197  25.905  0.00  0.00    -0.250 N 
ATOM      5  C   UNL A   1     -26.021   1.588  28.144  0.00  0.00    +0.101 C 
ATOM      6  C   UNL A   1     -25.512   2.039  26.872  0.00  0.00    +0.230 C 
ATOM      7  C   UNL A   1     -26.565   2.174  25.889  0.00  0.00    +0.141 C 
ATOM      8  C   UNL A   1     -24.792   1.233  29.111  0.00  0.00    +0.032 C 
ATOM      9  C   UNL A   1     -26.686   2.826  28.762  0.00  0.00    +0.011 C 
ATOM     10  C   UNL A   1     -26.067   3.472  29.812  0.00  0.00    +0.001 C 
ATOM     11  C   UNL A   1     -24.838   1.979  30.378  0.00  0.00    +0.005 C 
ATOM     12  C   UNL A   1     -25.335   2.961  30.762  0.00  0.00    +0.000 C 
ATOM     13  F   UNL A   1     -24.599   0.999  26.406  0.00  0.00    -0.228 F 
ATOM     14  O   UNL A   1     -27.287   0.056  29.234  0.00  0.00    -0.286 OA
ENDROOT
BRANCH   4  15
ATOM     15  C   UNL A   1     -28.558   1.162  24.902  0.00  0.00    +0.054 A 
ATOM     16  C   UNL A   1     -29.241   2.253  24.592  0.00  0.00    +0.015 A 
ATOM     17  C   UNL A   1     -30.246   2.280  23.641  0.00  0.00    +0.001 A 
ATOM     18  C   UNL A   1     -30.574   1.126  22.976  0.00  0.00    +0.000 A 
ATOM     19  C   UNL A   1     -29.864  -0.028  23.309  0.00  0.00    +0.001 A 
ATOM     20  C   UNL A   1     -28.866  -0.013  24.246  0.00  0.00    +0.015 A 
ENDBRANCH   4  15
BRANCH   6  21
ATOM     21  C   UNL A   1     -24.602   3.282  26.939  0.00  0.00    +0.292 C 
ATOM     22  O   UNL A   1     -23.547   3.236  27.330  0.00  0.00    -0.269 OA
ATOM     23  N   UNL A   1     -25.171   4.529  26.487  0.00  0.00    -0.085 NA
ENDBRANCH   6  21
BRANCH   8  24
ATOM     24  C   UNL A   1     -23.798   0.420  28.756  0.00  0.00    -0.026 C 
ATOM     25  C   UNL A   1     -23.699  -0.857  29.055  0.00  0.00    +0.019 C 
BRANCH  25  26
ATOM     26  C   UNL A   1     -24.175  -1.460  29.941  0.00  0.00    +0.234 C 
ATOM     27 CL   UNL A   1     -24.976  -1.336  30.792  0.00  0.00    -0.074 Cl
BRANCH  26  28
ATOM     28  C   UNL A   1     -24.764  -2.813  29.675  0.00  0.00    +0.024 A 
ATOM     29  C   UNL A   1     -25.667  -3.228  30.043  0.00  0.00    -0.000 A 
ATOM     30  C   UNL A   1     -26.246  -4.496  29.653  0.00  0.00    -0.000 A 
ATOM     31  C   UNL A   1     -25.381  -5.317  28.936  0.00  0.00    -0.000 A 
ATOM     32  C   UNL A   1     -24.186  -4.851  28.607  0.00  0.00    -0.000 A 
ATOM     33  C   UNL A   1     -23.809  -3.578  28.938  0.00  0.00    -0.000 A 
ENDBRANCH  26  28
BRANCH  26  34
ATOM     34  O   UNL A   1     -23.563  -1.526  31.152  0.00  0.00    -0.161 OA
ATOM     35  F   UNL A   1     -22.790  -1.362  32.006  0.00  0.00    -0.045 F 
ENDBRANCH  26  34
ENDBRANCH  25  26
ENDBRANCH   8  24
TORSDOF 6
ENDMDL
ENDMDL
