MODEL 4788
MODEL 1
REMARK VINA RESULT:    -4.897      0.000      0.000
REMARK INTER + INTRA:          -4.897
REMARK INTER:                  -4.897
REMARK INTRA:                   0.000
REMARK UNBOUND:                 0.000
REMARK  Name = No_4788-gen_results/8p0m/2024-11-27-11-27-31/
REMARK  0 active torsions:
REMARK  status: ('A' for Active; 'I' for Inactive)
REMARK                            x       y       z     vdW  Elec       q    Type
REMARK                         _______ _______ _______ _____ _____    ______ ____
ROOT
ATOM      1  C   UNL A   1     -10.417  -9.426  18.855  0.00  0.00    +0.042 A 
ATOM      2  C   UNL A   1     -10.130 -10.124  18.119  0.00  0.00    +0.196 A 
ATOM      3  C   UNL A   1      -9.430  -9.136  19.907  0.00  0.00    +0.003 A 
ATOM      4  C   UNL A   1      -8.362  -9.736  19.947  0.00  0.00    +0.000 A 
ATOM      5  C   UNL A   1      -8.877 -10.869  17.893  0.00  0.00    +0.042 A 
ATOM      6  C   UNL A   1      -7.984 -10.654  18.897  0.00  0.00    +0.003 A 
ATOM      7  O   UNL A   1     -11.059 -10.403  17.017  0.00  0.00    -0.287 OA
ENDROOT
TORSDOF 0
ENDMDL
ENDMDL
