REMARK  Name = No_4789-gen_results/8p0m/2024-11-27-11-27-31/
REMARK  3 active torsions:
REMARK  status: ('A' for Active; 'I' for Inactive)
REMARK    1  A    between atoms: C_2  and  O_11
REMARK    2  A    between atoms: C_3  and  C_7
REMARK    3  A    between atoms: O_11  and  C_12
REMARK                            x       y       z     vdW  Elec       q    Type
REMARK                         _______ _______ _______ _____ _____    ______ ____
ROOT
ATOM      1  C   UNL A   1     -28.016  -0.814  28.878  0.00  0.00    +0.041 A 
ATOM      2  C   UNL A   1     -28.469  -0.785  29.829  0.00  0.00    +0.146 A 
ATOM      3  C   UNL A   1     -27.136   0.236  28.535  0.00  0.00    +0.074 A 
ATOM      4  C   UNL A   1     -26.875   1.282  29.398  0.00  0.00    +0.004 A 
ATOM      5  C   UNL A   1     -28.361   0.199  30.924  0.00  0.00    +0.037 A 
ATOM      6  C   UNL A   1     -27.528   1.223  30.636  0.00  0.00    +0.003 A 
ENDROOT
BRANCH   3   7
ATOM      7  C   UNL A   1     -26.399   0.295  27.228  0.00  0.00    +0.419 C 
ATOM      8  F   UNL A   1     -26.235   1.527  26.960  0.00  0.00    -0.166 F 
ATOM      9  F   UNL A   1     -25.236  -0.348  27.310  0.00  0.00    -0.166 F 
ATOM     10  F   UNL A   1     -27.150  -0.208  26.206  0.00  0.00    -0.166 F 
ENDBRANCH   3   7
BRANCH   2  11
ATOM     11  O   UNL A   1     -29.311  -1.902  30.268  0.00  0.00    -0.444 OA
BRANCH  11  12
ATOM     12  C   UNL A   1     -28.842  -3.162  30.544  0.00  0.00    +0.266 C 
ATOM     13  C   UNL A   1     -29.779  -4.202  30.287  0.00  0.00    +0.425 C 
ATOM     14  O   UNL A   1     -30.262  -4.384  29.279  0.00  0.00    -0.237 OA
ATOM     15  O   UNL A   1     -29.591  -5.314  31.160  0.00  0.00    -0.237 OA
ENDBRANCH  11  12
ENDBRANCH   2  11
TORSDOF 3
