MODEL 4789
MODEL 1
REMARK VINA RESULT:    -5.913      0.000      0.000
REMARK INTER + INTRA:          -7.302
REMARK INTER:                  -6.950
REMARK INTRA:                  -0.352
REMARK UNBOUND:                -0.352
REMARK  Name = No_4789-gen_results/8p0m/2024-11-27-11-27-31/
REMARK  3 active torsions:
REMARK  status: ('A' for Active; 'I' for Inactive)
REMARK    1  A    between atoms: C_2  and  O_11
REMARK    2  A    between atoms: C_3  and  C_7
REMARK    3  A    between atoms: O_11  and  C_12
REMARK                            x       y       z     vdW  Elec       q    Type
REMARK                         _______ _______ _______ _____ _____    ______ ____
ROOT
ATOM      1  C   UNL A   1     -24.198  -0.180  27.752  0.00  0.00    +0.041 A 
ATOM      2  C   UNL A   1     -24.048  -0.959  28.446  0.00  0.00    +0.146 A 
ATOM      3  C   UNL A   1     -23.157   0.759  27.581  0.00  0.00    +0.074 A 
ATOM      4  C   UNL A   1     -21.980   0.684  28.299  0.00  0.00    +0.004 A 
ATOM      5  C   UNL A   1     -22.903  -1.267  29.325  0.00  0.00    +0.037 A 
ATOM      6  C   UNL A   1     -21.883  -0.390  29.193  0.00  0.00    +0.003 A 
ENDROOT
BRANCH   3   7
ATOM      7  C   UNL A   1     -23.229   1.893  26.600  0.00  0.00    +0.419 C 
ATOM      8  F   UNL A   1     -23.709   2.888  27.230  0.00  0.00    -0.166 F 
ATOM      9  F   UNL A   1     -22.025   2.165  26.099  0.00  0.00    -0.166 F 
ATOM     10  F   UNL A   1     -24.114   1.632  25.595  0.00  0.00    -0.166 F 
ENDBRANCH   3   7
BRANCH   2  11
ATOM     11  O   UNL A   1     -25.057  -2.013  28.585  0.00  0.00    -0.444 OA
BRANCH  11  12
ATOM     12  C   UNL A   1     -24.981  -3.042  29.490  0.00  0.00    +0.266 C 
ATOM     13  C   UNL A   1     -24.766  -4.321  28.903  0.00  0.00    +0.425 C 
ATOM     14  O   UNL A   1     -23.884  -4.572  28.238  0.00  0.00    -0.237 OA
ATOM     15  O   UNL A   1     -25.352  -5.366  29.676  0.00  0.00    -0.237 OA
ENDBRANCH  11  12
ENDBRANCH   2  11
TORSDOF 3
ENDMDL
ENDMDL
