MODEL 4790
MODEL 1
REMARK VINA RESULT:    -6.717      0.000      0.000
REMARK INTER + INTRA:          -8.226
REMARK INTER:                  -7.503
REMARK INTRA:                  -0.724
REMARK UNBOUND:                -0.724
REMARK  Name = No_4790-gen_results/8p0m/2024-11-27-11-27-31/
REMARK  2 active torsions:
REMARK  status: ('A' for Active; 'I' for Inactive)
REMARK    1  A    between atoms: C_3  and  C_7
REMARK    2  A    between atoms: C_8  and  C_13
REMARK                            x       y       z     vdW  Elec       q    Type
REMARK                         _______ _______ _______ _____ _____    ______ ____
ROOT
ATOM      1  C   UNL A   1     -24.655  -2.495  29.157  0.00  0.00    +0.007 A 
ATOM      2  C   UNL A   1     -25.882  -2.757  29.640  0.00  0.00    +0.080 A 
ATOM      3  C   UNL A   1     -26.340  -4.120  29.742  0.00  0.00    +0.007 A 
ATOM      4  C   UNL A   1     -25.453  -5.126  29.272  0.00  0.00    +0.000 A 
ATOM      5  C   UNL A   1     -23.912  -3.606  28.620  0.00  0.00    +0.000 A 
ATOM      6  C   UNL A   1     -24.269  -4.879  28.747  0.00  0.00    +0.000 A 
ENDROOT
BRANCH   1   9
ATOM      7  C   UNL A   1     -23.919   0.686  27.480  0.00  0.00    +0.000 A 
ATOM      8  C   UNL A   1     -24.373  -0.404  27.741  0.00  0.00    +0.001 A 
ATOM      9  C   UNL A   1     -24.187  -1.081  28.934  0.00  0.00    +0.011 A 
ATOM     10  C   UNL A   1     -23.424  -0.421  29.942  0.00  0.00    +0.058 A 
ATOM     11  C   UNL A   1     -23.067   0.849  29.689  0.00  0.00    +0.011 A 
ATOM     12  C   UNL A   1     -23.324   1.423  28.549  0.00  0.00    +0.001 A 
ATOM     13 CL   UNL A   1     -23.207  -1.188  31.461  0.00  0.00    -0.082 Cl
ENDBRANCH   1   9
BRANCH   2  14
ATOM     14  C   UNL A   1     -26.772  -1.737  30.199  0.00  0.00    +0.388 C 
ATOM     15  O   UNL A   1     -26.724  -1.454  31.328  0.00  0.00    -0.241 OA
ATOM     16  O   UNL A   1     -27.659  -1.290  29.357  0.00  0.00    -0.241 OA
ENDBRANCH   2  14
TORSDOF 2
ENDMDL
ENDMDL
