REMARK  Name = outputs/IAG933/test6/raw/output_4791_IAG933_linker_design_.xyz
REMARK  18 active torsions:
REMARK  status: ('A' for Active; 'I' for Inactive)
REMARK    1  A    between atoms: C_1  and  C_2
REMARK    2  A    between atoms: C_1  and  C_8
REMARK    3  A    between atoms: C_1  and  C_58
REMARK    4  A    between atoms: C_13  and  C_42
REMARK    5  A    between atoms: C_14  and  C_15
REMARK    6  A    between atoms: C_21  and  O_22
REMARK    7  A    between atoms: O_22  and  C_23
REMARK    8  A    between atoms: C_23  and  C_24
REMARK    9  A    between atoms: C_24  and  O_25
REMARK   10  A    between atoms: O_25  and  C_32
REMARK   11  A    between atoms: C_30  and  C_57
REMARK   12  A    between atoms: O_36  and  C_40
REMARK   13  A    between atoms: C_39  and  C_40
REMARK   14  A    between atoms: C_39  and  C_59
REMARK   15  A    between atoms: C_43  and  O_46
REMARK   16  A    between atoms: O_46  and  C_50
REMARK   17  A    between atoms: C_50  and  C_51
REMARK   18  A    between atoms: C_50  and  C_59
REMARK                            x       y       z     vdW  Elec       q    Type
REMARK                         _______ _______ _______ _____ _____    ______ ____
ROOT
ATOM      1  C   UNL A   1     -25.688   1.614  26.461  0.00  0.00    +0.035 C 
ATOM      2  C   UNL A   1     -26.250   2.920  26.395  0.00  0.00    +0.074 C 
ATOM      3  C   UNL A   1     -27.438   3.091  25.645  0.00  0.00    +0.106 C 
ATOM      4  N   UNL A   1     -28.075   2.089  25.003  0.00  0.00    -0.208 NA
ATOM      5  C   UNL A   1     -27.543   0.849  25.079  0.00  0.00    +0.253 C 
ATOM      6  C   UNL A   1     -26.354   0.576  25.777  0.00  0.00    +0.191 C 
ATOM      7  F   UNL A   1     -25.860  -0.681  25.795  0.00  0.00    -0.200 F 
ENDROOT
BRANCH   1  11
ATOM      8  F   UNL A   1     -20.724   0.961  27.991  0.00  0.00    -0.162 F 
ATOM      9  O   UNL A   1     -22.271   1.901  26.984  0.00  0.00    -0.451 OA
ATOM     10  C   UNL A   1     -22.725   0.082  28.936  0.00  0.00    +0.146 C 
ATOM     11  C   UNL A   1     -24.477   1.349  27.191  0.00  0.00    +0.141 C 
ATOM     12  N   UNL A   1     -24.808   1.011  28.444  0.00  0.00    -0.206 NA
ATOM     13  C   UNL A   1     -21.966   0.986  27.956  0.00  0.00    +0.297 C 
ATOM     14  C   UNL A   1     -23.423   1.756  26.359  0.00  0.00    +0.230 C 
ATOM     15  N   UNL A   1     -21.955  -0.890  29.560  0.00  0.00    -0.126 NA
ATOM     16  C   UNL A   1     -24.233  -0.029  29.157  0.00  0.00    +0.123 C 
BRANCH  16  17
ATOM     17  C   UNL A   1     -24.855  -1.012  30.143  0.00  0.00    +0.060 C 
BRANCH  17  18
ATOM     18  C   UNL A   1     -24.973  -2.505  29.788  0.00  0.00    -0.019 C 
ATOM     19  C   UNL A   1     -23.906  -3.173  29.146  0.00  0.00    -0.004 C 
ATOM     20  C   UNL A   1     -23.989  -4.549  28.853  0.00  0.00    -0.000 C 
ATOM     21  C   UNL A   1     -25.137  -5.280  29.205  0.00  0.00    -0.000 C 
ATOM     22  C   UNL A   1     -26.232  -4.611  29.784  0.00  0.00    -0.000 C 
ATOM     23  C   UNL A   1     -26.155  -3.232  30.065  0.00  0.00    -0.004 C 
ENDBRANCH  17  18
BRANCH  17  24
ATOM     24  C   UNL A   1     -25.387  -0.679  31.571  0.00  0.00    +0.079 C 
ATOM     25  C   UNL A   1     -25.189   0.773  32.028  0.00  0.00    +0.019 C 
ATOM     26  C   UNL A   1     -25.336   0.684  33.544  0.00  0.00    +0.020 C 
ATOM     27  C   UNL A   1     -24.829  -0.715  33.905  0.00  0.00    +0.089 C 
ATOM     28  N   UNL A   1     -24.758  -1.481  32.646  0.00  0.00    -0.219 NA
ENDBRANCH  17  24
ENDBRANCH  16  17
ENDBRANCH   1  11
BRANCH   2  29
ATOM     29  C   UNL A   1     -25.642   4.093  27.123  0.00  0.00    +0.266 C 
ATOM     30  N   UNL A   1     -25.614   5.252  26.449  0.00  0.00    -0.200 NA
ATOM     31  C   UNL A   1     -25.026   6.479  26.963  0.00  0.00    +0.139 C 
ATOM     32  O   UNL A   1     -25.143   3.966  28.243  0.00  0.00    -0.268 OA
ENDBRANCH   2  29
BRANCH   5  33
ATOM     33  O   UNL A   1     -28.193  -0.208  24.477  0.00  0.00    -0.455 OA
BRANCH  33  34
ATOM     34  C   UNL A   1     -29.460   0.005  23.866  0.00  0.00    +0.254 C 
BRANCH  34  35
ATOM     35  C   UNL A   1     -30.065  -1.377  23.573  0.00  0.00    +0.252 C 
BRANCH  35  36
ATOM     36  O   UNL A   1     -30.729  -1.878  24.721  0.00  0.00    -0.473 OA
BRANCH  36  39
ATOM     37  C   UNL A   1     -34.020  -3.632  27.822  0.00  0.00    -0.029 C 
ATOM     38  C   UNL A   1     -32.952  -1.073  28.236  0.00  0.00    +0.155 C 
ATOM     39  C   UNL A   1     -31.461  -1.527  25.849  0.00  0.00    +0.145 C 
ATOM     40  C   UNL A   1     -34.255  -4.085  25.146  0.00  0.00    +0.148 C 
ATOM     41  C   UNL A   1     -31.136  -0.411  26.709  0.00  0.00    +0.039 C 
ATOM     42  O   UNL A   1     -33.511  -2.744  25.155  0.00  0.00    -0.344 OA
ATOM     43  C   UNL A   1     -32.505  -2.519  26.194  0.00  0.00    +0.190 C 
ATOM     44  C   UNL A   1     -31.671  -0.338  28.011  0.00  0.00    +0.154 C 
ATOM     45  C   UNL A   1     -34.233  -4.684  26.613  0.00  0.00    +0.058 C 
ATOM     46  C   UNL A   1     -33.137  -2.306  27.523  0.00  0.00    -0.002 C 
BRANCH  38  49
ATOM     47  O   UNL A   1     -33.799   0.205  30.060  0.00  0.00    -0.245 OA
ATOM     48  O   UNL A   1     -35.146  -0.062  28.374  0.00  0.00    -0.245 OA
ATOM     49  C   UNL A   1     -34.023  -0.286  28.910  0.00  0.00    +0.371 C 
ENDBRANCH  38  49
BRANCH  44  50
ATOM     50  O   UNL A   1     -30.981   0.184  29.116  0.00  0.00    -0.351 OA
BRANCH  50  51
ATOM     51  C   UNL A   1     -29.511   0.031  29.189  0.00  0.00    +0.149 C 
BRANCH  51  52
ATOM     52  C   UNL A   1     -28.036   0.140  28.654  0.00  0.00    +0.211 C 
ATOM     53  O   UNL A   1     -27.410   1.321  29.138  0.00  0.00    -0.218 OA
ENDBRANCH  51  52
BRANCH  51  54
ATOM     54  C   UNL A   1     -29.137   0.382  30.576  0.00  0.00    +0.044 C 
BRANCH  54  55
ATOM     55  C   UNL A   1     -29.929  -0.587  31.581  0.00  0.00    +0.112 C 
BRANCH  55  56
ATOM     56  C   UNL A   1     -30.241  -2.096  31.268  0.00  0.00    +0.317 C 
ATOM     57  O   UNL A   1     -30.338  -2.812  32.240  0.00  0.00    -0.250 OA
BRANCH  56  58
ATOM     58  O   UNL A   1     -30.030  -2.520  30.022  0.00  0.00    -0.444 OA
ATOM     59  C   UNL A   1     -30.335  -3.912  30.011  0.00  0.00    +0.256 C 
ENDBRANCH  56  58
ENDBRANCH  55  56
ENDBRANCH  54  55
ENDBRANCH  51  54
ENDBRANCH  50  51
ENDBRANCH  44  50
ENDBRANCH  36  39
ENDBRANCH  35  36
ENDBRANCH  34  35
ENDBRANCH  33  34
ENDBRANCH   5  33
TORSDOF 18
