MODEL 4791
MODEL 1
REMARK VINA RESULT:    -4.324      0.000      0.000
REMARK INTER + INTRA:          -4.324
REMARK INTER:                  -4.324
REMARK INTRA:                   0.000
REMARK UNBOUND:                 0.000
REMARK  Name = No_4791-gen_results/8p0m/2024-11-27-11-27-31/
REMARK  0 active torsions:
REMARK  status: ('A' for Active; 'I' for Inactive)
REMARK                            x       y       z     vdW  Elec       q    Type
REMARK                         _______ _______ _______ _____ _____    ______ ____
ROOT
ATOM      1  C   UNL A   1     -24.977  -5.393  29.024  0.00  0.00    +0.000 A 
ATOM      2  C   UNL A   1     -24.232  -4.720  28.705  0.00  0.00    +0.000 A 
ATOM      3  C   UNL A   1     -26.152  -4.733  29.606  0.00  0.00    +0.000 A 
ATOM      4  C   UNL A   1     -26.182  -3.426  29.869  0.00  0.00    +0.000 A 
ATOM      5  C   UNL A   1     -24.035  -3.303  28.894  0.00  0.00    +0.000 A 
ATOM      6  C   UNL A   1     -25.127  -2.712  29.458  0.00  0.00    +0.000 A 
ENDROOT
TORSDOF 0
ENDMDL
ENDMDL
