MODEL 4793
MODEL 1
REMARK VINA RESULT:    -4.357      0.000      0.000
REMARK INTER + INTRA:          -4.357
REMARK INTER:                  -4.357
REMARK INTRA:                   0.000
REMARK UNBOUND:                 0.000
REMARK  Name = No_4793-gen_results/8p0m/2024-11-27-11-27-31/
REMARK  0 active torsions:
REMARK  status: ('A' for Active; 'I' for Inactive)
REMARK                            x       y       z     vdW  Elec       q    Type
REMARK                         _______ _______ _______ _____ _____    ______ ____
ROOT
ATOM      1  C   UNL A   1     -24.939  -5.396  29.033  0.00  0.00    +0.000 A 
ATOM      2  C   UNL A   1     -24.203  -4.723  28.692  0.00  0.00    +0.000 A 
ATOM      3  C   UNL A   1     -26.125  -4.733  29.590  0.00  0.00    +0.000 A 
ATOM      4  C   UNL A   1     -26.174  -3.419  29.809  0.00  0.00    +0.000 A 
ATOM      5  C   UNL A   1     -24.028  -3.298  28.834  0.00  0.00    +0.000 A 
ATOM      6  C   UNL A   1     -25.129  -2.704  29.376  0.00  0.00    +0.000 A 
ENDROOT
TORSDOF 0
ENDMDL
ENDMDL
