REMARK  Name = No_4794-gen_results/8p0m/2024-11-27-11-27-31/
REMARK  6 active torsions:
REMARK  status: ('A' for Active; 'I' for Inactive)
REMARK    1  A    between atoms: C_1  and  C_2
REMARK    2  A    between atoms: C_1  and  C_8
REMARK    3  A    between atoms: C_3  and  C_17
REMARK    4  A    between atoms: C_5  and  C_10
REMARK    5  A    between atoms: C_7  and  C_20
REMARK    6  A    between atoms: C_8  and  C_9
REMARK                            x       y       z     vdW  Elec       q    Type
REMARK                         _______ _______ _______ _____ _____    ______ ____
ROOT
ATOM      1  C   UNL A   1     -27.064  -0.119  28.608  0.00  0.00    -0.023 A 
ATOM      2  C   UNL A   1     -25.765  -0.390  29.036  0.00  0.00    -0.026 A 
ATOM      3  C   UNL A   1     -24.552   0.406  28.765  0.00  0.00    -0.001 A 
ATOM      4  C   UNL A   1     -24.696   1.448  27.799  0.00  0.00    +0.071 A 
ATOM      5  C   UNL A   1     -25.976   1.725  27.308  0.00  0.00    +0.004 A 
ATOM      6  C   UNL A   1     -27.072   1.013  27.654  0.00  0.00    -0.004 A 
ENDROOT
BRANCH   4   7
ATOM      7  C   UNL A   1     -23.486   2.190  27.484  0.00  0.00    +0.419 C 
ATOM      8  F   UNL A   1     -23.680   3.191  26.788  0.00  0.00    -0.166 F 
ATOM      9  F   UNL A   1     -22.570   1.422  26.744  0.00  0.00    -0.166 F 
ATOM     10  F   UNL A   1     -22.830   2.642  28.569  0.00  0.00    -0.166 F 
ENDBRANCH   4   7
BRANCH   2  11
ATOM     11  C   UNL A   1     -25.526  -1.457  30.053  0.00  0.00    +0.022 C 
ATOM     12  C   UNL A   1     -24.486  -2.337  29.799  0.00  0.00    +0.005 C 
ATOM     13  C   UNL A   1     -25.450  -1.029  31.519  0.00  0.00    +0.005 C 
ENDBRANCH   2  11
BRANCH   6  14
ATOM     14  C   UNL A   1     -28.331   1.470  27.005  0.00  0.00    -0.005 C 
ATOM     15  C   UNL A   1     -28.964   2.356  27.502  0.00  0.00    -0.026 C 
ATOM     16  C   UNL A   1     -30.252   2.788  26.932  0.00  0.00    +0.031 C 
ENDBRANCH   6  14
BRANCH   1  17
ATOM     17  C   UNL A   1     -28.016  -0.814  28.878  0.00  0.00    +0.071 C 
BRANCH  17  18
ATOM     18  C   UNL A   1     -28.618  -0.469  30.221  0.00  0.00    +0.258 C 
ATOM     19  O   UNL A   1     -29.041   0.879  30.420  0.00  0.00    -0.210 OA
BRANCH  18  20
ATOM     20  C   UNL A   1     -29.730  -1.277  30.721  0.00  0.00    +0.395 C 
ATOM     21  O   UNL A   1     -30.157  -0.990  31.823  0.00  0.00    -0.243 OA
ATOM     22  O   UNL A   1     -30.332  -2.207  30.088  0.00  0.00    -0.243 OA
ENDBRANCH  18  20
ENDBRANCH  17  18
ENDBRANCH   1  17
TORSDOF 6
