MODEL 4794
MODEL 1
REMARK VINA RESULT:    -6.071      0.000      0.000
REMARK INTER + INTRA:          -9.489
REMARK INTER:                  -8.200
REMARK INTRA:                  -1.289
REMARK UNBOUND:                -1.289
REMARK  Name = No_4794-gen_results/8p0m/2024-11-27-11-27-31/
REMARK  6 active torsions:
REMARK  status: ('A' for Active; 'I' for Inactive)
REMARK    1  A    between atoms: C_1  and  C_2
REMARK    2  A    between atoms: C_1  and  C_8
REMARK    3  A    between atoms: C_3  and  C_17
REMARK    4  A    between atoms: C_5  and  C_10
REMARK    5  A    between atoms: C_7  and  C_20
REMARK    6  A    between atoms: C_8  and  C_9
REMARK                            x       y       z     vdW  Elec       q    Type
REMARK                         _______ _______ _______ _____ _____    ______ ____
ROOT
ATOM      1  C   UNL A   1     -24.426   0.983  27.592  0.00  0.00    -0.023 A 
ATOM      2  C   UNL A   1     -24.538   1.612  26.352  0.00  0.00    -0.026 A 
ATOM      3  C   UNL A   1     -25.583   1.394  25.333  0.00  0.00    -0.001 A 
ATOM      4  C   UNL A   1     -26.449   0.282  25.559  0.00  0.00    +0.071 A 
ATOM      5  C   UNL A   1     -26.341  -0.407  26.772  0.00  0.00    +0.004 A 
ATOM      6  C   UNL A   1     -25.415  -0.112  27.711  0.00  0.00    -0.004 A 
ENDROOT
BRANCH   4   7
ATOM      7  C   UNL A   1     -27.437   0.028  24.523  0.00  0.00    +0.419 C 
ATOM      8  F   UNL A   1     -27.376  -1.107  24.041  0.00  0.00    -0.166 F 
ATOM      9  F   UNL A   1     -27.280   0.884  23.419  0.00  0.00    -0.166 F 
ATOM     10  F   UNL A   1     -28.709   0.161  24.942  0.00  0.00    -0.166 F 
ENDBRANCH   4   7
BRANCH   2  11
ATOM     11  C   UNL A   1     -23.677   2.790  26.037  0.00  0.00    +0.022 C 
ATOM     12  C   UNL A   1     -22.730   2.620  25.039  0.00  0.00    +0.005 C 
ATOM     13  C   UNL A   1     -24.373   4.134  25.819  0.00  0.00    +0.005 C 
ENDBRANCH   2  11
BRANCH   6  14
ATOM     14  C   UNL A   1     -25.469  -0.978  28.920  0.00  0.00    -0.005 C 
ATOM     15  C   UNL A   1     -25.211  -2.143  28.825  0.00  0.00    -0.026 C 
ATOM     16  C   UNL A   1     -25.324  -3.049  29.981  0.00  0.00    +0.031 C 
ENDBRANCH   6  14
BRANCH   1  17
ATOM     17  C   UNL A   1     -23.544   1.220  28.385  0.00  0.00    +0.071 C 
BRANCH  17  18
ATOM     18  C   UNL A   1     -22.298   0.406  28.121  0.00  0.00    +0.258 C 
ATOM     19  O   UNL A   1     -21.142   1.110  27.670  0.00  0.00    -0.210 OA
BRANCH  18  20
ATOM     20  C   UNL A   1     -21.799  -0.478  29.174  0.00  0.00    +0.395 C 
ATOM     21  O   UNL A   1     -20.823  -1.149  28.902  0.00  0.00    -0.243 OA
ATOM     22  O   UNL A   1     -22.250  -0.562  30.365  0.00  0.00    -0.243 OA
ENDBRANCH  18  20
ENDBRANCH  17  18
ENDBRANCH   1  17
TORSDOF 6
ENDMDL
ENDMDL
