REMARK  Name = No_4795-gen_results/8p0m/2024-11-27-11-27-31/
REMARK  1 active torsions:
REMARK  status: ('A' for Active; 'I' for Inactive)
REMARK    1  A    between atoms: C_8  and  C_9
REMARK                            x       y       z     vdW  Elec       q    Type
REMARK                         _______ _______ _______ _____ _____    ______ ____
ROOT
ATOM      1  C   UNL A   1     -28.016  -0.814  28.878  0.00  0.00    +0.027 A 
ATOM      2  C   UNL A   1     -28.469  -0.785  29.829  0.00  0.00    +0.062 A 
ATOM      3  C   UNL A   1     -28.196   0.348  28.055  0.00  0.00    +0.059 A 
ATOM      4  C   UNL A   1     -29.019   1.350  28.378  0.00  0.00    +0.011 A 
ATOM      5  C   UNL A   1     -29.411   0.180  30.378  0.00  0.00    -0.002 A 
ATOM      6  C   UNL A   1     -29.606   1.250  29.619  0.00  0.00    -0.002 A 
ATOM      7 CL   UNL A   1     -27.415   0.446  26.458  0.00  0.00    -0.082 Cl
ATOM      8  C   UNL A   1     -29.845  -0.165  31.798  0.00  0.00    +0.067 C 
ATOM      9  C   UNL A   1     -29.051  -1.290  32.283  0.00  0.00    +0.121 C 
ATOM     10  N   UNL A   1     -28.170  -1.898  30.714  0.00  0.00    -0.237 NA
ENDROOT
BRANCH   8  11
ATOM     11  C   UNL A   1     -29.962   0.904  32.585  0.00  0.00    -0.017 A 
ATOM     12  C   UNL A   1     -29.473   2.163  32.216  0.00  0.00    -0.004 A 
ATOM     13  C   UNL A   1     -29.390   3.185  33.103  0.00  0.00    -0.000 A 
ATOM     14  C   UNL A   1     -29.939   2.903  34.431  0.00  0.00    -0.000 A 
ATOM     15  C   UNL A   1     -30.390   1.728  34.807  0.00  0.00    -0.000 A 
ATOM     16  C   UNL A   1     -30.341   0.692  33.926  0.00  0.00    -0.004 A 
ENDBRANCH   8  11
TORSDOF 1
