MODEL 4797
MODEL 1
REMARK VINA RESULT:    -6.312      0.000      0.000
REMARK INTER + INTRA:          -8.231
REMARK INTER:                  -7.788
REMARK INTRA:                  -0.443
REMARK UNBOUND:                -0.443
REMARK  Name = No_4797-gen_results/8p0m/2024-11-27-11-27-31/
REMARK  4 active torsions:
REMARK  status: ('A' for Active; 'I' for Inactive)
REMARK    1  A    between atoms: C_6  and  C_8
REMARK    2  A    between atoms: N_10  and  C_11
REMARK    3  A    between atoms: C_13  and  C_14
REMARK    4  A    between atoms: C_14  and  C_15
REMARK                            x       y       z     vdW  Elec       q    Type
REMARK                         _______ _______ _______ _____ _____    ______ ____
ROOT
ATOM      1  C   UNL A   1     -23.073  -0.921  29.098  0.00  0.00    +0.253 C 
ATOM      2  O   UNL A   1     -22.066  -0.886  29.757  0.00  0.00    -0.270 OA
ATOM      3  N   UNL A   1     -23.342   0.033  28.214  0.00  0.00    -0.253 N 
ATOM      4  C   UNL A   1     -22.233   1.021  27.970  0.00  0.00    +0.120 C 
ENDROOT
BRANCH   1  10
ATOM      5  C   UNL A   1     -25.323  -1.767  30.033  0.00  0.00    +0.007 A 
ATOM      6  C   UNL A   1     -26.145  -2.646  30.148  0.00  0.00    +0.030 A 
ATOM      7  C   UNL A   1     -25.958  -3.944  29.676  0.00  0.00    +0.140 A 
ATOM      8  C   UNL A   1     -24.742  -4.264  28.952  0.00  0.00    +0.030 A 
ATOM      9  C   UNL A   1     -23.834  -3.186  28.848  0.00  0.00    +0.007 A 
ATOM     10  C   UNL A   1     -24.102  -1.995  29.321  0.00  0.00    +0.054 A 
ATOM     11  F   UNL A   1     -26.845  -4.930  29.768  0.00  0.00    -0.204 F 
ENDBRANCH   1  10
BRANCH   3  12
ATOM     12  C   UNL A   1     -24.427   0.080  27.321  0.00  0.00    +0.064 C 
ATOM     13  C   UNL A   1     -24.177   0.934  26.130  0.00  0.00    -0.005 C 
BRANCH  13  14
ATOM     14  C   UNL A   1     -24.953   0.862  25.188  0.00  0.00    +0.053 C 
BRANCH  14  15
ATOM     15  C   UNL A   1     -25.776  -0.328  24.947  0.00  0.00    -0.026 C 
ATOM     16  C   UNL A   1     -27.099  -0.082  24.578  0.00  0.00    -0.030 C 
ATOM     17  C   UNL A   1     -27.490   1.207  24.276  0.00  0.00    +0.030 C 
ENDBRANCH  14  15
ENDBRANCH  13  14
ENDBRANCH   3  12
TORSDOF 4
ENDMDL
ENDMDL
