REMARK  Name = outputs/IAG933/test6/raw/output_4797_IAG933_linker_design_.xyz
REMARK  18 active torsions:
REMARK  status: ('A' for Active; 'I' for Inactive)
REMARK    1  A    between atoms: C_1  and  C_2
REMARK    2  A    between atoms: C_1  and  C_8
REMARK    3  A    between atoms: C_1  and  N_40
REMARK    4  A    between atoms: C_13  and  C_41
REMARK    5  A    between atoms: C_14  and  C_15
REMARK    6  A    between atoms: C_21  and  O_22
REMARK    7  A    between atoms: O_22  and  C_23
REMARK    8  A    between atoms: C_23  and  C_24
REMARK    9  A    between atoms: C_28  and  C_32
REMARK   10  A    between atoms: C_28  and  N_40
REMARK   11  A    between atoms: C_28  and  C_41
REMARK   12  A    between atoms: C_29  and  C_38
REMARK   13  A    between atoms: C_32  and  C_38
REMARK   14  A    between atoms: C_33  and  O_35
REMARK   15  A    between atoms: C_33  and  C_36
REMARK   16  A    between atoms: C_33  and  C_41
REMARK   17  A    between atoms: C_36  and  C_39
REMARK   18  A    between atoms: C_38  and  C_42
REMARK                            x       y       z     vdW  Elec       q    Type
REMARK                         _______ _______ _______ _____ _____    ______ ____
ROOT
ATOM      1  C   UNL A   1     -24.567   1.189  27.340  0.00  0.00    +0.071 C 
ENDROOT
BRANCH   1   2
ATOM      2  C   UNL A   1     -25.688   1.614  26.461  0.00  0.00    +0.019 C 
ATOM      3  C   UNL A   1     -26.250   2.920  26.395  0.00  0.00    +0.073 C 
ATOM      4  C   UNL A   1     -27.438   3.091  25.645  0.00  0.00    +0.106 C 
ATOM      5  N   UNL A   1     -28.075   2.089  25.003  0.00  0.00    -0.208 NA
ATOM      6  C   UNL A   1     -27.543   0.849  25.079  0.00  0.00    +0.253 C 
ATOM      7  C   UNL A   1     -26.354   0.576  25.777  0.00  0.00    +0.189 C 
ATOM      8  F   UNL A   1     -25.860  -0.681  25.795  0.00  0.00    -0.200 F 
BRANCH   3   9
ATOM      9  C   UNL A   1     -25.642   4.093  27.123  0.00  0.00    +0.266 C 
ATOM     10  N   UNL A   1     -25.614   5.252  26.449  0.00  0.00    -0.200 NA
ATOM     11  C   UNL A   1     -25.026   6.479  26.963  0.00  0.00    +0.139 C 
ATOM     12  O   UNL A   1     -25.143   3.966  28.243  0.00  0.00    -0.268 OA
ENDBRANCH   3   9
BRANCH   6  13
ATOM     13  O   UNL A   1     -28.193  -0.208  24.477  0.00  0.00    -0.456 OA
BRANCH  13  14
ATOM     14  C   UNL A   1     -29.460   0.005  23.866  0.00  0.00    +0.243 C 
BRANCH  14  15
ATOM     15  C   UNL A   1     -30.065  -1.377  23.573  0.00  0.00    +0.229 C 
ATOM     16  O   UNL A   1     -30.729  -1.878  24.721  0.00  0.00    -0.216 OA
ENDBRANCH  14  15
ENDBRANCH  13  14
ENDBRANCH   6  13
ENDBRANCH   1   2
BRANCH   1  17
ATOM     17  C   UNL A   1     -25.549   0.406  28.406  0.00  0.00    +0.081 C 
BRANCH  17  18
ATOM     18  C   UNL A   1     -26.952   0.496  28.797  0.00  0.00    +0.033 C 
BRANCH  18  19
ATOM     19  C   UNL A   1     -27.901  -0.187  29.748  0.00  0.00    +0.124 C 
BRANCH  19  20
ATOM     20  C   UNL A   1     -28.962  -0.746  29.150  0.00  0.00    +0.158 C 
ATOM     21  O   UNL A   1     -29.664  -1.619  29.720  0.00  0.00    -0.296 OA
ATOM     22  C   UNL A   1     -29.656   0.168  28.216  0.00  0.00    +0.073 C 
ENDBRANCH  19  20
BRANCH  19  24
ATOM     23  O   UNL A   1     -29.748   0.600  31.295  0.00  0.00    -0.288 OA
ATOM     24  C   UNL A   1     -28.565   0.501  30.961  0.00  0.00    +0.214 C 
ENDBRANCH  19  24
ENDBRANCH  18  19
ENDBRANCH  17  18
BRANCH  17  25
ATOM     25  N   UNL A   1     -24.685  -0.161  29.163  0.00  0.00    -0.215 NA
BRANCH  25  26
ATOM     26  C   UNL A   1     -24.855  -1.012  30.143  0.00  0.00    +0.111 C 
BRANCH  26  27
ATOM     27  C   UNL A   1     -24.973  -2.505  29.788  0.00  0.00    -0.005 C 
ATOM     28  C   UNL A   1     -23.906  -3.173  29.146  0.00  0.00    -0.003 C 
ATOM     29  C   UNL A   1     -23.989  -4.549  28.853  0.00  0.00    -0.000 C 
ATOM     30  C   UNL A   1     -25.137  -5.280  29.205  0.00  0.00    -0.000 C 
ATOM     31  C   UNL A   1     -26.232  -4.611  29.784  0.00  0.00    -0.000 C 
ATOM     32  C   UNL A   1     -26.155  -3.232  30.065  0.00  0.00    -0.003 C 
ENDBRANCH  26  27
BRANCH  26  33
ATOM     33  C   UNL A   1     -25.387  -0.679  31.571  0.00  0.00    +0.093 C 
ATOM     34  C   UNL A   1     -25.189   0.773  32.028  0.00  0.00    +0.021 C 
ATOM     35  C   UNL A   1     -25.336   0.684  33.544  0.00  0.00    +0.020 C 
ATOM     36  C   UNL A   1     -24.829  -0.715  33.905  0.00  0.00    +0.089 C 
ATOM     37  N   UNL A   1     -24.758  -1.481  32.646  0.00  0.00    -0.218 NA
ENDBRANCH  26  33
ENDBRANCH  25  26
ENDBRANCH  17  25
ENDBRANCH   1  17
BRANCH   1  38
ATOM     38  C   UNL A   1     -23.114   1.117  27.136  0.00  0.00    +0.153 C 
BRANCH  38  40
ATOM     39  C   UNL A   1     -22.922   1.963  24.880  0.00  0.00    +0.174 C 
ATOM     40  O   UNL A   1     -22.806   2.137  26.280  0.00  0.00    -0.350 OA
ENDBRANCH  38  40
BRANCH  38  41
ATOM     41  C   UNL A   1     -21.934   1.286  28.136  0.00  0.00    +0.188 C 
ATOM     42  F   UNL A   1     -20.835   1.513  27.551  0.00  0.00    -0.235 F 
BRANCH  41  44
ATOM     43  C   UNL A   1     -22.803  -0.146  29.541  0.00  0.00    +0.003 C 
ATOM     44  C   UNL A   1     -22.344   1.058  29.395  0.00  0.00    +0.038 C 
ENDBRANCH  41  44
ENDBRANCH  38  41
ENDBRANCH   1  38
TORSDOF 18
