REMARK  Name = outputs/IAG933/test6/raw/output_4798_IAG933_linker_design_.xyz
REMARK  17 active torsions:
REMARK  status: ('A' for Active; 'I' for Inactive)
REMARK    1  A    between atoms: C_1  and  C_2
REMARK    2  A    between atoms: C_1  and  C_8
REMARK    3  A    between atoms: C_1  and  C_36
REMARK    4  A    between atoms: C_13  and  C_32
REMARK    5  A    between atoms: C_14  and  C_15
REMARK    6  A    between atoms: C_21  and  O_22
REMARK    7  A    between atoms: O_22  and  C_23
REMARK    8  A    between atoms: C_23  and  C_24
REMARK    9  A    between atoms: N_28  and  C_29
REMARK   10  A    between atoms: N_28  and  C_32
REMARK   11  A    between atoms: N_28  and  C_43
REMARK   12  A    between atoms: C_29  and  C_36
REMARK   13  A    between atoms: C_30  and  N_35
REMARK   14  A    between atoms: O_33  and  N_37
REMARK   15  A    between atoms: O_33  and  C_45
REMARK   16  A    between atoms: C_34  and  C_38
REMARK   17  A    between atoms: C_36  and  N_44
REMARK                            x       y       z     vdW  Elec       q    Type
REMARK                         _______ _______ _______ _____ _____    ______ ____
ROOT
ATOM      1  C   UNL A   1     -25.119  -0.211  28.868  0.00  0.00    +0.117 C 
ENDROOT
BRANCH   1   4
ATOM      2  C   UNL A   1     -27.989   0.296  28.832  0.00  0.00    +0.265 C 
ATOM      3  O   UNL A   1     -28.317  -0.871  28.996  0.00  0.00    -0.268 OA
ATOM      4  N   UNL A   1     -26.464   0.653  28.756  0.00  0.00    -0.202 NA
BRANCH   2   7
ATOM      5  C   UNL A   1     -30.182   3.876  28.345  0.00  0.00    +0.085 C 
ATOM      6  C   UNL A   1     -28.443   2.678  29.306  0.00  0.00    +0.006 C 
ATOM      7  C   UNL A   1     -28.921   1.486  28.763  0.00  0.00    +0.055 C 
ATOM      8  C   UNL A   1     -30.867   2.709  28.014  0.00  0.00    +0.019 C 
ATOM      9  C   UNL A   1     -30.218   1.475  28.207  0.00  0.00    +0.006 C 
ATOM     10  C   UNL A   1     -29.040   3.884  29.130  0.00  0.00    +0.019 C 
BRANCH   5  11
ATOM     11  N   UNL A   1     -30.389   4.999  27.745  0.00  0.00    -0.205 NA
ATOM     12  C   UNL A   1     -31.153   6.168  27.702  0.00  0.00    +0.315 C 
BRANCH  12  13
ATOM     13  O   UNL A   1     -32.054   6.350  28.781  0.00  0.00    -0.329 OA
BRANCH  13  14
ATOM     14  N   UNL A   1     -31.611   5.871  29.893  0.00  0.00    -0.072 NA
ATOM     15  C   UNL A   1     -30.735   6.247  30.671  0.00  0.00    +0.165 C 
ENDBRANCH  13  14
ENDBRANCH  12  13
ENDBRANCH   5  11
ENDBRANCH   2   7
ENDBRANCH   1   4
BRANCH   1  16
ATOM     16  C   UNL A   1     -23.690   0.214  29.084  0.00  0.00    +0.094 C 
BRANCH  16  17
ATOM     17  N   UNL A   1     -23.522   1.354  27.985  0.00  0.00    -0.271 NA
BRANCH  17  18
ATOM     18  C   UNL A   1     -22.006   1.410  28.001  0.00  0.00    +0.072 C 
ATOM     19  C   UNL A   1     -21.433   1.691  26.634  0.00  0.00    +0.019 C 
ENDBRANCH  17  18
BRANCH  17  20
ATOM     20  C   UNL A   1     -24.339   1.403  26.740  0.00  0.00    +0.080 C 
BRANCH  20  21
ATOM     21  C   UNL A   1     -25.688   1.614  26.461  0.00  0.00    +0.086 C 
ATOM     22  C   UNL A   1     -26.250   2.920  26.395  0.00  0.00    +0.056 C 
ATOM     23  C   UNL A   1     -27.438   3.091  25.645  0.00  0.00    +0.102 C 
ATOM     24  N   UNL A   1     -28.075   2.089  25.003  0.00  0.00    -0.212 NA
ATOM     25  C   UNL A   1     -27.543   0.849  25.079  0.00  0.00    +0.234 C 
ATOM     26  C   UNL A   1     -26.354   0.576  25.777  0.00  0.00    +0.241 C 
ATOM     27  F   UNL A   1     -25.860  -0.681  25.795  0.00  0.00    -0.227 F 
BRANCH  22  28
ATOM     28  C   UNL A   1     -25.642   4.093  27.123  0.00  0.00    +0.263 C 
ATOM     29  N   UNL A   1     -25.614   5.252  26.449  0.00  0.00    -0.200 NA
ATOM     30  C   UNL A   1     -25.026   6.479  26.963  0.00  0.00    +0.139 C 
ATOM     31  O   UNL A   1     -25.143   3.966  28.243  0.00  0.00    -0.269 OA
ENDBRANCH  22  28
BRANCH  25  32
ATOM     32  O   UNL A   1     -28.193  -0.208  24.477  0.00  0.00    -0.459 OA
BRANCH  32  33
ATOM     33  C   UNL A   1     -29.460   0.005  23.866  0.00  0.00    +0.242 C 
BRANCH  33  34
ATOM     34  C   UNL A   1     -30.065  -1.377  23.573  0.00  0.00    +0.229 C 
ATOM     35  O   UNL A   1     -30.729  -1.878  24.721  0.00  0.00    -0.216 OA
ENDBRANCH  33  34
ENDBRANCH  32  33
ENDBRANCH  25  32
ENDBRANCH  20  21
ENDBRANCH  17  20
ENDBRANCH  16  17
ENDBRANCH   1  16
BRANCH   1  36
ATOM     36  C   UNL A   1     -24.855  -1.012  30.143  0.00  0.00    +0.060 C 
BRANCH  36  37
ATOM     37  C   UNL A   1     -24.973  -2.505  29.788  0.00  0.00    -0.019 C 
ATOM     38  C   UNL A   1     -23.906  -3.173  29.146  0.00  0.00    -0.004 C 
ATOM     39  C   UNL A   1     -23.989  -4.549  28.853  0.00  0.00    -0.000 C 
ATOM     40  C   UNL A   1     -25.137  -5.280  29.205  0.00  0.00    -0.000 C 
ATOM     41  C   UNL A   1     -26.232  -4.611  29.784  0.00  0.00    -0.000 C 
ATOM     42  C   UNL A   1     -26.155  -3.232  30.065  0.00  0.00    -0.004 C 
ENDBRANCH  36  37
BRANCH  36  43
ATOM     43  C   UNL A   1     -25.387  -0.679  31.571  0.00  0.00    +0.079 C 
ATOM     44  C   UNL A   1     -25.189   0.773  32.028  0.00  0.00    +0.019 C 
ATOM     45  C   UNL A   1     -25.336   0.684  33.544  0.00  0.00    +0.020 C 
ATOM     46  C   UNL A   1     -24.829  -0.715  33.905  0.00  0.00    +0.089 C 
ATOM     47  N   UNL A   1     -24.758  -1.481  32.646  0.00  0.00    -0.219 NA
ENDBRANCH  36  43
ENDBRANCH   1  36
TORSDOF 17
