MODEL 4798
MODEL 1
REMARK VINA RESULT:    -4.299      0.000      0.000
REMARK INTER + INTRA:          -4.299
REMARK INTER:                  -4.299
REMARK INTRA:                   0.000
REMARK UNBOUND:                 0.000
REMARK  Name = No_4798-gen_results/8p0m/2024-11-27-11-27-31/
REMARK  0 active torsions:
REMARK  status: ('A' for Active; 'I' for Inactive)
REMARK                            x       y       z     vdW  Elec       q    Type
REMARK                         _______ _______ _______ _____ _____    ______ ____
ROOT
ATOM      1  C   UNL A   1     -24.662  -2.668  29.044  0.00  0.00    +0.000 A 
ATOM      2  C   UNL A   1     -23.961  -3.359  28.670  0.00  0.00    +0.000 A 
ATOM      3  C   UNL A   1     -25.833  -3.300  29.666  0.00  0.00    +0.000 A 
ATOM      4  C   UNL A   1     -26.062  -4.612  29.592  0.00  0.00    +0.000 A 
ATOM      5  C   UNL A   1     -23.995  -4.787  28.464  0.00  0.00    +0.000 A 
ATOM      6  C   UNL A   1     -25.101  -5.353  29.026  0.00  0.00    +0.000 A 
ENDROOT
TORSDOF 0
ENDMDL
ENDMDL
