MODEL 479
MODEL 1
REMARK VINA RESULT:    -6.376      0.000      0.000
REMARK INTER + INTRA:          -7.380
REMARK INTER:                  -7.495
REMARK INTRA:                   0.114
REMARK UNBOUND:                 0.114
REMARK  Name = No_479-gen_results/8p0m/2024-11-27-11-27-31/
REMARK  3 active torsions:
REMARK  status: ('A' for Active; 'I' for Inactive)
REMARK    1  A    between atoms: C_1  and  C_2
REMARK    2  A    between atoms: C_1  and  N_8
REMARK    3  A    between atoms: C_5  and  C_15
REMARK                            x       y       z     vdW  Elec       q    Type
REMARK                         _______ _______ _______ _____ _____    ______ ____
ROOT
ATOM      1  C   UNL A   1     -29.227 -12.619  32.610  0.00  0.00    +0.122 C 
ENDROOT
BRANCH   1   2
ATOM      2  N   UNL A   1     -28.699 -11.530  33.259  0.00  0.00    -0.259 N 
ATOM      3  C   UNL A   1     -29.307 -10.368  33.311  0.00  0.00    +0.100 C 
ATOM      4  C   UNL A   1     -28.658  -9.363  34.066  0.00  0.00    +0.080 C 
ATOM      5  C   UNL A   1     -27.423 -11.721  33.790  0.00  0.00    +0.326 C 
ATOM      6  O   UNL A   1     -26.837 -12.755  33.719  0.00  0.00    -0.251 OA
ATOM      7  N   UNL A   1     -26.841 -10.802  34.558  0.00  0.00    -0.155 NA
ATOM      8  C   UNL A   1     -27.466  -9.542  34.663  0.00  0.00    +0.259 C 
ATOM      9  F   UNL A   1     -26.906  -8.805  35.531  0.00  0.00    -0.213 F 
ENDBRANCH   1   2
BRANCH   1  10
ATOM     10  C   UNL A   1     -29.345 -12.568  31.408  0.00  0.00    -0.002 A 
ATOM     11  C   UNL A   1     -29.904 -13.580  30.651  0.00  0.00    -0.002 A 
ATOM     12  C   UNL A   1     -29.999 -13.600  29.204  0.00  0.00    +0.006 A 
ATOM     13  C   UNL A   1     -29.512 -12.840  28.600  0.00  0.00    +0.080 A 
ATOM     14  C   UNL A   1     -28.825 -11.630  29.155  0.00  0.00    +0.006 A 
ATOM     15  C   UNL A   1     -28.718 -11.554  30.565  0.00  0.00    -0.002 A 
BRANCH  13  16
ATOM     16  C   UNL A   1     -29.493 -12.747  27.048  0.00  0.00    +0.388 C 
ATOM     17  O   UNL A   1     -29.347 -13.829  26.410  0.00  0.00    -0.241 OA
ATOM     18  O   UNL A   1     -29.467 -11.607  26.369  0.00  0.00    -0.241 OA
ENDBRANCH  13  16
ENDBRANCH   1  10
TORSDOF 3
ENDMDL
ENDMDL
