MODEL 47
MODEL 1
REMARK VINA RESULT:    -5.511      0.000      0.000
REMARK INTER + INTRA:          -6.706
REMARK INTER:                  -6.477
REMARK INTRA:                  -0.228
REMARK UNBOUND:                -0.228
REMARK  Name = No_47-gen_results/8p0m/2024-11-27-11-27-31/
REMARK  3 active torsions:
REMARK  status: ('A' for Active; 'I' for Inactive)
REMARK    1  A    between atoms: C_2  and  C_7
REMARK    2  A    between atoms: C_8  and  C_9
REMARK    3  A    between atoms: C_9  and  C_10
REMARK                            x       y       z     vdW  Elec       q    Type
REMARK                         _______ _______ _______ _____ _____    ______ ____
ROOT
ATOM      1  C   UNL A   1     -24.126   0.219  28.575  0.00  0.00    +0.035 A 
ATOM      2  C   UNL A   1     -23.717  -0.599  29.367  0.00  0.00    +0.006 A 
ATOM      3  C   UNL A   1     -22.354  -0.783  29.571  0.00  0.00    +0.001 A 
ATOM      4  C   UNL A   1     -21.384  -0.036  28.812  0.00  0.00    +0.000 A 
ATOM      5  C   UNL A   1     -21.943   0.871  27.902  0.00  0.00    +0.001 A 
ATOM      6  C   UNL A   1     -23.240   0.995  27.735  0.00  0.00    +0.007 A 
ATOM      7 BR   UNL A   1     -23.624   0.935  29.166  0.00  0.00    -0.049 Br
ENDROOT
BRANCH   2   8
ATOM      8  C   UNL A   1     -24.572  -1.474  30.214  0.00  0.00    -0.004 C 
ATOM      9  C   UNL A   1     -24.935  -2.419  30.071  0.00  0.00    -0.020 C 
BRANCH   9  10
ATOM     10  C   UNL A   1     -24.513  -3.152  28.796  0.00  0.00    +0.098 C 
BRANCH  10  11
ATOM     11  C   UNL A   1     -24.109  -4.381  28.745  0.00  0.00    +0.323 C 
ATOM     12  F   UNL A   1     -23.728  -5.115  27.898  0.00  0.00    -0.198 F 
ATOM     13  F   UNL A   1     -24.958  -5.163  29.079  0.00  0.00    -0.198 F 
ENDBRANCH  10  11
ENDBRANCH   9  10
ENDBRANCH   2   8
TORSDOF 3
ENDMDL
ENDMDL
