MODEL 4800
MODEL 1
REMARK VINA RESULT:    -6.242      0.000      0.000
REMARK INTER + INTRA:          -7.036
REMARK INTER:                  -6.972
REMARK INTRA:                  -0.064
REMARK UNBOUND:                -0.064
REMARK  Name = No_4800-gen_results/8p0m/2024-11-27-11-27-31/
REMARK  2 active torsions:
REMARK  status: ('A' for Active; 'I' for Inactive)
REMARK    1  A    between atoms: C_2  and  C_3
REMARK    2  A    between atoms: C_6  and  C_10
REMARK                            x       y       z     vdW  Elec       q    Type
REMARK                         _______ _______ _______ _____ _____    ______ ____
ROOT
ATOM      1  C   UNL A   1     -24.517  -3.372  29.310  0.00  0.00    +0.068 A 
ATOM      2  C   UNL A   1     -25.575  -2.631  29.999  0.00  0.00    +0.012 A 
ATOM      3  C   UNL A   1     -25.664  -1.418  30.463  0.00  0.00    +0.077 A 
ATOM      4  C   UNL A   1     -24.547  -0.552  30.191  0.00  0.00    -0.001 A 
ATOM      5  C   UNL A   1     -23.479  -1.089  29.491  0.00  0.00    -0.008 A 
ATOM      6  C   UNL A   1     -23.450  -2.308  29.031  0.00  0.00    +0.002 A 
ATOM      7  C   UNL A   1     -22.329  -0.115  29.193  0.00  0.00    +0.119 C 
ATOM      8 CL   UNL A   1     -21.032  -0.314  28.650  0.00  0.00    -0.109 Cl
ATOM      9  C   UNL A   1     -22.981   1.159  29.179  0.00  0.00    +0.110 C 
ATOM     10  N   UNL A   1     -23.610   1.711  30.112  0.00  0.00    -0.212 NA
ATOM     11  C   UNL A   1     -24.693   0.750  30.570  0.00  0.00    +0.115 C 
ENDROOT
BRANCH   1  13
ATOM     12  O   UNL A   1     -23.783  -4.999  28.185  0.00  0.00    -0.254 OA
ATOM     13  C   UNL A   1     -24.425  -4.377  28.912  0.00  0.00    +0.333 C 
ATOM     14  F   UNL A   1     -25.577  -5.301  29.311  0.00  0.00    -0.159 F 
ENDBRANCH   1  13
BRANCH   3  15
ATOM     15  C   UNL A   1     -26.797  -0.842  31.174  0.00  0.00    +0.388 C 
ATOM     16  O   UNL A   1     -26.844  -0.878  32.327  0.00  0.00    -0.241 OA
ATOM     17  O   UNL A   1     -27.761  -0.564  30.467  0.00  0.00    -0.241 OA
ENDBRANCH   3  15
TORSDOF 2
ENDMDL
ENDMDL
