MODEL 4801
MODEL 1
REMARK VINA RESULT:    -5.022      0.000      0.000
REMARK INTER + INTRA:          -5.022
REMARK INTER:                  -5.022
REMARK INTRA:                   0.000
REMARK UNBOUND:                 0.000
REMARK  Name = No_4801-gen_results/8p0m/2024-11-27-11-27-31/
REMARK  0 active torsions:
REMARK  status: ('A' for Active; 'I' for Inactive)
REMARK                            x       y       z     vdW  Elec       q    Type
REMARK                         _______ _______ _______ _____ _____    ______ ____
ROOT
ATOM      1  C   UNL A   1     -10.502  -9.284  19.229  0.00  0.00    +0.042 A 
ATOM      2  C   UNL A   1      -9.746  -9.089  20.153  0.00  0.00    +0.003 A 
ATOM      3  C   UNL A   1      -8.446  -9.583  20.134  0.00  0.00    +0.000 A 
ATOM      4  C   UNL A   1      -7.974 -10.383  19.034  0.00  0.00    +0.003 A 
ATOM      5  C   UNL A   1      -8.920 -10.579  18.020  0.00  0.00    +0.042 A 
ATOM      6  C   UNL A   1     -10.143 -10.104  18.093  0.00  0.00    +0.196 A 
ATOM      7  O   UNL A   1     -11.013 -10.374  17.082  0.00  0.00    -0.287 OA
ENDROOT
TORSDOF 0
ENDMDL
ENDMDL
