REMARK  Name = outputs/IAG933/test6/raw/output_4801_IAG933_linker_design_.xyz
REMARK  15 active torsions:
REMARK  status: ('A' for Active; 'I' for Inactive)
REMARK    1  A    between atoms: C_1  and  C_2
REMARK    2  A    between atoms: C_1  and  C_8
REMARK    3  A    between atoms: C_9  and  C_31
REMARK    4  A    between atoms: C_13  and  C_41
REMARK    5  A    between atoms: C_14  and  C_15
REMARK    6  A    between atoms: C_21  and  O_22
REMARK    7  A    between atoms: O_22  and  C_23
REMARK    8  A    between atoms: C_23  and  C_24
REMARK    9  A    between atoms: O_28  and  C_45
REMARK   10  A    between atoms: C_31  and  C_33
REMARK   11  A    between atoms: C_31  and  O_37
REMARK   12  A    between atoms: C_33  and  C_42
REMARK   13  A    between atoms: C_34  and  C_43
REMARK   14  A    between atoms: O_37  and  C_43
REMARK   15  A    between atoms: N_39  and  C_42
REMARK                            x       y       z     vdW  Elec       q    Type
REMARK                         _______ _______ _______ _____ _____    ______ ____
ROOT
ATOM      1  C   UNL A   1     -25.834   2.103  31.580  0.00  0.00    +0.118 C 
ENDROOT
BRANCH   1   3
ATOM      2  C   UNL A   1     -25.387  -0.679  31.571  0.00  0.00    +0.080 C 
ATOM      3  C   UNL A   1     -25.189   0.773  32.028  0.00  0.00    +0.045 C 
ATOM      4  C   UNL A   1     -25.336   0.684  33.544  0.00  0.00    +0.023 C 
ATOM      5  C   UNL A   1     -24.829  -0.715  33.905  0.00  0.00    +0.089 C 
ATOM      6  N   UNL A   1     -24.758  -1.481  32.646  0.00  0.00    -0.219 NA
BRANCH   2   7
ATOM      7  C   UNL A   1     -24.855  -1.012  30.143  0.00  0.00    +0.044 C 
BRANCH   7   8
ATOM      8  C   UNL A   1     -24.973  -2.505  29.788  0.00  0.00    -0.021 C 
ATOM      9  C   UNL A   1     -23.906  -3.173  29.146  0.00  0.00    -0.004 C 
ATOM     10  C   UNL A   1     -23.989  -4.549  28.853  0.00  0.00    -0.000 C 
ATOM     11  C   UNL A   1     -25.137  -5.280  29.205  0.00  0.00    -0.000 C 
ATOM     12  C   UNL A   1     -26.232  -4.611  29.784  0.00  0.00    -0.000 C 
ATOM     13  C   UNL A   1     -26.155  -3.232  30.065  0.00  0.00    -0.004 C 
ENDBRANCH   7   8
ENDBRANCH   2   7
ENDBRANCH   1   3
BRANCH   1  14
ATOM     14  C   UNL A   1     -25.480   2.076  30.095  0.00  0.00    +0.047 C 
BRANCH  14  15
ATOM     15  C   UNL A   1     -23.947   2.032  29.915  0.00  0.00    +0.075 C 
BRANCH  15  18
ATOM     16  C   UNL A   1     -23.021   1.939  26.349  0.00  0.00    +0.022 C 
ATOM     17  C   UNL A   1     -22.252   0.731  28.425  0.00  0.00    +0.072 C 
ATOM     18  N   UNL A   1     -23.713   1.613  28.559  0.00  0.00    -0.270 NA
ATOM     19  C   UNL A   1     -21.716   1.415  27.235  0.00  0.00    +0.019 C 
ATOM     20  C   UNL A   1     -24.305   1.325  27.088  0.00  0.00    +0.083 C 
BRANCH  20  21
ATOM     21  C   UNL A   1     -25.688   1.614  26.461  0.00  0.00    +0.030 C 
ATOM     22  C   UNL A   1     -26.250   2.920  26.395  0.00  0.00    +0.074 C 
ATOM     23  C   UNL A   1     -27.438   3.091  25.645  0.00  0.00    +0.106 C 
ATOM     24  N   UNL A   1     -28.075   2.089  25.003  0.00  0.00    -0.208 NA
ATOM     25  C   UNL A   1     -27.543   0.849  25.079  0.00  0.00    +0.253 C 
ATOM     26  C   UNL A   1     -26.354   0.576  25.777  0.00  0.00    +0.190 C 
ATOM     27  F   UNL A   1     -25.860  -0.681  25.795  0.00  0.00    -0.200 F 
BRANCH  22  28
ATOM     28  C   UNL A   1     -25.642   4.093  27.123  0.00  0.00    +0.266 C 
ATOM     29  N   UNL A   1     -25.614   5.252  26.449  0.00  0.00    -0.200 NA
ATOM     30  C   UNL A   1     -25.026   6.479  26.963  0.00  0.00    +0.139 C 
ATOM     31  O   UNL A   1     -25.143   3.966  28.243  0.00  0.00    -0.268 OA
ENDBRANCH  22  28
BRANCH  25  32
ATOM     32  O   UNL A   1     -28.193  -0.208  24.477  0.00  0.00    -0.456 OA
BRANCH  32  33
ATOM     33  C   UNL A   1     -29.460   0.005  23.866  0.00  0.00    +0.243 C 
BRANCH  33  34
ATOM     34  C   UNL A   1     -30.065  -1.377  23.573  0.00  0.00    +0.229 C 
ATOM     35  O   UNL A   1     -30.729  -1.878  24.721  0.00  0.00    -0.216 OA
ENDBRANCH  33  34
ENDBRANCH  32  33
ENDBRANCH  25  32
ENDBRANCH  20  21
ENDBRANCH  15  18
ENDBRANCH  14  15
ENDBRANCH   1  14
BRANCH   1  36
ATOM     36  O   UNL A   1     -25.148   3.228  32.181  0.00  0.00    -0.356 OA
BRANCH  36  37
ATOM     37  C   UNL A   1     -25.008   4.565  31.673  0.00  0.00    +0.145 C 
BRANCH  37  40
ATOM     38  C   UNL A   1     -23.129   5.609  33.380  0.00  0.00    +0.035 C 
ATOM     39  O   UNL A   1     -24.206   6.942  31.273  0.00  0.00    -0.223 OA
ATOM     40  C   UNL A   1     -24.483   5.344  32.875  0.00  0.00    +0.062 C 
ATOM     41  C   UNL A   1     -24.846   6.637  32.566  0.00  0.00    +0.157 C 
ATOM     42  C   UNL A   1     -24.378   7.554  33.671  0.00  0.00    +0.062 C 
ATOM     43  C   UNL A   1     -23.140   6.873  34.132  0.00  0.00    +0.118 C 
BRANCH  43  44
ATOM     44  O   UNL A   1     -21.840   7.399  34.080  0.00  0.00    -0.353 OA
ATOM     45  C   UNL A   1     -20.823   7.019  34.964  0.00  0.00    +0.174 C 
ENDBRANCH  43  44
ENDBRANCH  37  40
ENDBRANCH  36  37
ENDBRANCH   1  36
TORSDOF 15
