REMARK  Name = outputs/IAG933/test6/raw/output_4802_IAG933_linker_design_.xyz
REMARK  15 active torsions:
REMARK  status: ('A' for Active; 'I' for Inactive)
REMARK    1  A    between atoms: C_1  and  C_2
REMARK    2  A    between atoms: C_1  and  C_8
REMARK    3  A    between atoms: C_1  and  C_45
REMARK    4  A    between atoms: C_13  and  N_41
REMARK    5  A    between atoms: C_14  and  C_15
REMARK    6  A    between atoms: C_21  and  O_22
REMARK    7  A    between atoms: O_22  and  C_23
REMARK    8  A    between atoms: C_23  and  C_24
REMARK    9  A    between atoms: C_28  and  C_42
REMARK   10  A    between atoms: C_32  and  S_35
REMARK   11  A    between atoms: C_32  and  N_41
REMARK   12  A    between atoms: N_37  and  C_38
REMARK   13  A    between atoms: N_37  and  C_40
REMARK   14  A    between atoms: C_38  and  N_41
REMARK   15  A    between atoms: C_38  and  C_45
REMARK                            x       y       z     vdW  Elec       q    Type
REMARK                         _______ _______ _______ _____ _____    ______ ____
ROOT
ATOM      1  C   UNL A   1     -26.140   1.218  28.791  0.00  0.00    +0.184 C 
ENDROOT
BRANCH   1   3
ATOM      2  O   UNL A   1     -27.261  -0.764  29.118  0.00  0.00    -0.219 OA
ATOM      3  C   UNL A   1     -25.923  -0.204  29.254  0.00  0.00    +0.192 C 
BRANCH   3   4
ATOM      4  C   UNL A   1     -24.855  -1.012  30.143  0.00  0.00    +0.072 C 
BRANCH   4   5
ATOM      5  C   UNL A   1     -24.973  -2.505  29.788  0.00  0.00    -0.019 C 
ATOM      6  C   UNL A   1     -23.906  -3.173  29.146  0.00  0.00    -0.004 C 
ATOM      7  C   UNL A   1     -23.989  -4.549  28.853  0.00  0.00    -0.000 C 
ATOM      8  C   UNL A   1     -25.137  -5.280  29.205  0.00  0.00    -0.000 C 
ATOM      9  C   UNL A   1     -26.232  -4.611  29.784  0.00  0.00    -0.000 C 
ATOM     10  C   UNL A   1     -26.155  -3.232  30.065  0.00  0.00    -0.004 C 
ENDBRANCH   4   5
BRANCH   4  11
ATOM     11  C   UNL A   1     -25.387  -0.679  31.571  0.00  0.00    +0.079 C 
ATOM     12  C   UNL A   1     -25.189   0.773  32.028  0.00  0.00    +0.019 C 
ATOM     13  C   UNL A   1     -25.336   0.684  33.544  0.00  0.00    +0.020 C 
ATOM     14  C   UNL A   1     -24.829  -0.715  33.905  0.00  0.00    +0.089 C 
ATOM     15  N   UNL A   1     -24.758  -1.481  32.646  0.00  0.00    -0.219 NA
ENDBRANCH   4  11
ENDBRANCH   3   4
ENDBRANCH   1   3
BRANCH   1  16
ATOM     16  N   UNL A   1     -26.360   2.451  29.513  0.00  0.00    -0.220 NA
BRANCH  16  20
ATOM     17  C   UNL A   1     -28.218   6.051  29.892  0.00  0.00    +0.002 C 
ATOM     18  C   UNL A   1     -26.908   4.182  30.820  0.00  0.00    +0.023 C 
ATOM     19  C   UNL A   1     -28.526   3.694  29.031  0.00  0.00    +0.012 C 
ATOM     20  C   UNL A   1     -27.330   3.375  29.795  0.00  0.00    +0.067 C 
ATOM     21  C   UNL A   1     -27.120   5.562  30.693  0.00  0.00    +0.081 C 
ATOM     22  C   UNL A   1     -30.078   5.513  28.162  0.00  0.00    +0.031 C 
ATOM     23  C   UNL A   1     -28.955   5.052  29.056  0.00  0.00    -0.020 C 
BRANCH  21  24
ATOM     24  C   UNL A   1     -26.026   6.293  31.261  0.00  0.00    +0.388 C 
ATOM     25  O   UNL A   1     -25.631   5.939  32.390  0.00  0.00    -0.241 OA
ATOM     26  O   UNL A   1     -25.462   7.198  30.636  0.00  0.00    -0.241 OA
ENDBRANCH  21  24
ENDBRANCH  16  20
ENDBRANCH   1  16
BRANCH   1  27
ATOM     27  N   UNL A   1     -25.033   1.306  27.662  0.00  0.00    -0.229 NA
BRANCH  27  28
ATOM     28  C   UNL A   1     -25.688   1.614  26.461  0.00  0.00    +0.131 C 
ATOM     29  C   UNL A   1     -26.250   2.920  26.395  0.00  0.00    +0.070 C 
ATOM     30  C   UNL A   1     -27.438   3.091  25.645  0.00  0.00    +0.103 C 
ATOM     31  N   UNL A   1     -28.075   2.089  25.003  0.00  0.00    -0.212 NA
ATOM     32  C   UNL A   1     -27.543   0.849  25.079  0.00  0.00    +0.235 C 
ATOM     33  C   UNL A   1     -26.354   0.576  25.777  0.00  0.00    +0.255 C 
ATOM     34  F   UNL A   1     -25.860  -0.681  25.795  0.00  0.00    -0.225 F 
BRANCH  29  35
ATOM     35  C   UNL A   1     -25.642   4.093  27.123  0.00  0.00    +0.264 C 
ATOM     36  N   UNL A   1     -25.614   5.252  26.449  0.00  0.00    -0.200 NA
ATOM     37  C   UNL A   1     -25.026   6.479  26.963  0.00  0.00    +0.139 C 
ATOM     38  O   UNL A   1     -25.143   3.966  28.243  0.00  0.00    -0.269 OA
ENDBRANCH  29  35
BRANCH  32  39
ATOM     39  O   UNL A   1     -28.193  -0.208  24.477  0.00  0.00    -0.459 OA
BRANCH  39  40
ATOM     40  C   UNL A   1     -29.460   0.005  23.866  0.00  0.00    +0.242 C 
BRANCH  40  41
ATOM     41  C   UNL A   1     -30.065  -1.377  23.573  0.00  0.00    +0.229 C 
ATOM     42  O   UNL A   1     -30.729  -1.878  24.721  0.00  0.00    -0.216 OA
ENDBRANCH  40  41
ENDBRANCH  39  40
ENDBRANCH  32  39
ENDBRANCH  27  28
BRANCH  27  43
ATOM     43  C   UNL A   1     -23.689   1.793  28.115  0.00  0.00    +0.228 C 
BRANCH  43  46
ATOM     44  O   UNL A   1     -22.743  -0.234  27.989  0.00  0.00    -0.172 OA
ATOM     45  C   UNL A   1     -22.044   1.701  26.103  0.00  0.00    +0.178 C 
ATOM     46  S   UNL A   1     -22.472   1.005  27.627  0.00  0.00    +0.007 S 
ATOM     47  O   UNL A   1     -21.225   1.415  28.224  0.00  0.00    -0.172 OA
ENDBRANCH  43  46
ENDBRANCH  27  43
ENDBRANCH   1  27
TORSDOF 15
