MODEL 4802
MODEL 1
REMARK VINA RESULT:    -6.306      0.000      0.000
REMARK INTER + INTRA:          -8.327
REMARK INTER:                  -7.412
REMARK INTRA:                  -0.915
REMARK UNBOUND:                -0.915
REMARK  Name = No_4802-gen_results/8p0m/2024-11-27-11-27-31/
REMARK  3 active torsions:
REMARK  status: ('A' for Active; 'I' for Inactive)
REMARK    1  A    between atoms: C_2  and  C_5
REMARK    2  A    between atoms: C_3  and  C_4
REMARK    3  A    between atoms: C_9  and  C_10
REMARK                            x       y       z     vdW  Elec       q    Type
REMARK                         _______ _______ _______ _____ _____    ______ ____
ROOT
ATOM      1  C   UNL A   1     -26.143  -3.032  29.569  0.00  0.00    -0.003 A 
ATOM      2  C   UNL A   1     -26.377  -4.048  29.720  0.00  0.00    -0.003 A 
ATOM      3  C   UNL A   1     -24.887  -2.722  29.003  0.00  0.00    -0.001 A 
ATOM      4  C   UNL A   1     -25.535  -5.179  29.318  0.00  0.00    -0.003 A 
ATOM      5  C   UNL A   1     -24.295  -4.976  28.780  0.00  0.00    -0.000 A 
ATOM      6  C   UNL A   1     -23.942  -3.700  28.529  0.00  0.00    -0.000 A 
ENDROOT
BRANCH   3   7
ATOM      7  C   UNL A   1     -24.447  -1.353  28.626  0.00  0.00    -0.004 C 
ATOM      8  C   UNL A   1     -24.166  -0.427  29.162  0.00  0.00    -0.018 C 
BRANCH   8   9
ATOM      9  C   UNL A   1     -24.024  -0.596  30.645  0.00  0.00    +0.066 C 
ATOM     10  C   UNL A   1     -22.758  -0.923  31.287  0.00  0.00    -0.018 C 
ATOM     11  C   UNL A   1     -24.750  -0.054  31.671  0.00  0.00    -0.018 C 
ATOM     12  C   UNL A   1     -24.314  -0.773  32.777  0.00  0.00    -0.004 C 
ATOM     13  C   UNL A   1     -22.947  -1.202  32.685  0.00  0.00    -0.004 C 
ENDBRANCH   8   9
ENDBRANCH   3   7
BRANCH   2  14
ATOM     14  C   UNL A   1     -27.747  -4.521  30.250  0.00  0.00    +0.136 C 
ATOM     15  N   UNL A   1     -28.687  -3.850  30.224  0.00  0.00    -0.126 NA
ENDBRANCH   2  14
TORSDOF 3
ENDMDL
ENDMDL
