MODEL 4803
MODEL 1
REMARK VINA RESULT:    -5.409      0.000      0.000
REMARK INTER + INTRA:          -5.885
REMARK INTER:                  -5.726
REMARK INTRA:                  -0.160
REMARK UNBOUND:                -0.160
REMARK  Name = No_4803-gen_results/8p0m/2024-11-27-11-27-31/
REMARK  1 active torsions:
REMARK  status: ('A' for Active; 'I' for Inactive)
REMARK    1  A    between atoms: C_3  and  C_4
REMARK                            x       y       z     vdW  Elec       q    Type
REMARK                         _______ _______ _______ _____ _____    ______ ____
ROOT
ATOM      1  C   UNL A   1     -26.876   2.363  25.667  0.00  0.00    +0.012 A 
ATOM      2  C   UNL A   1     -25.967   2.213  26.451  0.00  0.00    +0.004 A 
ATOM      3  C   UNL A   1     -25.101   1.130  26.348  0.00  0.00    +0.001 A 
ATOM      4  C   UNL A   1     -27.224   1.305  24.699  0.00  0.00    +0.058 A 
ATOM      5  C   UNL A   1     -26.379   0.251  24.484  0.00  0.00    +0.011 A 
ATOM      6  C   UNL A   1     -25.261   0.065  25.350  0.00  0.00    +0.001 A 
ATOM      7 CL   UNL A   1     -28.562   1.451  23.649  0.00  0.00    -0.082 Cl
ATOM      8  P   UNL A   1     -25.566   3.508  27.641  0.00  0.00    -0.004 P 
ENDROOT
BRANCH   3   9
ATOM      9  C   UNL A   1     -23.956   0.829  27.254  0.00  0.00    +0.000 A 
ATOM     10  C   UNL A   1     -23.885  -0.279  28.168  0.00  0.00    +0.000 A 
ATOM     11  C   UNL A   1     -22.767  -0.510  28.931  0.00  0.00    +0.000 A 
ATOM     12  C   UNL A   1     -21.563   0.130  28.752  0.00  0.00    +0.000 A 
ATOM     13  C   UNL A   1     -22.674   1.520  27.080  0.00  0.00    +0.000 A 
ATOM     14  C   UNL A   1     -21.542   1.163  27.840  0.00  0.00    +0.000 A 
ENDBRANCH   3   9
TORSDOF 1
ENDMDL
ENDMDL
