MODEL 4804
MODEL 1
REMARK VINA RESULT:    -6.669      0.000      0.000
REMARK INTER + INTRA:          -8.018
REMARK INTER:                  -7.449
REMARK INTRA:                  -0.569
REMARK UNBOUND:                -0.569
REMARK  Name = No_4804-gen_results/8p0m/2024-11-27-11-27-31/
REMARK  2 active torsions:
REMARK  status: ('A' for Active; 'I' for Inactive)
REMARK    1  A    between atoms: C_3  and  C_4
REMARK    2  A    between atoms: C_4  and  C_8
REMARK                            x       y       z     vdW  Elec       q    Type
REMARK                         _______ _______ _______ _____ _____    ______ ____
ROOT
ATOM      1  C   UNL A   1     -25.102  -1.158  29.566  0.00  0.00    +0.053 C 
ENDROOT
BRANCH   1   2
ATOM      2  C   UNL A   1     -24.317  -0.315  28.649  0.00  0.00    -0.007 A 
ATOM      3  C   UNL A   1     -23.087   0.090  29.067  0.00  0.00    +0.054 A 
ATOM      4  C   UNL A   1     -22.312   0.928  28.195  0.00  0.00    +0.011 A 
ATOM      5  C   UNL A   1     -22.891   1.363  26.957  0.00  0.00    +0.001 A 
ATOM      6  C   UNL A   1     -24.771   0.123  27.414  0.00  0.00    -0.003 A 
ATOM      7  C   UNL A   1     -24.125   0.958  26.627  0.00  0.00    -0.000 A 
ATOM      8 CL   UNL A   1     -22.373  -0.344  30.468  0.00  0.00    -0.083 Cl
ENDBRANCH   1   2
BRANCH   1  11
ATOM      9  C   UNL A   1     -23.861  -3.318  28.750  0.00  0.00    -0.004 A 
ATOM     10  C   UNL A   1     -23.999  -4.349  28.583  0.00  0.00    -0.000 A 
ATOM     11  C   UNL A   1     -24.983  -2.595  29.368  0.00  0.00    -0.018 A 
ATOM     12  C   UNL A   1     -25.051  -5.288  29.041  0.00  0.00    -0.000 A 
ATOM     13  C   UNL A   1     -26.147  -4.680  29.644  0.00  0.00    -0.000 A 
ATOM     14  C   UNL A   1     -26.160  -3.319  29.860  0.00  0.00    -0.004 A 
ENDBRANCH   1  11
TORSDOF 2
ENDMDL
ENDMDL
