REMARK  Name = No_4805-gen_results/8p0m/2024-11-27-11-27-31/
REMARK  4 active torsions:
REMARK  status: ('A' for Active; 'I' for Inactive)
REMARK    1  A    between atoms: C_3  and  C_7
REMARK    2  A    between atoms: C_6  and  O_14
REMARK    3  A    between atoms: O_14  and  C_15
REMARK    4  A    between atoms: C_19  and  C_21
REMARK                            x       y       z     vdW  Elec       q    Type
REMARK                         _______ _______ _______ _____ _____    ______ ____
ROOT
ATOM      1  C   UNL A   1     -28.016  -0.814  28.878  0.00  0.00    +0.038 A 
ATOM      2  C   UNL A   1     -27.064  -0.119  28.608  0.00  0.00    +0.008 A 
ATOM      3  C   UNL A   1     -26.876   1.133  28.913  0.00  0.00    +0.057 A 
ATOM      4  C   UNL A   1     -27.901   1.807  29.644  0.00  0.00    +0.008 A 
ATOM      5  C   UNL A   1     -28.945   1.039  30.036  0.00  0.00    +0.038 A 
ATOM      6  C   UNL A   1     -29.027  -0.289  29.705  0.00  0.00    +0.145 A 
ENDROOT
BRANCH   3   7
ATOM      7  C   UNL A   1     -25.696   1.950  28.476  0.00  0.00    +0.265 C 
ATOM      8  N   UNL A   1     -25.099   1.912  27.663  0.00  0.00    -0.272 N 
ATOM      9  C   UNL A   1     -24.808   1.156  26.835  0.00  0.00    +0.083 A 
ATOM     10  C   UNL A   1     -23.852   1.401  25.760  0.00  0.00    +0.021 A 
ATOM     11  C   UNL A   1     -24.326   3.097  27.169  0.00  0.00    +0.083 A 
ATOM     12  C   UNL A   1     -23.508   2.718  25.996  0.00  0.00    +0.021 A 
ATOM     13  O   UNL A   1     -25.338   2.776  29.642  0.00  0.00    -0.267 OA
ENDBRANCH   3   7
BRANCH   6  14
ATOM     14  O   UNL A   1     -30.051  -1.117  30.048  0.00  0.00    -0.454 OA
BRANCH  14  15
ATOM     15  C   UNL A   1     -30.358  -1.228  31.370  0.00  0.00    +0.145 A 
ATOM     16  C   UNL A   1     -30.541  -2.224  31.798  0.00  0.00    +0.037 A 
ATOM     17  C   UNL A   1     -30.816  -2.510  33.280  0.00  0.00    +0.003 A 
ATOM     18  C   UNL A   1     -30.893  -1.400  34.122  0.00  0.00    +0.000 A 
ATOM     19  C   UNL A   1     -30.660  -0.175  33.536  0.00  0.00    +0.003 A 
ATOM     20  C   UNL A   1     -30.353  -0.047  32.236  0.00  0.00    +0.037 A 
BRANCH  19  21
ATOM     21  C   UNL A   1     -30.700   1.035  34.434  0.00  0.00    +0.000 A 
ATOM     22  C   UNL A   1     -30.193   1.204  35.373  0.00  0.00    +0.000 A 
ATOM     23  C   UNL A   1     -31.530   2.102  33.775  0.00  0.00    +0.000 A 
ATOM     24  C   UNL A   1     -31.731   3.277  34.469  0.00  0.00    +0.000 A 
ATOM     25  C   UNL A   1     -30.308   2.419  36.233  0.00  0.00    +0.000 A 
ATOM     26  C   UNL A   1     -31.093   3.433  35.703  0.00  0.00    +0.000 A 
ENDBRANCH  19  21
ENDBRANCH  14  15
ENDBRANCH   6  14
TORSDOF 4
