MODEL 4806
MODEL 1
REMARK VINA RESULT:    -7.110      0.000      0.000
REMARK INTER + INTRA:          -9.845
REMARK INTER:                  -8.773
REMARK INTRA:                  -1.072
REMARK UNBOUND:                -1.072
REMARK  Name = No_4806-gen_results/8p0m/2024-11-27-11-27-31/
REMARK  4 active torsions:
REMARK  status: ('A' for Active; 'I' for Inactive)
REMARK    1  A    between atoms: C_3  and  C_20
REMARK    2  A    between atoms: C_6  and  C_8
REMARK    3  A    between atoms: N_9  and  C_11
REMARK    4  A    between atoms: C_11  and  C_12
REMARK                            x       y       z     vdW  Elec       q    Type
REMARK                         _______ _______ _______ _____ _____    ______ ____
ROOT
ATOM      1  C   UNL A   1     -25.660 -13.490   6.172  0.00  0.00    +0.016 A 
ATOM      2  C   UNL A   1     -24.800 -12.907   5.553  0.00  0.00    +0.058 A 
ATOM      3  C   UNL A   1     -23.556 -13.488   5.331  0.00  0.00    +0.011 A 
ATOM      4  C   UNL A   1     -23.237 -14.785   5.870  0.00  0.00    +0.001 A 
ATOM      5  C   UNL A   1     -24.281 -15.378   6.592  0.00  0.00    +0.005 A 
ATOM      6  C   UNL A   1     -25.434 -14.779   6.788  0.00  0.00    +0.056 A 
ATOM      7 CL   UNL A   1     -24.988 -11.342   4.884  0.00  0.00    -0.082 Cl
ENDROOT
BRANCH   3   8
ATOM      8  C   UNL A   1     -22.454 -12.846   4.486  0.00  0.00    +0.001 A 
ATOM      9  C   UNL A   1     -21.406 -12.398   4.784  0.00  0.00    +0.000 A 
ATOM     10  C   UNL A   1     -20.411 -11.770   3.924  0.00  0.00    +0.000 A 
ATOM     11  C   UNL A   1     -20.517 -12.211   2.674  0.00  0.00    +0.000 A 
ATOM     12  C   UNL A   1     -21.643 -12.771   2.126  0.00  0.00    +0.000 A 
ATOM     13  C   UNL A   1     -22.596 -13.145   3.028  0.00  0.00    +0.000 A 
ENDBRANCH   3   8
BRANCH   6  14
ATOM     14  C   UNL A   1     -26.431 -15.495   7.616  0.00  0.00    +0.266 C 
ATOM     15  N   UNL A   1     -27.570 -15.074   7.683  0.00  0.00    -0.182 NA
ATOM     16  O   UNL A   1     -26.075 -16.518   8.297  0.00  0.00    -0.268 OA
BRANCH  15  17
ATOM     17  C   UNL A   1     -28.665 -15.723   8.439  0.00  0.00    +0.196 C 
ATOM     18 CL   UNL A   1     -29.850 -16.202   7.142  0.00  0.00    -0.086 Cl
BRANCH  17  19
ATOM     19  C   UNL A   1     -29.128 -15.204   9.371  0.00  0.00    +0.013 A 
ATOM     20  C   UNL A   1     -29.551 -15.806  10.414  0.00  0.00    -0.001 A 
ATOM     21  C   UNL A   1     -30.028 -15.201  11.650  0.00  0.00    +0.011 A 
ATOM     22  C   UNL A   1     -30.114 -13.796  11.624  0.00  0.00    +0.058 A 
ATOM     23  C   UNL A   1     -29.728 -13.075  10.549  0.00  0.00    +0.011 A 
ATOM     24  C   UNL A   1     -29.171 -13.592   9.456  0.00  0.00    -0.001 A 
ATOM     25 CL   UNL A   1     -30.708 -13.038  13.052  0.00  0.00    -0.082 Cl
ENDBRANCH  17  19
ENDBRANCH  15  17
ENDBRANCH   6  14
TORSDOF 4
ENDMDL
ENDMDL
