MODEL 4808
MODEL 1
REMARK VINA RESULT:    -5.234      0.000      0.000
REMARK INTER + INTRA:          -5.234
REMARK INTER:                  -5.234
REMARK INTRA:                   0.000
REMARK UNBOUND:                 0.000
REMARK  Name = No_4808-gen_results/8p0m/2024-11-27-11-27-31/
REMARK  0 active torsions:
REMARK  status: ('A' for Active; 'I' for Inactive)
REMARK                            x       y       z     vdW  Elec       q    Type
REMARK                         _______ _______ _______ _____ _____    ______ ____
ROOT
ATOM      1  C   UNL A   1     -26.325  -3.454  29.954  0.00  0.00    +0.037 A 
ATOM      2  C   UNL A   1     -25.484  -2.643  29.640  0.00  0.00    +0.142 A 
ATOM      3  C   UNL A   1     -24.315  -2.962  29.028  0.00  0.00    +0.017 A 
ATOM      4  C   UNL A   1     -24.059  -4.315  28.739  0.00  0.00    -0.001 A 
ATOM      5  C   UNL A   1     -26.172  -4.843  29.603  0.00  0.00    +0.003 A 
ATOM      6  C   UNL A   1     -25.002  -5.219  29.014  0.00  0.00    -0.000 A 
ATOM      7  O   UNL A   1     -25.667  -1.276  29.874  0.00  0.00    -0.451 OA
ATOM      8  C   UNL A   1     -24.680  -0.329  29.836  0.00  0.00    +0.175 C 
ATOM      9  C   UNL A   1     -23.523  -0.505  29.359  0.00  0.00    +0.019 C 
ATOM     10  C   UNL A   1     -23.273  -1.963  28.964  0.00  0.00    +0.059 C 
ENDROOT
TORSDOF 0
ENDMDL
ENDMDL
