REMARK  Name = outputs/IAG933/test6/raw/output_4808_IAG933_linker_design_.xyz
REMARK  12 active torsions:
REMARK  status: ('A' for Active; 'I' for Inactive)
REMARK    1  A    between atoms: C_1  and  C_2
REMARK    2  A    between atoms: C_1  and  C_8
REMARK    3  A    between atoms: C_9  and  N_43
REMARK    4  A    between atoms: C_13  and  C_38
REMARK    5  A    between atoms: C_14  and  C_15
REMARK    6  A    between atoms: C_21  and  O_22
REMARK    7  A    between atoms: O_22  and  C_23
REMARK    8  A    between atoms: C_23  and  C_24
REMARK    9  A    between atoms: C_29  and  O_41
REMARK   10  A    between atoms: C_31  and  N_43
REMARK   11  A    between atoms: C_31  and  C_45
REMARK   12  A    between atoms: C_35  and  N_43
REMARK                            x       y       z     vdW  Elec       q    Type
REMARK                         _______ _______ _______ _____ _____    ______ ____
ROOT
ATOM      1  C   UNL A   1     -24.026   1.709  30.299  0.00  0.00    +0.113 C 
ENDROOT
BRANCH   1   8
ATOM      2  N   UNL A   1     -22.046   0.707  29.309  0.00  0.00    -0.201 NA
ATOM      3  C   UNL A   1     -21.071   0.761  28.253  0.00  0.00    +0.150 C 
ATOM      4  C   UNL A   1     -23.322   1.515  27.616  0.00  0.00    +0.057 C 
ATOM      5  C   UNL A   1     -24.208   1.535  26.544  0.00  0.00    +0.183 C 
ATOM      6  S   UNL A   1     -21.689   1.598  26.913  0.00  0.00    -0.095 S 
ATOM      7  O   UNL A   1     -23.658   1.585  25.314  0.00  0.00    -0.291 OA
ATOM      8  C   UNL A   1     -23.229   1.355  29.098  0.00  0.00    +0.124 C 
BRANCH   5   9
ATOM      9  C   UNL A   1     -25.688   1.614  26.461  0.00  0.00    +0.132 C 
ATOM     10  C   UNL A   1     -26.250   2.920  26.395  0.00  0.00    +0.062 C 
ATOM     11  C   UNL A   1     -27.438   3.091  25.645  0.00  0.00    +0.103 C 
ATOM     12  N   UNL A   1     -28.075   2.089  25.003  0.00  0.00    -0.212 NA
ATOM     13  C   UNL A   1     -27.543   0.849  25.079  0.00  0.00    +0.234 C 
ATOM     14  C   UNL A   1     -26.354   0.576  25.777  0.00  0.00    +0.247 C 
ATOM     15  F   UNL A   1     -25.860  -0.681  25.795  0.00  0.00    -0.226 F 
BRANCH  10  16
ATOM     16  C   UNL A   1     -25.642   4.093  27.123  0.00  0.00    +0.263 C 
ATOM     17  N   UNL A   1     -25.614   5.252  26.449  0.00  0.00    -0.200 NA
ATOM     18  C   UNL A   1     -25.026   6.479  26.963  0.00  0.00    +0.139 C 
ATOM     19  O   UNL A   1     -25.143   3.966  28.243  0.00  0.00    -0.269 OA
ENDBRANCH  10  16
BRANCH  13  20
ATOM     20  O   UNL A   1     -28.193  -0.208  24.477  0.00  0.00    -0.459 OA
BRANCH  20  21
ATOM     21  C   UNL A   1     -29.460   0.005  23.866  0.00  0.00    +0.242 C 
BRANCH  21  22
ATOM     22  C   UNL A   1     -30.065  -1.377  23.573  0.00  0.00    +0.229 C 
ATOM     23  O   UNL A   1     -30.729  -1.878  24.721  0.00  0.00    -0.216 OA
ENDBRANCH  21  22
ENDBRANCH  20  21
ENDBRANCH  13  20
ENDBRANCH   5   9
ENDBRANCH   1   8
BRANCH   1  24
ATOM     24  N   UNL A   1     -24.928   1.782  31.244  0.00  0.00    -0.306 N 
BRANCH  24  28
ATOM     25  C   UNL A   1     -26.216   5.468  33.445  0.00  0.00    +0.121 C 
ATOM     26  C   UNL A   1     -24.675   3.885  32.377  0.00  0.00    -0.004 C 
ATOM     27  C   UNL A   1     -24.985   4.923  33.218  0.00  0.00    +0.091 C 
ATOM     28  C   UNL A   1     -25.501   2.938  31.748  0.00  0.00    +0.044 C 
ATOM     29  C   UNL A   1     -27.718   4.089  31.962  0.00  0.00    +0.004 C 
ATOM     30  C   UNL A   1     -27.419   5.185  32.787  0.00  0.00    +0.033 C 
ATOM     31  C   UNL A   1     -26.885   3.058  31.658  0.00  0.00    +0.014 C 
BRANCH  25  33
ATOM     32  C   UNL A   1     -26.863   7.787  34.308  0.00  0.00    +0.252 C 
ATOM     33  O   UNL A   1     -26.292   6.473  34.519  0.00  0.00    -0.475 OA
ENDBRANCH  25  33
ENDBRANCH  24  28
BRANCH  24  35
ATOM     34  C   UNL A   1     -25.387  -0.679  31.571  0.00  0.00    +0.095 C 
ATOM     35  C   UNL A   1     -25.189   0.773  32.028  0.00  0.00    +0.090 C 
ATOM     36  C   UNL A   1     -25.336   0.684  33.544  0.00  0.00    +0.040 C 
ATOM     37  C   UNL A   1     -24.829  -0.715  33.905  0.00  0.00    +0.090 C 
ATOM     38  N   UNL A   1     -24.758  -1.481  32.646  0.00  0.00    -0.217 NA
BRANCH  34  39
ATOM     39  C   UNL A   1     -24.855  -1.012  30.143  0.00  0.00    +0.045 C 
BRANCH  39  40
ATOM     40  C   UNL A   1     -24.973  -2.505  29.788  0.00  0.00    -0.021 C 
ATOM     41  C   UNL A   1     -23.906  -3.173  29.146  0.00  0.00    -0.004 C 
ATOM     42  C   UNL A   1     -23.989  -4.549  28.853  0.00  0.00    -0.000 C 
ATOM     43  C   UNL A   1     -25.137  -5.280  29.205  0.00  0.00    -0.000 C 
ATOM     44  C   UNL A   1     -26.232  -4.611  29.784  0.00  0.00    -0.000 C 
ATOM     45  C   UNL A   1     -26.155  -3.232  30.065  0.00  0.00    -0.004 C 
ENDBRANCH  39  40
ENDBRANCH  34  39
ENDBRANCH  24  35
ENDBRANCH   1  24
TORSDOF 12
