MODEL 480
MODEL 1
REMARK VINA RESULT:    -7.490      0.000      0.000
REMARK INTER + INTRA:          -7.490
REMARK INTER:                  -7.490
REMARK INTRA:                   0.000
REMARK UNBOUND:                 0.000
REMARK  Name = No_480-gen_results/8p0m/2024-11-27-11-27-31/
REMARK  0 active torsions:
REMARK  status: ('A' for Active; 'I' for Inactive)
REMARK                            x       y       z     vdW  Elec       q    Type
REMARK                         _______ _______ _______ _____ _____    ______ ____
ROOT
ATOM      1  C   UNL A   1     -29.172 -11.964  28.960  0.00  0.00    +0.007 A 
ATOM      2  C   UNL A   1     -29.264 -11.264  29.942  0.00  0.00    +0.003 A 
ATOM      3  C   UNL A   1     -30.145 -10.189  29.978  0.00  0.00    +0.000 A 
ATOM      4  C   UNL A   1     -30.944  -9.847  28.829  0.00  0.00    +0.001 A 
ATOM      5  C   UNL A   1     -30.758 -10.694  27.729  0.00  0.00    +0.007 A 
ATOM      6  C   UNL A   1     -29.899 -11.688  27.740  0.00  0.00    +0.035 A 
ATOM      7  C   UNL A   1     -28.499 -11.452  31.204  0.00  0.00    +0.035 A 
ATOM      8  C   UNL A   1     -27.852 -12.182  31.508  0.00  0.00    +0.003 A 
ATOM      9  C   UNL A   1     -27.164 -12.394  32.836  0.00  0.00    +0.000 A 
ATOM     10  C   UNL A   1     -27.475 -11.513  33.853  0.00  0.00    +0.006 A 
ATOM     11  C   UNL A   1     -28.409 -10.504  33.607  0.00  0.00    +0.070 A 
ATOM     12  C   UNL A   1     -28.900 -10.331  32.436  0.00  0.00    +0.150 A 
ATOM     13 BR   UNL A   1     -29.668 -12.673  26.169  0.00  0.00    -0.049 Br
ATOM     14  C   UNL A   1     -28.672  -9.538  34.687  0.00  0.00    +0.176 A 
ATOM     15  N   UNL A   1     -29.640  -9.098  34.973  0.00  0.00    -0.193 NA
ATOM     16  N   UNL A   1     -27.609  -9.395  35.638  0.00  0.00    -0.107 NA
ATOM     17  C   UNL A   1     -30.560  -8.918  33.943  0.00  0.00    +0.231 A 
ATOM     18  C   UNL A   1     -31.594  -7.873  33.887  0.00  0.00    +0.061 A 
ATOM     19  C   UNL A   1     -32.341  -7.610  32.795  0.00  0.00    +0.047 A 
ATOM     20  C   UNL A   1     -32.155  -8.425  31.658  0.00  0.00    +0.196 A 
ATOM     21  O   UNL A   1     -30.581  -9.430  32.748  0.00  0.00    -0.436 OA
ATOM     22  C   UNL A   1     -32.073  -8.047  30.463  0.00  0.00    +0.042 A 
ATOM     23  C   UNL A   1     -31.939  -8.865  28.902  0.00  0.00    +0.003 A 
ATOM     24  O   UNL A   1     -32.389  -9.660  31.797  0.00  0.00    -0.287 OA
ENDROOT
TORSDOF 0
ENDMDL
ENDMDL
