REMARK  Name = No_481-gen_results/8p0m/2024-11-27-11-27-31/
REMARK  5 active torsions:
REMARK  status: ('A' for Active; 'I' for Inactive)
REMARK    1  A    between atoms: C_1  and  C_2
REMARK    2  A    between atoms: C_1  and  C_8
REMARK    3  A    between atoms: C_3  and  C_13
REMARK    4  A    between atoms: C_9  and  C_10
REMARK    5  A    between atoms: C_17  and  C_19
REMARK                            x       y       z     vdW  Elec       q    Type
REMARK                         _______ _______ _______ _____ _____    ______ ____
ROOT
ATOM      1  C   UNL A   1     -27.064  -0.119  28.608  0.00  0.00    -0.018 A 
ATOM      2  C   UNL A   1     -26.972   0.714  27.506  0.00  0.00    -0.001 A 
ATOM      3  C   UNL A   1     -25.821   1.491  27.116  0.00  0.00    +0.029 A 
ATOM      4  C   UNL A   1     -24.656   1.424  27.918  0.00  0.00    +0.140 A 
ATOM      5  C   UNL A   1     -24.711   0.542  29.051  0.00  0.00    +0.029 A 
ATOM      6  C   UNL A   1     -25.804  -0.206  29.388  0.00  0.00    -0.002 A 
ATOM      7  F   UNL A   1     -23.594   2.101  27.652  0.00  0.00    -0.204 F 
ENDROOT
BRANCH   2   8
ATOM      8  C   UNL A   1     -28.105   0.837  26.575  0.00  0.00    -0.000 A 
ATOM      9  C   UNL A   1     -28.035   0.458  25.282  0.00  0.00    -0.000 A 
ATOM     10  C   UNL A   1     -29.132   0.447  24.413  0.00  0.00    +0.000 A 
ATOM     11  C   UNL A   1     -30.380   0.725  24.887  0.00  0.00    +0.007 A 
ATOM     12  C   UNL A   1     -30.515   1.104  26.259  0.00  0.00    +0.080 A 
ATOM     13  C   UNL A   1     -29.417   1.100  27.149  0.00  0.00    +0.007 A 
BRANCH  12  14
ATOM     14  C   UNL A   1     -31.854   1.358  26.812  0.00  0.00    +0.388 C 
ATOM     15  O   UNL A   1     -32.192   2.284  27.413  0.00  0.00    -0.241 OA
ATOM     16  O   UNL A   1     -32.612   0.248  26.858  0.00  0.00    -0.241 OA
ENDBRANCH  12  14
ENDBRANCH   2   8
BRANCH   1  17
ATOM     17  C   UNL A   1     -28.016  -0.814  28.878  0.00  0.00    +0.052 C 
BRANCH  17  18
ATOM     18  C   UNL A   1     -28.696  -0.499  30.133  0.00  0.00    -0.020 C 
ATOM     19  C   UNL A   1     -29.850  -1.325  30.577  0.00  0.00    +0.041 C 
BRANCH  19  20
ATOM     20  C   UNL A   1     -30.201  -2.316  29.771  0.00  0.00    +0.341 C 
ATOM     21  F   UNL A   1     -31.392  -2.811  29.960  0.00  0.00    -0.193 F 
ATOM     22  F   UNL A   1     -29.639  -2.603  28.796  0.00  0.00    -0.193 F 
ENDBRANCH  19  20
ENDBRANCH  17  18
ENDBRANCH   1  17
TORSDOF 5
