MODEL 4810
MODEL 1
REMARK VINA RESULT:    -5.531      0.000      0.000
REMARK INTER + INTRA:          -6.074
REMARK INTER:                  -5.854
REMARK INTRA:                  -0.220
REMARK UNBOUND:                -0.220
REMARK  Name = No_4810-gen_results/8p0m/2024-11-27-11-27-31/
REMARK  1 active torsions:
REMARK  status: ('A' for Active; 'I' for Inactive)
REMARK    1  A    between atoms: C_2  and  C_8
REMARK                            x       y       z     vdW  Elec       q    Type
REMARK                         _______ _______ _______ _____ _____    ______ ____
ROOT
ATOM      1  C   UNL A   1     -25.609  -2.862  29.653  0.00  0.00    +0.013 A 
ATOM      2  C   UNL A   1     -24.490  -2.740  29.211  0.00  0.00    +0.049 A 
ATOM      3  C   UNL A   1     -23.817  -3.820  28.652  0.00  0.00    +0.002 A 
ATOM      4  C   UNL A   1     -24.189  -4.837  28.637  0.00  0.00    +0.001 A 
ATOM      5  C   UNL A   1     -25.527  -5.204  29.175  0.00  0.00    +0.011 A 
ATOM      6  C   UNL A   1     -26.189  -4.196  29.694  0.00  0.00    +0.058 A 
ATOM      7 CL   UNL A   1     -27.734  -4.510  30.351  0.00  0.00    -0.082 Cl
ENDROOT
BRANCH   2   8
ATOM      8  C   UNL A   1     -23.834  -1.348  29.186  0.00  0.00    +0.328 C 
ATOM      9 BR   UNL A   1     -24.242  -0.543  28.384  0.00  0.00    -0.005 Br
ATOM     10  F   UNL A   1     -23.693  -1.042  30.500  0.00  0.00    -0.187 F 
ATOM     11  F   UNL A   1     -22.425  -1.643  28.970  0.00  0.00    -0.187 F 
ENDBRANCH   2   8
TORSDOF 1
ENDMDL
ENDMDL
