REMARK  Name = outputs/IAG933/test6/raw/output_4810_IAG933_linker_design_.xyz
REMARK  14 active torsions:
REMARK  status: ('A' for Active; 'I' for Inactive)
REMARK    1  A    between atoms: C_1  and  C_2
REMARK    2  A    between atoms: C_1  and  C_8
REMARK    3  A    between atoms: C_1  and  C_32
REMARK    4  A    between atoms: C_13  and  C_39
REMARK    5  A    between atoms: C_14  and  C_15
REMARK    6  A    between atoms: C_21  and  O_22
REMARK    7  A    between atoms: O_22  and  C_23
REMARK    8  A    between atoms: C_23  and  C_24
REMARK    9  A    between atoms: C_28  and  O_35
REMARK   10  A    between atoms: C_31  and  C_32
REMARK   11  A    between atoms: C_31  and  C_36
REMARK   12  A    between atoms: C_32  and  N_42
REMARK   13  A    between atoms: C_36  and  C_37
REMARK   14  A    between atoms: C_38  and  N_42
REMARK                            x       y       z     vdW  Elec       q    Type
REMARK                         _______ _______ _______ _____ _____    ______ ____
ROOT
ATOM      1  C   UNL A   1     -23.097   1.959  26.168  0.00  0.00    +0.187 C 
ATOM      2  C   UNL A   1     -21.788   1.503  28.067  0.00  0.00    +0.034 C 
ATOM      3  C   UNL A   1     -21.869   2.018  26.795  0.00  0.00    +0.043 C 
ATOM      4  C   UNL A   1     -24.185   1.156  28.080  0.00  0.00    +0.092 C 
ATOM      5  C   UNL A   1     -24.280   1.569  26.816  0.00  0.00    +0.040 C 
ATOM      6  C   UNL A   1     -22.935   1.019  28.703  0.00  0.00    +0.155 C 
ATOM      7  F   UNL A   1     -22.718   0.423  29.891  0.00  0.00    -0.203 F 
ENDROOT
BRANCH   5   8
ATOM      8  C   UNL A   1     -25.688   1.614  26.461  0.00  0.00    +0.097 C 
ATOM      9  C   UNL A   1     -26.250   2.920  26.395  0.00  0.00    +0.059 C 
ATOM     10  C   UNL A   1     -27.438   3.091  25.645  0.00  0.00    +0.102 C 
ATOM     11  N   UNL A   1     -28.075   2.089  25.003  0.00  0.00    -0.212 NA
ATOM     12  C   UNL A   1     -27.543   0.849  25.079  0.00  0.00    +0.234 C 
ATOM     13  C   UNL A   1     -26.354   0.576  25.777  0.00  0.00    +0.244 C 
ATOM     14  F   UNL A   1     -25.860  -0.681  25.795  0.00  0.00    -0.227 F 
BRANCH   9  15
ATOM     15  C   UNL A   1     -25.642   4.093  27.123  0.00  0.00    +0.263 C 
ATOM     16  N   UNL A   1     -25.614   5.252  26.449  0.00  0.00    -0.200 NA
ATOM     17  C   UNL A   1     -25.026   6.479  26.963  0.00  0.00    +0.139 C 
ATOM     18  O   UNL A   1     -25.143   3.966  28.243  0.00  0.00    -0.269 OA
ENDBRANCH   9  15
BRANCH  12  19
ATOM     19  O   UNL A   1     -28.193  -0.208  24.477  0.00  0.00    -0.459 OA
BRANCH  19  20
ATOM     20  C   UNL A   1     -29.460   0.005  23.866  0.00  0.00    +0.242 C 
BRANCH  20  21
ATOM     21  C   UNL A   1     -30.065  -1.377  23.573  0.00  0.00    +0.229 C 
ATOM     22  O   UNL A   1     -30.729  -1.878  24.721  0.00  0.00    -0.216 OA
ENDBRANCH  20  21
ENDBRANCH  19  20
ENDBRANCH  12  19
ENDBRANCH   5   8
BRANCH   1  23
ATOM     23  O   UNL A   1     -23.143   2.223  24.893  0.00  0.00    -0.292 OA
ATOM     24  F   UNL A   1     -23.360   1.088  24.299  0.00  0.00    +0.014 F 
ENDBRANCH   1  23
BRANCH   4  25
ATOM     25  N   UNL A   1     -25.427   1.137  28.792  0.00  0.00    -0.237 NA
BRANCH  25  26
ATOM     26  C   UNL A   1     -26.016  -0.247  29.206  0.00  0.00    +0.098 C 
BRANCH  26  27
ATOM     27  C   UNL A   1     -24.855  -1.012  30.143  0.00  0.00    +0.058 C 
BRANCH  27  28
ATOM     28  C   UNL A   1     -24.973  -2.505  29.788  0.00  0.00    -0.019 C 
ATOM     29  C   UNL A   1     -23.906  -3.173  29.146  0.00  0.00    -0.004 C 
ATOM     30  C   UNL A   1     -23.989  -4.549  28.853  0.00  0.00    -0.000 C 
ATOM     31  C   UNL A   1     -25.137  -5.280  29.205  0.00  0.00    -0.000 C 
ATOM     32  C   UNL A   1     -26.232  -4.611  29.784  0.00  0.00    -0.000 C 
ATOM     33  C   UNL A   1     -26.155  -3.232  30.065  0.00  0.00    -0.004 C 
ENDBRANCH  27  28
BRANCH  27  34
ATOM     34  C   UNL A   1     -25.387  -0.679  31.571  0.00  0.00    +0.079 C 
ATOM     35  C   UNL A   1     -25.189   0.773  32.028  0.00  0.00    +0.019 C 
ATOM     36  C   UNL A   1     -25.336   0.684  33.544  0.00  0.00    +0.020 C 
ATOM     37  C   UNL A   1     -24.829  -0.715  33.905  0.00  0.00    +0.089 C 
ATOM     38  N   UNL A   1     -24.758  -1.481  32.646  0.00  0.00    -0.219 NA
ENDBRANCH  27  34
ENDBRANCH  26  27
BRANCH  26  39
ATOM     39  C   UNL A   1     -27.673  -0.122  28.967  0.00  0.00    +0.022 C 
BRANCH  39  40
ATOM     40  C   UNL A   1     -28.380  -0.585  30.065  0.00  0.00    +0.004 C 
BRANCH  40  43
ATOM     41  C   UNL A   1     -29.532   1.603  29.977  0.00  0.00    +0.035 C 
ATOM     42  C   UNL A   1     -29.134   0.585  32.148  0.00  0.00    +0.142 C 
ATOM     43  C   UNL A   1     -29.409   0.260  30.669  0.00  0.00    +0.032 C 
ATOM     44  C   UNL A   1     -28.943   2.548  30.928  0.00  0.00    +0.142 C 
ATOM     45  O   UNL A   1     -28.876   2.008  32.163  0.00  0.00    -0.354 OA
ENDBRANCH  40  43
ENDBRANCH  39  40
ENDBRANCH  26  39
ENDBRANCH  25  26
ENDBRANCH   4  25
TORSDOF 14
