REMARK  Name = outputs/IAG933/test6/raw/output_4811_IAG933_linker_design_.xyz
REMARK  15 active torsions:
REMARK  status: ('A' for Active; 'I' for Inactive)
REMARK    1  A    between atoms: C_1  and  C_2
REMARK    2  A    between atoms: C_1  and  C_8
REMARK    3  A    between atoms: C_1  and  N_45
REMARK    4  A    between atoms: C_13  and  N_33
REMARK    5  A    between atoms: C_14  and  C_15
REMARK    6  A    between atoms: C_21  and  O_22
REMARK    7  A    between atoms: O_22  and  C_23
REMARK    8  A    between atoms: C_23  and  C_24
REMARK    9  A    between atoms: C_29  and  N_45
REMARK   10  A    between atoms: C_30  and  C_38
REMARK   11  A    between atoms: C_31  and  O_43
REMARK   12  A    between atoms: N_33  and  C_38
REMARK   13  A    between atoms: C_34  and  C_37
REMARK   14  A    between atoms: C_36  and  C_38
REMARK   15  A    between atoms: C_36  and  O_41
REMARK                            x       y       z     vdW  Elec       q    Type
REMARK                         _______ _______ _______ _____ _____    ______ ____
ROOT
ATOM      1  N   UNL A   1     -22.777  -0.172  29.381  0.00  0.00    +0.191 NA
ATOM      2  C   UNL A   1     -23.960   0.438  28.562  0.00  0.00    +0.392 C 
ATOM      3  N   UNL A   1     -25.101  -0.270  28.998  0.00  0.00    -0.123 N 
ENDROOT
BRANCH   3   4
ATOM      4  C   UNL A   1     -26.721  -0.360  28.627  0.00  0.00    +0.113 C 
ATOM      5  C   UNL A   1     -28.094  -0.181  28.412  0.00  0.00    -0.044 C 
BRANCH   5   8
ATOM      6  C   UNL A   1     -30.392   0.262  27.097  0.00  0.00    +0.127 C 
ATOM      7  C   UNL A   1     -31.347   1.461  27.078  0.00  0.00    +0.031 C 
ATOM      8  C   UNL A   1     -29.605   0.330  28.329  0.00  0.00    +0.095 C 
ATOM      9  C   UNL A   1     -30.345   2.579  27.533  0.00  0.00    +0.004 C 
ATOM     10  C   UNL A   1     -29.420   1.878  28.597  0.00  0.00    +0.016 C 
BRANCH   6  12
ATOM     11  C   UNL A   1     -31.677  -1.566  28.088  0.00  0.00    +0.174 C 
ATOM     12  O   UNL A   1     -31.064  -1.007  26.921  0.00  0.00    -0.353 OA
ENDBRANCH   6  12
ENDBRANCH   5   8
ENDBRANCH   3   4
BRANCH   3  13
ATOM     13  C   UNL A   1     -24.855  -1.012  30.143  0.00  0.00    +0.212 C 
BRANCH  13  14
ATOM     14  C   UNL A   1     -24.973  -2.505  29.788  0.00  0.00    +0.022 C 
ATOM     15  C   UNL A   1     -23.906  -3.173  29.146  0.00  0.00    -0.000 C 
ATOM     16  C   UNL A   1     -23.989  -4.549  28.853  0.00  0.00    -0.000 C 
ATOM     17  C   UNL A   1     -25.137  -5.280  29.205  0.00  0.00    -0.000 C 
ATOM     18  C   UNL A   1     -26.232  -4.611  29.784  0.00  0.00    -0.000 C 
ATOM     19  C   UNL A   1     -26.155  -3.232  30.065  0.00  0.00    -0.000 C 
ENDBRANCH  13  14
BRANCH  13  20
ATOM     20  C   UNL A   1     -25.387  -0.679  31.571  0.00  0.00    +0.121 C 
ATOM     21  C   UNL A   1     -25.189   0.773  32.028  0.00  0.00    +0.023 C 
ATOM     22  C   UNL A   1     -25.336   0.684  33.544  0.00  0.00    +0.020 C 
ATOM     23  C   UNL A   1     -24.829  -0.715  33.905  0.00  0.00    +0.089 C 
ATOM     24  N   UNL A   1     -24.758  -1.481  32.646  0.00  0.00    -0.215 NA
ENDBRANCH  13  20
ENDBRANCH   3  13
BRANCH   2  25
ATOM     25  C   UNL A   1     -23.825   1.112  27.654  0.00  0.00    +0.283 C 
BRANCH  25  27
ATOM     26  O   UNL A   1     -21.467   1.363  27.238  0.00  0.00    -0.248 OA
ATOM     27  C   UNL A   1     -22.602   1.420  26.907  0.00  0.00    +0.345 C 
BRANCH  27  29
ATOM     28  C   UNL A   1     -22.161   2.046  24.661  0.00  0.00    +0.256 C 
ATOM     29  O   UNL A   1     -22.915   1.287  25.584  0.00  0.00    -0.443 OA
ENDBRANCH  27  29
ENDBRANCH  25  27
BRANCH  25  30
ATOM     30  N   UNL A   1     -24.870   1.482  27.513  0.00  0.00    -0.191 NA
BRANCH  30  31
ATOM     31  C   UNL A   1     -25.688   1.614  26.461  0.00  0.00    +0.144 C 
ATOM     32  C   UNL A   1     -26.250   2.920  26.395  0.00  0.00    +0.071 C 
ATOM     33  C   UNL A   1     -27.438   3.091  25.645  0.00  0.00    +0.103 C 
ATOM     34  N   UNL A   1     -28.075   2.089  25.003  0.00  0.00    -0.212 NA
ATOM     35  C   UNL A   1     -27.543   0.849  25.079  0.00  0.00    +0.236 C 
ATOM     36  C   UNL A   1     -26.354   0.576  25.777  0.00  0.00    +0.256 C 
ATOM     37  F   UNL A   1     -25.860  -0.681  25.795  0.00  0.00    -0.225 F 
BRANCH  32  38
ATOM     38  C   UNL A   1     -25.642   4.093  27.123  0.00  0.00    +0.264 C 
ATOM     39  N   UNL A   1     -25.614   5.252  26.449  0.00  0.00    -0.200 NA
ATOM     40  C   UNL A   1     -25.026   6.479  26.963  0.00  0.00    +0.139 C 
ATOM     41  O   UNL A   1     -25.143   3.966  28.243  0.00  0.00    -0.269 OA
ENDBRANCH  32  38
BRANCH  35  42
ATOM     42  O   UNL A   1     -28.193  -0.208  24.477  0.00  0.00    -0.459 OA
BRANCH  42  43
ATOM     43  C   UNL A   1     -29.460   0.005  23.866  0.00  0.00    +0.242 C 
BRANCH  43  44
ATOM     44  C   UNL A   1     -30.065  -1.377  23.573  0.00  0.00    +0.229 C 
ATOM     45  O   UNL A   1     -30.729  -1.878  24.721  0.00  0.00    -0.216 OA
ENDBRANCH  43  44
ENDBRANCH  42  43
ENDBRANCH  35  42
ENDBRANCH  30  31
ENDBRANCH  25  30
ENDBRANCH   2  25
TORSDOF 15
