MODEL 4811
MODEL 1
REMARK VINA RESULT:    -6.514      0.000      0.000
REMARK INTER + INTRA:          -7.002
REMARK INTER:                  -6.895
REMARK INTRA:                  -0.107
REMARK UNBOUND:                -0.107
REMARK  Name = No_4811-gen_results/8p0m/2024-11-27-11-27-31/
REMARK  1 active torsions:
REMARK  status: ('A' for Active; 'I' for Inactive)
REMARK    1  A    between atoms: C_2  and  C_7
REMARK                            x       y       z     vdW  Elec       q    Type
REMARK                         _______ _______ _______ _____ _____    ______ ____
ROOT
ATOM      1  C   UNL A   1     -13.539   3.117  36.991  0.00  0.00    +0.009 A 
ATOM      2  C   UNL A   1     -14.369   2.967  36.359  0.00  0.00    +0.080 A 
ATOM      3  C   UNL A   1     -12.502   2.095  36.847  0.00  0.00    +0.035 A 
ATOM      4  C   UNL A   1     -11.832   2.018  35.819  0.00  0.00    +0.003 A 
ATOM      5  C   UNL A   1     -14.098   2.726  34.826  0.00  0.00    +0.007 A 
ATOM      6  C   UNL A   1     -12.870   2.022  34.602  0.00  0.00    +0.000 A 
ATOM      7  C   UNL A   1     -10.646   1.163  35.481  0.00  0.00    -0.004 A 
ATOM      8  C   UNL A   1      -9.850   1.378  34.701  0.00  0.00    -0.000 A 
ATOM      9  C   UNL A   1      -8.469   0.819  34.555  0.00  0.00    -0.000 A 
ATOM     10  C   UNL A   1     -10.287   0.129  36.470  0.00  0.00    -0.022 A 
ATOM     11  C   UNL A   1     -11.153  -0.340  37.461  0.00  0.00    +0.035 C 
ATOM     12  C   UNL A   1      -8.003   0.116  35.622  0.00  0.00    -0.000 A 
ATOM     13  C   UNL A   1      -8.912  -0.325  36.507  0.00  0.00    -0.004 A 
ATOM     14  C   UNL A   1     -11.861   1.556  38.120  0.00  0.00    +0.173 C 
ATOM     15  C   UNL A   1     -11.506   0.353  38.388  0.00  0.00    +0.074 C 
ATOM     16  O   UNL A   1     -11.787   2.499  39.132  0.00  0.00    -0.291 OA
ENDROOT
BRANCH   2  17
ATOM     17  C   UNL A   1     -15.688   3.735  36.419  0.00  0.00    +0.388 C 
ATOM     18  O   UNL A   1     -16.148   4.224  37.320  0.00  0.00    -0.241 OA
ATOM     19  O   UNL A   1     -16.357   3.719  35.263  0.00  0.00    -0.241 OA
ENDBRANCH   2  17
TORSDOF 1
ENDMDL
ENDMDL
