REMARK  Name = outputs/IAG933/test6/raw/output_4812_IAG933_linker_design_.xyz
REMARK  13 active torsions:
REMARK  status: ('A' for Active; 'I' for Inactive)
REMARK    1  A    between atoms: C_1  and  C_2
REMARK    2  A    between atoms: C_1  and  C_8
REMARK    3  A    between atoms: C_1  and  C_38
REMARK    4  A    between atoms: C_13  and  C_33
REMARK    5  A    between atoms: C_14  and  C_15
REMARK    6  A    between atoms: C_21  and  O_22
REMARK    7  A    between atoms: O_22  and  C_23
REMARK    8  A    between atoms: C_23  and  C_24
REMARK    9  A    between atoms: C_28  and  N_32
REMARK   10  A    between atoms: N_32  and  C_33
REMARK   11  A    between atoms: C_38  and  C_39
REMARK   12  A    between atoms: C_38  and  O_40
REMARK   13  A    between atoms: O_40  and  C_42
REMARK                            x       y       z     vdW  Elec       q    Type
REMARK                         _______ _______ _______ _____ _____    ______ ____
ROOT
ATOM      1  C   UNL A   1     -22.596   0.960  27.894  0.00  0.00    +0.080 C 
ATOM      2  C   UNL A   1     -21.986  -0.631  29.560  0.00  0.00    +0.004 C 
ATOM      3  C   UNL A   1     -20.773  -0.473  28.953  0.00  0.00    +0.000 C 
ATOM      4  C   UNL A   1     -21.247   1.145  27.731  0.00  0.00    +0.020 C 
ATOM      5  C   UNL A   1     -20.245   0.324  28.208  0.00  0.00    +0.002 C 
ATOM      6  C   UNL A   1     -22.953   0.180  28.978  0.00  0.00    +0.046 C 
ENDROOT
BRANCH   1   8
ATOM      7  O   UNL A   1     -23.569   1.071  24.743  0.00  0.00    -0.236 OA
ATOM      8  N   UNL A   1     -23.456   1.355  26.917  0.00  0.00    -0.250 N 
ATOM      9  F   UNL A   1     -22.009   2.493  25.782  0.00  0.00    -0.143 F 
ATOM     10  C   UNL A   1     -22.985   1.601  25.734  0.00  0.00    +0.394 C 
BRANCH   8  11
ATOM     11  C   UNL A   1     -24.693   1.384  27.137  0.00  0.00    +0.125 C 
BRANCH  11  12
ATOM     12  C   UNL A   1     -25.688   1.614  26.461  0.00  0.00    +0.036 C 
ATOM     13  C   UNL A   1     -26.250   2.920  26.395  0.00  0.00    +0.074 C 
ATOM     14  C   UNL A   1     -27.438   3.091  25.645  0.00  0.00    +0.106 C 
ATOM     15  N   UNL A   1     -28.075   2.089  25.003  0.00  0.00    -0.208 NA
ATOM     16  C   UNL A   1     -27.543   0.849  25.079  0.00  0.00    +0.253 C 
ATOM     17  C   UNL A   1     -26.354   0.576  25.777  0.00  0.00    +0.191 C 
ATOM     18  F   UNL A   1     -25.860  -0.681  25.795  0.00  0.00    -0.200 F 
BRANCH  13  19
ATOM     19  C   UNL A   1     -25.642   4.093  27.123  0.00  0.00    +0.266 C 
ATOM     20  N   UNL A   1     -25.614   5.252  26.449  0.00  0.00    -0.200 NA
ATOM     21  C   UNL A   1     -25.026   6.479  26.963  0.00  0.00    +0.139 C 
ATOM     22  O   UNL A   1     -25.143   3.966  28.243  0.00  0.00    -0.268 OA
ENDBRANCH  13  19
BRANCH  16  23
ATOM     23  O   UNL A   1     -28.193  -0.208  24.477  0.00  0.00    -0.456 OA
BRANCH  23  24
ATOM     24  C   UNL A   1     -29.460   0.005  23.866  0.00  0.00    +0.243 C 
BRANCH  24  25
ATOM     25  C   UNL A   1     -30.065  -1.377  23.573  0.00  0.00    +0.229 C 
ATOM     26  O   UNL A   1     -30.729  -1.878  24.721  0.00  0.00    -0.216 OA
ENDBRANCH  24  25
ENDBRANCH  23  24
ENDBRANCH  16  23
ENDBRANCH  11  12
ENDBRANCH   8  11
ENDBRANCH   1   8
BRANCH   6  27
ATOM     27  C   UNL A   1     -24.343   0.241  29.426  0.00  0.00    +0.124 C 
BRANCH  27  28
ATOM     28  C   UNL A   1     -24.855  -1.012  30.143  0.00  0.00    +0.066 C 
BRANCH  28  29
ATOM     29  C   UNL A   1     -24.973  -2.505  29.788  0.00  0.00    -0.019 C 
ATOM     30  C   UNL A   1     -23.906  -3.173  29.146  0.00  0.00    -0.004 C 
ATOM     31  C   UNL A   1     -23.989  -4.549  28.853  0.00  0.00    -0.000 C 
ATOM     32  C   UNL A   1     -25.137  -5.280  29.205  0.00  0.00    -0.000 C 
ATOM     33  C   UNL A   1     -26.232  -4.611  29.784  0.00  0.00    -0.000 C 
ATOM     34  C   UNL A   1     -26.155  -3.232  30.065  0.00  0.00    -0.004 C 
ENDBRANCH  28  29
BRANCH  28  35
ATOM     35  C   UNL A   1     -25.387  -0.679  31.571  0.00  0.00    +0.079 C 
ATOM     36  C   UNL A   1     -25.189   0.773  32.028  0.00  0.00    +0.019 C 
ATOM     37  C   UNL A   1     -25.336   0.684  33.544  0.00  0.00    +0.020 C 
ATOM     38  C   UNL A   1     -24.829  -0.715  33.905  0.00  0.00    +0.089 C 
ATOM     39  N   UNL A   1     -24.758  -1.481  32.646  0.00  0.00    -0.219 NA
ENDBRANCH  28  35
ENDBRANCH  27  28
BRANCH  27  40
ATOM     40  O   UNL A   1     -25.069   1.424  29.640  0.00  0.00    -0.340 OA
BRANCH  40  42
ATOM     41 CL   UNL A   1     -25.547   3.959  31.099  0.00  0.00    -0.078 Cl
ATOM     42  C   UNL A   1     -26.056   2.367  30.144  0.00  0.00    +0.237 C 
ENDBRANCH  40  42
ENDBRANCH  27  40
ENDBRANCH   6  27
TORSDOF 13
