MODEL 4813
MODEL 1
REMARK VINA RESULT:    -6.773      0.000      0.000
REMARK INTER + INTRA:          -9.491
REMARK INTER:                  -8.356
REMARK INTRA:                  -1.135
REMARK UNBOUND:                -1.135
REMARK  Name = No_4813-gen_results/8p0m/2024-11-27-11-27-31/
REMARK  4 active torsions:
REMARK  status: ('A' for Active; 'I' for Inactive)
REMARK    1  A    between atoms: C_2  and  C_7
REMARK    2  A    between atoms: C_4  and  C_14
REMARK    3  A    between atoms: C_6  and  C_11
REMARK    4  A    between atoms: C_14  and  C_15
REMARK                            x       y       z     vdW  Elec       q    Type
REMARK                         _______ _______ _______ _____ _____    ______ ____
ROOT
ATOM      1  C   UNL A   1     -23.225  -2.292  29.164  0.00  0.00    +0.010 A 
ATOM      2  C   UNL A   1     -23.130  -1.102  28.971  0.00  0.00    +0.071 A 
ATOM      3  C   UNL A   1     -24.229  -0.350  28.570  0.00  0.00    -0.000 A 
ATOM      4  C   UNL A   1     -25.504  -0.973  28.327  0.00  0.00    -0.018 A 
ATOM      5  C   UNL A   1     -25.519  -2.356  28.551  0.00  0.00    +0.003 A 
ATOM      6  C   UNL A   1     -24.447  -3.023  28.914  0.00  0.00    +0.079 A 
ENDROOT
BRANCH   2   7
ATOM      7  C   UNL A   1     -21.889  -0.300  29.146  0.00  0.00    +0.419 C 
ATOM      8  F   UNL A   1     -21.717   0.098  30.236  0.00  0.00    -0.166 F 
ATOM      9  F   UNL A   1     -21.924   0.808  28.239  0.00  0.00    -0.166 F 
ATOM     10  F   UNL A   1     -20.754  -0.996  28.763  0.00  0.00    -0.166 F 
ENDBRANCH   2   7
BRANCH   6  11
ATOM     11  C   UNL A   1     -24.570  -4.484  29.026  0.00  0.00    +0.388 C 
ATOM     12  O   UNL A   1     -23.840  -5.141  28.513  0.00  0.00    -0.241 OA
ATOM     13  O   UNL A   1     -25.723  -4.945  29.455  0.00  0.00    -0.241 OA
ENDBRANCH   6  11
BRANCH   4  14
ATOM     14  C   UNL A   1     -26.617  -0.140  27.896  0.00  0.00    +0.053 C 
BRANCH  14  15
ATOM     15  C   UNL A   1     -26.355   0.660  26.708  0.00  0.00    -0.018 A 
ATOM     16  C   UNL A   1     -25.938   2.008  26.907  0.00  0.00    -0.004 A 
ATOM     17  C   UNL A   1     -24.795   2.557  26.220  0.00  0.00    -0.000 A 
ATOM     18  C   UNL A   1     -24.012   1.667  25.381  0.00  0.00    -0.000 A 
ATOM     19  C   UNL A   1     -24.717   0.477  24.860  0.00  0.00    -0.000 A 
ATOM     20  C   UNL A   1     -25.770  -0.088  25.623  0.00  0.00    -0.004 A 
ENDBRANCH  14  15
ENDBRANCH   4  14
TORSDOF 4
ENDMDL
ENDMDL
