MODEL 4814
MODEL 1
REMARK VINA RESULT:    -7.338      0.000      0.000
REMARK INTER + INTRA:         -11.429
REMARK INTER:                 -10.341
REMARK INTRA:                  -1.088
REMARK UNBOUND:                -1.088
REMARK  Name = No_4814-gen_results/8p0m/2024-11-27-11-27-31/
REMARK  7 active torsions:
REMARK  status: ('A' for Active; 'I' for Inactive)
REMARK    1  A    between atoms: C_1  and  C_2
REMARK    2  A    between atoms: C_1  and  N_8
REMARK    3  A    between atoms: C_4  and  C_18
REMARK    4  A    between atoms: C_5  and  C_9
REMARK    5  A    between atoms: C_9  and  N_11
REMARK    6  A    between atoms: C_12  and  C_13
REMARK    7  A    between atoms: C_18  and  C_19
REMARK                            x       y       z     vdW  Elec       q    Type
REMARK                         _______ _______ _______ _____ _____    ______ ____
ROOT
ATOM      1  C   UNL A   1     -25.815  -0.048  25.499  0.00  0.00    -0.001 A 
ATOM      2  C   UNL A   1     -25.787  -0.658  26.649  0.00  0.00    -0.006 A 
ATOM      3  C   UNL A   1     -24.822  -0.414  27.749  0.00  0.00    -0.013 A 
ATOM      4  C   UNL A   1     -23.805   0.550  27.496  0.00  0.00    +0.055 A 
ATOM      5  C   UNL A   1     -23.794   1.152  26.264  0.00  0.00    +0.004 A 
ATOM      6  C   UNL A   1     -24.686   0.890  25.279  0.00  0.00    -0.002 A 
ENDROOT
BRANCH   4   7
ATOM      7  C   UNL A   1     -22.841   0.884  28.494  0.00  0.00    +0.306 C 
ATOM      8  O   UNL A   1     -22.892   1.890  29.100  0.00  0.00    -0.265 OA
BRANCH   7   9
ATOM      9  N   UNL A   1     -21.672   0.084  28.604  0.00  0.00    +0.043 NA
ATOM     10  O   UNL A   1     -20.485   0.458  28.240  0.00  0.00    -0.153 OA
ENDBRANCH   7   9
ENDBRANCH   4   7
BRANCH   1  11
ATOM     11  C   UNL A   1     -26.583  -0.226  24.582  0.00  0.00    +0.142 C 
BRANCH  11  12
ATOM     12  N   UNL A   1     -27.374   0.821  24.151  0.00  0.00    -0.191 NA
ATOM     13  C   UNL A   1     -28.753   0.949  24.356  0.00  0.00    +0.345 C 
ATOM     14  O   UNL A   1     -29.290   2.116  24.078  0.00  0.00    -0.261 OA
BRANCH  13  15
ATOM     15  C   UNL A   1     -29.376   0.010  24.904  0.00  0.00    +0.442 C 
ATOM     16  O   UNL A   1     -29.761  -0.948  24.233  0.00  0.00    -0.235 OA
ATOM     17  O   UNL A   1     -29.476  -0.134  26.171  0.00  0.00    -0.235 OA
ENDBRANCH  13  15
ENDBRANCH  11  12
ENDBRANCH   1  11
BRANCH   3  18
ATOM     18  C   UNL A   1     -24.833  -1.132  29.031  0.00  0.00    +0.053 C 
BRANCH  18  19
ATOM     19  C   UNL A   1     -24.985  -2.583  28.902  0.00  0.00    -0.018 A 
ATOM     20  C   UNL A   1     -24.076  -3.194  28.534  0.00  0.00    -0.004 A 
ATOM     21  C   UNL A   1     -24.024  -4.681  28.611  0.00  0.00    -0.000 A 
ATOM     22  C   UNL A   1     -25.179  -5.291  29.170  0.00  0.00    -0.000 A 
ATOM     23  C   UNL A   1     -26.185  -4.469  29.645  0.00  0.00    -0.000 A 
ATOM     24  C   UNL A   1     -26.138  -3.121  29.628  0.00  0.00    -0.004 A 
ENDBRANCH  18  19
ENDBRANCH   3  18
TORSDOF 7
ENDMDL
ENDMDL
