REMARK  Name = No_4815-gen_results/8p0m/2024-11-27-11-27-31/
REMARK  2 active torsions:
REMARK  status: ('A' for Active; 'I' for Inactive)
REMARK    1  A    between atoms: C_2  and  C_4
REMARK    2  A    between atoms: C_8  and  C_11
REMARK                            x       y       z     vdW  Elec       q    Type
REMARK                         _______ _______ _______ _____ _____    ______ ____
ROOT
ATOM      1  C   UNL A   1     -26.642   0.119  27.349  0.00  0.00    +0.055 A 
ATOM      2  C   UNL A   1     -26.872   0.060  26.331  0.00  0.00    +0.005 A 
ATOM      3  C   UNL A   1     -25.962   0.544  25.283  0.00  0.00    +0.000 A 
ATOM      4  C   UNL A   1     -24.695   1.018  25.675  0.00  0.00    +0.004 A 
ATOM      5  C   UNL A   1     -24.400   1.093  26.989  0.00  0.00    +0.072 A 
ATOM      6  C   UNL A   1     -25.294   0.692  27.898  0.00  0.00    +0.008 A 
ENDROOT
BRANCH   1   8
ATOM      7  O   UNL A   1     -28.123  -1.335  28.487  0.00  0.00    -0.268 OA
ATOM      8  C   UNL A   1     -27.481  -0.404  28.709  0.00  0.00    +0.265 C 
ATOM      9  N   UNL A   1     -27.241   0.391  29.510  0.00  0.00    -0.200 NA
ATOM     10  C   UNL A   1     -28.071  -0.028  30.821  0.00  0.00    +0.139 C 
ENDBRANCH   1   8
BRANCH   5  11
ATOM     11  C   UNL A   1     -23.123   1.684  27.359  0.00  0.00    +0.419 C 
ATOM     12  F   UNL A   1     -22.265   1.903  26.579  0.00  0.00    -0.166 F 
ATOM     13  F   UNL A   1     -23.316   2.929  28.056  0.00  0.00    -0.166 F 
ATOM     14  F   UNL A   1     -22.556   0.899  28.375  0.00  0.00    -0.166 F 
ENDBRANCH   5  11
TORSDOF 2
