MODEL 4815
MODEL 1
REMARK VINA RESULT:    -5.876      0.000      0.000
REMARK INTER + INTRA:          -6.818
REMARK INTER:                  -6.563
REMARK INTRA:                  -0.256
REMARK UNBOUND:                -0.256
REMARK  Name = No_4815-gen_results/8p0m/2024-11-27-11-27-31/
REMARK  2 active torsions:
REMARK  status: ('A' for Active; 'I' for Inactive)
REMARK    1  A    between atoms: C_2  and  C_4
REMARK    2  A    between atoms: C_8  and  C_11
REMARK                            x       y       z     vdW  Elec       q    Type
REMARK                         _______ _______ _______ _____ _____    ______ ____
ROOT
ATOM      1  C   UNL A   1     -22.676  -0.543  28.686  0.00  0.00    +0.055 A 
ATOM      2  C   UNL A   1     -21.664  -0.408  28.912  0.00  0.00    +0.005 A 
ATOM      3  C   UNL A   1     -20.850   0.652  28.300  0.00  0.00    +0.000 A 
ATOM      4  C   UNL A   1     -21.493   1.572  27.450  0.00  0.00    +0.004 A 
ATOM      5  C   UNL A   1     -22.799   1.397  27.161  0.00  0.00    +0.072 A 
ATOM      6  C   UNL A   1     -23.472   0.377  27.703  0.00  0.00    +0.008 A 
ENDROOT
BRANCH   1   8
ATOM      7  O   UNL A   1     -24.548  -1.127  30.012  0.00  0.00    -0.268 OA
ATOM      8  C   UNL A   1     -23.811  -1.631  29.283  0.00  0.00    +0.265 C 
ATOM      9  N   UNL A   1     -23.483  -2.647  28.846  0.00  0.00    -0.200 NA
ATOM     10  C   UNL A   1     -24.503  -3.740  29.437  0.00  0.00    +0.139 C 
ENDBRANCH   1   8
BRANCH   5  11
ATOM     11  C   UNL A   1     -23.403   2.306  26.199  0.00  0.00    +0.419 C 
ATOM     12  F   UNL A   1     -23.863   3.350  26.501  0.00  0.00    -0.166 F 
ATOM     13  F   UNL A   1     -22.488   2.601  25.127  0.00  0.00    -0.166 F 
ATOM     14  F   UNL A   1     -24.403   1.607  25.505  0.00  0.00    -0.166 F 
ENDBRANCH   5  11
TORSDOF 2
ENDMDL
ENDMDL
