REMARK  Name = outputs/IAG933/test6/raw/output_4817_IAG933_linker_design_.xyz
REMARK  12 active torsions:
REMARK  status: ('A' for Active; 'I' for Inactive)
REMARK    1  A    between atoms: C_1  and  C_2
REMARK    2  A    between atoms: C_1  and  C_8
REMARK    3  A    between atoms: C_1  and  N_42
REMARK    4  A    between atoms: C_13  and  C_39
REMARK    5  A    between atoms: C_14  and  C_15
REMARK    6  A    between atoms: C_21  and  O_22
REMARK    7  A    between atoms: O_22  and  C_23
REMARK    8  A    between atoms: C_23  and  C_24
REMARK    9  A    between atoms: C_29  and  N_42
REMARK   10  A    between atoms: C_33  and  N_35
REMARK   11  A    between atoms: C_33  and  C_38
REMARK   12  A    between atoms: C_38  and  N_42
REMARK                            x       y       z     vdW  Elec       q    Type
REMARK                         _______ _______ _______ _____ _____    ______ ____
ROOT
ATOM      1  F   UNL A   1     -23.415   2.354  25.274  0.00  0.00    -0.202 F 
ATOM      2  C   UNL A   1     -24.392   0.525  28.325  0.00  0.00    +0.051 C 
ATOM      3  F   UNL A   1     -21.216   1.775  26.063  0.00  0.00    -0.202 F 
ATOM      4  C   UNL A   1     -23.116   0.445  28.845  0.00  0.00    +0.017 C 
ATOM      5  C   UNL A   1     -22.210   1.454  26.890  0.00  0.00    +0.168 C 
ATOM      6  C   UNL A   1     -22.004   0.883  28.126  0.00  0.00    +0.033 C 
ATOM      7  C   UNL A   1     -23.437   1.681  26.452  0.00  0.00    +0.169 C 
ATOM      8  C   UNL A   1     -24.570   1.266  27.126  0.00  0.00    +0.046 C 
ENDROOT
BRANCH   8   9
ATOM      9  C   UNL A   1     -25.688   1.614  26.461  0.00  0.00    +0.042 C 
ATOM     10  C   UNL A   1     -26.250   2.920  26.395  0.00  0.00    +0.077 C 
ATOM     11  C   UNL A   1     -27.438   3.091  25.645  0.00  0.00    +0.107 C 
ATOM     12  N   UNL A   1     -28.075   2.089  25.003  0.00  0.00    -0.208 NA
ATOM     13  C   UNL A   1     -27.543   0.849  25.079  0.00  0.00    +0.253 C 
ATOM     14  C   UNL A   1     -26.354   0.576  25.777  0.00  0.00    +0.193 C 
ATOM     15  F   UNL A   1     -25.860  -0.681  25.795  0.00  0.00    -0.199 F 
BRANCH  10  16
ATOM     16  C   UNL A   1     -25.642   4.093  27.123  0.00  0.00    +0.266 C 
ATOM     17  N   UNL A   1     -25.614   5.252  26.449  0.00  0.00    -0.200 NA
ATOM     18  C   UNL A   1     -25.026   6.479  26.963  0.00  0.00    +0.139 C 
ATOM     19  O   UNL A   1     -25.143   3.966  28.243  0.00  0.00    -0.268 OA
ENDBRANCH  10  16
BRANCH  13  20
ATOM     20  O   UNL A   1     -28.193  -0.208  24.477  0.00  0.00    -0.456 OA
BRANCH  20  21
ATOM     21  C   UNL A   1     -29.460   0.005  23.866  0.00  0.00    +0.243 C 
BRANCH  21  22
ATOM     22  C   UNL A   1     -30.065  -1.377  23.573  0.00  0.00    +0.229 C 
ATOM     23  O   UNL A   1     -30.729  -1.878  24.721  0.00  0.00    -0.216 OA
ENDBRANCH  21  22
ENDBRANCH  20  21
ENDBRANCH  13  20
ENDBRANCH   8   9
BRANCH   2  24
ATOM     24  N   UNL A   1     -25.548  -0.099  29.076  0.00  0.00    -0.303 N 
BRANCH  24  25
ATOM     25  C   UNL A   1     -24.855  -1.012  30.143  0.00  0.00    +0.111 C 
BRANCH  25  26
ATOM     26  C   UNL A   1     -24.973  -2.505  29.788  0.00  0.00    -0.003 C 
ATOM     27  C   UNL A   1     -23.906  -3.173  29.146  0.00  0.00    -0.003 C 
ATOM     28  C   UNL A   1     -23.989  -4.549  28.853  0.00  0.00    -0.000 C 
ATOM     29  C   UNL A   1     -25.137  -5.280  29.205  0.00  0.00    -0.000 C 
ATOM     30  C   UNL A   1     -26.232  -4.611  29.784  0.00  0.00    -0.000 C 
ATOM     31  C   UNL A   1     -26.155  -3.232  30.065  0.00  0.00    -0.003 C 
ENDBRANCH  25  26
BRANCH  25  32
ATOM     32  C   UNL A   1     -25.387  -0.679  31.571  0.00  0.00    +0.095 C 
ATOM     33  C   UNL A   1     -25.189   0.773  32.028  0.00  0.00    +0.021 C 
ATOM     34  C   UNL A   1     -25.336   0.684  33.544  0.00  0.00    +0.020 C 
ATOM     35  C   UNL A   1     -24.829  -0.715  33.905  0.00  0.00    +0.089 C 
ATOM     36  N   UNL A   1     -24.758  -1.481  32.646  0.00  0.00    -0.217 NA
ENDBRANCH  25  32
ENDBRANCH  24  25
BRANCH  24  37
ATOM     37  C   UNL A   1     -26.920   0.152  28.531  0.00  0.00    +0.108 C 
BRANCH  37  38
ATOM     38  C   UNL A   1     -28.378  -0.350  28.651  0.00  0.00    +0.094 C 
BRANCH  38  40
ATOM     39  C   UNL A   1     -30.990   2.048  30.026  0.00  0.00    +0.160 C 
ATOM     40  N   UNL A   1     -29.506   0.604  28.704  0.00  0.00    -0.267 NA
ATOM     41  C   UNL A   1     -29.740   1.346  29.796  0.00  0.00    +0.105 C 
ATOM     42  C   UNL A   1     -30.315   0.651  27.599  0.00  0.00    +0.105 C 
ATOM     43  C   UNL A   1     -31.140   1.940  27.611  0.00  0.00    +0.160 C 
ATOM     44  O   UNL A   1     -31.843   2.139  28.859  0.00  0.00    -0.351 OA
ENDBRANCH  38  40
ENDBRANCH  37  38
ENDBRANCH  24  37
ENDBRANCH   2  24
TORSDOF 12
