MODEL 4817
MODEL 1
REMARK VINA RESULT:    -6.894      0.000      0.000
REMARK INTER + INTRA:          -7.563
REMARK INTER:                  -7.297
REMARK INTRA:                  -0.266
REMARK UNBOUND:                -0.266
REMARK  Name = No_4817-gen_results/8p0m/2024-11-27-11-27-31/
REMARK  1 active torsions:
REMARK  status: ('A' for Active; 'I' for Inactive)
REMARK    1  A    between atoms: C_5  and  C_16
REMARK                            x       y       z     vdW  Elec       q    Type
REMARK                         _______ _______ _______ _____ _____    ______ ____
ROOT
ATOM      1  C   UNL A   1     -25.634   3.510  26.788  0.00  0.00    +0.003 A 
ATOM      2  C   UNL A   1     -26.206   2.595  26.242  0.00  0.00    +0.035 A 
ATOM      3  C   UNL A   1     -25.600   1.443  25.772  0.00  0.00    -0.015 A 
ATOM      4  C   UNL A   1     -24.194   1.320  25.978  0.00  0.00    -0.000 A 
ATOM      5  C   UNL A   1     -23.612   2.272  26.724  0.00  0.00    +0.071 A 
ATOM      6  C   UNL A   1     -24.273   3.303  27.164  0.00  0.00    +0.004 A 
ATOM      7  C   UNL A   1     -26.333   0.396  24.975  0.00  0.00    +0.045 C 
ATOM      8  C   UNL A   1     -27.463   0.852  24.409  0.00  0.00    -0.015 A 
ATOM      9  C   UNL A   1     -28.332  -0.089  23.676  0.00  0.00    -0.004 A 
ATOM     10  C   UNL A   1     -29.649   0.326  23.289  0.00  0.00    -0.000 A 
ATOM     11  C   UNL A   1     -30.054   1.614  23.419  0.00  0.00    +0.000 A 
ATOM     12  C   UNL A   1     -29.192   2.583  23.980  0.00  0.00    +0.003 A 
ATOM     13  C   UNL A   1     -27.971   2.183  24.504  0.00  0.00    +0.035 A 
ATOM     14  C   UNL A   1     -27.488   2.958  25.526  0.00  0.00    +0.195 C 
ATOM     15  O   UNL A   1     -27.969   4.127  25.770  0.00  0.00    -0.287 OA
ATOM     16  C   UNL A   1     -25.771  -0.919  24.812  0.00  0.00    +0.009 C 
ENDROOT
BRANCH   5  17
ATOM     17  C   UNL A   1     -22.164   1.899  27.006  0.00  0.00    +0.419 C 
ATOM     18  F   UNL A   1     -21.589   2.476  27.884  0.00  0.00    -0.166 F 
ATOM     19  F   UNL A   1     -21.496   1.898  25.889  0.00  0.00    -0.166 F 
ATOM     20  F   UNL A   1     -22.174   0.579  27.447  0.00  0.00    -0.166 F 
ENDBRANCH   5  17
TORSDOF 1
ENDMDL
ENDMDL
