MODEL 4818
MODEL 1
REMARK VINA RESULT:    -5.190      0.000      0.000
REMARK INTER + INTRA:          -5.688
REMARK INTER:                  -5.493
REMARK INTRA:                  -0.194
REMARK UNBOUND:                -0.194
REMARK  Name = No_4818-gen_results/8p0m/2024-11-27-11-27-31/
REMARK  1 active torsions:
REMARK  status: ('A' for Active; 'I' for Inactive)
REMARK    1  A    between atoms: C_3  and  C_7
REMARK                            x       y       z     vdW  Elec       q    Type
REMARK                         _______ _______ _______ _____ _____    ______ ____
ROOT
ATOM      1  C   UNL A   1     -23.835  -3.997  28.601  0.00  0.00    +0.004 A 
ATOM      2  C   UNL A   1     -24.371  -4.896  28.725  0.00  0.00    -0.000 A 
ATOM      3  C   UNL A   1     -24.433  -2.804  29.063  0.00  0.00    +0.071 A 
ATOM      4  C   UNL A   1     -25.684  -2.793  29.648  0.00  0.00    +0.004 A 
ATOM      5  C   UNL A   1     -26.315  -4.019  29.778  0.00  0.00    -0.000 A 
ATOM      6  C   UNL A   1     -25.677  -5.162  29.346  0.00  0.00    -0.000 A 
ENDROOT
BRANCH   3   7
ATOM      7  C   UNL A   1     -23.772  -1.461  28.970  0.00  0.00    +0.419 C 
ATOM      8  F   UNL A   1     -24.125  -0.744  29.870  0.00  0.00    -0.166 F 
ATOM      9  F   UNL A   1     -24.048  -0.791  27.799  0.00  0.00    -0.166 F 
ATOM     10  F   UNL A   1     -22.396  -1.590  28.919  0.00  0.00    -0.166 F 
ENDBRANCH   3   7
TORSDOF 1
ENDMDL
ENDMDL
