REMARK  Name = outputs/IAG933/test6/raw/output_4819_IAG933_linker_design_.xyz
REMARK  14 active torsions:
REMARK  status: ('A' for Active; 'I' for Inactive)
REMARK    1  A    between atoms: C_1  and  C_2
REMARK    2  A    between atoms: C_1  and  C_8
REMARK    3  A    between atoms: C_1  and  C_35
REMARK    4  A    between atoms: C_13  and  C_38
REMARK    5  A    between atoms: C_14  and  C_15
REMARK    6  A    between atoms: C_21  and  O_22
REMARK    7  A    between atoms: O_22  and  C_23
REMARK    8  A    between atoms: C_23  and  C_24
REMARK    9  A    between atoms: C_28  and  O_39
REMARK   10  A    between atoms: C_28  and  S_42
REMARK   11  A    between atoms: C_33  and  C_35
REMARK   12  A    between atoms: C_33  and  C_38
REMARK   13  A    between atoms: C_35  and  O_39
REMARK   14  A    between atoms: C_38  and  C_40
REMARK                            x       y       z     vdW  Elec       q    Type
REMARK                         _______ _______ _______ _____ _____    ______ ____
ROOT
ATOM      1  C   UNL A   1     -25.266  -0.104  29.029  0.00  0.00    +0.152 C 
ENDROOT
BRANCH   1   3
ATOM      2  O   UNL A   1     -22.823   0.207  29.008  0.00  0.00    -0.220 OA
ATOM      3  C   UNL A   1     -24.004   0.381  28.235  0.00  0.00    +0.183 C 
BRANCH   3   4
ATOM      4  C   UNL A   1     -24.381   1.398  27.133  0.00  0.00    +0.058 C 
BRANCH   4   5
ATOM      5  C   UNL A   1     -25.688   1.614  26.461  0.00  0.00    +0.018 C 
ATOM      6  C   UNL A   1     -26.250   2.920  26.395  0.00  0.00    +0.073 C 
ATOM      7  C   UNL A   1     -27.438   3.091  25.645  0.00  0.00    +0.106 C 
ATOM      8  N   UNL A   1     -28.075   2.089  25.003  0.00  0.00    -0.208 NA
ATOM      9  C   UNL A   1     -27.543   0.849  25.079  0.00  0.00    +0.253 C 
ATOM     10  C   UNL A   1     -26.354   0.576  25.777  0.00  0.00    +0.189 C 
ATOM     11  F   UNL A   1     -25.860  -0.681  25.795  0.00  0.00    -0.200 F 
BRANCH   6  12
ATOM     12  C   UNL A   1     -25.642   4.093  27.123  0.00  0.00    +0.266 C 
ATOM     13  N   UNL A   1     -25.614   5.252  26.449  0.00  0.00    -0.200 NA
ATOM     14  C   UNL A   1     -25.026   6.479  26.963  0.00  0.00    +0.139 C 
ATOM     15  O   UNL A   1     -25.143   3.966  28.243  0.00  0.00    -0.268 OA
ENDBRANCH   6  12
BRANCH   9  16
ATOM     16  O   UNL A   1     -28.193  -0.208  24.477  0.00  0.00    -0.456 OA
BRANCH  16  17
ATOM     17  C   UNL A   1     -29.460   0.005  23.866  0.00  0.00    +0.243 C 
BRANCH  17  18
ATOM     18  C   UNL A   1     -30.065  -1.377  23.573  0.00  0.00    +0.229 C 
ATOM     19  O   UNL A   1     -30.729  -1.878  24.721  0.00  0.00    -0.216 OA
ENDBRANCH  17  18
ENDBRANCH  16  17
ENDBRANCH   9  16
ENDBRANCH   4   5
BRANCH   4  21
ATOM     20  C   UNL A   1     -21.856   1.786  27.135  0.00  0.00    +0.000 C 
ATOM     21  C   UNL A   1     -23.152   2.262  26.622  0.00  0.00    +0.007 C 
ENDBRANCH   4  21
ENDBRANCH   3   4
ENDBRANCH   1   3
BRANCH   1  22
ATOM     22  C   UNL A   1     -24.855  -1.012  30.143  0.00  0.00    +0.068 C 
BRANCH  22  23
ATOM     23  C   UNL A   1     -24.973  -2.505  29.788  0.00  0.00    -0.019 C 
ATOM     24  C   UNL A   1     -23.906  -3.173  29.146  0.00  0.00    -0.004 C 
ATOM     25  C   UNL A   1     -23.989  -4.549  28.853  0.00  0.00    -0.000 C 
ATOM     26  C   UNL A   1     -25.137  -5.280  29.205  0.00  0.00    -0.000 C 
ATOM     27  C   UNL A   1     -26.232  -4.611  29.784  0.00  0.00    -0.000 C 
ATOM     28  C   UNL A   1     -26.155  -3.232  30.065  0.00  0.00    -0.004 C 
ENDBRANCH  22  23
BRANCH  22  29
ATOM     29  C   UNL A   1     -25.387  -0.679  31.571  0.00  0.00    +0.079 C 
ATOM     30  C   UNL A   1     -25.189   0.773  32.028  0.00  0.00    +0.019 C 
ATOM     31  C   UNL A   1     -25.336   0.684  33.544  0.00  0.00    +0.020 C 
ATOM     32  C   UNL A   1     -24.829  -0.715  33.905  0.00  0.00    +0.089 C 
ATOM     33  N   UNL A   1     -24.758  -1.481  32.646  0.00  0.00    -0.219 NA
ENDBRANCH  22  29
ENDBRANCH   1  22
BRANCH   1  34
ATOM     34  O   UNL A   1     -26.513  -0.282  28.370  0.00  0.00    -0.339 OA
BRANCH  34  35
ATOM     35  C   UNL A   1     -27.691  -1.016  28.604  0.00  0.00    +0.235 C 
BRANCH  35  42
ATOM     36  O   UNL A   1     -28.047   1.073  29.948  0.00  0.00    -0.143 OA
ATOM     37  C   UNL A   1     -31.355  -0.598  28.602  0.00  0.00    +0.160 C 
ATOM     38  C   UNL A   1     -31.153  -1.352  29.986  0.00  0.00    +0.045 C 
ATOM     39  O   UNL A   1     -30.119  -0.383  27.879  0.00  0.00    -0.292 OA
ATOM     40  C   UNL A   1     -29.674  -0.974  30.284  0.00  0.00    +0.099 C 
ATOM     41  C   UNL A   1     -31.607  -2.797  29.623  0.00  0.00    +0.004 C 
ATOM     42  S   UNL A   1     -28.977   0.080  28.992  0.00  0.00    +0.055 S 
ENDBRANCH  35  42
ENDBRANCH  34  35
ENDBRANCH   1  34
TORSDOF 14
