MODEL 4819
MODEL 1
REMARK VINA RESULT:    -6.096      0.000      0.000
REMARK INTER + INTRA:          -7.045
REMARK INTER:                  -6.809
REMARK INTRA:                  -0.236
REMARK UNBOUND:                -0.236
REMARK  Name = No_4819-gen_results/8p0m/2024-11-27-11-27-31/
REMARK  2 active torsions:
REMARK  status: ('A' for Active; 'I' for Inactive)
REMARK    1  A    between atoms: N_3  and  C_11
REMARK    2  A    between atoms: C_6  and  C_7
REMARK                            x       y       z     vdW  Elec       q    Type
REMARK                         _______ _______ _______ _____ _____    ______ ____
ROOT
ATOM      1  O   UNL A   1     -23.474  -1.750  31.183  0.00  0.00    -0.274 OA
ATOM      2  C   UNL A   1     -23.667  -1.137  30.226  0.00  0.00    +0.235 C 
ATOM      3  N   UNL A   1     -24.184  -1.160  29.195  0.00  0.00    -0.208 N 
ATOM      4  C   UNL A   1     -23.059   0.423  30.385  0.00  0.00    +0.087 C 
ATOM      5  C   UNL A   1     -23.372   1.345  29.417  0.00  0.00    +0.030 C 
ATOM      6  C   UNL A   1     -24.052   0.971  28.285  0.00  0.00    +0.181 C 
ATOM      7  C   UNL A   1     -24.562  -0.335  28.156  0.00  0.00    +0.246 C 
ATOM      8  O   UNL A   1     -24.931  -0.771  26.962  0.00  0.00    -0.274 OA
ENDROOT
BRANCH   3   9
ATOM      9  C   UNL A   1     -24.850  -2.604  29.027  0.00  0.00    +0.061 A 
ATOM     10  C   UNL A   1     -25.978  -2.923  29.564  0.00  0.00    +0.015 A 
ATOM     11  C   UNL A   1     -26.250  -4.206  29.777  0.00  0.00    +0.001 A 
ATOM     12  C   UNL A   1     -25.462  -5.237  29.256  0.00  0.00    +0.000 A 
ATOM     13  C   UNL A   1     -24.250  -4.829  28.666  0.00  0.00    +0.001 A 
ATOM     14  C   UNL A   1     -23.858  -3.488  28.591  0.00  0.00    +0.015 A 
ENDBRANCH   3   9
BRANCH   6  15
ATOM     15  C   UNL A   1     -24.407   1.979  27.246  0.00  0.00    +0.373 C 
ATOM     16  O   UNL A   1     -25.399   2.757  27.414  0.00  0.00    -0.245 OA
ATOM     17  O   UNL A   1     -23.462   2.375  26.450  0.00  0.00    -0.245 OA
ENDBRANCH   6  15
TORSDOF 2
ENDMDL
ENDMDL
