REMARK  Name = outputs/IAG933/test6/raw/output_482_IAG933_linker_design_.xyz
REMARK  12 active torsions:
REMARK  status: ('A' for Active; 'I' for Inactive)
REMARK    1  A    between atoms: C_1  and  C_2
REMARK    2  A    between atoms: C_1  and  C_8
REMARK    3  A    between atoms: C_1  and  C_39
REMARK    4  A    between atoms: C_13  and  C_28
REMARK    5  A    between atoms: C_14  and  C_15
REMARK    6  A    between atoms: C_21  and  O_22
REMARK    7  A    between atoms: O_22  and  C_23
REMARK    8  A    between atoms: C_23  and  C_24
REMARK    9  A    between atoms: C_29  and  O_32
REMARK   10  A    between atoms: C_29  and  C_39
REMARK   11  A    between atoms: C_38  and  C_40
REMARK   12  A    between atoms: C_39  and  C_42
REMARK                            x       y       z     vdW  Elec       q    Type
REMARK                         _______ _______ _______ _____ _____    ______ ____
ROOT
ATOM      1  C   UNL A   1     -24.534   1.358  27.362  0.00  0.00    +0.067 C 
ATOM      2  C   UNL A   1     -22.612   0.113  29.386  0.00  0.00    +0.019 C 
ATOM      3  C   UNL A   1     -21.851   1.358  26.857  0.00  0.00    -0.019 C 
ATOM      4  C   UNL A   1     -21.412   0.291  28.898  0.00  0.00    +0.060 C 
ATOM      5  C   UNL A   1     -23.707   0.495  28.814  0.00  0.00    -0.111 C 
ATOM      6  C   UNL A   1     -23.293   1.357  26.643  0.00  0.00    +0.134 C 
ATOM      7  C   UNL A   1     -21.049   0.919  27.789  0.00  0.00    -0.025 C 
ATOM      8  C   UNL A   1     -24.757   0.638  28.368  0.00  0.00    +0.024 C 
ENDROOT
BRANCH   1   9
ATOM      9  C   UNL A   1     -25.688   1.614  26.461  0.00  0.00    +0.021 C 
ATOM     10  C   UNL A   1     -26.250   2.920  26.395  0.00  0.00    +0.073 C 
ATOM     11  C   UNL A   1     -27.438   3.091  25.645  0.00  0.00    +0.106 C 
ATOM     12  N   UNL A   1     -28.075   2.089  25.003  0.00  0.00    -0.208 NA
ATOM     13  C   UNL A   1     -27.543   0.849  25.079  0.00  0.00    +0.253 C 
ATOM     14  C   UNL A   1     -26.354   0.576  25.777  0.00  0.00    +0.189 C 
ATOM     15  F   UNL A   1     -25.860  -0.681  25.795  0.00  0.00    -0.200 F 
BRANCH  10  16
ATOM     16  C   UNL A   1     -25.642   4.093  27.123  0.00  0.00    +0.266 C 
ATOM     17  N   UNL A   1     -25.614   5.252  26.449  0.00  0.00    -0.200 NA
ATOM     18  C   UNL A   1     -25.026   6.479  26.963  0.00  0.00    +0.139 C 
ATOM     19  O   UNL A   1     -25.143   3.966  28.243  0.00  0.00    -0.268 OA
ENDBRANCH  10  16
BRANCH  13  20
ATOM     20  O   UNL A   1     -28.193  -0.208  24.477  0.00  0.00    -0.456 OA
BRANCH  20  21
ATOM     21  C   UNL A   1     -29.460   0.005  23.866  0.00  0.00    +0.243 C 
BRANCH  21  22
ATOM     22  C   UNL A   1     -30.065  -1.377  23.573  0.00  0.00    +0.229 C 
ATOM     23  O   UNL A   1     -30.729  -1.878  24.721  0.00  0.00    -0.216 OA
ENDBRANCH  21  22
ENDBRANCH  20  21
ENDBRANCH  13  20
ENDBRANCH   1   9
BRANCH   6  26
ATOM     24  O   UNL A   1     -23.507   1.014  24.367  0.00  0.00    -0.245 OA
ATOM     25  O   UNL A   1     -23.559   3.129  25.180  0.00  0.00    -0.245 OA
ATOM     26  C   UNL A   1     -23.434   1.897  25.232  0.00  0.00    +0.369 C 
ENDBRANCH   6  26
BRANCH   8  27
ATOM     27  C   UNL A   1     -25.781  -0.017  29.095  0.00  0.00    +0.180 C 
ATOM     28  O   UNL A   1     -26.508  -0.901  28.293  0.00  0.00    -0.218 OA
BRANCH  27  29
ATOM     29  C   UNL A   1     -24.855  -1.012  30.143  0.00  0.00    +0.073 C 
BRANCH  29  30
ATOM     30  C   UNL A   1     -24.973  -2.505  29.788  0.00  0.00    -0.018 C 
ATOM     31  C   UNL A   1     -23.906  -3.173  29.146  0.00  0.00    -0.004 C 
ATOM     32  C   UNL A   1     -23.989  -4.549  28.853  0.00  0.00    -0.000 C 
ATOM     33  C   UNL A   1     -25.137  -5.280  29.205  0.00  0.00    -0.000 C 
ATOM     34  C   UNL A   1     -26.232  -4.611  29.784  0.00  0.00    -0.000 C 
ATOM     35  C   UNL A   1     -26.155  -3.232  30.065  0.00  0.00    -0.004 C 
ENDBRANCH  29  30
BRANCH  29  36
ATOM     36  C   UNL A   1     -25.387  -0.679  31.571  0.00  0.00    +0.080 C 
ATOM     37  C   UNL A   1     -25.189   0.773  32.028  0.00  0.00    +0.019 C 
ATOM     38  C   UNL A   1     -25.336   0.684  33.544  0.00  0.00    +0.020 C 
ATOM     39  C   UNL A   1     -24.829  -0.715  33.905  0.00  0.00    +0.089 C 
ATOM     40  N   UNL A   1     -24.758  -1.481  32.646  0.00  0.00    -0.219 NA
ENDBRANCH  29  36
ENDBRANCH  27  29
BRANCH  27  41
ATOM     41  C   UNL A   1     -26.751   0.902  29.658  0.00  0.00    +0.177 C 
BRANCH  41  43
ATOM     42  C   UNL A   1     -27.154   2.934  30.732  0.00  0.00    +0.174 C 
ATOM     43  O   UNL A   1     -27.538   1.863  29.855  0.00  0.00    -0.348 OA
ENDBRANCH  41  43
ENDBRANCH  27  41
ENDBRANCH   8  27
TORSDOF 12
