MODEL 4821
MODEL 1
REMARK VINA RESULT:    -7.627      0.000      0.000
REMARK INTER + INTRA:         -11.077
REMARK INTER:                  -9.857
REMARK INTRA:                  -1.220
REMARK UNBOUND:                -1.220
REMARK  Name = No_4821-gen_results/8p0m/2024-11-27-11-27-31/
REMARK  5 active torsions:
REMARK  status: ('A' for Active; 'I' for Inactive)
REMARK    1  A    between atoms: C_2  and  C_11
REMARK    2  A    between atoms: C_3  and  C_7
REMARK    3  A    between atoms: N_13  and  C_14
REMARK    4  A    between atoms: N_13  and  C_20
REMARK    5  A    between atoms: C_20  and  C_21
REMARK                            x       y       z     vdW  Elec       q    Type
REMARK                         _______ _______ _______ _____ _____    ______ ____
ROOT
ATOM      1  C   UNL A   1      -8.706   1.643  34.782  0.00  0.00    +0.253 C 
ATOM      2  O   UNL A   1      -7.988   1.964  33.882  0.00  0.00    -0.270 OA
ATOM      3  N   UNL A   1      -8.183   0.955  35.803  0.00  0.00    -0.251 N 
ENDROOT
BRANCH   1   5
ATOM      4  C   UNL A   1     -10.931   1.540  34.107  0.00  0.00    +0.008 A 
ATOM      5  C   UNL A   1     -10.277   1.990  34.800  0.00  0.00    +0.054 A 
ATOM      6  C   UNL A   1     -12.281   1.953  34.111  0.00  0.00    +0.072 A 
ATOM      7  C   UNL A   1     -12.751   2.906  34.993  0.00  0.00    +0.004 A 
ATOM      8  C   UNL A   1     -10.516   3.018  35.832  0.00  0.00    +0.004 A 
ATOM      9  C   UNL A   1     -11.799   3.442  35.870  0.00  0.00    +0.000 A 
BRANCH   6  10
ATOM     10  C   UNL A   1     -13.306   1.417  33.153  0.00  0.00    +0.419 C 
ATOM     11  F   UNL A   1     -12.671   1.029  32.123  0.00  0.00    -0.166 F 
ATOM     12  F   UNL A   1     -14.078   2.432  32.741  0.00  0.00    -0.166 F 
ATOM     13  F   UNL A   1     -13.775   0.248  33.420  0.00  0.00    -0.166 F 
ENDBRANCH   6  10
ENDBRANCH   1   5
BRANCH   3  14
ATOM     14  C   UNL A   1      -8.899   0.423  36.890  0.00  0.00    +0.054 A 
ATOM     15  C   UNL A   1      -8.717   0.815  38.027  0.00  0.00    +0.015 A 
ATOM     16  C   UNL A   1      -9.373   0.197  39.180  0.00  0.00    +0.001 A 
ATOM     17  C   UNL A   1     -10.296  -0.828  38.945  0.00  0.00    +0.000 A 
ATOM     18  C   UNL A   1     -10.529  -1.209  37.643  0.00  0.00    +0.001 A 
ATOM     19  C   UNL A   1      -9.864  -0.645  36.629  0.00  0.00    +0.015 A 
ENDBRANCH   3  14
BRANCH   3  20
ATOM     20  C   UNL A   1      -6.807   0.569  35.792  0.00  0.00    +0.125 C 
BRANCH  20  21
ATOM     21  C   UNL A   1      -6.247  -0.403  35.249  0.00  0.00    -0.002 A 
ATOM     22  C   UNL A   1      -6.586  -1.353  34.749  0.00  0.00    -0.003 A 
ATOM     23  C   UNL A   1      -5.770  -2.387  34.126  0.00  0.00    -0.000 A 
ATOM     24  C   UNL A   1      -4.410  -2.208  34.206  0.00  0.00    -0.000 A 
ATOM     25  C   UNL A   1      -3.868  -1.135  34.805  0.00  0.00    -0.000 A 
ATOM     26  C   UNL A   1      -4.728  -0.142  35.325  0.00  0.00    -0.003 A 
ENDBRANCH  20  21
ENDBRANCH   3  20
TORSDOF 5
ENDMDL
ENDMDL
