MODEL 4822
MODEL 1
REMARK VINA RESULT:    -4.727      0.000      0.000
REMARK INTER + INTRA:          -6.066
REMARK INTER:                  -5.833
REMARK INTRA:                  -0.234
REMARK UNBOUND:                -0.234
REMARK  Name = No_4822-gen_results/8p0m/2024-11-27-11-27-31/
REMARK  4 active torsions:
REMARK  status: ('A' for Active; 'I' for Inactive)
REMARK    1  A    between atoms: C_1  and  C_7
REMARK    2  A    between atoms: C_2  and  C_3
REMARK    3  A    between atoms: C_3  and  C_4
REMARK    4  A    between atoms: C_4  and  C_5
REMARK                            x       y       z     vdW  Elec       q    Type
REMARK                         _______ _______ _______ _____ _____    ______ ____
ROOT
ATOM      1  C   UNL A   1     -24.251  -2.738  29.454  0.00  0.00    -0.064 C 
ATOM      2  C   UNL A   1     -23.444  -1.935  29.047  0.00  0.00    -0.086 C 
ENDROOT
BRANCH   1   3
ATOM      3  C   UNL A   1     -24.156  -4.021  28.915  0.00  0.00    +0.045 C 
ATOM      4  C   UNL A   1     -24.860  -4.886  29.032  0.00  0.00    -0.017 C 
ATOM      5  C   UNL A   1     -26.146  -4.861  29.655  0.00  0.00    +0.031 C 
ENDBRANCH   1   3
BRANCH   2   6
ATOM      6  C   UNL A   1     -22.649  -0.967  29.044  0.00  0.00    +0.081 C 
BRANCH   6   7
ATOM      7  C   UNL A   1     -22.092   0.030  28.930  0.00  0.00    +0.040 C 
BRANCH   7   8
ATOM      8  C   UNL A   1     -21.367   0.716  28.169  0.00  0.00    -0.025 C 
ATOM      9  C   UNL A   1     -21.542   1.719  27.405  0.00  0.00    -0.005 C 
ENDBRANCH   7   8
ENDBRANCH   6   7
ENDBRANCH   2   6
TORSDOF 4
ENDMDL
ENDMDL
