REMARK  Name = No_4822-gen_results/8p0m/2024-11-27-11-27-31/
REMARK  4 active torsions:
REMARK  status: ('A' for Active; 'I' for Inactive)
REMARK    1  A    between atoms: C_1  and  C_7
REMARK    2  A    between atoms: C_2  and  C_3
REMARK    3  A    between atoms: C_3  and  C_4
REMARK    4  A    between atoms: C_4  and  C_5
REMARK                            x       y       z     vdW  Elec       q    Type
REMARK                         _______ _______ _______ _____ _____    ______ ____
ROOT
ATOM      1  C   UNL A   1     -28.016  -0.814  28.878  0.00  0.00    -0.064 C 
ATOM      2  C   UNL A   1     -27.064  -0.119  28.608  0.00  0.00    -0.086 C 
ENDROOT
BRANCH   1   3
ATOM      3  C   UNL A   1     -27.833  -1.712  29.929  0.00  0.00    +0.045 C 
ATOM      4  C   UNL A   1     -26.875  -2.119  30.347  0.00  0.00    -0.017 C 
ATOM      5  C   UNL A   1     -25.551  -1.702  30.006  0.00  0.00    +0.031 C 
ENDBRANCH   1   3
BRANCH   2   6
ATOM      6  C   UNL A   1     -26.407   0.883  28.242  0.00  0.00    +0.081 C 
BRANCH   6   7
ATOM      7  C   UNL A   1     -25.732   1.661  27.737  0.00  0.00    +0.040 C 
BRANCH   7   8
ATOM      8  C   UNL A   1     -24.776   2.456  27.913  0.00  0.00    -0.025 C 
ATOM      9  C   UNL A   1     -23.651   2.409  28.506  0.00  0.00    -0.005 C 
ENDBRANCH   7   8
ENDBRANCH   6   7
ENDBRANCH   2   6
TORSDOF 4
