REMARK  Name = outputs/IAG933/test6/raw/output_4823_IAG933_linker_design_.xyz
REMARK  17 active torsions:
REMARK  status: ('A' for Active; 'I' for Inactive)
REMARK    1  A    between atoms: C_1  and  C_2
REMARK    2  A    between atoms: C_1  and  C_8
REMARK    3  A    between atoms: C_1  and  N_42
REMARK    4  A    between atoms: C_13  and  C_45
REMARK    5  A    between atoms: C_14  and  C_15
REMARK    6  A    between atoms: C_21  and  O_22
REMARK    7  A    between atoms: O_22  and  C_23
REMARK    8  A    between atoms: C_23  and  C_24
REMARK    9  A    between atoms: C_31  and  C_34
REMARK   10  A    between atoms: C_31  and  C_43
REMARK   11  A    between atoms: C_32  and  C_41
REMARK   12  A    between atoms: C_35  and  N_42
REMARK   13  A    between atoms: C_35  and  C_43
REMARK   14  A    between atoms: C_38  and  C_46
REMARK   15  A    between atoms: C_39  and  N_42
REMARK   16  A    between atoms: C_39  and  C_45
REMARK   17  A    between atoms: C_39  and  C_46
REMARK                            x       y       z     vdW  Elec       q    Type
REMARK                         _______ _______ _______ _____ _____    ______ ____
ROOT
ATOM      1  N   UNL A   1     -25.247   0.036  29.140  0.00  0.00    -0.270 NA
ENDROOT
BRANCH   1   2
ATOM      2  C   UNL A   1     -24.855  -1.012  30.143  0.00  0.00    +0.096 C 
BRANCH   2   3
ATOM      3  C   UNL A   1     -24.973  -2.505  29.788  0.00  0.00    -0.006 C 
ATOM      4  C   UNL A   1     -23.906  -3.173  29.146  0.00  0.00    -0.003 C 
ATOM      5  C   UNL A   1     -23.989  -4.549  28.853  0.00  0.00    -0.000 C 
ATOM      6  C   UNL A   1     -25.137  -5.280  29.205  0.00  0.00    -0.000 C 
ATOM      7  C   UNL A   1     -26.232  -4.611  29.784  0.00  0.00    -0.000 C 
ATOM      8  C   UNL A   1     -26.155  -3.232  30.065  0.00  0.00    -0.003 C 
ENDBRANCH   2   3
BRANCH   2   9
ATOM      9  C   UNL A   1     -25.387  -0.679  31.571  0.00  0.00    +0.092 C 
ATOM     10  C   UNL A   1     -25.189   0.773  32.028  0.00  0.00    +0.021 C 
ATOM     11  C   UNL A   1     -25.336   0.684  33.544  0.00  0.00    +0.020 C 
ATOM     12  C   UNL A   1     -24.829  -0.715  33.905  0.00  0.00    +0.089 C 
ATOM     13  N   UNL A   1     -24.758  -1.481  32.646  0.00  0.00    -0.218 NA
ENDBRANCH   2   9
ENDBRANCH   1   2
BRANCH   1  14
ATOM     14  C   UNL A   1     -26.758   0.069  28.998  0.00  0.00    +0.073 C 
BRANCH  14  16
ATOM     15  C   UNL A   1     -28.461   1.797  28.709  0.00  0.00    +0.002 C 
ATOM     16  C   UNL A   1     -27.918   0.478  28.868  0.00  0.00    +0.021 C 
BRANCH  16  17
ATOM     17  C   UNL A   1     -29.104  -0.291  28.760  0.00  0.00    +0.031 C 
BRANCH  17  22
ATOM     18  O   UNL A   1     -31.156  -0.806  27.029  0.00  0.00    -0.287 OA
ATOM     19  C   UNL A   1     -31.349  -0.264  28.209  0.00  0.00    +0.188 C 
ATOM     20  C   UNL A   1     -32.457  -0.459  29.011  0.00  0.00    +0.016 C 
ATOM     21  C   UNL A   1     -32.780   0.586  29.953  0.00  0.00    -0.001 C 
ATOM     22  C   UNL A   1     -30.302   0.639  28.717  0.00  0.00    +0.017 C 
ATOM     23  C   UNL A   1     -30.806   1.842  29.333  0.00  0.00    -0.001 C 
ATOM     24  C   UNL A   1     -32.025   1.769  30.040  0.00  0.00    -0.000 C 
BRANCH  20  26
ATOM     25  C   UNL A   1     -34.353  -2.323  29.611  0.00  0.00    +0.005 C 
ATOM     26  C   UNL A   1     -33.236  -1.766  28.688  0.00  0.00    +0.030 C 
ENDBRANCH  20  26
ENDBRANCH  17  22
ENDBRANCH  16  17
ENDBRANCH  14  16
ENDBRANCH   1  14
BRANCH   1  27
ATOM     27  C   UNL A   1     -24.117   0.178  28.100  0.00  0.00    +0.062 C 
BRANCH  27  28
ATOM     28  C   UNL A   1     -24.281   1.319  27.039  0.00  0.00    +0.045 C 
BRANCH  28  29
ATOM     29  C   UNL A   1     -25.688   1.614  26.461  0.00  0.00    +0.017 C 
ATOM     30  C   UNL A   1     -26.250   2.920  26.395  0.00  0.00    +0.073 C 
ATOM     31  C   UNL A   1     -27.438   3.091  25.645  0.00  0.00    +0.106 C 
ATOM     32  N   UNL A   1     -28.075   2.089  25.003  0.00  0.00    -0.208 NA
ATOM     33  C   UNL A   1     -27.543   0.849  25.079  0.00  0.00    +0.253 C 
ATOM     34  C   UNL A   1     -26.354   0.576  25.777  0.00  0.00    +0.189 C 
ATOM     35  F   UNL A   1     -25.860  -0.681  25.795  0.00  0.00    -0.200 F 
BRANCH  30  36
ATOM     36  C   UNL A   1     -25.642   4.093  27.123  0.00  0.00    +0.266 C 
ATOM     37  N   UNL A   1     -25.614   5.252  26.449  0.00  0.00    -0.200 NA
ATOM     38  C   UNL A   1     -25.026   6.479  26.963  0.00  0.00    +0.139 C 
ATOM     39  O   UNL A   1     -25.143   3.966  28.243  0.00  0.00    -0.268 OA
ENDBRANCH  30  36
BRANCH  33  40
ATOM     40  O   UNL A   1     -28.193  -0.208  24.477  0.00  0.00    -0.456 OA
BRANCH  40  41
ATOM     41  C   UNL A   1     -29.460   0.005  23.866  0.00  0.00    +0.243 C 
BRANCH  41  42
ATOM     42  C   UNL A   1     -30.065  -1.377  23.573  0.00  0.00    +0.229 C 
ATOM     43  O   UNL A   1     -30.729  -1.878  24.721  0.00  0.00    -0.216 OA
ENDBRANCH  41  42
ENDBRANCH  40  41
ENDBRANCH  33  40
ENDBRANCH  28  29
ENDBRANCH  27  28
BRANCH  27  44
ATOM     44  C   UNL A   1     -22.836   0.184  28.926  0.00  0.00    +0.016 C 
BRANCH  44  45
ATOM     45  C   UNL A   1     -21.880   1.139  28.770  0.00  0.00    +0.001 C 
ATOM     46  C   UNL A   1     -21.213   1.627  27.442  0.00  0.00    +0.000 C 
ENDBRANCH  44  45
ENDBRANCH  27  44
ENDBRANCH   1  27
TORSDOF 17
