MODEL 4823
MODEL 1
REMARK VINA RESULT:    -5.252      0.000      0.000
REMARK INTER + INTRA:          -5.604
REMARK INTER:                  -5.559
REMARK INTRA:                  -0.044
REMARK UNBOUND:                -0.044
REMARK  Name = No_4823-gen_results/8p0m/2024-11-27-11-27-31/
REMARK  1 active torsions:
REMARK  status: ('A' for Active; 'I' for Inactive)
REMARK    1  A    between atoms: C_5  and  C_7
REMARK                            x       y       z     vdW  Elec       q    Type
REMARK                         _______ _______ _______ _____ _____    ______ ____
ROOT
ATOM      1  C   UNL A   1     -29.757 -10.045  31.401  0.00  0.00    +0.011 A 
ATOM      2  C   UNL A   1     -29.611 -10.733  30.417  0.00  0.00    +0.058 A 
ATOM      3  C   UNL A   1     -28.687 -11.757  30.290  0.00  0.00    +0.011 A 
ATOM      4  C   UNL A   1     -27.866 -12.034  31.423  0.00  0.00    +0.005 A 
ATOM      5  C   UNL A   1     -28.157 -11.350  32.548  0.00  0.00    +0.057 A 
ATOM      6  C   UNL A   1     -29.133 -10.441  32.586  0.00  0.00    +0.005 A 
ATOM      7 CL   UNL A   1     -30.506 -10.351  28.873  0.00  0.00    -0.082 Cl
ENDROOT
BRANCH   5   8
ATOM      8  C   UNL A   1     -27.320 -11.695  33.714  0.00  0.00    +0.284 C 
ATOM      9  N   UNL A   1     -26.972 -10.891  34.568  0.00  0.00    -0.084 NA
ATOM     10  O   UNL A   1     -26.798 -12.838  33.752  0.00  0.00    -0.267 OA
ENDBRANCH   5   8
TORSDOF 1
ENDMDL
ENDMDL
