MODEL 4824
MODEL 1
REMARK VINA RESULT:    -6.704      0.000      0.000
REMARK INTER + INTRA:          -8.628
REMARK INTER:                  -8.272
REMARK INTRA:                  -0.356
REMARK UNBOUND:                -0.356
REMARK  Name = No_4824-gen_results/8p0m/2024-11-27-11-27-31/
REMARK  4 active torsions:
REMARK  status: ('A' for Active; 'I' for Inactive)
REMARK    1  A    between atoms: C_3  and  C_8
REMARK    2  A    between atoms: C_6  and  C_12
REMARK    3  A    between atoms: C_13  and  C_14
REMARK    4  A    between atoms: C_15  and  C_16
REMARK                            x       y       z     vdW  Elec       q    Type
REMARK                         _______ _______ _______ _____ _____    ______ ____
ROOT
ATOM      1  C   UNL A   1     -23.634   1.197  30.760  0.00  0.00    +0.011 A 
ATOM      2  C   UNL A   1     -23.429   1.640  29.653  0.00  0.00    +0.005 A 
ATOM      3  C   UNL A   1     -23.320   0.980  28.536  0.00  0.00    +0.071 A 
ATOM      4  C   UNL A   1     -23.438  -0.443  28.582  0.00  0.00    +0.005 A 
ATOM      5  C   UNL A   1     -23.880  -0.229  30.869  0.00  0.00    +0.058 A 
ATOM      6  C   UNL A   1     -23.769  -0.981  29.775  0.00  0.00    +0.011 A 
ATOM      7 CL   UNL A   1     -24.282  -0.830  32.414  0.00  0.00    -0.082 Cl
ENDROOT
BRANCH   3   8
ATOM      8  C   UNL A   1     -22.977   1.653  27.198  0.00  0.00    +0.419 C 
ATOM      9  F   UNL A   1     -23.429   1.166  26.133  0.00  0.00    -0.166 F 
ATOM     10  F   UNL A   1     -21.600   1.701  27.051  0.00  0.00    -0.166 F 
ATOM     11  F   UNL A   1     -23.402   2.954  27.239  0.00  0.00    -0.166 F 
ENDBRANCH   3   8
BRANCH   6  12
ATOM     12  C   UNL A   1     -23.931  -2.467  29.866  0.00  0.00    +0.001 C 
ATOM     13  C   UNL A   1     -24.125  -3.175  28.724  0.00  0.00    +0.000 C 
BRANCH  13  14
ATOM     14  C   UNL A   1     -24.325  -4.579  28.792  0.00  0.00    +0.000 C 
ATOM     15  C   UNL A   1     -25.481  -5.101  29.355  0.00  0.00    +0.000 C 
BRANCH  15  16
ATOM     16  C   UNL A   1     -26.506  -4.216  29.775  0.00  0.00    +0.000 C 
ATOM     17  C   UNL A   1     -27.747  -4.704  30.172  0.00  0.00    +0.000 C 
ENDBRANCH  15  16
ENDBRANCH  13  14
ENDBRANCH   6  12
TORSDOF 4
ENDMDL
ENDMDL
