REMARK  Name = outputs/IAG933/test6/raw/output_4825_IAG933_linker_design_.xyz
REMARK  13 active torsions:
REMARK  status: ('A' for Active; 'I' for Inactive)
REMARK    1  A    between atoms: C_1  and  C_2
REMARK    2  A    between atoms: C_1  and  C_8
REMARK    3  A    between atoms: C_1  and  C_31
REMARK    4  A    between atoms: C_13  and  C_32
REMARK    5  A    between atoms: C_14  and  C_15
REMARK    6  A    between atoms: C_21  and  O_22
REMARK    7  A    between atoms: O_22  and  C_23
REMARK    8  A    between atoms: C_23  and  C_24
REMARK    9  A    between atoms: O_29  and  C_34
REMARK   10  A    between atoms: O_29  and  C_41
REMARK   11  A    between atoms: O_30  and  C_40
REMARK   12  A    between atoms: C_31  and  C_38
REMARK   13  A    between atoms: C_34  and  C_40
REMARK                            x       y       z     vdW  Elec       q    Type
REMARK                         _______ _______ _______ _____ _____    ______ ____
ROOT
ATOM      1  C   UNL A   1     -25.425  -0.150  29.048  0.00  0.00    +0.025 C 
ATOM      2  C   UNL A   1     -27.928   0.367  28.443  0.00  0.00    -0.014 C 
ATOM      3  C   UNL A   1     -28.907   1.402  28.639  0.00  0.00    -0.011 C 
ATOM      4  C   UNL A   1     -26.710  -0.148  28.763  0.00  0.00    -0.056 C 
ATOM      5  C   UNL A   1     -29.860   2.541  29.012  0.00  0.00    +0.224 C 
ENDROOT
BRANCH   1   8
ATOM      6  C   UNL A   1     -24.442   1.353  27.129  0.00  0.00    +0.042 C 
ATOM      7  C   UNL A   1     -21.909   1.248  28.456  0.00  0.00    +0.003 C 
ATOM      8  C   UNL A   1     -24.374   0.656  28.414  0.00  0.00    +0.007 C 
ATOM      9  C   UNL A   1     -23.053   0.738  29.037  0.00  0.00    +0.001 C 
ATOM     10  O   UNL A   1     -23.354   2.426  25.434  0.00  0.00    -0.287 OA
ATOM     11  C   UNL A   1     -23.268   1.796  26.578  0.00  0.00    +0.196 C 
ATOM     12  C   UNL A   1     -21.992   1.751  27.166  0.00  0.00    +0.042 C 
BRANCH   6  13
ATOM     13  C   UNL A   1     -25.688   1.614  26.461  0.00  0.00    +0.041 C 
ATOM     14  C   UNL A   1     -26.250   2.920  26.395  0.00  0.00    +0.077 C 
ATOM     15  C   UNL A   1     -27.438   3.091  25.645  0.00  0.00    +0.107 C 
ATOM     16  N   UNL A   1     -28.075   2.089  25.003  0.00  0.00    -0.208 NA
ATOM     17  C   UNL A   1     -27.543   0.849  25.079  0.00  0.00    +0.253 C 
ATOM     18  C   UNL A   1     -26.354   0.576  25.777  0.00  0.00    +0.193 C 
ATOM     19  F   UNL A   1     -25.860  -0.681  25.795  0.00  0.00    -0.199 F 
BRANCH  14  20
ATOM     20  C   UNL A   1     -25.642   4.093  27.123  0.00  0.00    +0.266 C 
ATOM     21  N   UNL A   1     -25.614   5.252  26.449  0.00  0.00    -0.200 NA
ATOM     22  C   UNL A   1     -25.026   6.479  26.963  0.00  0.00    +0.139 C 
ATOM     23  O   UNL A   1     -25.143   3.966  28.243  0.00  0.00    -0.268 OA
ENDBRANCH  14  20
BRANCH  17  24
ATOM     24  O   UNL A   1     -28.193  -0.208  24.477  0.00  0.00    -0.456 OA
BRANCH  24  25
ATOM     25  C   UNL A   1     -29.460   0.005  23.866  0.00  0.00    +0.243 C 
BRANCH  25  26
ATOM     26  C   UNL A   1     -30.065  -1.377  23.573  0.00  0.00    +0.229 C 
ATOM     27  O   UNL A   1     -30.729  -1.878  24.721  0.00  0.00    -0.216 OA
ENDBRANCH  25  26
ENDBRANCH  24  25
ENDBRANCH  17  24
ENDBRANCH   6  13
ENDBRANCH   1   8
BRANCH   1  28
ATOM     28  C   UNL A   1     -24.855  -1.012  30.143  0.00  0.00    +0.068 C 
BRANCH  28  29
ATOM     29  C   UNL A   1     -24.973  -2.505  29.788  0.00  0.00    -0.016 C 
ATOM     30  C   UNL A   1     -23.906  -3.173  29.146  0.00  0.00    -0.004 C 
ATOM     31  C   UNL A   1     -23.989  -4.549  28.853  0.00  0.00    -0.000 C 
ATOM     32  C   UNL A   1     -25.137  -5.280  29.205  0.00  0.00    -0.000 C 
ATOM     33  C   UNL A   1     -26.232  -4.611  29.784  0.00  0.00    -0.000 C 
ATOM     34  C   UNL A   1     -26.155  -3.232  30.065  0.00  0.00    -0.004 C 
ENDBRANCH  28  29
BRANCH  28  35
ATOM     35  C   UNL A   1     -25.387  -0.679  31.571  0.00  0.00    +0.082 C 
ATOM     36  C   UNL A   1     -25.189   0.773  32.028  0.00  0.00    +0.019 C 
ATOM     37  C   UNL A   1     -25.336   0.684  33.544  0.00  0.00    +0.020 C 
ATOM     38  C   UNL A   1     -24.829  -0.715  33.905  0.00  0.00    +0.089 C 
ATOM     39  N   UNL A   1     -24.758  -1.481  32.646  0.00  0.00    -0.219 NA
ENDBRANCH  28  35
ENDBRANCH   1  28
BRANCH   5  40
ATOM     40  O   UNL A   1     -29.858   3.541  30.019  0.00  0.00    -0.462 OA
BRANCH  40  41
ATOM     41  C   UNL A   1     -29.678   4.942  29.478  0.00  0.00    +0.238 C 
BRANCH  41  42
ATOM     42  C   UNL A   1     -28.544   4.757  28.422  0.00  0.00    +0.189 C 
BRANCH  42  44
ATOM     43  C   UNL A   1     -27.437   3.207  29.998  0.00  0.00    +0.174 C 
ATOM     44  O   UNL A   1     -27.476   4.523  29.210  0.00  0.00    -0.347 OA
ENDBRANCH  42  44
ENDBRANCH  41  42
ENDBRANCH  40  41
ENDBRANCH   5  40
TORSDOF 13
