MODEL 4825
MODEL 1
REMARK VINA RESULT:    -6.998      0.000      0.000
REMARK INTER + INTRA:          -8.525
REMARK INTER:                  -8.226
REMARK INTRA:                  -0.299
REMARK UNBOUND:                -0.299
REMARK  Name = No_4825-gen_results/8p0m/2024-11-27-11-27-31/
REMARK  3 active torsions:
REMARK  status: ('A' for Active; 'I' for Inactive)
REMARK    1  A    between atoms: C_2  and  C_3
REMARK    2  A    between atoms: N_4  and  C_11
REMARK    3  A    between atoms: C_12  and  C_13
REMARK                            x       y       z     vdW  Elec       q    Type
REMARK                         _______ _______ _______ _____ _____    ______ ____
ROOT
ATOM      1  O   UNL A   1     -25.063   2.872  29.635  0.00  0.00    -0.270 OA
ATOM      2  C   UNL A   1     -24.814   1.893  29.080  0.00  0.00    +0.253 C 
ATOM      3  N   UNL A   1     -25.564   0.638  29.268  0.00  0.00    -0.252 N 
ATOM      4  C   UNL A   1     -26.634   0.651  30.248  0.00  0.00    +0.120 C 
ENDROOT
BRANCH   2   5
ATOM      5  C   UNL A   1     -23.868   1.854  28.075  0.00  0.00    +0.054 A 
ATOM      6  C   UNL A   1     -22.641   1.438  28.389  0.00  0.00    +0.004 A 
ATOM      7  C   UNL A   1     -24.196   2.254  26.734  0.00  0.00    +0.004 A 
ATOM      8  C   UNL A   1     -21.537   1.537  27.346  0.00  0.00    +0.000 A 
ATOM      9  C   UNL A   1     -23.190   2.265  25.730  0.00  0.00    +0.000 A 
ATOM     10  C   UNL A   1     -21.871   1.939  26.064  0.00  0.00    +0.000 A 
ENDBRANCH   2   5
BRANCH   3  11
ATOM     11  C   UNL A   1     -25.302  -0.517  28.551  0.00  0.00    +0.068 C 
ATOM     12  C   UNL A   1     -25.817  -1.547  28.852  0.00  0.00    +0.016 C 
BRANCH  12  13
ATOM     13  C   UNL A   1     -25.404  -2.507  29.204  0.00  0.00    +0.001 A 
ATOM     14  C   UNL A   1     -24.141  -3.032  28.701  0.00  0.00    +0.000 A 
ATOM     15  C   UNL A   1     -23.986  -4.438  28.569  0.00  0.00    +0.000 A 
ATOM     16  C   UNL A   1     -24.860  -5.282  29.124  0.00  0.00    +0.000 A 
ATOM     17  C   UNL A   1     -26.028  -4.860  29.672  0.00  0.00    +0.000 A 
ATOM     18  C   UNL A   1     -26.347  -3.580  29.672  0.00  0.00    +0.000 A 
ENDBRANCH  12  13
ENDBRANCH   3  11
TORSDOF 3
ENDMDL
ENDMDL
