MODEL 4826
MODEL 1
REMARK VINA RESULT:    -4.354      0.000      0.000
REMARK INTER + INTRA:          -4.354
REMARK INTER:                  -4.354
REMARK INTRA:                   0.000
REMARK UNBOUND:                 0.000
REMARK  Name = No_4826-gen_results/8p0m/2024-11-27-11-27-31/
REMARK  0 active torsions:
REMARK  status: ('A' for Active; 'I' for Inactive)
REMARK                            x       y       z     vdW  Elec       q    Type
REMARK                         _______ _______ _______ _____ _____    ______ ____
ROOT
ATOM      1  C   UNL A   1     -24.951  -5.400  29.015  0.00  0.00    +0.000 A 
ATOM      2  C   UNL A   1     -24.205  -4.727  28.695  0.00  0.00    +0.000 A 
ATOM      3  C   UNL A   1     -26.135  -4.739  29.575  0.00  0.00    +0.000 A 
ATOM      4  C   UNL A   1     -26.175  -3.429  29.821  0.00  0.00    +0.000 A 
ATOM      5  C   UNL A   1     -24.018  -3.307  28.869  0.00  0.00    +0.000 A 
ATOM      6  C   UNL A   1     -25.118  -2.715  29.413  0.00  0.00    +0.000 A 
ENDROOT
TORSDOF 0
ENDMDL
ENDMDL
