REMARK  Name = No_4827-gen_results/8p0m/2024-11-27-11-27-31/
REMARK  4 active torsions:
REMARK  status: ('A' for Active; 'I' for Inactive)
REMARK    1  A    between atoms: C_1  and  C_11
REMARK    2  A    between atoms: N_12  and  C_14
REMARK    3  A    between atoms: C_14  and  C_15
REMARK    4  A    between atoms: C_14  and  C_21
REMARK                            x       y       z     vdW  Elec       q    Type
REMARK                         _______ _______ _______ _____ _____    ______ ____
ROOT
ATOM      1  C   UNL A   1     -28.023  -1.660  30.166  0.00  0.00    +0.414 C 
ATOM      2  N   UNL A   1     -28.797  -1.933  30.829  0.00  0.00    -0.018 NA
ATOM      3  N   UNL A   1     -26.728  -2.299  30.385  0.00  0.00    +0.197 NA
ENDROOT
BRANCH   1   4
ATOM      4  C   UNL A   1     -28.016  -0.814  28.878  0.00  0.00    +0.092 A 
ATOM      5  C   UNL A   1     -27.064  -0.119  28.608  0.00  0.00    +0.008 A 
ATOM      6  C   UNL A   1     -27.001   0.691  27.491  0.00  0.00    +0.002 A 
ATOM      7  C   UNL A   1     -28.137   0.736  26.635  0.00  0.00    +0.018 A 
ATOM      8  C   UNL A   1     -29.236   0.076  27.069  0.00  0.00    +0.082 A 
ATOM      9  C   UNL A   1     -29.218  -0.643  28.175  0.00  0.00    +0.027 A 
ATOM     10  N   UNL A   1     -30.258   0.256  26.084  0.00  0.00    -0.244 NA
ATOM     11  C   UNL A   1     -30.136   0.579  24.896  0.00  0.00    +0.099 A 
ATOM     12  C   UNL A   1     -28.981   1.383  24.518  0.00  0.00    +0.021 A 
ATOM     13  C   UNL A   1     -28.043   1.546  25.379  0.00  0.00    +0.003 A 
ENDBRANCH   1   4
BRANCH   2  14
ATOM     14  C   UNL A   1     -30.046  -1.401  30.973  0.00  0.00    +0.304 C 
BRANCH  14  15
ATOM     15  C   UNL A   1     -30.120  -0.330  31.800  0.00  0.00    +0.033 A 
ATOM     16  C   UNL A   1     -29.184  -0.145  32.776  0.00  0.00    +0.000 A 
ATOM     17  C   UNL A   1     -29.034   1.144  33.348  0.00  0.00    -0.000 A 
ATOM     18  C   UNL A   1     -30.049   2.101  33.105  0.00  0.00    -0.000 A 
ATOM     19  C   UNL A   1     -30.989   1.904  32.163  0.00  0.00    -0.000 A 
ATOM     20  C   UNL A   1     -30.989   0.732  31.430  0.00  0.00    +0.000 A 
ENDBRANCH  14  15
BRANCH  14  21
ATOM     21  C   UNL A   1     -31.090  -2.401  31.467  0.00  0.00    +0.293 C 
ATOM     22  N   UNL A   1     -32.001  -2.794  30.770  0.00  0.00    -0.200 NA
ATOM     23  C   UNL A   1     -32.943  -3.595  31.195  0.00  0.00    +0.139 C 
ATOM     24  O   UNL A   1     -30.749  -3.134  32.452  0.00  0.00    -0.269 OA
ENDBRANCH  14  21
ENDBRANCH   2  14
TORSDOF 4
