REMARK  Name = outputs/IAG933/test6/raw/output_4828_IAG933_linker_design_.xyz
REMARK  14 active torsions:
REMARK  status: ('A' for Active; 'I' for Inactive)
REMARK    1  A    between atoms: C_1  and  C_2
REMARK    2  A    between atoms: C_1  and  C_8
REMARK    3  A    between atoms: C_1  and  C_38
REMARK    4  A    between atoms: C_13  and  N_28
REMARK    5  A    between atoms: C_14  and  C_15
REMARK    6  A    between atoms: C_21  and  O_22
REMARK    7  A    between atoms: O_22  and  C_23
REMARK    8  A    between atoms: C_23  and  C_24
REMARK    9  A    between atoms: N_28  and  C_38
REMARK   10  A    between atoms: N_28  and  C_43
REMARK   11  A    between atoms: C_30  and  N_35
REMARK   12  A    between atoms: C_33  and  C_38
REMARK   13  A    between atoms: C_34  and  C_39
REMARK   14  A    between atoms: N_40  and  C_43
REMARK                            x       y       z     vdW  Elec       q    Type
REMARK                         _______ _______ _______ _____ _____    ______ ____
ROOT
ATOM      1  C   UNL A   1     -25.324  -0.045  28.824  0.00  0.00    +0.144 C 
ENDROOT
BRANCH   1   3
ATOM      2  O   UNL A   1     -27.577  -0.218  29.256  0.00  0.00    -0.272 OA
ATOM      3  C   UNL A   1     -26.745   0.551  29.327  0.00  0.00    +0.256 C 
ATOM      4  N   UNL A   1     -27.012   1.875  29.892  0.00  0.00    -0.206 NA
BRANCH   4   5
ATOM      5  C   UNL A   1     -27.652   3.029  30.108  0.00  0.00    +0.095 C 
ATOM      6  C   UNL A   1     -28.707   3.675  29.441  0.00  0.00    +0.022 C 
ATOM      7  C   UNL A   1     -28.591   2.400  28.941  0.00  0.00    +0.023 C 
BRANCH   6  11
ATOM      8  C   UNL A   1     -27.965   5.764  30.191  0.00  0.00    +0.000 C 
ATOM      9  C   UNL A   1     -28.588   7.051  28.253  0.00  0.00    +0.000 C 
ATOM     10  C   UNL A   1     -29.083   5.747  28.069  0.00  0.00    +0.000 C 
ATOM     11  C   UNL A   1     -28.197   4.928  28.991  0.00  0.00    +0.002 C 
ATOM     12  C   UNL A   1     -28.302   7.186  29.738  0.00  0.00    +0.000 C 
ENDBRANCH   6  11
ENDBRANCH   4   5
ENDBRANCH   1   3
BRANCH   1  13
ATOM     13  C   UNL A   1     -24.855  -1.012  30.143  0.00  0.00    +0.062 C 
BRANCH  13  14
ATOM     14  C   UNL A   1     -24.973  -2.505  29.788  0.00  0.00    -0.019 C 
ATOM     15  C   UNL A   1     -23.906  -3.173  29.146  0.00  0.00    -0.004 C 
ATOM     16  C   UNL A   1     -23.989  -4.549  28.853  0.00  0.00    -0.000 C 
ATOM     17  C   UNL A   1     -25.137  -5.280  29.205  0.00  0.00    -0.000 C 
ATOM     18  C   UNL A   1     -26.232  -4.611  29.784  0.00  0.00    -0.000 C 
ATOM     19  C   UNL A   1     -26.155  -3.232  30.065  0.00  0.00    -0.004 C 
ENDBRANCH  13  14
BRANCH  13  20
ATOM     20  C   UNL A   1     -25.387  -0.679  31.571  0.00  0.00    +0.079 C 
ATOM     21  C   UNL A   1     -25.189   0.773  32.028  0.00  0.00    +0.019 C 
ATOM     22  C   UNL A   1     -25.336   0.684  33.544  0.00  0.00    +0.020 C 
ATOM     23  C   UNL A   1     -24.829  -0.715  33.905  0.00  0.00    +0.089 C 
ATOM     24  N   UNL A   1     -24.758  -1.481  32.646  0.00  0.00    -0.219 NA
ENDBRANCH  13  20
ENDBRANCH   1  13
BRANCH   1  25
ATOM     25  N   UNL A   1     -25.006   1.012  27.682  0.00  0.00    -0.229 NA
BRANCH  25  26
ATOM     26  C   UNL A   1     -25.688   1.614  26.461  0.00  0.00    +0.131 C 
ATOM     27  C   UNL A   1     -26.250   2.920  26.395  0.00  0.00    +0.070 C 
ATOM     28  C   UNL A   1     -27.438   3.091  25.645  0.00  0.00    +0.103 C 
ATOM     29  N   UNL A   1     -28.075   2.089  25.003  0.00  0.00    -0.212 NA
ATOM     30  C   UNL A   1     -27.543   0.849  25.079  0.00  0.00    +0.235 C 
ATOM     31  C   UNL A   1     -26.354   0.576  25.777  0.00  0.00    +0.255 C 
ATOM     32  F   UNL A   1     -25.860  -0.681  25.795  0.00  0.00    -0.225 F 
BRANCH  27  33
ATOM     33  C   UNL A   1     -25.642   4.093  27.123  0.00  0.00    +0.264 C 
ATOM     34  N   UNL A   1     -25.614   5.252  26.449  0.00  0.00    -0.200 NA
ATOM     35  C   UNL A   1     -25.026   6.479  26.963  0.00  0.00    +0.139 C 
ATOM     36  O   UNL A   1     -25.143   3.966  28.243  0.00  0.00    -0.269 OA
ENDBRANCH  27  33
BRANCH  30  37
ATOM     37  O   UNL A   1     -28.193  -0.208  24.477  0.00  0.00    -0.459 OA
BRANCH  37  38
ATOM     38  C   UNL A   1     -29.460   0.005  23.866  0.00  0.00    +0.242 C 
BRANCH  38  39
ATOM     39  C   UNL A   1     -30.065  -1.377  23.573  0.00  0.00    +0.229 C 
ATOM     40  O   UNL A   1     -30.729  -1.878  24.721  0.00  0.00    -0.216 OA
ENDBRANCH  38  39
ENDBRANCH  37  38
ENDBRANCH  30  37
ENDBRANCH  25  26
BRANCH  25  41
ATOM     41  C   UNL A   1     -23.733   1.450  27.968  0.00  0.00    +0.252 C 
ATOM     42  N   UNL A   1     -23.033   1.117  29.010  0.00  0.00    -0.091 NA
BRANCH  41  44
ATOM     43  C   UNL A   1     -22.122   1.759  26.359  0.00  0.00    +0.412 C 
ATOM     44  N   UNL A   1     -23.256   1.325  26.790  0.00  0.00    -0.142 NA
ATOM     45  O   UNL A   1     -21.890   2.286  25.262  0.00  0.00    -0.234 OA
ATOM     46  F   UNL A   1     -21.063   1.547  27.136  0.00  0.00    -0.142 F 
ENDBRANCH  41  44
ENDBRANCH  25  41
ENDBRANCH   1  25
TORSDOF 14
