MODEL 4828
MODEL 1
REMARK VINA RESULT:    -6.324      0.000      0.000
REMARK INTER + INTRA:          -8.236
REMARK INTER:                  -7.433
REMARK INTRA:                  -0.803
REMARK UNBOUND:                -0.803
REMARK  Name = No_4828-gen_results/8p0m/2024-11-27-11-27-31/
REMARK  3 active torsions:
REMARK  status: ('A' for Active; 'I' for Inactive)
REMARK    1  A    between atoms: C_2  and  N_9
REMARK    2  A    between atoms: N_9  and  C_10
REMARK    3  A    between atoms: C_10  and  C_11
REMARK                            x       y       z     vdW  Elec       q    Type
REMARK                         _______ _______ _______ _____ _____    ______ ____
ROOT
ATOM      1  N   UNL A   1     -10.953   1.809  37.395  0.00  0.00    -0.234 NA
ENDROOT
BRANCH   1   3
ATOM      2  C   UNL A   1     -12.784   2.380  36.236  0.00  0.00    +0.051 A 
ATOM      3  C   UNL A   1     -11.686   1.887  36.120  0.00  0.00    +0.072 A 
ATOM      4  C   UNL A   1     -11.192   1.395  34.927  0.00  0.00    +0.018 A 
ATOM      5  C   UNL A   1     -12.009   1.513  33.768  0.00  0.00    +0.019 A 
ATOM      6  C   UNL A   1     -13.152   2.222  33.914  0.00  0.00    +0.090 A 
ATOM      7  C   UNL A   1     -13.527   2.693  35.088  0.00  0.00    +0.026 A 
ATOM      8 BR   UNL A   1     -13.374   3.049  37.918  0.00  0.00    -0.048 Br
ATOM      9  N   UNL A   1     -13.935   2.363  32.773  0.00  0.00    -0.128 NA
ENDBRANCH   1   3
BRANCH   1  10
ATOM     10  C   UNL A   1     -10.649   0.588  37.908  0.00  0.00    +0.115 C 
ATOM     11  C   UNL A   1      -9.043   0.676  37.975  0.00  0.00    +0.028 C 
BRANCH  10  12
ATOM     12  C   UNL A   1     -11.152  -0.219  38.220  0.00  0.00    -0.003 A 
ATOM     13  C   UNL A   1     -11.656  -0.481  39.396  0.00  0.00    -0.003 A 
ATOM     14  C   UNL A   1     -12.322  -1.710  39.895  0.00  0.00    -0.000 A 
ATOM     15  C   UNL A   1     -12.308  -2.775  39.037  0.00  0.00    -0.000 A 
ATOM     16  C   UNL A   1     -11.690  -2.737  37.805  0.00  0.00    -0.000 A 
ATOM     17  C   UNL A   1     -11.087  -1.566  37.407  0.00  0.00    -0.003 A 
ENDBRANCH  10  12
ENDBRANCH   1  10
TORSDOF 3
ENDMDL
ENDMDL
