MODEL 4829
MODEL 1
REMARK VINA RESULT:    -4.351      0.000      0.000
REMARK INTER + INTRA:          -4.351
REMARK INTER:                  -4.351
REMARK INTRA:                   0.000
REMARK UNBOUND:                 0.000
REMARK  Name = No_4829-gen_results/8p0m/2024-11-27-11-27-31/
REMARK  0 active torsions:
REMARK  status: ('A' for Active; 'I' for Inactive)
REMARK                            x       y       z     vdW  Elec       q    Type
REMARK                         _______ _______ _______ _____ _____    ______ ____
ROOT
ATOM      1  C   UNL A   1     -24.169  -4.892  28.626  0.00  0.00    +0.000 A 
ATOM      2  C   UNL A   1     -25.025  -5.297  29.089  0.00  0.00    +0.000 A 
ATOM      3  C   UNL A   1     -24.063  -3.434  28.767  0.00  0.00    +0.000 A 
ATOM      4  C   UNL A   1     -25.049  -2.690  29.270  0.00  0.00    +0.000 A 
ATOM      5  C   UNL A   1     -26.210  -4.708  29.663  0.00  0.00    +0.000 A 
ATOM      6  C   UNL A   1     -26.103  -3.352  29.762  0.00  0.00    +0.000 A 
ENDROOT
TORSDOF 0
ENDMDL
ENDMDL
