MODEL 482
MODEL 1
REMARK VINA RESULT:    -4.301      0.000      0.000
REMARK INTER + INTRA:          -4.301
REMARK INTER:                  -4.301
REMARK INTRA:                   0.000
REMARK UNBOUND:                 0.000
REMARK  Name = No_482-gen_results/8p0m/2024-11-27-11-27-31/
REMARK  0 active torsions:
REMARK  status: ('A' for Active; 'I' for Inactive)
REMARK                            x       y       z     vdW  Elec       q    Type
REMARK                         _______ _______ _______ _____ _____    ______ ____
ROOT
ATOM      1  C   UNL A   1     -24.936  -5.402  28.975  0.00  0.00    +0.000 A 
ATOM      2  C   UNL A   1     -24.178  -4.717  28.715  0.00  0.00    +0.000 A 
ATOM      3  C   UNL A   1     -26.100  -4.776  29.602  0.00  0.00    +0.000 A 
ATOM      4  C   UNL A   1     -26.181  -3.420  29.803  0.00  0.00    +0.000 A 
ATOM      5  C   UNL A   1     -23.993  -3.269  28.801  0.00  0.00    +0.000 A 
ATOM      6  C   UNL A   1     -25.115  -2.654  29.407  0.00  0.00    +0.000 A 
ENDROOT
TORSDOF 0
ENDMDL
ENDMDL
