REMARK  Name = No_4830-gen_results/8p0m/2024-11-27-11-27-31/
REMARK  4 active torsions:
REMARK  status: ('A' for Active; 'I' for Inactive)
REMARK    1  A    between atoms: C_3  and  C_5
REMARK    2  A    between atoms: C_5  and  C_9
REMARK    3  A    between atoms: C_5  and  C_15
REMARK    4  A    between atoms: C_15  and  N_16
REMARK                            x       y       z     vdW  Elec       q    Type
REMARK                         _______ _______ _______ _____ _____    ______ ____
ROOT
ATOM      1  C   UNL A   1     -27.867   0.959  30.111  0.00  0.00    +0.051 C 
ENDROOT
BRANCH   1   4
ATOM      2  O   UNL A   1     -28.123  -1.335  28.487  0.00  0.00    -0.273 OA
ATOM      3  C   UNL A   1     -27.064  -0.824  28.869  0.00  0.00    +0.241 C 
ATOM      4  C   UNL A   1     -26.959   0.093  29.758  0.00  0.00    +0.084 C 
ATOM      5  N   UNL A   1     -25.847  -1.549  28.659  0.00  0.00    -0.205 NA
ATOM      6  C   UNL A   1     -24.565  -1.138  29.039  0.00  0.00    +0.115 C 
ATOM      7  C   UNL A   1     -24.471  -0.010  29.753  0.00  0.00    +0.024 C 
ATOM      8  C   UNL A   1     -25.577   0.684  30.157  0.00  0.00    +0.011 C 
ENDBRANCH   1   4
BRANCH   1   9
ATOM      9  C   UNL A   1     -28.725   1.459  29.329  0.00  0.00    -0.020 A 
ATOM     10  C   UNL A   1     -28.493   1.534  28.018  0.00  0.00    -0.004 A 
ATOM     11  C   UNL A   1     -29.492   1.973  27.040  0.00  0.00    -0.000 A 
ATOM     12  C   UNL A   1     -30.683   2.447  27.559  0.00  0.00    -0.000 A 
ATOM     13  C   UNL A   1     -30.940   2.401  28.896  0.00  0.00    -0.000 A 
ATOM     14  C   UNL A   1     -30.033   1.942  29.799  0.00  0.00    -0.004 A 
ENDBRANCH   1   9
BRANCH   1  15
ATOM     15  C   UNL A   1     -28.139   0.994  31.636  0.00  0.00    +0.096 C 
BRANCH  15  16
ATOM     16  N   UNL A   1     -27.747   1.993  32.294  0.00  0.00    -0.307 N 
ATOM     17  C   UNL A   1     -27.296   3.031  31.988  0.00  0.00    +0.044 A 
ATOM     18  C   UNL A   1     -27.312   3.617  30.878  0.00  0.00    +0.014 A 
ATOM     19  C   UNL A   1     -26.569   4.872  30.564  0.00  0.00    +0.001 A 
ATOM     20  C   UNL A   1     -25.915   5.442  31.579  0.00  0.00    -0.000 A 
ATOM     21  C   UNL A   1     -25.831   4.852  32.861  0.00  0.00    -0.003 A 
ATOM     22  C   UNL A   1     -26.450   3.735  33.085  0.00  0.00    -0.007 A 
ATOM     23  C   UNL A   1     -27.320   1.757  33.835  0.00  0.00    +0.096 C 
ATOM     24  C   UNL A   1     -26.539   2.838  34.192  0.00  0.00    +0.049 C 
ENDBRANCH  15  16
ENDBRANCH   1  15
TORSDOF 4
