REMARK  Name = No_4831-gen_results/8p0m/2024-11-27-11-27-31/
REMARK  15 active torsions:
REMARK  status: ('A' for Active; 'I' for Inactive)
REMARK    1  A    between atoms: C_3  and  C_14
REMARK    2  A    between atoms: C_6  and  C_11
REMARK    3  A    between atoms: C_8  and  C_18
REMARK    4  A    between atoms: C_18  and  O_20
REMARK    5  A    between atoms: O_20  and  C_21
REMARK    6  A    between atoms: C_21  and  C_22
REMARK    7  A    between atoms: C_22  and  P_23
REMARK    8  A    between atoms: P_23  and  O_25
REMARK    9  A    between atoms: O_25  and  C_27
REMARK   10  A    between atoms: C_27  and  C_28
REMARK   11  A    between atoms: C_28  and  O_29
REMARK   12  A    between atoms: O_29  and  C_30
REMARK   13  A    between atoms: C_30  and  C_31
REMARK   14  A    between atoms: C_31  and  C_32
REMARK   15  A    between atoms: C_33  and  C_34
REMARK                            x       y       z     vdW  Elec       q    Type
REMARK                         _______ _______ _______ _____ _____    ______ ____
ROOT
ATOM      1  C   UNL A   1     -29.126  -2.260  30.743  0.00  0.00    +0.341 C 
ATOM      2  O   UNL A   1     -30.140  -1.789  30.920  0.00  0.00    -0.245 OA
ENDROOT
BRANCH   1  10
ATOM      3  C   UNL A   1     -28.016  -0.814  28.878  0.00  0.00    +0.007 A 
ATOM      4  C   UNL A   1     -27.064  -0.119  28.608  0.00  0.00    +0.006 A 
ATOM      5  C   UNL A   1     -27.001   0.691  27.491  0.00  0.00    +0.080 A 
ATOM      6  C   UNL A   1     -25.855   1.482  27.083  0.00  0.00    +0.006 A 
ATOM      7  C   UNL A   1     -24.901   1.389  27.592  0.00  0.00    +0.004 A 
ATOM      8  C   UNL A   1     -24.678   0.576  28.830  0.00  0.00    +0.071 A 
ATOM      9  C   UNL A   1     -25.770  -0.205  29.280  0.00  0.00    +0.004 A 
ATOM     10  C   UNL A   1     -27.963  -1.428  30.268  0.00  0.00    +0.076 A 
ATOM     11  C   UNL A   1     -26.740  -1.649  30.922  0.00  0.00    +0.006 A 
ATOM     12  C   UNL A   1     -25.631  -0.940  30.479  0.00  0.00    +0.000 A 
BRANCH   8  13
ATOM     13  C   UNL A   1     -23.336   0.573  29.503  0.00  0.00    +0.419 C 
ATOM     14  F   UNL A   1     -23.371   1.081  30.623  0.00  0.00    -0.166 F 
ATOM     15  F   UNL A   1     -22.533  -0.315  29.231  0.00  0.00    -0.166 F 
ATOM     16  F   UNL A   1     -22.600   1.771  28.934  0.00  0.00    -0.166 F 
ENDBRANCH   8  13
BRANCH   5  17
ATOM     17  C   UNL A   1     -28.258   0.767  26.626  0.00  0.00    +0.388 C 
ATOM     18  O   UNL A   1     -28.231   0.789  25.436  0.00  0.00    -0.241 OA
ATOM     19  O   UNL A   1     -29.387   0.399  27.204  0.00  0.00    -0.241 OA
ENDBRANCH   5  17
ENDBRANCH   1  10
BRANCH   1  20
ATOM     20  O   UNL A   1     -28.885  -3.530  30.970  0.00  0.00    -0.445 OA
BRANCH  20  21
ATOM     21  C   UNL A   1     -29.858  -4.485  30.766  0.00  0.00    +0.222 C 
BRANCH  21  22
ATOM     22  C   UNL A   1     -30.321  -4.774  29.526  0.00  0.00    +0.165 C 
BRANCH  22  23
ATOM     23  P   UNL A   1     -32.010  -4.937  29.299  0.00  0.00    +0.374 P 
ATOM     24  O   UNL A   1     -32.763  -4.520  29.862  0.00  0.00    -0.255 OA
ATOM     25  O   UNL A   1     -32.000  -6.548  29.079  0.00  0.00    -0.140 OA
BRANCH  23  26
ATOM     26  O   UNL A   1     -32.078  -4.529  27.670  0.00  0.00    -0.290 OA
BRANCH  26  27
ATOM     27  C   UNL A   1     -33.131  -4.196  27.042  0.00  0.00    +0.183 C 
BRANCH  27  28
ATOM     28  C   UNL A   1     -32.700  -3.329  26.009  0.00  0.00    +0.175 C 
BRANCH  28  29
ATOM     29  O   UNL A   1     -31.527  -2.913  25.812  0.00  0.00    -0.351 OA
BRANCH  29  30
ATOM     30  C   UNL A   1     -31.155  -1.886  24.785  0.00  0.00    +0.147 C 
BRANCH  30  31
ATOM     31  C   UNL A   1     -32.244  -1.224  24.279  0.00  0.00    +0.058 C 
BRANCH  31  32
ATOM     32  C   UNL A   1     -31.900   0.095  23.811  0.00  0.00    -0.024 C 
ATOM     33  C   UNL A   1     -30.606   0.407  23.832  0.00  0.00    -0.004 C 
BRANCH  33  34
ATOM     34  C   UNL A   1     -30.201   1.750  23.383  0.00  0.00    -0.000 C 
ATOM     35  C   UNL A   1     -31.211   2.585  22.849  0.00  0.00    -0.000 C 
ENDBRANCH  33  34
ENDBRANCH  31  32
ENDBRANCH  30  31
ENDBRANCH  29  30
ENDBRANCH  28  29
ENDBRANCH  27  28
ENDBRANCH  26  27
ENDBRANCH  23  26
ENDBRANCH  22  23
ENDBRANCH  21  22
ENDBRANCH  20  21
ENDBRANCH   1  20
TORSDOF 15
