MODEL 4831
MODEL 1
REMARK VINA RESULT:    -5.331      0.000      0.000
REMARK INTER + INTRA:         -13.854
REMARK INTER:                 -10.005
REMARK INTRA:                  -3.849
REMARK UNBOUND:                -3.849
REMARK  Name = No_4831-gen_results/8p0m/2024-11-27-11-27-31/
REMARK  15 active torsions:
REMARK  status: ('A' for Active; 'I' for Inactive)
REMARK    1  A    between atoms: C_3  and  C_14
REMARK    2  A    between atoms: C_6  and  C_11
REMARK    3  A    between atoms: C_8  and  C_18
REMARK    4  A    between atoms: C_18  and  O_20
REMARK    5  A    between atoms: O_20  and  C_21
REMARK    6  A    between atoms: C_21  and  C_22
REMARK    7  A    between atoms: C_22  and  P_23
REMARK    8  A    between atoms: P_23  and  O_25
REMARK    9  A    between atoms: O_25  and  C_27
REMARK   10  A    between atoms: C_27  and  C_28
REMARK   11  A    between atoms: C_28  and  O_29
REMARK   12  A    between atoms: O_29  and  C_30
REMARK   13  A    between atoms: C_30  and  C_31
REMARK   14  A    between atoms: C_31  and  C_32
REMARK   15  A    between atoms: C_33  and  C_34
REMARK                            x       y       z     vdW  Elec       q    Type
REMARK                         _______ _______ _______ _____ _____    ______ ____
ROOT
ATOM      1  C   UNL A   1      -6.877  -0.700   9.369  0.00  0.00    +0.341 C 
ATOM      2  O   UNL A   1      -6.547  -1.521  10.074  0.00  0.00    -0.245 OA
ENDROOT
BRANCH   1  10
ATOM      3  C   UNL A   1      -7.877   1.687   9.049  0.00  0.00    +0.007 A 
ATOM      4  C   UNL A   1      -8.692   2.477   9.467  0.00  0.00    +0.006 A 
ATOM      5  C   UNL A   1      -9.062   3.624   8.793  0.00  0.00    +0.080 A 
ATOM      6  C   UNL A   1      -9.974   4.639   9.286  0.00  0.00    +0.006 A 
ATOM      7  C   UNL A   1     -10.346   4.609  10.305  0.00  0.00    +0.004 A 
ATOM      8  C   UNL A   1     -10.099   3.485  11.264  0.00  0.00    +0.071 A 
ATOM      9  C   UNL A   1      -9.226   2.460  10.827  0.00  0.00    +0.004 A 
ATOM     10  C   UNL A   1      -7.809   0.388   9.836  0.00  0.00    +0.076 A 
ATOM     11  C   UNL A   1      -8.195   0.331  11.185  0.00  0.00    +0.006 A 
ATOM     12  C   UNL A   1      -9.011   1.345  11.669  0.00  0.00    +0.000 A 
BRANCH   8  13
ATOM     13  C   UNL A   1     -10.722   3.504  12.630  0.00  0.00    +0.419 C 
ATOM     14  F   UNL A   1     -11.462   4.473  12.796  0.00  0.00    -0.166 F 
ATOM     15  F   UNL A   1     -10.925   2.440  13.209  0.00  0.00    -0.166 F 
ATOM     16  F   UNL A   1      -9.666   4.097  13.543  0.00  0.00    -0.166 F 
ENDBRANCH   8  13
BRANCH   5  17
ATOM     17  C   UNL A   1      -8.466   3.824   7.400  0.00  0.00    +0.388 C 
ATOM     18  O   UNL A   1      -9.106   3.751   6.400  0.00  0.00    -0.241 OA
ATOM     19  O   UNL A   1      -7.320   4.479   7.345  0.00  0.00    -0.241 OA
ENDBRANCH   5  17
ENDBRANCH   1  10
BRANCH   1  20
ATOM     20  O   UNL A   1      -6.451  -0.616   8.130  0.00  0.00    -0.445 OA
BRANCH  20  21
ATOM     21  C   UNL A   1      -5.107  -0.491   7.848  0.00  0.00    +0.222 C 
BRANCH  21  22
ATOM     22  C   UNL A   1      -4.351  -1.562   7.508  0.00  0.00    +0.165 C 
BRANCH  22  23
ATOM     23  P   UNL A   1      -2.856  -1.798   8.309  0.00  0.00    +0.374 P 
ATOM     24  O   UNL A   1      -1.963  -1.321   8.128  0.00  0.00    -0.255 OA
ATOM     25  O   UNL A   1      -2.896  -3.423   8.272  0.00  0.00    -0.140 OA
BRANCH  23  26
ATOM     26  O   UNL A   1      -3.400  -1.637   9.891  0.00  0.00    -0.290 OA
BRANCH  26  27
ATOM     27  C   UNL A   1      -2.729  -1.139  10.849  0.00  0.00    +0.183 C 
BRANCH  27  28
ATOM     28  C   UNL A   1      -3.463  -0.007  11.278  0.00  0.00    +0.175 C 
BRANCH  28  29
ATOM     29  O   UNL A   1      -2.994   1.066  11.743  0.00  0.00    -0.351 OA
BRANCH  29  30
ATOM     30  C   UNL A   1      -3.730   1.977  12.679  0.00  0.00    +0.147 C 
BRANCH  30  31
ATOM     31  C   UNL A   1      -5.086   1.771  12.661  0.00  0.00    +0.058 C 
BRANCH  31  32
ATOM     32  C   UNL A   1      -5.809   2.984  12.370  0.00  0.00    -0.024 C 
ATOM     33  C   UNL A   1      -5.534   3.567  11.206  0.00  0.00    -0.004 C 
BRANCH  33  34
ATOM     34  C   UNL A   1      -6.230   4.820  10.867  0.00  0.00    -0.000 C 
ATOM     35  C   UNL A   1      -7.044   5.398  11.870  0.00  0.00    -0.000 C 
ENDBRANCH  33  34
ENDBRANCH  31  32
ENDBRANCH  30  31
ENDBRANCH  29  30
ENDBRANCH  28  29
ENDBRANCH  27  28
ENDBRANCH  26  27
ENDBRANCH  23  26
ENDBRANCH  22  23
ENDBRANCH  21  22
ENDBRANCH  20  21
ENDBRANCH   1  20
TORSDOF 15
ENDMDL
ENDMDL
