MODEL 4832
MODEL 1
REMARK VINA RESULT:    -5.395      0.000      0.000
REMARK INTER + INTRA:          -6.348
REMARK INTER:                  -6.026
REMARK INTRA:                  -0.322
REMARK UNBOUND:                -0.322
REMARK  Name = No_4832-gen_results/8p0m/2024-11-27-11-27-31/
REMARK  2 active torsions:
REMARK  status: ('A' for Active; 'I' for Inactive)
REMARK    1  A    between atoms: C_5  and  C_8
REMARK    2  A    between atoms: C_8  and  C_9
REMARK                            x       y       z     vdW  Elec       q    Type
REMARK                         _______ _______ _______ _____ _____    ______ ____
ROOT
ATOM      1  C   UNL A   1     -26.216  -4.456  29.683  0.00  0.00    +0.140 A 
ATOM      2  C   UNL A   1     -25.551  -5.211  29.370  0.00  0.00    +0.030 A 
ATOM      3  F   UNL A   1     -27.344  -4.791  30.110  0.00  0.00    -0.204 F 
ATOM      4  C   UNL A   1     -25.815  -3.074  29.858  0.00  0.00    +0.026 A 
ATOM      5  C   UNL A   1     -24.640  -2.604  29.202  0.00  0.00    -0.016 A 
ATOM      6  C   UNL A   1     -24.181  -4.923  28.628  0.00  0.00    +0.002 A 
ATOM      7  C   UNL A   1     -23.772  -3.570  28.667  0.00  0.00    -0.004 A 
ENDROOT
BRANCH   5   8
ATOM      8  C   UNL A   1     -24.223  -1.211  29.258  0.00  0.00    +0.048 C 
BRANCH   8   9
ATOM      9  C   UNL A   1     -23.063  -0.800  30.008  0.00  0.00    -0.040 C 
ATOM     10  C   UNL A   1     -23.035  -0.844  31.347  0.00  0.00    -0.009 C 
ATOM     11  C   UNL A   1     -21.865  -0.457  29.274  0.00  0.00    +0.027 C 
ENDBRANCH   8   9
ENDBRANCH   5   8
TORSDOF 2
ENDMDL
ENDMDL
