REMARK  Name = outputs/IAG933/test6/raw/output_4832_IAG933_linker_design_.xyz
REMARK  13 active torsions:
REMARK  status: ('A' for Active; 'I' for Inactive)
REMARK    1  A    between atoms: C_1  and  C_2
REMARK    2  A    between atoms: C_1  and  C_8
REMARK    3  A    between atoms: C_1  and  C_33
REMARK    4  A    between atoms: C_13  and  C_37
REMARK    5  A    between atoms: C_14  and  C_15
REMARK    6  A    between atoms: C_21  and  O_22
REMARK    7  A    between atoms: O_22  and  C_23
REMARK    8  A    between atoms: C_23  and  C_24
REMARK    9  A    between atoms: C_28  and  C_44
REMARK   10  A    between atoms: C_34  and  C_44
REMARK   11  A    between atoms: C_34  and  N_45
REMARK   12  A    between atoms: C_39  and  C_40
REMARK   13  A    between atoms: C_43  and  C_46
REMARK                            x       y       z     vdW  Elec       q    Type
REMARK                         _______ _______ _______ _____ _____    ______ ____
ROOT
ATOM      1 CL   UNL A   1     -22.922   2.048  25.379  0.00  0.00    -0.080 Cl
ATOM      2  C   UNL A   1     -22.849   0.203  28.926  0.00  0.00    +0.027 C 
ATOM      3  C   UNL A   1     -24.210  -0.072  29.195  0.00  0.00    -0.007 C 
ATOM      4  F   UNL A   1     -21.155   1.505  27.673  0.00  0.00    -0.203 F 
ATOM      5  C   UNL A   1     -24.651   1.204  27.295  0.00  0.00    +0.023 C 
ATOM      6  C   UNL A   1     -22.450   1.009  27.839  0.00  0.00    +0.150 C 
ATOM      7  C   UNL A   1     -25.088   0.650  28.466  0.00  0.00    +0.039 C 
ATOM      8  C   UNL A   1     -23.364   1.405  26.891  0.00  0.00    +0.086 C 
ENDROOT
BRANCH   5   9
ATOM      9  C   UNL A   1     -25.688   1.614  26.461  0.00  0.00    +0.040 C 
ATOM     10  C   UNL A   1     -26.250   2.920  26.395  0.00  0.00    +0.077 C 
ATOM     11  C   UNL A   1     -27.438   3.091  25.645  0.00  0.00    +0.107 C 
ATOM     12  N   UNL A   1     -28.075   2.089  25.003  0.00  0.00    -0.208 NA
ATOM     13  C   UNL A   1     -27.543   0.849  25.079  0.00  0.00    +0.253 C 
ATOM     14  C   UNL A   1     -26.354   0.576  25.777  0.00  0.00    +0.193 C 
ATOM     15  F   UNL A   1     -25.860  -0.681  25.795  0.00  0.00    -0.199 F 
BRANCH  10  16
ATOM     16  C   UNL A   1     -25.642   4.093  27.123  0.00  0.00    +0.266 C 
ATOM     17  N   UNL A   1     -25.614   5.252  26.449  0.00  0.00    -0.200 NA
ATOM     18  C   UNL A   1     -25.026   6.479  26.963  0.00  0.00    +0.139 C 
ATOM     19  O   UNL A   1     -25.143   3.966  28.243  0.00  0.00    -0.268 OA
ENDBRANCH  10  16
BRANCH  13  20
ATOM     20  O   UNL A   1     -28.193  -0.208  24.477  0.00  0.00    -0.456 OA
BRANCH  20  21
ATOM     21  C   UNL A   1     -29.460   0.005  23.866  0.00  0.00    +0.243 C 
BRANCH  21  22
ATOM     22  C   UNL A   1     -30.065  -1.377  23.573  0.00  0.00    +0.229 C 
ATOM     23  O   UNL A   1     -30.729  -1.878  24.721  0.00  0.00    -0.216 OA
ENDBRANCH  21  22
ENDBRANCH  20  21
ENDBRANCH  13  20
ENDBRANCH   5   9
BRANCH   7  24
ATOM     24  C   UNL A   1     -26.483   0.812  29.002  0.00  0.00    -0.063 C 
ATOM     25  C   UNL A   1     -27.708   0.865  29.230  0.00  0.00    -0.071 C 
BRANCH  25  30
ATOM     26  C   UNL A   1     -31.014   1.963  27.951  0.00  0.00    +0.004 C 
ATOM     27  C   UNL A   1     -30.735  -0.515  27.619  0.00  0.00    +0.073 C 
ATOM     28  C   UNL A   1     -30.008   1.969  29.098  0.00  0.00    +0.029 C 
ATOM     29  C   UNL A   1     -31.726   0.620  27.634  0.00  0.00    +0.017 C 
ATOM     30  C   UNL A   1     -29.253   0.684  29.096  0.00  0.00    +0.123 C 
ATOM     31  N   UNL A   1     -30.091  -0.418  28.981  0.00  0.00    -0.264 NA
BRANCH  31  32
ATOM     32  C   UNL A   1     -29.667  -1.580  29.763  0.00  0.00    +0.073 C 
BRANCH  32  33
ATOM     33  C   UNL A   1     -30.683  -2.716  29.962  0.00  0.00    +0.017 C 
BRANCH  33  34
ATOM     34  C   UNL A   1     -29.935  -3.918  30.662  0.00  0.00    +0.001 C 
ATOM     35  C   UNL A   1     -31.008  -4.682  31.382  0.00  0.00    +0.000 C 
ATOM     36  C   UNL A   1     -29.094  -3.382  31.893  0.00  0.00    +0.000 C 
ENDBRANCH  33  34
ENDBRANCH  32  33
ENDBRANCH  31  32
ENDBRANCH  25  30
ENDBRANCH   7  24
BRANCH   3  37
ATOM     37  C   UNL A   1     -24.855  -1.012  30.143  0.00  0.00    +0.061 C 
BRANCH  37  38
ATOM     38  C   UNL A   1     -24.973  -2.505  29.788  0.00  0.00    -0.017 C 
ATOM     39  C   UNL A   1     -23.906  -3.173  29.146  0.00  0.00    -0.004 C 
ATOM     40  C   UNL A   1     -23.989  -4.549  28.853  0.00  0.00    -0.000 C 
ATOM     41  C   UNL A   1     -25.137  -5.280  29.205  0.00  0.00    -0.000 C 
ATOM     42  C   UNL A   1     -26.232  -4.611  29.784  0.00  0.00    -0.000 C 
ATOM     43  C   UNL A   1     -26.155  -3.232  30.065  0.00  0.00    -0.004 C 
ENDBRANCH  37  38
BRANCH  37  44
ATOM     44  C   UNL A   1     -25.387  -0.679  31.571  0.00  0.00    +0.081 C 
ATOM     45  C   UNL A   1     -25.189   0.773  32.028  0.00  0.00    +0.019 C 
ATOM     46  C   UNL A   1     -25.336   0.684  33.544  0.00  0.00    +0.020 C 
ATOM     47  C   UNL A   1     -24.829  -0.715  33.905  0.00  0.00    +0.089 C 
ATOM     48  N   UNL A   1     -24.758  -1.481  32.646  0.00  0.00    -0.219 NA
ENDBRANCH  37  44
ENDBRANCH   3  37
TORSDOF 13
