MODEL 4833
MODEL 1
REMARK VINA RESULT:    -8.408      0.000      0.000
REMARK INTER + INTRA:          -9.717
REMARK INTER:                  -9.391
REMARK INTRA:                  -0.326
REMARK UNBOUND:                -0.326
REMARK  Name = No_4833-gen_results/8p0m/2024-11-27-11-27-31/
REMARK  2 active torsions:
REMARK  status: ('A' for Active; 'I' for Inactive)
REMARK    1  A    between atoms: N_11  and  C_14
REMARK    2  A    between atoms: C_14  and  C_15
REMARK                            x       y       z     vdW  Elec       q    Type
REMARK                         _______ _______ _______ _____ _____    ______ ____
ROOT
ATOM      1  C   UNL A   1     -25.123   3.353  25.735  0.00  0.00    -0.000 A 
ATOM      2  C   UNL A   1     -24.161   2.736  26.131  0.00  0.00    -0.000 A 
ATOM      3  C   UNL A   1     -24.044   2.060  27.237  0.00  0.00    -0.001 A 
ATOM      4  C   UNL A   1     -25.162   2.028  28.125  0.00  0.00    -0.002 A 
ATOM      5  C   UNL A   1     -26.285   2.637  27.678  0.00  0.00    -0.003 A 
ATOM      6  C   UNL A   1     -26.322   3.284  26.470  0.00  0.00    -0.000 A 
ATOM      7  C   UNL A   1     -22.787   1.380  27.694  0.00  0.00    +0.013 A 
ATOM      8  C   UNL A   1     -21.758   1.636  27.503  0.00  0.00    +0.001 A 
ATOM      9  C   UNL A   1     -20.527   0.858  27.889  0.00  0.00    +0.000 A 
ATOM     10  C   UNL A   1     -23.017   0.120  28.552  0.00  0.00    +0.048 A 
ATOM     11  N   UNL A   1     -24.299  -0.330  28.830  0.00  0.00    -0.299 N 
ATOM     12  C   UNL A   1     -20.679  -0.176  28.617  0.00  0.00    +0.001 A 
ATOM     13  C   UNL A   1     -21.913  -0.586  28.956  0.00  0.00    +0.015 A 
ATOM     14  C   UNL A   1     -25.328   0.648  28.339  0.00  0.00    +0.118 C 
ENDROOT
BRANCH  11  15
ATOM     15  C   UNL A   1     -24.601  -1.366  29.343  0.00  0.00    +0.118 C 
BRANCH  15  16
ATOM     16  C   UNL A   1     -24.741  -2.519  29.031  0.00  0.00    -0.002 A 
ATOM     17  C   UNL A   1     -24.069  -3.237  28.560  0.00  0.00    -0.003 A 
ATOM     18  C   UNL A   1     -24.141  -4.704  28.596  0.00  0.00    -0.000 A 
ATOM     19  C   UNL A   1     -25.311  -5.279  29.137  0.00  0.00    -0.000 A 
ATOM     20  C   UNL A   1     -26.245  -4.475  29.687  0.00  0.00    -0.000 A 
ATOM     21  C   UNL A   1     -26.030  -3.103  29.720  0.00  0.00    -0.003 A 
ENDBRANCH  15  16
ENDBRANCH  11  15
TORSDOF 2
ENDMDL
ENDMDL
