MODEL 4834
MODEL 1
REMARK VINA RESULT:    -5.057      0.000      0.000
REMARK INTER + INTRA:          -5.521
REMARK INTER:                  -5.353
REMARK INTRA:                  -0.168
REMARK UNBOUND:                -0.168
REMARK  Name = No_4834-gen_results/8p0m/2024-11-27-11-27-31/
REMARK  1 active torsions:
REMARK  status: ('A' for Active; 'I' for Inactive)
REMARK    1  A    between atoms: C_2  and  C_3
REMARK                            x       y       z     vdW  Elec       q    Type
REMARK                         _______ _______ _______ _____ _____    ______ ____
ROOT
ATOM      1  C   UNL A   1     -24.779  -2.548  29.083  0.00  0.00    +0.044 A 
ATOM      2  C   UNL A   1     -25.713  -2.904  29.476  0.00  0.00    +0.001 A 
ATOM      3  C   UNL A   1     -26.265  -4.294  29.714  0.00  0.00    -0.000 A 
ATOM      4  C   UNL A   1     -25.382  -5.284  29.291  0.00  0.00    -0.000 A 
ATOM      5  C   UNL A   1     -24.224  -4.915  28.685  0.00  0.00    -0.000 A 
ATOM      6  C   UNL A   1     -23.948  -3.682  28.548  0.00  0.00    +0.001 A 
ENDROOT
BRANCH   1   8
ATOM      7  F   UNL A   1     -24.339  -0.889  27.854  0.00  0.00    -0.193 F 
ATOM      8  C   UNL A   1     -24.116  -1.419  28.845  0.00  0.00    +0.341 C 
ATOM      9  F   UNL A   1     -22.683  -1.738  28.915  0.00  0.00    -0.193 F 
ENDBRANCH   1   8
TORSDOF 1
ENDMDL
ENDMDL
