MODEL 4835
MODEL 1
REMARK VINA RESULT:    -4.425      0.000      0.000
REMARK INTER + INTRA:          -5.108
REMARK INTER:                  -4.942
REMARK INTRA:                  -0.166
REMARK UNBOUND:                -0.166
REMARK  Name = No_4835-gen_results/8p0m/2024-11-27-11-27-31/
REMARK  2 active torsions:
REMARK  status: ('A' for Active; 'I' for Inactive)
REMARK    1  A    between atoms: C_3  and  C_4
REMARK    2  A    between atoms: C_5  and  C_7
REMARK                            x       y       z     vdW  Elec       q    Type
REMARK                         _______ _______ _______ _____ _____    ______ ____
ROOT
ATOM      1  C   UNL A   1     -23.926  -3.400  28.822  0.00  0.00    -0.002 C 
ATOM      2  C   UNL A   1     -24.858  -4.309  29.176  0.00  0.00    -0.022 C 
ATOM      3  C   UNL A   1     -24.827  -5.631  28.920  0.00  0.00    +0.031 C 
ENDROOT
BRANCH   1   6
ATOM      4  F   UNL A   1     -22.125  -1.395  28.941  0.00  0.00    -0.202 F 
ATOM      5  C   UNL A   1     -23.181  -1.179  29.328  0.00  0.00    +0.167 C 
ATOM      6  C   UNL A   1     -24.138  -2.028  28.960  0.00  0.00    +0.032 C 
ENDBRANCH   1   6
BRANCH   2   7
ATOM      7  C   UNL A   1     -26.123  -3.708  29.672  0.00  0.00    -0.004 C 
ATOM      8  C   UNL A   1     -27.244  -4.321  30.021  0.00  0.00    -0.000 C 
ENDBRANCH   2   7
TORSDOF 2
ENDMDL
ENDMDL
