REMARK  Name = No_4835-gen_results/8p0m/2024-11-27-11-27-31/
REMARK  2 active torsions:
REMARK  status: ('A' for Active; 'I' for Inactive)
REMARK    1  A    between atoms: C_3  and  C_4
REMARK    2  A    between atoms: C_5  and  C_7
REMARK                            x       y       z     vdW  Elec       q    Type
REMARK                         _______ _______ _______ _____ _____    ______ ____
ROOT
ATOM      1  C   UNL A   1     -27.490   0.351  26.443  0.00  0.00    -0.002 C 
ATOM      2  C   UNL A   1     -26.843   0.564  25.279  0.00  0.00    -0.022 C 
ATOM      3  C   UNL A   1     -27.386   0.554  24.046  0.00  0.00    +0.031 C 
ENDROOT
BRANCH   1   6
ATOM      4  F   UNL A   1     -28.073  -1.254  28.532  0.00  0.00    -0.202 F 
ATOM      5  C   UNL A   1     -27.359  -0.379  28.722  0.00  0.00    +0.167 C 
ATOM      6  C   UNL A   1     -26.810   0.189  27.651  0.00  0.00    +0.032 C 
ENDBRANCH   1   6
BRANCH   2   7
ATOM      7  C   UNL A   1     -25.363   0.561  25.407  0.00  0.00    -0.004 C 
ATOM      8  C   UNL A   1     -24.632   0.448  26.506  0.00  0.00    -0.000 C 
ENDBRANCH   2   7
TORSDOF 2
