MODEL 4836
MODEL 1
REMARK VINA RESULT:    -4.339      0.000      0.000
REMARK INTER + INTRA:          -4.339
REMARK INTER:                  -4.339
REMARK INTRA:                   0.000
REMARK UNBOUND:                 0.000
REMARK  Name = No_4836-gen_results/8p0m/2024-11-27-11-27-31/
REMARK  0 active torsions:
REMARK  status: ('A' for Active; 'I' for Inactive)
REMARK                            x       y       z     vdW  Elec       q    Type
REMARK                         _______ _______ _______ _____ _____    ______ ____
ROOT
ATOM      1  C   UNL A   1     -24.920  -5.457  28.931  0.00  0.00    +0.000 A 
ATOM      2  C   UNL A   1     -24.146  -4.783  28.692  0.00  0.00    +0.000 A 
ATOM      3  C   UNL A   1     -26.059  -4.828  29.599  0.00  0.00    +0.000 A 
ATOM      4  C   UNL A   1     -26.161  -3.680  29.706  0.00  0.00    +0.000 A 
ATOM      5  C   UNL A   1     -24.011  -3.340  28.748  0.00  0.00    +0.000 A 
ATOM      6  C   UNL A   1     -25.161  -2.767  29.356  0.00  0.00    +0.000 A 
ENDROOT
TORSDOF 0
ENDMDL
ENDMDL
