MODEL 4837
MODEL 1
REMARK VINA RESULT:    -4.571      0.000      0.000
REMARK INTER + INTRA:          -4.571
REMARK INTER:                  -4.571
REMARK INTRA:                   0.000
REMARK UNBOUND:                 0.000
REMARK  Name = No_4837-gen_results/8p0m/2024-11-27-11-27-31/
REMARK  0 active torsions:
REMARK  status: ('A' for Active; 'I' for Inactive)
REMARK                            x       y       z     vdW  Elec       q    Type
REMARK                         _______ _______ _______ _____ _____    ______ ____
ROOT
ATOM      1  C   UNL A   1     -25.024  -5.372  29.100  0.00  0.00    -0.000 A 
ATOM      2  C   UNL A   1     -26.006  -4.818  29.538  0.00  0.00    -0.000 A 
ATOM      3  C   UNL A   1     -26.109  -3.461  29.792  0.00  0.00    -0.004 A 
ATOM      4  C   UNL A   1     -24.973  -2.656  29.485  0.00  0.00    -0.022 A 
ATOM      5  C   UNL A   1     -24.958  -1.352  29.778  0.00  0.00    +0.031 C 
ATOM      6  C   UNL A   1     -24.004  -4.561  28.486  0.00  0.00    -0.000 A 
ATOM      7  C   UNL A   1     -23.947  -3.242  28.841  0.00  0.00    -0.004 A 
ENDROOT
TORSDOF 0
ENDMDL
ENDMDL
