MODEL 4838
MODEL 1
REMARK VINA RESULT:    -7.692      0.000      0.000
REMARK INTER + INTRA:          -9.802
REMARK INTER:                  -9.490
REMARK INTRA:                  -0.312
REMARK UNBOUND:                -0.312
REMARK  Name = No_4838-gen_results/8p0m/2024-11-27-11-27-31/
REMARK  4 active torsions:
REMARK  status: ('A' for Active; 'I' for Inactive)
REMARK    1  A    between atoms: C_3  and  O_14
REMARK    2  A    between atoms: C_4  and  C_7
REMARK    3  A    between atoms: C_7  and  C_8
REMARK    4  A    between atoms: O_14  and  C_15
REMARK                            x       y       z     vdW  Elec       q    Type
REMARK                         _______ _______ _______ _____ _____    ______ ____
ROOT
ATOM      1  C   UNL A   1     -22.068  -1.007  29.129  0.00  0.00    +0.037 A 
ATOM      2  C   UNL A   1     -21.188  -0.474  28.898  0.00  0.00    +0.003 A 
ATOM      3  C   UNL A   1     -23.342  -0.350  28.796  0.00  0.00    +0.141 A 
ATOM      4  C   UNL A   1     -23.357   0.877  28.071  0.00  0.00    +0.015 A 
ATOM      5  C   UNL A   1     -22.131   1.423  27.787  0.00  0.00    -0.001 A 
ATOM      6  C   UNL A   1     -20.992   0.789  28.139  0.00  0.00    -0.000 A 
ENDROOT
BRANCH   4   7
ATOM      7  C   UNL A   1     -24.594   1.526  27.721  0.00  0.00    +0.041 C 
ATOM      8  C   UNL A   1     -25.444   1.736  28.981  0.00  0.00    +0.009 C 
ATOM      9  C   UNL A   1     -24.274   3.011  27.295  0.00  0.00    +0.009 C 
BRANCH   7  10
ATOM     10  C   UNL A   1     -25.370   0.862  26.748  0.00  0.00    -0.019 A 
ATOM     11  C   UNL A   1     -26.776   0.738  26.899  0.00  0.00    -0.004 A 
ATOM     12  C   UNL A   1     -27.589   0.236  25.892  0.00  0.00    -0.000 A 
ATOM     13  C   UNL A   1     -24.795   0.187  25.599  0.00  0.00    -0.004 A 
ATOM     14  C   UNL A   1     -25.596  -0.226  24.522  0.00  0.00    -0.000 A 
ATOM     15  C   UNL A   1     -26.999  -0.237  24.697  0.00  0.00    -0.000 A 
ENDBRANCH   7  10
ENDBRANCH   4   7
BRANCH   3  16
ATOM     16  O   UNL A   1     -24.559  -0.855  29.111  0.00  0.00    -0.454 OA
BRANCH  16  17
ATOM     17  C   UNL A   1     -24.790  -2.261  28.991  0.00  0.00    +0.145 A 
ATOM     18  C   UNL A   1     -24.051  -3.060  28.653  0.00  0.00    +0.037 A 
ATOM     19  C   UNL A   1     -24.312  -4.464  28.624  0.00  0.00    +0.003 A 
ATOM     20  C   UNL A   1     -25.512  -4.835  29.179  0.00  0.00    +0.000 A 
ATOM     21  C   UNL A   1     -26.393  -3.941  29.701  0.00  0.00    +0.003 A 
ATOM     22  C   UNL A   1     -26.056  -2.594  29.626  0.00  0.00    +0.037 A 
ENDBRANCH  16  17
ENDBRANCH   3  16
TORSDOF 4
ENDMDL
ENDMDL
