REMARK  Name = No_4838-gen_results/8p0m/2024-11-27-11-27-31/
REMARK  4 active torsions:
REMARK  status: ('A' for Active; 'I' for Inactive)
REMARK    1  A    between atoms: C_3  and  O_14
REMARK    2  A    between atoms: C_4  and  C_7
REMARK    3  A    between atoms: C_7  and  C_8
REMARK    4  A    between atoms: O_14  and  C_15
REMARK                            x       y       z     vdW  Elec       q    Type
REMARK                         _______ _______ _______ _____ _____    ______ ____
ROOT
ATOM      1  C   UNL A   1     -28.016  -0.814  28.878  0.00  0.00    +0.037 A 
ATOM      2  C   UNL A   1     -28.469  -0.785  29.829  0.00  0.00    +0.003 A 
ATOM      3  C   UNL A   1     -26.546  -0.876  28.850  0.00  0.00    +0.141 A 
ATOM      4  C   UNL A   1     -25.804  -1.032  30.057  0.00  0.00    +0.015 A 
ATOM      5  C   UNL A   1     -26.537  -1.039  31.217  0.00  0.00    -0.001 A 
ATOM      6  C   UNL A   1     -27.884  -0.953  31.186  0.00  0.00    -0.000 A 
ENDROOT
BRANCH   4   7
ATOM      7  C   UNL A   1     -24.366  -1.113  30.048  0.00  0.00    +0.041 C 
ATOM      8  C   UNL A   1     -23.879  -1.819  31.320  0.00  0.00    +0.009 C 
ATOM      9  C   UNL A   1     -23.933  -2.134  28.925  0.00  0.00    +0.009 C 
BRANCH   7  10
ATOM     10  C   UNL A   1     -23.692   0.119  29.919  0.00  0.00    -0.019 A 
ATOM     11  C   UNL A   1     -22.394   0.182  29.348  0.00  0.00    -0.004 A 
ATOM     12  C   UNL A   1     -21.768   1.387  29.059  0.00  0.00    -0.000 A 
ATOM     13  C   UNL A   1     -24.218   1.369  30.436  0.00  0.00    -0.004 A 
ATOM     14  C   UNL A   1     -23.661   2.603  30.061  0.00  0.00    -0.000 A 
ATOM     15  C   UNL A   1     -22.407   2.600  29.406  0.00  0.00    -0.000 A 
ENDBRANCH   7  10
ENDBRANCH   4   7
BRANCH   3  16
ATOM     16  O   UNL A   1     -25.807  -0.825  27.715  0.00  0.00    -0.454 OA
BRANCH  16  17
ATOM     17  C   UNL A   1     -25.694   0.410  27.004  0.00  0.00    +0.145 A 
ATOM     18  C   UNL A   1     -26.280   1.371  27.184  0.00  0.00    +0.037 A 
ATOM     19  C   UNL A   1     -26.073   2.603  26.491  0.00  0.00    +0.003 A 
ATOM     20  C   UNL A   1     -24.988   2.612  25.649  0.00  0.00    +0.000 A 
ATOM     21  C   UNL A   1     -24.181   1.533  25.472  0.00  0.00    +0.003 A 
ATOM     22  C   UNL A   1     -24.511   0.369  26.158  0.00  0.00    +0.037 A 
ENDBRANCH  16  17
ENDBRANCH   3  16
TORSDOF 4
