MODEL 4839
MODEL 1
REMARK VINA RESULT:    -8.448      0.000      0.000
REMARK INTER + INTRA:         -10.542
REMARK INTER:                  -9.929
REMARK INTRA:                  -0.613
REMARK UNBOUND:                -0.613
REMARK  Name = No_4839-gen_results/8p0m/2024-11-27-11-27-31/
REMARK  3 active torsions:
REMARK  status: ('A' for Active; 'I' for Inactive)
REMARK    1  A    between atoms: C_2  and  C_3
REMARK    2  A    between atoms: C_9  and  C_16
REMARK    3  A    between atoms: C_21  and  C_25
REMARK                            x       y       z     vdW  Elec       q    Type
REMARK                         _______ _______ _______ _____ _____    ______ ____
ROOT
ATOM      1  C   UNL A   1     -24.604   0.725  26.058  0.00  0.00    +0.054 A 
ATOM      2  C   UNL A   1     -23.813   1.477  25.291  0.00  0.00    +0.004 A 
ATOM      3  C   UNL A   1     -22.707   2.288  25.787  0.00  0.00    +0.000 A 
ATOM      4  C   UNL A   1     -22.220   1.848  27.041  0.00  0.00    +0.000 A 
ATOM      5  C   UNL A   1     -22.968   0.988  27.836  0.00  0.00    +0.000 A 
ATOM      6  C   UNL A   1     -24.095   0.397  27.361  0.00  0.00    +0.006 A 
ENDROOT
BRANCH   1   8
ATOM      7  O   UNL A   1     -25.687  -1.076  25.366  0.00  0.00    -0.270 OA
ATOM      8  C   UNL A   1     -25.659   0.072  25.453  0.00  0.00    +0.253 C 
ATOM      9  N   UNL A   1     -26.787   0.944  25.076  0.00  0.00    -0.256 N 
ATOM     10  C   UNL A   1     -27.728   0.626  24.551  0.00  0.00    +0.050 A 
ATOM     11  C   UNL A   1     -28.176  -0.237  23.982  0.00  0.00    +0.015 A 
ATOM     12  C   UNL A   1     -29.457  -0.490  23.335  0.00  0.00    +0.001 A 
ATOM     13  C   UNL A   1     -30.337   0.600  23.406  0.00  0.00    -0.000 A 
ATOM     14  C   UNL A   1     -29.994   1.736  24.078  0.00  0.00    -0.003 A 
ATOM     15  C   UNL A   1     -28.761   1.868  24.669  0.00  0.00    -0.008 A 
ATOM     16  C   UNL A   1     -26.721   2.403  25.670  0.00  0.00    +0.099 C 
ATOM     17  C   UNL A   1     -27.560   3.152  25.557  0.00  0.00    +0.027 C 
ATOM     18  C   UNL A   1     -28.445   3.107  25.219  0.00  0.00    +0.029 C 
ENDBRANCH   1   8
BRANCH   6  19
ATOM     19  C   UNL A   1     -24.868  -0.453  28.233  0.00  0.00    +0.028 A 
ATOM     20  C   UNL A   1     -26.040   0.012  28.804  0.00  0.00    +0.140 A 
ATOM     21  C   UNL A   1     -26.882  -0.836  29.498  0.00  0.00    +0.030 A 
ATOM     22  C   UNL A   1     -26.542  -2.166  29.686  0.00  0.00    +0.009 A 
ATOM     23  C   UNL A   1     -24.597  -1.875  28.280  0.00  0.00    +0.009 A 
ATOM     24  C   UNL A   1     -25.351  -2.707  29.050  0.00  0.00    +0.080 A 
ATOM     25  F   UNL A   1     -26.373   1.264  28.622  0.00  0.00    -0.204 F 
BRANCH  24  26
ATOM     26  C   UNL A   1     -25.070  -4.163  29.191  0.00  0.00    +0.388 C 
ATOM     27  O   UNL A   1     -25.733  -4.933  29.627  0.00  0.00    -0.241 OA
ATOM     28  O   UNL A   1     -23.835  -4.479  28.800  0.00  0.00    -0.241 OA
ENDBRANCH  24  26
ENDBRANCH   6  19
TORSDOF 3
ENDMDL
ENDMDL
