MODEL 483
MODEL 1
REMARK VINA RESULT:    -8.078      0.000      0.000
REMARK INTER + INTRA:         -12.482
REMARK INTER:                 -10.439
REMARK INTRA:                  -2.043
REMARK UNBOUND:                -2.043
REMARK  Name = No_483-gen_results/8p0m/2024-11-27-11-27-31/
REMARK  5 active torsions:
REMARK  status: ('A' for Active; 'I' for Inactive)
REMARK    1  A    between atoms: C_10  and  C_11
REMARK    2  A    between atoms: C_11  and  O_13
REMARK    3  A    between atoms: O_13  and  C_20
REMARK    4  A    between atoms: N_23  and  C_27
REMARK    5  A    between atoms: C_31  and  C_32
REMARK                            x       y       z     vdW  Elec       q    Type
REMARK                         _______ _______ _______ _____ _____    ______ ____
ROOT
ATOM      1  C   UNL A   1     -23.044  -0.026  28.756  0.00  0.00    +0.321 C 
ATOM      2  O   UNL A   1     -22.000   0.360  29.310  0.00  0.00    -0.250 OA
ENDROOT
BRANCH   1  12
ATOM      3  C   UNL A   1     -26.596   0.329  32.342  0.00  0.00    -0.005 A 
ATOM      4  C   UNL A   1     -26.205   1.299  32.474  0.00  0.00    -0.000 A 
ATOM      5  C   UNL A   1     -25.934  -0.430  31.281  0.00  0.00    -0.026 A 
ATOM      6  C   UNL A   1     -24.892   0.090  30.554  0.00  0.00    -0.016 A 
ATOM      7  C   UNL A   1     -25.134   2.093  31.872  0.00  0.00    -0.000 A 
ATOM      8  C   UNL A   1     -24.487   1.367  30.844  0.00  0.00    -0.004 A 
ATOM      9  C   UNL A   1     -26.318  -1.843  30.978  0.00  0.00    +0.027 C 
ATOM     10  C   UNL A   1     -25.528  -2.498  30.003  0.00  0.00    +0.016 C 
ATOM     11  C   UNL A   1     -24.555  -1.885  29.273  0.00  0.00    +0.037 C 
ATOM     12  C   UNL A   1     -24.161  -0.605  29.562  0.00  0.00    +0.123 C 
ATOM     13  C   UNL A   1     -25.913  -3.918  29.693  0.00  0.00    +0.079 C 
ATOM     14  C   UNL A   1     -24.940  -4.726  29.011  0.00  0.00    +0.241 C 
ATOM     15  C   UNL A   1     -27.085  -4.409  30.117  0.00  0.00    +0.010 C 
ATOM     16  N   UNL A   1     -23.774  -4.251  28.683  0.00  0.00    -0.205 NA
ATOM     17  C   UNL A   1     -23.599  -2.760  28.735  0.00  0.00    +0.116 C 
ATOM     18  O   UNL A   1     -24.931  -6.008  28.712  0.00  0.00    -0.273 OA
ENDBRANCH   1  12
BRANCH   1  19
ATOM     19  O   UNL A   1     -23.226   0.200  27.513  0.00  0.00    -0.443 OA
BRANCH  19  20
ATOM     20  C   UNL A   1     -24.009   1.091  27.042  0.00  0.00    +0.244 C 
ATOM     21  C   UNL A   1     -25.145   0.673  26.341  0.00  0.00    +0.270 C 
ATOM     22  O   UNL A   1     -25.208  -0.401  26.079  0.00  0.00    -0.271 OA
ATOM     23  N   UNL A   1     -26.111   1.682  26.078  0.00  0.00    -0.256 N 
ATOM     24  C   UNL A   1     -26.038   3.072  26.431  0.00  0.00    +0.098 C 
ATOM     25  C   UNL A   1     -24.818   3.394  26.859  0.00  0.00    +0.026 C 
ATOM     26  C   UNL A   1     -23.829   2.545  27.346  0.00  0.00    +0.055 C 
BRANCH  23  27
ATOM     27  C   UNL A   1     -27.348   1.233  25.348  0.00  0.00    +0.050 A 
ATOM     28  C   UNL A   1     -27.351   1.073  24.117  0.00  0.00    +0.015 A 
ATOM     29  C   UNL A   1     -28.393   0.505  23.496  0.00  0.00    +0.001 A 
ATOM     30  C   UNL A   1     -29.555   0.171  24.262  0.00  0.00    -0.000 A 
ATOM     31  C   UNL A   1     -28.405   0.881  26.243  0.00  0.00    -0.009 A 
ATOM     32  C   UNL A   1     -29.559   0.405  25.683  0.00  0.00    -0.003 A 
BRANCH  31  33
ATOM     33  C   UNL A   1     -28.328   1.076  27.730  0.00  0.00    +0.024 C 
ATOM     34  C   UNL A   1     -27.890   0.011  28.478  0.00  0.00    +0.005 C 
ATOM     35  C   UNL A   1     -28.697   2.293  28.255  0.00  0.00    +0.005 C 
ENDBRANCH  31  33
ENDBRANCH  23  27
ENDBRANCH  19  20
ENDBRANCH   1  19
TORSDOF 5
ENDMDL
ENDMDL
