REMARK  Name = No_4840-gen_results/8p0m/2024-11-27-11-27-31/
REMARK  1 active torsions:
REMARK  status: ('A' for Active; 'I' for Inactive)
REMARK    1  A    between atoms: C_10  and  C_15
REMARK                            x       y       z     vdW  Elec       q    Type
REMARK                         _______ _______ _______ _____ _____    ______ ____
ROOT
ATOM      1  C   UNL A   1     -28.016  -0.814  28.878  0.00  0.00    -0.000 A 
ATOM      2  C   UNL A   1     -28.469  -0.785  29.829  0.00  0.00    -0.000 A 
ATOM      3  C   UNL A   1     -27.136   0.236  28.535  0.00  0.00    -0.000 A 
ATOM      4  C   UNL A   1     -26.335   0.290  27.284  0.00  0.00    +0.000 A 
ATOM      5  C   UNL A   1     -28.369   0.196  30.924  0.00  0.00    -0.000 A 
ATOM      6  C   UNL A   1     -27.516   1.266  30.654  0.00  0.00    -0.000 A 
ATOM      7  C   UNL A   1     -26.841   1.294  29.476  0.00  0.00    -0.004 A 
ATOM      8  C   UNL A   1     -25.361   0.775  26.967  0.00  0.00    +0.003 A 
ATOM      9  C   UNL A   1     -24.830   1.767  28.017  0.00  0.00    +0.015 A 
ATOM     10  C   UNL A   1     -25.567   2.002  29.202  0.00  0.00    -0.021 A 
ATOM     11  C   UNL A   1     -23.620   2.609  27.665  0.00  0.00    +0.099 A 
ATOM     12  N   UNL A   1     -22.925   2.285  26.580  0.00  0.00    -0.242 NA
ATOM     13  C   UNL A   1     -23.439   1.459  25.607  0.00  0.00    +0.099 A 
ATOM     14  C   UNL A   1     -24.579   0.717  25.824  0.00  0.00    +0.021 A 
ENDROOT
BRANCH  10  15
ATOM     15  C   UNL A   1     -24.694   2.165  30.325  0.00  0.00    +0.026 C 
ATOM     16  C   UNL A   1     -24.634   1.012  31.245  0.00  0.00    +0.005 C 
ENDBRANCH  10  15
TORSDOF 1
