MODEL 4841
MODEL 1
REMARK VINA RESULT:    -6.591      0.000      0.000
REMARK INTER + INTRA:          -7.796
REMARK INTER:                  -7.361
REMARK INTRA:                  -0.435
REMARK UNBOUND:                -0.435
REMARK  Name = No_4841-gen_results/8p0m/2024-11-27-11-27-31/
REMARK  2 active torsions:
REMARK  status: ('A' for Active; 'I' for Inactive)
REMARK    1  A    between atoms: C_4  and  C_5
REMARK    2  A    between atoms: C_5  and  C_8
REMARK                            x       y       z     vdW  Elec       q    Type
REMARK                         _______ _______ _______ _____ _____    ______ ____
ROOT
ATOM      1  C   UNL A   1     -24.645  -1.135  29.019  0.00  0.00    +0.053 C 
ENDROOT
BRANCH   1   5
ATOM      2  C   UNL A   1     -24.240  -4.948  28.705  0.00  0.00    -0.000 A 
ATOM      3  C   UNL A   1     -25.193  -5.217  29.065  0.00  0.00    -0.000 A 
ATOM      4  C   UNL A   1     -23.957  -3.508  28.600  0.00  0.00    -0.004 A 
ATOM      5  C   UNL A   1     -24.885  -2.548  29.099  0.00  0.00    -0.018 A 
ATOM      6  C   UNL A   1     -26.298  -4.481  29.712  0.00  0.00    -0.000 A 
ATOM      7  C   UNL A   1     -26.068  -3.064  29.705  0.00  0.00    -0.004 A 
ENDBRANCH   1   5
BRANCH   1   8
ATOM      8  C   UNL A   1     -23.867  -0.596  28.149  0.00  0.00    -0.018 A 
ATOM      9  C   UNL A   1     -22.682   0.177  28.531  0.00  0.00    -0.004 A 
ATOM     10  C   UNL A   1     -22.550   1.442  28.141  0.00  0.00    -0.000 A 
ATOM     11  C   UNL A   1     -23.114   1.889  26.957  0.00  0.00    -0.000 A 
ATOM     12  C   UNL A   1     -24.233   1.140  26.410  0.00  0.00    -0.000 A 
ATOM     13  C   UNL A   1     -24.682   0.051  27.046  0.00  0.00    -0.004 A 
ENDBRANCH   1   8
TORSDOF 2
ENDMDL
ENDMDL
