REMARK  Name = outputs/IAG933/test6/raw/output_4842_IAG933_linker_design_.xyz
REMARK  10 active torsions:
REMARK  status: ('A' for Active; 'I' for Inactive)
REMARK    1  A    between atoms: C_1  and  C_2
REMARK    2  A    between atoms: C_1  and  C_8
REMARK    3  A    between atoms: C_1  and  C_37
REMARK    4  A    between atoms: C_13  and  C_32
REMARK    5  A    between atoms: C_14  and  C_15
REMARK    6  A    between atoms: C_21  and  O_22
REMARK    7  A    between atoms: O_22  and  C_23
REMARK    8  A    between atoms: C_23  and  C_24
REMARK    9  A    between atoms: C_28  and  O_29
REMARK   10  A    between atoms: C_39  and  C_43
REMARK                            x       y       z     vdW  Elec       q    Type
REMARK                         _______ _______ _______ _____ _____    ______ ____
ROOT
ATOM      1  C   UNL A   1     -22.036   1.960  27.103  0.00  0.00    +0.264 C 
ATOM      2  C   UNL A   1     -23.212   1.621  27.395  0.00  0.00    +0.039 C 
ATOM      3  C   UNL A   1     -24.619   1.403  27.439  0.00  0.00    +0.128 C 
ATOM      4  C   UNL A   1     -22.794   0.238  29.307  0.00  0.00    +0.011 C 
ATOM      5  O   UNL A   1     -27.023  -0.639  28.577  0.00  0.00    -0.270 OA
ATOM      6  C   UNL A   1     -24.353   0.145  29.317  0.00  0.00    +0.037 C 
ATOM      7  C   UNL A   1     -22.461   1.010  28.245  0.00  0.00    +0.037 C 
ATOM      8  N   UNL A   1     -25.172   0.781  28.503  0.00  0.00    -0.253 N 
ATOM      9  F   UNL A   1     -20.844   2.295  27.830  0.00  0.00    -0.200 F 
ATOM     10  C   UNL A   1     -26.925   0.514  28.709  0.00  0.00    +0.253 C 
ENDROOT
BRANCH   3  11
ATOM     11  C   UNL A   1     -25.688   1.614  26.461  0.00  0.00    +0.038 C 
ATOM     12  C   UNL A   1     -26.250   2.920  26.395  0.00  0.00    +0.074 C 
ATOM     13  C   UNL A   1     -27.438   3.091  25.645  0.00  0.00    +0.106 C 
ATOM     14  N   UNL A   1     -28.075   2.089  25.003  0.00  0.00    -0.208 NA
ATOM     15  C   UNL A   1     -27.543   0.849  25.079  0.00  0.00    +0.253 C 
ATOM     16  C   UNL A   1     -26.354   0.576  25.777  0.00  0.00    +0.191 C 
ATOM     17  F   UNL A   1     -25.860  -0.681  25.795  0.00  0.00    -0.200 F 
BRANCH  12  18
ATOM     18  C   UNL A   1     -25.642   4.093  27.123  0.00  0.00    +0.266 C 
ATOM     19  N   UNL A   1     -25.614   5.252  26.449  0.00  0.00    -0.200 NA
ATOM     20  C   UNL A   1     -25.026   6.479  26.963  0.00  0.00    +0.139 C 
ATOM     21  O   UNL A   1     -25.143   3.966  28.243  0.00  0.00    -0.268 OA
ENDBRANCH  12  18
BRANCH  15  22
ATOM     22  O   UNL A   1     -28.193  -0.208  24.477  0.00  0.00    -0.456 OA
BRANCH  22  23
ATOM     23  C   UNL A   1     -29.460   0.005  23.866  0.00  0.00    +0.243 C 
BRANCH  23  24
ATOM     24  C   UNL A   1     -30.065  -1.377  23.573  0.00  0.00    +0.229 C 
ATOM     25  O   UNL A   1     -30.729  -1.878  24.721  0.00  0.00    -0.216 OA
ENDBRANCH  23  24
ENDBRANCH  22  23
ENDBRANCH  15  22
ENDBRANCH   3  11
BRANCH  10  29
ATOM     26  C   UNL A   1     -30.072   2.816  29.713  0.00  0.00    +0.000 C 
ATOM     27  C   UNL A   1     -28.860   2.225  29.792  0.00  0.00    +0.004 C 
ATOM     28  C   UNL A   1     -30.549   1.570  27.760  0.00  0.00    +0.000 C 
ATOM     29  C   UNL A   1     -28.329   1.233  28.866  0.00  0.00    +0.054 C 
ATOM     30  C   UNL A   1     -29.309   0.909  27.909  0.00  0.00    +0.004 C 
ATOM     31  C   UNL A   1     -30.925   2.545  28.670  0.00  0.00    +0.000 C 
ENDBRANCH  10  29
BRANCH   1  32
ATOM     32  O   UNL A   1     -21.491   2.201  25.731  0.00  0.00    -0.322 OA
ATOM     33  C   UNL A   1     -22.451   2.701  24.769  0.00  0.00    +0.178 C 
ENDBRANCH   1  32
BRANCH   6  34
ATOM     34  C   UNL A   1     -24.855  -1.012  30.143  0.00  0.00    +0.074 C 
BRANCH  34  35
ATOM     35  C   UNL A   1     -24.973  -2.505  29.788  0.00  0.00    -0.016 C 
ATOM     36  C   UNL A   1     -23.906  -3.173  29.146  0.00  0.00    -0.004 C 
ATOM     37  C   UNL A   1     -23.989  -4.549  28.853  0.00  0.00    -0.000 C 
ATOM     38  C   UNL A   1     -25.137  -5.280  29.205  0.00  0.00    -0.000 C 
ATOM     39  C   UNL A   1     -26.232  -4.611  29.784  0.00  0.00    -0.000 C 
ATOM     40  C   UNL A   1     -26.155  -3.232  30.065  0.00  0.00    -0.004 C 
ENDBRANCH  34  35
BRANCH  34  41
ATOM     41  C   UNL A   1     -25.387  -0.679  31.571  0.00  0.00    +0.082 C 
ATOM     42  C   UNL A   1     -25.189   0.773  32.028  0.00  0.00    +0.020 C 
ATOM     43  C   UNL A   1     -25.336   0.684  33.544  0.00  0.00    +0.020 C 
ATOM     44  C   UNL A   1     -24.829  -0.715  33.905  0.00  0.00    +0.089 C 
ATOM     45  N   UNL A   1     -24.758  -1.481  32.646  0.00  0.00    -0.219 NA
ENDBRANCH  34  41
ENDBRANCH   6  34
TORSDOF 10
