MODEL 4843
MODEL 1
REMARK VINA RESULT:    -4.259      0.000      0.000
REMARK INTER + INTRA:          -4.259
REMARK INTER:                  -4.259
REMARK INTRA:                   0.000
REMARK UNBOUND:                 0.000
REMARK  Name = No_4843-gen_results/8p0m/2024-11-27-11-27-31/
REMARK  0 active torsions:
REMARK  status: ('A' for Active; 'I' for Inactive)
REMARK                            x       y       z     vdW  Elec       q    Type
REMARK                         _______ _______ _______ _____ _____    ______ ____
ROOT
ATOM      1  C   UNL A   1     -26.080  -4.860  29.643  0.00  0.00    +0.000 A 
ATOM      2  C   UNL A   1     -26.218  -3.661  29.716  0.00  0.00    +0.000 A 
ATOM      3  C   UNL A   1     -25.245  -2.756  29.341  0.00  0.00    +0.000 A 
ATOM      4  C   UNL A   1     -24.030  -3.267  28.803  0.00  0.00    +0.000 A 
ATOM      5  C   UNL A   1     -23.991  -4.602  28.583  0.00  0.00    +0.000 A 
ATOM      6  C   UNL A   1     -24.989  -5.389  28.938  0.00  0.00    +0.000 A 
ENDROOT
TORSDOF 0
ENDMDL
ENDMDL
