MODEL 4844
MODEL 1
REMARK VINA RESULT:    -7.557      0.000      0.000
REMARK INTER + INTRA:          -9.698
REMARK INTER:                  -8.882
REMARK INTRA:                  -0.816
REMARK UNBOUND:                -0.816
REMARK  Name = No_4844-gen_results/8p0m/2024-11-27-11-27-31/
REMARK  3 active torsions:
REMARK  status: ('A' for Active; 'I' for Inactive)
REMARK    1  A    between atoms: C_2  and  C_7
REMARK    2  A    between atoms: C_7  and  C_8
REMARK    3  A    between atoms: C_7  and  C_14
REMARK                            x       y       z     vdW  Elec       q    Type
REMARK                         _______ _______ _______ _____ _____    ______ ____
ROOT
ATOM      1  C   UNL A   1     -24.815  -1.482  29.552  0.00  0.00    +0.156 C 
ENDROOT
BRANCH   1   3
ATOM      2  C   UNL A   1     -23.345   0.039  28.422  0.00  0.00    +0.008 A 
ATOM      3  C   UNL A   1     -24.409  -0.533  28.481  0.00  0.00    -0.006 A 
ATOM      4  C   UNL A   1     -25.376  -0.354  27.498  0.00  0.00    -0.003 A 
ATOM      5  C   UNL A   1     -25.158   0.554  26.401  0.00  0.00    +0.001 A 
ATOM      6  C   UNL A   1     -23.911   1.191  26.423  0.00  0.00    +0.011 A 
ATOM      7  C   UNL A   1     -23.037   1.000  27.385  0.00  0.00    +0.057 A 
ATOM      8 CL   UNL A   1     -21.546   1.834  27.372  0.00  0.00    -0.082 Cl
ENDBRANCH   1   3
BRANCH   1   9
ATOM      9  C   UNL A   1     -25.207  -2.636  29.471  0.00  0.00    -0.007 A 
ATOM     10  C   UNL A   1     -25.935  -3.380  29.780  0.00  0.00    -0.003 A 
ATOM     11  C   UNL A   1     -26.114  -4.871  29.570  0.00  0.00    -0.000 A 
ATOM     12  C   UNL A   1     -25.066  -5.437  28.909  0.00  0.00    -0.000 A 
ATOM     13  C   UNL A   1     -23.973  -4.694  28.532  0.00  0.00    -0.000 A 
ATOM     14  C   UNL A   1     -23.957  -3.373  28.805  0.00  0.00    -0.003 A 
ENDBRANCH   1   9
BRANCH   1  15
ATOM     15  C   UNL A   1     -24.633  -0.980  30.925  0.00  0.00    +0.354 C 
ATOM     16  N   UNL A   1     -25.390  -0.131  31.404  0.00  0.00    -0.035 NA
ATOM     17  N   UNL A   1     -23.610  -1.418  31.654  0.00  0.00    -0.054 NA
ATOM     18  C   UNL A   1     -24.913   0.098  32.661  0.00  0.00    +0.267 C 
ATOM     19  C   UNL A   1     -23.786  -0.740  32.796  0.00  0.00    +0.339 C 
ENDBRANCH   1  15
TORSDOF 3
ENDMDL
ENDMDL
