MODEL 4845
MODEL 1
REMARK VINA RESULT:    -6.838      0.000      0.000
REMARK INTER + INTRA:         -11.262
REMARK INTER:                  -9.636
REMARK INTRA:                  -1.625
REMARK UNBOUND:                -1.625
REMARK  Name = No_4845-gen_results/8p0m/2024-11-27-11-27-31/
REMARK  7 active torsions:
REMARK  status: ('A' for Active; 'I' for Inactive)
REMARK    1  A    between atoms: C_1  and  C_3
REMARK    2  A    between atoms: C_3  and  C_4
REMARK    3  A    between atoms: C_3  and  C_18
REMARK    4  A    between atoms: C_4  and  C_5
REMARK    5  A    between atoms: C_8  and  C_12
REMARK    6  A    between atoms: C_19  and  C_20
REMARK    7  A    between atoms: C_21  and  C_22
REMARK                            x       y       z     vdW  Elec       q    Type
REMARK                         _______ _______ _______ _____ _____    ______ ____
ROOT
ATOM      1  C   UNL A   1     -25.479   0.742  26.352  0.00  0.00    +0.168 C 
ATOM      2  O   UNL A   1     -24.865  -0.268  25.490  0.00  0.00    -0.216 OA
ENDROOT
BRANCH   1   3
ATOM      3  C   UNL A   1     -25.722   0.168  27.645  0.00  0.00    +0.009 A 
ATOM      4  C   UNL A   1     -25.800   0.847  28.448  0.00  0.00    -0.002 A 
ATOM      5  C   UNL A   1     -25.938   0.364  29.939  0.00  0.00    -0.001 A 
ATOM      6  C   UNL A   1     -25.975  -1.021  30.070  0.00  0.00    -0.004 A 
ATOM      7  C   UNL A   1     -25.550  -1.836  29.069  0.00  0.00    -0.017 A 
ATOM      8  C   UNL A   1     -25.250  -1.247  27.847  0.00  0.00    -0.005 A 
BRANCH   7   9
ATOM      9  C   UNL A   1     -25.275  -3.244  29.354  0.00  0.00    +0.067 C 
ATOM     10  C   UNL A   1     -26.037  -4.309  29.519  0.00  0.00    -0.003 C 
ATOM     11  C   UNL A   1     -23.893  -3.632  28.761  0.00  0.00    +0.121 C 
ATOM     12  N   UNL A   1     -23.922  -4.853  28.579  0.00  0.00    -0.236 NA
ATOM     13  C   UNL A   1     -25.084  -5.376  29.380  0.00  0.00    +0.076 C 
ENDBRANCH   7   9
ENDBRANCH   1   3
BRANCH   1  14
ATOM     14  C   UNL A   1     -26.786   1.283  25.599  0.00  0.00    +0.008 C 
ATOM     15  C   UNL A   1     -27.113   0.814  24.483  0.00  0.00    -0.002 C 
BRANCH  15  16
ATOM     16  C   UNL A   1     -28.226   1.368  23.837  0.00  0.00    -0.000 C 
ATOM     17  C   UNL A   1     -29.206   0.500  23.300  0.00  0.00    -0.000 C 
BRANCH  17  18
ATOM     18  C   UNL A   1     -29.130  -0.878  23.517  0.00  0.00    -0.000 C 
ATOM     19  C   UNL A   1     -30.265  -1.599  23.864  0.00  0.00    -0.000 C 
ENDBRANCH  17  18
ENDBRANCH  15  16
ENDBRANCH   1  14
BRANCH   1  20
ATOM     20  C   UNL A   1     -24.578   1.902  26.193  0.00  0.00    +0.061 C 
BRANCH  20  21
ATOM     21  C   UNL A   1     -23.255   1.773  25.974  0.00  0.00    -0.041 C 
ATOM     22  C   UNL A   1     -22.639   2.537  25.058  0.00  0.00    -0.009 C 
ATOM     23  C   UNL A   1     -22.456   1.889  27.344  0.00  0.00    +0.026 C 
ENDBRANCH  20  21
ENDBRANCH   1  20
TORSDOF 7
ENDMDL
ENDMDL
