REMARK  Name = No_4845-gen_results/8p0m/2024-11-27-11-27-31/
REMARK  7 active torsions:
REMARK  status: ('A' for Active; 'I' for Inactive)
REMARK    1  A    between atoms: C_1  and  C_3
REMARK    2  A    between atoms: C_3  and  C_4
REMARK    3  A    between atoms: C_3  and  C_18
REMARK    4  A    between atoms: C_4  and  C_5
REMARK    5  A    between atoms: C_8  and  C_12
REMARK    6  A    between atoms: C_19  and  C_20
REMARK    7  A    between atoms: C_21  and  C_22
REMARK                            x       y       z     vdW  Elec       q    Type
REMARK                         _______ _______ _______ _____ _____    ______ ____
ROOT
ATOM      1  C   UNL A   1     -28.196   0.348  28.055  0.00  0.00    +0.168 C 
ATOM      2  O   UNL A   1     -29.589   0.408  27.612  0.00  0.00    -0.216 OA
ENDROOT
BRANCH   1   3
ATOM      3  C   UNL A   1     -28.016  -0.814  28.878  0.00  0.00    +0.009 A 
ATOM      4  C   UNL A   1     -28.469  -0.785  29.829  0.00  0.00    -0.002 A 
ATOM      5  C   UNL A   1     -28.256  -1.927  30.890  0.00  0.00    -0.001 A 
ATOM      6  C   UNL A   1     -27.449  -2.964  30.432  0.00  0.00    -0.004 A 
ATOM      7  C   UNL A   1     -26.641  -2.804  29.351  0.00  0.00    -0.017 A 
ATOM      8  C   UNL A   1     -26.783  -1.636  28.612  0.00  0.00    -0.005 A 
BRANCH   7   9
ATOM      9  C   UNL A   1     -25.568  -3.767  29.104  0.00  0.00    +0.067 C 
ATOM     10  C   UNL A   1     -24.280  -3.794  29.390  0.00  0.00    -0.003 C 
ATOM     11  C   UNL A   1     -26.161  -5.202  29.059  0.00  0.00    +0.121 C 
ATOM     12  N   UNL A   1     -25.237  -5.970  29.345  0.00  0.00    -0.236 NA
ATOM     13  C   UNL A   1     -23.964  -5.182  29.190  0.00  0.00    +0.076 C 
ENDBRANCH   7   9
ENDBRANCH   1   3
BRANCH   1  14
ATOM     14  C   UNL A   1     -27.863   1.741  28.774  0.00  0.00    +0.008 C 
ATOM     15  C   UNL A   1     -26.706   1.974  29.198  0.00  0.00    -0.002 C 
BRANCH  15  16
ATOM     16  C   UNL A   1     -26.484   3.179  29.877  0.00  0.00    -0.000 C 
ATOM     17  C   UNL A   1     -25.225   3.400  30.483  0.00  0.00    -0.000 C 
BRANCH  17  18
ATOM     18  C   UNL A   1     -24.181   2.490  30.302  0.00  0.00    -0.000 C 
ATOM     19  C   UNL A   1     -24.381   1.326  29.572  0.00  0.00    -0.000 C 
ENDBRANCH  17  18
ENDBRANCH  15  16
ENDBRANCH   1  14
BRANCH   1  20
ATOM     20  C   UNL A   1     -27.442   0.510  26.795  0.00  0.00    +0.061 C 
BRANCH  20  21
ATOM     21  C   UNL A   1     -27.843   1.333  25.806  0.00  0.00    -0.041 C 
ATOM     22  C   UNL A   1     -27.020   2.283  25.335  0.00  0.00    -0.009 C 
ATOM     23  C   UNL A   1     -28.393   0.489  24.576  0.00  0.00    +0.026 C 
ENDBRANCH  20  21
ENDBRANCH   1  20
TORSDOF 7
