MODEL 4846
MODEL 1
REMARK VINA RESULT:    -7.179      0.000      0.000
REMARK INTER + INTRA:          -7.179
REMARK INTER:                  -7.179
REMARK INTRA:                   0.000
REMARK UNBOUND:                 0.000
REMARK  Name = No_4846-gen_results/8p0m/2024-11-27-11-27-31/
REMARK  0 active torsions:
REMARK  status: ('A' for Active; 'I' for Inactive)
REMARK                            x       y       z     vdW  Elec       q    Type
REMARK                         _______ _______ _______ _____ _____    ______ ____
ROOT
ATOM      1  C   UNL A   1     -28.942 -16.042   8.397  0.00  0.00    -0.004 A 
ATOM      2  C   UNL A   1     -29.242 -15.413   9.385  0.00  0.00    -0.004 A 
ATOM      3  C   UNL A   1     -29.257 -14.020   9.438  0.00  0.00    -0.018 A 
ATOM      4  C   UNL A   1     -29.597 -13.175  10.599  0.00  0.00    -0.008 A 
ATOM      5  C   UNL A   1     -30.159 -13.857  11.720  0.00  0.00    -0.004 A 
ATOM      6  C   UNL A   1     -30.205 -15.254  11.692  0.00  0.00    -0.022 A 
ATOM      7  C   UNL A   1     -29.803 -15.987  10.629  0.00  0.00    -0.005 A 
ATOM      8  C   UNL A   1     -28.017 -17.180   8.641  0.00  0.00    -0.000 A 
ATOM      9  C   UNL A   1     -27.135 -17.474   8.028  0.00  0.00    -0.000 A 
ATOM     10  C   UNL A   1     -26.320 -16.571   7.467  0.00  0.00    -0.000 A 
ATOM     11  C   UNL A   1     -26.967 -15.453   6.828  0.00  0.00    -0.004 A 
ATOM     12  C   UNL A   1     -28.118 -14.999   7.602  0.00  0.00    -0.018 A 
ATOM     13  C   UNL A   1     -28.291 -13.721   8.325  0.00  0.00    +0.053 C 
ATOM     14  C   UNL A   1     -29.538 -11.719  10.487  0.00  0.00    -0.022 A 
ATOM     15  C   UNL A   1     -28.896 -11.092   9.797  0.00  0.00    +0.031 C 
ATOM     16  C   UNL A   1     -30.488 -11.060  11.453  0.00  0.00    -0.004 A 
ATOM     17  C   UNL A   1     -31.027 -11.653  12.581  0.00  0.00    -0.000 A 
ATOM     18  C   UNL A   1     -30.861 -13.071  12.746  0.00  0.00    -0.000 A 
ATOM     19  C   UNL A   1     -29.361 -15.646  13.009  0.00  0.00    +0.031 C 
ENDROOT
TORSDOF 0
ENDMDL
ENDMDL
