MODEL 4847
MODEL 1
REMARK VINA RESULT:    -5.317      0.000      0.000
REMARK INTER + INTRA:          -6.676
REMARK INTER:                  -6.250
REMARK INTRA:                  -0.426
REMARK UNBOUND:                -0.426
REMARK  Name = No_4847-gen_results/8p0m/2024-11-27-11-27-31/
REMARK  3 active torsions:
REMARK  status: ('A' for Active; 'I' for Inactive)
REMARK    1  A    between atoms: C_3  and  C_4
REMARK    2  A    between atoms: C_4  and  C_11
REMARK    3  A    between atoms: C_6  and  C_7
REMARK                            x       y       z     vdW  Elec       q    Type
REMARK                         _______ _______ _______ _____ _____    ______ ____
ROOT
ATOM      1  C   UNL A   1     -27.040 -12.382  32.387  0.00  0.00    +0.021 A 
ATOM      2  C   UNL A   1     -27.074 -12.418  33.439  0.00  0.00    +0.099 A 
ATOM      3  C   UNL A   1     -28.173 -11.677  31.788  0.00  0.00    +0.003 A 
ATOM      4  N   UNL A   1     -27.353 -11.422  34.297  0.00  0.00    -0.242 NA
ATOM      5  C   UNL A   1     -28.341 -10.533  33.950  0.00  0.00    +0.099 A 
ATOM      6  C   UNL A   1     -28.793 -10.644  32.695  0.00  0.00    +0.021 A 
ENDROOT
BRANCH   3   7
ATOM      7  C   UNL A   1     -28.709 -12.028  30.597  0.00  0.00    +0.000 C 
ATOM      8  C   UNL A   1     -28.752 -11.626  29.644  0.00  0.00    +0.000 C 
BRANCH   8   9
ATOM      9  C   UNL A   1     -29.570 -12.044  28.461  0.00  0.00    +0.000 C 
ATOM     10  C   UNL A   1     -29.175 -12.007  27.137  0.00  0.00    +0.000 C 
ENDBRANCH   8   9
BRANCH   7  11
ATOM     11  C   UNL A   1     -29.818 -13.120  30.735  0.00  0.00    +0.000 C 
ATOM     12  C   UNL A   1     -29.742 -14.343  31.306  0.00  0.00    +0.000 C 
ENDBRANCH   7  11
ENDBRANCH   3   7
TORSDOF 3
ENDMDL
ENDMDL
