REMARK  Name = No_4847-gen_results/8p0m/2024-11-27-11-27-31/
REMARK  3 active torsions:
REMARK  status: ('A' for Active; 'I' for Inactive)
REMARK    1  A    between atoms: C_3  and  C_4
REMARK    2  A    between atoms: C_4  and  C_11
REMARK    3  A    between atoms: C_6  and  C_7
REMARK                            x       y       z     vdW  Elec       q    Type
REMARK                         _______ _______ _______ _____ _____    ______ ____
ROOT
ATOM      1  C   UNL A   1     -28.016  -0.814  28.878  0.00  0.00    +0.021 A 
ATOM      2  C   UNL A   1     -28.469  -0.785  29.829  0.00  0.00    +0.099 A 
ATOM      3  C   UNL A   1     -27.087   0.290  28.638  0.00  0.00    +0.003 A 
ATOM      4  N   UNL A   1     -27.890  -0.556  31.020  0.00  0.00    -0.242 NA
ATOM      5  C   UNL A   1     -26.899   0.393  31.081  0.00  0.00    +0.099 A 
ATOM      6  C   UNL A   1     -26.480   0.857  29.897  0.00  0.00    +0.021 A 
ENDROOT
BRANCH   3   7
ATOM      7  C   UNL A   1     -26.910   0.849  27.420  0.00  0.00    +0.000 C 
ATOM      8  C   UNL A   1     -27.458   0.938  26.546  0.00  0.00    +0.000 C 
BRANCH   8   9
ATOM      9  C   UNL A   1     -27.036   1.421  25.192  0.00  0.00    +0.000 C 
ATOM     10  C   UNL A   1     -27.823   1.468  24.057  0.00  0.00    +0.000 C 
ENDBRANCH   8   9
BRANCH   7  11
ATOM     11  C   UNL A   1     -25.408   1.145  27.107  0.00  0.00    +0.000 C 
ATOM     12  C   UNL A   1     -24.854   1.639  25.977  0.00  0.00    +0.000 C 
ENDBRANCH   7  11
ENDBRANCH   3   7
TORSDOF 3
