REMARK  Name = No_4849-gen_results/8p0m/2024-11-27-11-27-31/
REMARK  3 active torsions:
REMARK  status: ('A' for Active; 'I' for Inactive)
REMARK    1  A    between atoms: C_1  and  C_9
REMARK    2  A    between atoms: C_2  and  C_3
REMARK    3  A    between atoms: C_2  and  C_11
REMARK                            x       y       z     vdW  Elec       q    Type
REMARK                         _______ _______ _______ _____ _____    ______ ____
ROOT
ATOM      1  C   UNL A   1     -28.016  -0.814  28.878  0.00  0.00    -0.004 C 
ATOM      2  C   UNL A   1     -27.064  -0.119  28.608  0.00  0.00    -0.022 C 
ENDROOT
BRANCH   2   3
ATOM      3  C   UNL A   1     -26.972   0.714  27.506  0.00  0.00    -0.004 A 
ATOM      4  C   UNL A   1     -25.820   1.491  27.116  0.00  0.00    -0.000 A 
ATOM      5  C   UNL A   1     -25.750   2.319  26.023  0.00  0.00    -0.000 A 
ATOM      6  C   UNL A   1     -26.826   2.218  25.137  0.00  0.00    -0.000 A 
ATOM      7  C   UNL A   1     -27.922   1.471  25.369  0.00  0.00    -0.000 A 
ATOM      8  C   UNL A   1     -27.920   0.705  26.540  0.00  0.00    -0.000 A 
ENDBRANCH   2   3
BRANCH   1   9
ATOM      9  C   UNL A   1     -28.069  -1.585  30.146  0.00  0.00    -0.000 C 
ATOM     10  C   UNL A   1     -29.164  -2.435  30.466  0.00  0.00    -0.000 C 
ENDBRANCH   1   9
BRANCH   2  11
ATOM     11  C   UNL A   1     -25.731  -0.321  29.401  0.00  0.00    +0.026 C 
ATOM     12  C   UNL A   1     -25.739  -1.128  30.548  0.00  0.00    +0.005 C 
ENDBRANCH   2  11
TORSDOF 3
