MODEL 4849
MODEL 1
REMARK VINA RESULT:    -5.790      0.000      0.000
REMARK INTER + INTRA:          -7.328
REMARK INTER:                  -6.805
REMARK INTRA:                  -0.523
REMARK UNBOUND:                -0.523
REMARK  Name = No_4849-gen_results/8p0m/2024-11-27-11-27-31/
REMARK  3 active torsions:
REMARK  status: ('A' for Active; 'I' for Inactive)
REMARK    1  A    between atoms: C_1  and  C_9
REMARK    2  A    between atoms: C_2  and  C_3
REMARK    3  A    between atoms: C_2  and  C_11
REMARK                            x       y       z     vdW  Elec       q    Type
REMARK                         _______ _______ _______ _____ _____    ______ ____
ROOT
ATOM      1  C   UNL A   1     -23.940  -2.926  28.851  0.00  0.00    -0.004 C 
ATOM      2  C   UNL A   1     -23.820  -1.842  29.373  0.00  0.00    -0.022 C 
ENDROOT
BRANCH   2   3
ATOM      3  C   UNL A   1     -23.042  -0.804  28.887  0.00  0.00    -0.004 A 
ATOM      4  C   UNL A   1     -21.600  -0.758  28.861  0.00  0.00    -0.000 A 
ATOM      5  C   UNL A   1     -20.845   0.284  28.382  0.00  0.00    -0.000 A 
ATOM      6  C   UNL A   1     -21.563   1.266  27.695  0.00  0.00    -0.000 A 
ATOM      7  C   UNL A   1     -22.906   1.285  27.599  0.00  0.00    -0.000 A 
ATOM      8  C   UNL A   1     -23.589   0.204  28.169  0.00  0.00    -0.000 A 
ENDBRANCH   2   3
BRANCH   1   9
ATOM      9  C   UNL A   1     -24.890  -3.934  29.384  0.00  0.00    -0.000 C 
ATOM     10  C   UNL A   1     -24.839  -5.300  28.990  0.00  0.00    -0.000 C 
ENDBRANCH   1   9
BRANCH   2  11
ATOM     11  C   UNL A   1     -24.376  -1.634  30.820  0.00  0.00    +0.026 C 
ATOM     12  C   UNL A   1     -23.558  -1.021  31.780  0.00  0.00    +0.005 C 
ENDBRANCH   2  11
TORSDOF 3
ENDMDL
ENDMDL
