MODEL 484
MODEL 1
REMARK VINA RESULT:    -7.543      0.000      0.000
REMARK INTER + INTRA:          -9.839
REMARK INTER:                  -8.866
REMARK INTRA:                  -0.973
REMARK UNBOUND:                -0.973
REMARK  Name = No_484-gen_results/8p0m/2024-11-27-11-27-31/
REMARK  3 active torsions:
REMARK  status: ('A' for Active; 'I' for Inactive)
REMARK    1  A    between atoms: C_2  and  C_18
REMARK    2  A    between atoms: C_4  and  C_11
REMARK    3  A    between atoms: C_11  and  C_12
REMARK                            x       y       z     vdW  Elec       q    Type
REMARK                         _______ _______ _______ _____ _____    ______ ____
ROOT
ATOM      1  C   UNL A   1     -11.285   1.633  35.612  0.00  0.00    +0.003 A 
ATOM      2  C   UNL A   1     -11.657   1.675  34.626  0.00  0.00    +0.080 A 
ATOM      3  C   UNL A   1     -12.277   2.007  36.627  0.00  0.00    -0.012 A 
ATOM      4  C   UNL A   1     -12.000   1.815  38.064  0.00  0.00    +0.085 C 
ATOM      5  C   UNL A   1     -12.583   2.509  39.010  0.00  0.00    +0.020 C 
ATOM      6  C   UNL A   1     -12.837   2.268  34.062  0.00  0.00    +0.007 A 
ATOM      7  C   UNL A   1     -13.733   2.647  34.952  0.00  0.00    +0.003 A 
ATOM      8  C   UNL A   1     -13.507   2.487  36.300  0.00  0.00    +0.031 A 
ATOM      9  C   UNL A   1     -13.893   3.133  38.677  0.00  0.00    +0.070 C 
ATOM     10  C   UNL A   1     -14.241   3.240  37.319  0.00  0.00    +0.173 C 
ATOM     11  O   UNL A   1     -15.419   3.792  36.980  0.00  0.00    -0.291 OA
ENDROOT
BRANCH   2  12
ATOM     12  C   UNL A   1     -10.661   1.151  33.440  0.00  0.00    +0.388 C 
ATOM     13  O   UNL A   1      -9.562   0.972  33.774  0.00  0.00    -0.241 OA
ATOM     14  O   UNL A   1     -11.120   0.978  32.268  0.00  0.00    -0.241 OA
ENDBRANCH   2  12
BRANCH   4  15
ATOM     15  C   UNL A   1     -10.785   1.097  38.548  0.00  0.00    +0.177 C 
ATOM     16  O   UNL A   1      -9.761   1.510  38.866  0.00  0.00    -0.291 OA
BRANCH  15  17
ATOM     17  C   UNL A   1     -11.154  -0.369  38.716  0.00  0.00    +0.035 A 
ATOM     18  C   UNL A   1     -11.151  -1.192  37.600  0.00  0.00    +0.003 A 
ATOM     19  C   UNL A   1     -11.574  -2.505  37.678  0.00  0.00    +0.000 A 
ATOM     20  C   UNL A   1     -12.263  -2.958  38.805  0.00  0.00    +0.000 A 
ATOM     21  C   UNL A   1     -11.863  -0.846  39.874  0.00  0.00    +0.003 A 
ATOM     22  C   UNL A   1     -12.360  -2.148  39.894  0.00  0.00    +0.000 A 
ENDBRANCH  15  17
ENDBRANCH   4  15
TORSDOF 3
ENDMDL
ENDMDL
