REMARK  Name = No_4852-gen_results/8p0m/2024-11-27-11-27-31/
REMARK  3 active torsions:
REMARK  status: ('A' for Active; 'I' for Inactive)
REMARK    1  A    between atoms: C_1  and  C_2
REMARK    2  A    between atoms: C_21  and  O_22
REMARK    3  A    between atoms: O_22  and  C_23
REMARK                            x       y       z     vdW  Elec       q    Type
REMARK                         _______ _______ _______ _____ _____    ______ ____
ROOT
ATOM      1  C   UNL A   1     -28.016  -0.814  28.878  0.00  0.00    +0.084 A 
ATOM      2  C   UNL A   1     -28.182   0.428  28.113  0.00  0.00    +0.037 A 
ATOM      3  C   UNL A   1     -27.450   0.643  26.850  0.00  0.00    +0.174 A 
ATOM      4  C   UNL A   1     -26.181   0.036  26.715  0.00  0.00    +0.166 A 
ATOM      5  C   UNL A   1     -25.780  -0.933  27.694  0.00  0.00    +0.056 A 
ATOM      6  C   UNL A   1     -26.557  -1.213  28.741  0.00  0.00    +0.063 A 
ATOM      7  F   UNL A   1     -27.726   1.547  25.986  0.00  0.00    -0.201 F 
ATOM      8 CL   UNL A   1     -25.969  -2.537  29.748  0.00  0.00    -0.082 Cl
ATOM      9  O   UNL A   1     -25.360   0.280  25.752  0.00  0.00    -0.469 OA
ATOM     10  C   UNL A   1     -24.321   1.143  25.980  0.00  0.00    +0.232 C 
ATOM     11  C   UNL A   1     -23.565   1.103  27.107  0.00  0.00    +0.020 A 
ATOM     12  C   UNL A   1     -22.477   1.859  27.347  0.00  0.00    -0.001 A 
ATOM     13  C   UNL A   1     -21.851   1.868  28.650  0.00  0.00    -0.000 A 
ATOM     14  C   UNL A   1     -22.451   1.063  29.646  0.00  0.00    -0.000 A 
ATOM     15  C   UNL A   1     -23.596   0.330  29.480  0.00  0.00    -0.002 A 
ATOM     16  C   UNL A   1     -24.226   0.410  28.210  0.00  0.00    +0.008 A 
ATOM     17  C   UNL A   1     -25.136  -0.442  28.049  0.00  0.00    +0.165 C 
ENDROOT
BRANCH   1  18
ATOM     18  C   UNL A   1     -28.469  -0.785  29.829  0.00  0.00    +0.419 C 
ATOM     19  F   UNL A   1     -29.675  -0.426  29.958  0.00  0.00    -0.166 F 
ATOM     20  F   UNL A   1     -27.844  -0.517  31.022  0.00  0.00    -0.166 F 
ATOM     21  F   UNL A   1     -28.599  -2.304  30.125  0.00  0.00    -0.166 F 
ENDBRANCH   1  18
BRANCH  17  22
ATOM     22  O   UNL A   1     -24.234  -1.362  28.673  0.00  0.00    -0.329 OA
BRANCH  22  23
ATOM     23  C   UNL A   1     -23.847  -1.622  29.739  0.00  0.00    +0.253 C 
ATOM     24  N   UNL A   1     -23.668  -0.665  30.412  0.00  0.00    -0.096 NA
ENDBRANCH  22  23
ENDBRANCH  17  22
TORSDOF 3
