MODEL 4853
MODEL 1
REMARK VINA RESULT:    -7.380      0.000      0.000
REMARK INTER + INTRA:         -10.253
REMARK INTER:                  -9.106
REMARK INTRA:                  -1.147
REMARK UNBOUND:                -1.147
REMARK  Name = No_4853-gen_results/8p0m/2024-11-27-11-27-31/
REMARK  4 active torsions:
REMARK  status: ('A' for Active; 'I' for Inactive)
REMARK    1  A    between atoms: C_4  and  O_12
REMARK    2  A    between atoms: C_5  and  C_8
REMARK    3  A    between atoms: O_12  and  C_13
REMARK    4  A    between atoms: C_19  and  C_23
REMARK                            x       y       z     vdW  Elec       q    Type
REMARK                         _______ _______ _______ _____ _____    ______ ____
ROOT
ATOM      1  C   UNL A   1     -30.498 -10.987   9.676  0.00  0.00    +0.145 A 
ATOM      2  C   UNL A   1     -31.725 -11.018   9.651  0.00  0.00    +0.037 A 
ATOM      3  C   UNL A   1     -32.537  -9.907   9.809  0.00  0.00    +0.003 A 
ATOM      4  C   UNL A   1     -31.981  -8.610   9.810  0.00  0.00    +0.000 A 
ATOM      5  C   UNL A   1     -29.740  -9.672   9.670  0.00  0.00    +0.035 A 
ATOM      6  C   UNL A   1     -30.555  -8.508   9.741  0.00  0.00    +0.003 A 
ATOM      7  C   UNL A   1     -29.899  -7.169   9.772  0.00  0.00    +0.000 A 
ATOM      8  C   UNL A   1     -28.640  -7.126   9.583  0.00  0.00    +0.000 A 
ATOM      9  C   UNL A   1     -27.831  -8.175   9.407  0.00  0.00    +0.000 A 
ATOM     10  C   UNL A   1     -28.363  -9.537   9.455  0.00  0.00    +0.003 A 
ENDROOT
BRANCH   7  11
ATOM     11  C   UNL A   1     -30.732  -6.004   9.858  0.00  0.00    +0.000 A 
ATOM     12  C   UNL A   1     -30.732  -5.121   8.898  0.00  0.00    +0.000 A 
ATOM     13  C   UNL A   1     -31.505  -5.788  11.072  0.00  0.00    +0.000 A 
ATOM     14  C   UNL A   1     -30.962  -3.776   9.064  0.00  0.00    +0.000 A 
ATOM     15  C   UNL A   1     -31.974  -3.480  10.098  0.00  0.00    +0.000 A 
ATOM     16  C   UNL A   1     -32.076  -4.424  11.197  0.00  0.00    +0.000 A 
ENDBRANCH   7  11
BRANCH   1  17
ATOM     17  O   UNL A   1     -29.569 -11.976   9.423  0.00  0.00    -0.451 OA
BRANCH  17  21
ATOM     18 CL   UNL A   1     -29.784 -15.094  13.165  0.00  0.00    -0.080 Cl
ATOM     19  C   UNL A   1     -29.818 -14.656  11.791  0.00  0.00    +0.088 A 
ATOM     20  C   UNL A   1     -29.696 -13.565  11.365  0.00  0.00    +0.185 A 
ATOM     21  C   UNL A   1     -29.728 -13.213   9.948  0.00  0.00    +0.178 A 
ATOM     22  C   UNL A   1     -29.970 -14.240   8.985  0.00  0.00    +0.093 A 
ATOM     23  C   UNL A   1     -30.114 -15.496   9.480  0.00  0.00    +0.009 A 
ATOM     24  C   UNL A   1     -30.046 -15.756  10.795  0.00  0.00    +0.014 A 
ATOM     25  F   UNL A   1     -29.464 -12.498  12.129  0.00  0.00    -0.200 F 
BRANCH  22  26
ATOM     26  C   UNL A   1     -30.076 -13.926   7.559  0.00  0.00    +0.287 C 
ATOM     27  N   UNL A   1     -31.010 -13.839   6.983  0.00  0.00    -0.084 NA
ATOM     28  O   UNL A   1     -28.882 -14.068   6.896  0.00  0.00    -0.267 OA
ENDBRANCH  22  26
ENDBRANCH  17  21
ENDBRANCH   1  17
TORSDOF 4
ENDMDL
ENDMDL
