REMARK  Name = outputs/IAG933/test6/raw/output_4855_IAG933_linker_design_.xyz
REMARK  12 active torsions:
REMARK  status: ('A' for Active; 'I' for Inactive)
REMARK    1  A    between atoms: C_1  and  C_2
REMARK    2  A    between atoms: C_1  and  C_8
REMARK    3  A    between atoms: C_1  and  N_32
REMARK    4  A    between atoms: C_13  and  C_41
REMARK    5  A    between atoms: C_14  and  C_15
REMARK    6  A    between atoms: C_21  and  O_22
REMARK    7  A    between atoms: O_22  and  C_23
REMARK    8  A    between atoms: C_23  and  C_24
REMARK    9  A    between atoms: C_28  and  C_37
REMARK   10  A    between atoms: C_29  and  N_32
REMARK   11  A    between atoms: O_30  and  C_34
REMARK   12  A    between atoms: C_33  and  C_39
REMARK                            x       y       z     vdW  Elec       q    Type
REMARK                         _______ _______ _______ _____ _____    ______ ____
ROOT
ATOM      1  C   UNL A   1     -24.395   0.436  28.334  0.00  0.00    +0.071 C 
ATOM      2  C   UNL A   1     -22.843   0.368  28.680  0.00  0.00    +0.221 C 
ATOM      3  C   UNL A   1     -23.259   1.598  27.055  0.00  0.00    +0.184 C 
ATOM      4  C   UNL A   1     -22.270   1.134  27.793  0.00  0.00    +0.064 C 
ATOM      5  F   UNL A   1     -22.460  -0.305  29.635  0.00  0.00    -0.226 F 
ATOM      6  C   UNL A   1     -24.537   1.221  27.168  0.00  0.00    +0.052 C 
ENDROOT
BRANCH   6   7
ATOM      7  C   UNL A   1     -25.688   1.614  26.461  0.00  0.00    +0.042 C 
ATOM      8  C   UNL A   1     -26.250   2.920  26.395  0.00  0.00    +0.077 C 
ATOM      9  C   UNL A   1     -27.438   3.091  25.645  0.00  0.00    +0.107 C 
ATOM     10  N   UNL A   1     -28.075   2.089  25.003  0.00  0.00    -0.208 NA
ATOM     11  C   UNL A   1     -27.543   0.849  25.079  0.00  0.00    +0.253 C 
ATOM     12  C   UNL A   1     -26.354   0.576  25.777  0.00  0.00    +0.193 C 
ATOM     13  F   UNL A   1     -25.860  -0.681  25.795  0.00  0.00    -0.199 F 
BRANCH   8  14
ATOM     14  C   UNL A   1     -25.642   4.093  27.123  0.00  0.00    +0.266 C 
ATOM     15  N   UNL A   1     -25.614   5.252  26.449  0.00  0.00    -0.200 NA
ATOM     16  C   UNL A   1     -25.026   6.479  26.963  0.00  0.00    +0.139 C 
ATOM     17  O   UNL A   1     -25.143   3.966  28.243  0.00  0.00    -0.268 OA
ENDBRANCH   8  14
BRANCH  11  18
ATOM     18  O   UNL A   1     -28.193  -0.208  24.477  0.00  0.00    -0.456 OA
BRANCH  18  19
ATOM     19  C   UNL A   1     -29.460   0.005  23.866  0.00  0.00    +0.243 C 
BRANCH  19  20
ATOM     20  C   UNL A   1     -30.065  -1.377  23.573  0.00  0.00    +0.229 C 
ATOM     21  O   UNL A   1     -30.729  -1.878  24.721  0.00  0.00    -0.216 OA
ENDBRANCH  19  20
ENDBRANCH  18  19
ENDBRANCH  11  18
ENDBRANCH   6   7
BRANCH   1  22
ATOM     22  N   UNL A   1     -25.220   0.027  29.210  0.00  0.00    -0.254 N 
ATOM     23  O   UNL A   1     -27.254   1.671  29.596  0.00  0.00    -0.272 OA
ATOM     24  C   UNL A   1     -26.652   0.590  29.194  0.00  0.00    +0.263 C 
BRANCH  24  25
ATOM     25  C   UNL A   1     -27.331  -0.221  28.623  0.00  0.00    +0.267 C 
ATOM     26  O   UNL A   1     -28.457   0.016  28.003  0.00  0.00    -0.210 OA
ENDBRANCH  24  25
BRANCH  22  27
ATOM     27  C   UNL A   1     -24.855  -1.012  30.143  0.00  0.00    +0.118 C 
BRANCH  27  28
ATOM     28  C   UNL A   1     -24.973  -2.505  29.788  0.00  0.00    -0.003 C 
ATOM     29  C   UNL A   1     -23.906  -3.173  29.146  0.00  0.00    -0.003 C 
ATOM     30  C   UNL A   1     -23.989  -4.549  28.853  0.00  0.00    -0.000 C 
ATOM     31  C   UNL A   1     -25.137  -5.280  29.205  0.00  0.00    -0.000 C 
ATOM     32  C   UNL A   1     -26.232  -4.611  29.784  0.00  0.00    -0.000 C 
ATOM     33  C   UNL A   1     -26.155  -3.232  30.065  0.00  0.00    -0.003 C 
ENDBRANCH  27  28
BRANCH  27  34
ATOM     34  C   UNL A   1     -25.387  -0.679  31.571  0.00  0.00    +0.095 C 
ATOM     35  C   UNL A   1     -25.189   0.773  32.028  0.00  0.00    +0.021 C 
ATOM     36  C   UNL A   1     -25.336   0.684  33.544  0.00  0.00    +0.020 C 
ATOM     37  C   UNL A   1     -24.829  -0.715  33.905  0.00  0.00    +0.089 C 
ATOM     38  N   UNL A   1     -24.758  -1.481  32.646  0.00  0.00    -0.217 NA
ENDBRANCH  27  34
ENDBRANCH  22  27
ENDBRANCH   1  22
BRANCH   3  39
ATOM     39  O   UNL A   1     -23.517   2.255  25.615  0.00  0.00    -0.303 OA
ATOM     40  O   UNL A   1     -22.240   2.306  25.277  0.00  0.00    +0.028 OA
ENDBRANCH   3  39
BRANCH   4  41
ATOM     41  C   UNL A   1     -20.980   1.298  27.674  0.00  0.00    +0.210 C 
ATOM     42  O   UNL A   1     -20.281   0.293  28.448  0.00  0.00    -0.215 OA
ENDBRANCH   4  41
TORSDOF 12
