MODEL 4856
MODEL 1
REMARK VINA RESULT:    -7.542      0.000      0.000
REMARK INTER + INTRA:         -12.260
REMARK INTER:                 -10.628
REMARK INTRA:                  -1.632
REMARK UNBOUND:                -1.632
REMARK  Name = No_4856-gen_results/8p0m/2024-11-27-11-27-31/
REMARK  7 active torsions:
REMARK  status: ('A' for Active; 'I' for Inactive)
REMARK    1  A    between atoms: C_1  and  C_2
REMARK    2  A    between atoms: C_1  and  C_8
REMARK    3  A    between atoms: C_3  and  C_16
REMARK    4  A    between atoms: C_5  and  C_12
REMARK    5  A    between atoms: C_16  and  O_18
REMARK    6  A    between atoms: O_18  and  C_19
REMARK    7  A    between atoms: C_19  and  C_20
REMARK                            x       y       z     vdW  Elec       q    Type
REMARK                         _______ _______ _______ _____ _____    ______ ____
ROOT
ATOM      1  C   UNL A   1     -24.626   0.504  26.637  0.00  0.00    -0.007 A 
ATOM      2  C   UNL A   1     -25.794   0.495  27.213  0.00  0.00    +0.072 A 
ATOM      3  C   UNL A   1     -27.103   0.311  26.540  0.00  0.00    +0.010 A 
ATOM      4  C   UNL A   1     -27.072   0.179  25.122  0.00  0.00    +0.072 A 
ATOM      5  C   UNL A   1     -25.819   0.264  24.505  0.00  0.00    +0.004 A 
ATOM      6  C   UNL A   1     -24.657   0.442  25.184  0.00  0.00    -0.004 A 
ENDROOT
BRANCH   4   7
ATOM      7  C   UNL A   1     -28.259   0.016  24.349  0.00  0.00    +0.419 C 
ATOM      8  F   UNL A   1     -29.215   0.144  24.970  0.00  0.00    -0.166 F 
ATOM      9  F   UNL A   1     -28.223   0.881  23.241  0.00  0.00    -0.166 F 
ATOM     10  F   UNL A   1     -28.277  -1.243  23.841  0.00  0.00    -0.166 F 
ENDBRANCH   4   7
BRANCH   2  11
ATOM     11  C   UNL A   1     -25.939   0.592  28.705  0.00  0.00    +0.341 C 
ATOM     12  O   UNL A   1     -25.831   1.600  29.160  0.00  0.00    -0.245 OA
BRANCH  11  13
ATOM     13  O   UNL A   1     -26.266  -0.474  29.267  0.00  0.00    -0.440 OA
BRANCH  13  14
ATOM     14  C   UNL A   1     -25.218  -1.332  29.660  0.00  0.00    +0.235 C 
BRANCH  14  15
ATOM     15  C   UNL A   1     -25.315  -2.500  29.310  0.00  0.00    +0.021 A 
ATOM     16  C   UNL A   1     -26.258  -3.426  29.680  0.00  0.00    -0.001 A 
ATOM     17  C   UNL A   1     -26.090  -4.863  29.633  0.00  0.00    -0.000 A 
ATOM     18  C   UNL A   1     -25.029  -5.221  29.077  0.00  0.00    -0.000 A 
ATOM     19  C   UNL A   1     -23.986  -4.445  28.567  0.00  0.00    -0.000 A 
ATOM     20  C   UNL A   1     -24.080  -3.056  28.736  0.00  0.00    -0.001 A 
ENDBRANCH  14  15
ENDBRANCH  13  14
ENDBRANCH  11  13
ENDBRANCH   2  11
BRANCH   1  21
ATOM     21  C   UNL A   1     -23.544   0.655  27.156  0.00  0.00    +0.130 C 
BRANCH  21  22
ATOM     22  C   UNL A   1     -22.792   1.961  26.961  0.00  0.00    +0.402 C 
ATOM     23  F   UNL A   1     -22.203   2.153  26.132  0.00  0.00    -0.170 F 
ATOM     24  F   UNL A   1     -21.983   2.023  28.126  0.00  0.00    -0.170 F 
ATOM     25  F   UNL A   1     -23.669   3.034  27.225  0.00  0.00    -0.170 F 
ENDBRANCH  21  22
ENDBRANCH   1  21
TORSDOF 7
ENDMDL
ENDMDL
