MODEL 4857
MODEL 1
REMARK VINA RESULT:    -5.878      0.000      0.000
REMARK INTER + INTRA:          -6.903
REMARK INTER:                  -6.565
REMARK INTRA:                  -0.338
REMARK UNBOUND:                -0.338
REMARK  Name = No_4857-gen_results/8p0m/2024-11-27-11-27-31/
REMARK  2 active torsions:
REMARK  status: ('A' for Active; 'I' for Inactive)
REMARK    1  A    between atoms: C_2  and  C_11
REMARK    2  A    between atoms: C_3  and  C_4
REMARK                            x       y       z     vdW  Elec       q    Type
REMARK                         _______ _______ _______ _____ _____    ______ ____
ROOT
ATOM      1  C   UNL A   1     -28.245 -11.840  31.522  0.00  0.00    +0.010 A 
ATOM      2  C   UNL A   1     -28.169 -11.405  32.479  0.00  0.00    +0.080 A 
ATOM      3  C   UNL A   1     -29.207 -11.168  30.648  0.00  0.00    +0.072 A 
ATOM      4  C   UNL A   1     -28.801 -10.277  33.151  0.00  0.00    +0.007 A 
ATOM      5  C   UNL A   1     -29.725  -9.624  32.362  0.00  0.00    +0.000 A 
ATOM      6  C   UNL A   1     -29.910 -10.016  31.088  0.00  0.00    +0.004 A 
ENDROOT
BRANCH   3   7
ATOM      7  C   UNL A   1     -29.415 -11.526  29.228  0.00  0.00    +0.419 C 
ATOM      8  F   UNL A   1     -28.346 -11.704  28.811  0.00  0.00    -0.166 F 
ATOM      9  F   UNL A   1     -29.921 -10.431  28.612  0.00  0.00    -0.166 F 
ATOM     10  F   UNL A   1     -30.252 -12.569  29.097  0.00  0.00    -0.166 F 
ENDBRANCH   3   7
BRANCH   2  11
ATOM     11  C   UNL A   1     -27.148 -11.921  33.610  0.00  0.00    +0.388 C 
ATOM     12  O   UNL A   1     -26.673 -12.867  33.748  0.00  0.00    -0.241 OA
ATOM     13  O   UNL A   1     -27.056 -10.948  34.546  0.00  0.00    -0.241 OA
ENDBRANCH   2  11
TORSDOF 2
ENDMDL
ENDMDL
