MODEL 4858
MODEL 1
REMARK VINA RESULT:    -6.808      0.000      0.000
REMARK INTER + INTRA:          -8.016
REMARK INTER:                  -7.604
REMARK INTRA:                  -0.412
REMARK UNBOUND:                -0.412
REMARK  Name = No_4858-gen_results/8p0m/2024-11-27-11-27-31/
REMARK  2 active torsions:
REMARK  status: ('A' for Active; 'I' for Inactive)
REMARK    1  A    between atoms: C_2  and  C_7
REMARK    2  A    between atoms: C_11  and  C_13
REMARK                            x       y       z     vdW  Elec       q    Type
REMARK                         _______ _______ _______ _____ _____    ______ ____
ROOT
ATOM      1  C   UNL A   1     -23.531  -1.611  28.896  0.00  0.00    +0.000 A 
ATOM      2  C   UNL A   1     -22.572  -1.468  29.220  0.00  0.00    +0.000 A 
ATOM      3  C   UNL A   1     -21.628  -0.306  29.015  0.00  0.00    +0.000 A 
ATOM      4  C   UNL A   1     -22.119   0.790  28.333  0.00  0.00    +0.002 A 
ATOM      5  C   UNL A   1     -23.446   0.771  27.897  0.00  0.00    +0.021 A 
ATOM      6  C   UNL A   1     -24.198  -0.346  28.110  0.00  0.00    +0.002 A 
ENDROOT
BRANCH   1   8
ATOM      7  C   UNL A   1     -25.625  -2.535  29.612  0.00  0.00    +0.000 A 
ATOM      8  C   UNL A   1     -24.517  -2.694  29.155  0.00  0.00    +0.000 A 
ATOM      9  C   UNL A   1     -24.061  -3.960  28.801  0.00  0.00    +0.000 A 
ATOM     10  C   UNL A   1     -24.878  -5.127  29.011  0.00  0.00    +0.000 A 
ATOM     11  C   UNL A   1     -26.135  -4.854  29.566  0.00  0.00    +0.000 A 
ATOM     12  C   UNL A   1     -26.512  -3.640  29.899  0.00  0.00    +0.000 A 
ENDBRANCH   1   8
BRANCH   5  13
ATOM     13  C   UNL A   1     -23.969   1.898  27.135  0.00  0.00    +0.122 C 
ATOM     14  N   UNL A   1     -23.952   2.979  27.389  0.00  0.00    -0.146 NA
ENDBRANCH   5  13
TORSDOF 2
ENDMDL
ENDMDL
