MODEL 4859
MODEL 1
REMARK VINA RESULT:    -6.173      0.000      0.000
REMARK INTER + INTRA:          -6.566
REMARK INTER:                  -6.534
REMARK INTRA:                  -0.032
REMARK UNBOUND:                -0.032
REMARK  Name = No_4859-gen_results/8p0m/2024-11-27-11-27-31/
REMARK  1 active torsions:
REMARK  status: ('A' for Active; 'I' for Inactive)
REMARK    1  A    between atoms: C_15  and  C_16
REMARK                            x       y       z     vdW  Elec       q    Type
REMARK                         _______ _______ _______ _____ _____    ______ ____
ROOT
ATOM      1  C   UNL A   1     -23.922   0.280  27.580  0.00  0.00    -0.017 A 
ATOM      2  C   UNL A   1     -23.000   0.732  27.818  0.00  0.00    +0.050 A 
ATOM      3  C   UNL A   1     -24.617   0.828  26.353  0.00  0.00    -0.004 A 
ATOM      4  C   UNL A   1     -23.950   1.772  25.545  0.00  0.00    -0.000 A 
ATOM      5  C   UNL A   1     -22.091   1.685  27.143  0.00  0.00    +0.004 A 
ATOM      6  C   UNL A   1     -22.693   2.206  26.007  0.00  0.00    +0.000 A 
ATOM      7  C   UNL A   1     -22.233   0.161  29.108  0.00  0.00    +0.249 C 
ATOM      8  O   UNL A   1     -21.307  -0.406  29.113  0.00  0.00    -0.270 OA
ATOM      9  N   UNL A   1     -23.190   0.026  30.194  0.00  0.00    -0.277 N 
ATOM     10  C   UNL A   1     -22.768  -0.650  31.345  0.00  0.00    +0.094 C 
ATOM     11  C   UNL A   1     -23.753  -1.312  31.933  0.00  0.00    +0.022 C 
ATOM     12  C   UNL A   1     -25.008  -1.085  31.567  0.00  0.00    +0.004 C 
ATOM     13  C   UNL A   1     -25.460  -0.410  30.457  0.00  0.00    +0.020 C 
ATOM     14  C   UNL A   1     -24.486   0.101  29.782  0.00  0.00    +0.080 C 
ATOM     15  C   UNL A   1     -24.812   0.454  28.406  0.00  0.00    +0.041 C 
ENDROOT
BRANCH  15  16
ATOM     16  C   UNL A   1     -26.091   1.049  28.474  0.00  0.00    +0.006 C 
ATOM     17  C   UNL A   1     -26.184   2.444  28.804  0.00  0.00    +0.000 C 
ENDBRANCH  15  16
TORSDOF 1
ENDMDL
ENDMDL
