MODEL 485
MODEL 1
REMARK VINA RESULT:    -5.272      0.000      0.000
REMARK INTER + INTRA:          -6.422
REMARK INTER:                  -6.197
REMARK INTRA:                  -0.226
REMARK UNBOUND:                -0.226
REMARK  Name = No_485-gen_results/8p0m/2024-11-27-11-27-31/
REMARK  3 active torsions:
REMARK  status: ('A' for Active; 'I' for Inactive)
REMARK    1  A    between atoms: C_2  and  C_6
REMARK    2  A    between atoms: C_6  and  N_8
REMARK    3  A    between atoms: N_8  and  C_9
REMARK                            x       y       z     vdW  Elec       q    Type
REMARK                         _______ _______ _______ _____ _____    ______ ____
ROOT
ATOM      1  C   UNL A   1     -23.042   0.025  28.816  0.00  0.00    +0.002 C 
ATOM      2  C   UNL A   1     -23.750  -0.374  28.146  0.00  0.00    +0.022 C 
ATOM      3  C   UNL A   1     -21.966   0.766  28.158  0.00  0.00    +0.000 C 
ATOM      4  C   UNL A   1     -22.191   1.839  27.599  0.00  0.00    +0.000 C 
ATOM      5  C   UNL A   1     -23.253   1.695  26.461  0.00  0.00    +0.000 C 
ATOM      6  C   UNL A   1     -24.382   0.844  27.088  0.00  0.00    +0.002 C 
ENDROOT
BRANCH   2   7
ATOM      7  C   UNL A   1     -24.851  -1.314  28.444  0.00  0.00    +0.112 C 
BRANCH   7   8
ATOM      8  N   UNL A   1     -24.414  -2.475  28.732  0.00  0.00    -0.232 NA
BRANCH   8   9
ATOM      9  C   UNL A   1     -25.049  -3.479  28.931  0.00  0.00    +0.141 C 
ATOM     10  C   UNL A   1     -24.331  -4.632  29.009  0.00  0.00    +0.295 C 
ATOM     11  F   UNL A   1     -25.132  -5.702  29.125  0.00  0.00    -0.171 F 
ATOM     12  F   UNL A   1     -23.736  -4.771  27.826  0.00  0.00    -0.171 F 
ENDBRANCH   8   9
ENDBRANCH   7   8
ENDBRANCH   2   7
TORSDOF 3
ENDMDL
ENDMDL
