REMARK  Name = No_486-gen_results/8p0m/2024-11-27-11-27-31/
REMARK  6 active torsions:
REMARK  status: ('A' for Active; 'I' for Inactive)
REMARK    1  A    between atoms: C_5  and  C_15
REMARK    2  A    between atoms: C_9  and  C_12
REMARK    3  A    between atoms: C_15  and  O_17
REMARK    4  A    between atoms: O_17  and  C_18
REMARK    5  A    between atoms: C_18  and  C_19
REMARK    6  A    between atoms: C_19  and  C_20
REMARK                            x       y       z     vdW  Elec       q    Type
REMARK                         _______ _______ _______ _____ _____    ______ ____
ROOT
ATOM      1  C   UNL A   1     -28.016  -0.814  28.878  0.00  0.00    +0.002 A 
ATOM      2  C   UNL A   1     -27.064  -0.119  28.608  0.00  0.00    -0.025 A 
ATOM      3  C   UNL A   1     -26.876   1.133  28.913  0.00  0.00    -0.022 A 
ATOM      4  C   UNL A   1     -27.901   1.807  29.644  0.00  0.00    -0.004 A 
ATOM      5  C   UNL A   1     -29.046  -0.232  29.718  0.00  0.00    +0.075 A 
ATOM      6  C   UNL A   1     -28.940   1.052  30.060  0.00  0.00    +0.006 A 
ATOM      7  C   UNL A   1     -25.873  -0.713  27.805  0.00  0.00    +0.030 C 
ATOM      8  C   UNL A   1     -24.544  -0.396  28.329  0.00  0.00    +0.029 C 
ATOM      9  C   UNL A   1     -24.238   0.959  28.449  0.00  0.00    -0.015 C 
ATOM     10  C   UNL A   1     -24.873   1.874  28.451  0.00  0.00    -0.027 C 
ATOM     11  C   UNL A   1     -25.797   2.115  28.859  0.00  0.00    +0.051 C 
ENDROOT
BRANCH   9  12
ATOM     12  C   UNL A   1     -22.678   0.925  28.109  0.00  0.00    +0.189 C 
ATOM     13  N   UNL A   1     -22.193   1.805  27.302  0.00  0.00    -0.111 NA
ATOM     14 CL   UNL A   1     -21.649  -0.073  29.028  0.00  0.00    -0.089 Cl
ENDBRANCH   9  12
BRANCH   5  15
ATOM     15  C   UNL A   1     -30.225  -1.138  30.061  0.00  0.00    +0.341 C 
ATOM     16  O   UNL A   1     -30.107  -2.056  30.618  0.00  0.00    -0.245 OA
BRANCH  15  17
ATOM     17  O   UNL A   1     -31.381  -0.553  30.077  0.00  0.00    -0.445 OA
BRANCH  17  18
ATOM     18  C   UNL A   1     -32.493  -1.274  29.800  0.00  0.00    +0.214 C 
BRANCH  18  19
ATOM     19  C   UNL A   1     -32.475  -1.945  28.645  0.00  0.00    +0.078 C 
BRANCH  19  20
ATOM     20  C   UNL A   1     -32.185  -1.225  27.440  0.00  0.00    +0.038 C 
ATOM     21  C   UNL A   1     -32.227  -1.944  26.186  0.00  0.00    +0.275 C 
ATOM     22  F   UNL A   1     -31.492  -1.327  25.216  0.00  0.00    -0.172 F 
ATOM     23  F   UNL A   1     -31.655  -3.169  26.317  0.00  0.00    -0.172 F 
ENDBRANCH  19  20
ENDBRANCH  18  19
ENDBRANCH  17  18
ENDBRANCH  15  17
ENDBRANCH   5  15
TORSDOF 6
