REMARK  Name = No_4860-gen_results/8p0m/2024-11-27-11-27-31/
REMARK  3 active torsions:
REMARK  status: ('A' for Active; 'I' for Inactive)
REMARK    1  A    between atoms: C_3  and  C_7
REMARK    2  A    between atoms: C_6  and  C_13
REMARK    3  A    between atoms: N_15  and  C_16
REMARK                            x       y       z     vdW  Elec       q    Type
REMARK                         _______ _______ _______ _____ _____    ______ ____
ROOT
ATOM      1  C   UNL A   1     -28.016  -0.814  28.878  0.00  0.00    +0.005 A 
ATOM      2  C   UNL A   1     -27.064  -0.119  28.608  0.00  0.00    +0.000 A 
ATOM      3  C   UNL A   1     -25.765  -0.390  29.036  0.00  0.00    +0.000 A 
ATOM      4  C   UNL A   1     -25.530  -1.530  29.901  0.00  0.00    +0.000 A 
ATOM      5  C   UNL A   1     -26.658  -2.292  30.203  0.00  0.00    +0.005 A 
ATOM      6  C   UNL A   1     -27.855  -1.956  29.763  0.00  0.00    +0.055 A 
ENDROOT
BRANCH   3   7
ATOM      7  C   UNL A   1     -24.535   0.413  28.743  0.00  0.00    +0.000 A 
ATOM      8  C   UNL A   1     -24.483   1.243  27.740  0.00  0.00    +0.000 A 
ATOM      9  C   UNL A   1     -23.279   1.938  27.416  0.00  0.00    +0.000 A 
ATOM     10  C   UNL A   1     -22.079   1.651  28.021  0.00  0.00    +0.000 A 
ATOM     11  C   UNL A   1     -23.275   0.111  29.439  0.00  0.00    +0.000 A 
ATOM     12  C   UNL A   1     -22.081   0.771  29.065  0.00  0.00    +0.000 A 
ENDBRANCH   3   7
BRANCH   6  13
ATOM     13  C   UNL A   1     -29.018  -2.795  30.186  0.00  0.00    +0.269 C 
ATOM     14  O   UNL A   1     -30.056  -2.517  30.012  0.00  0.00    -0.268 OA
ATOM     15  N   UNL A   1     -28.648  -3.986  30.854  0.00  0.00    -0.175 NA
BRANCH  15  16
ATOM     16  C   UNL A   1     -29.664  -4.971  31.235  0.00  0.00    +0.074 A 
ATOM     17  C   UNL A   1     -29.493  -5.399  32.493  0.00  0.00    +0.017 A 
ATOM     18  C   UNL A   1     -30.190  -6.717  32.705  0.00  0.00    +0.001 A 
ATOM     19  C   UNL A   1     -30.900  -7.259  31.617  0.00  0.00    +0.000 A 
ATOM     20  C   UNL A   1     -30.968  -6.707  30.402  0.00  0.00    +0.001 A 
ATOM     21  C   UNL A   1     -30.194  -5.546  30.185  0.00  0.00    +0.017 A 
ENDBRANCH  15  16
ENDBRANCH   6  13
TORSDOF 3
