MODEL 4860
MODEL 1
REMARK VINA RESULT:    -7.008      0.000      0.000
REMARK INTER + INTRA:          -8.926
REMARK INTER:                  -8.237
REMARK INTRA:                  -0.689
REMARK UNBOUND:                -0.689
REMARK  Name = No_4860-gen_results/8p0m/2024-11-27-11-27-31/
REMARK  3 active torsions:
REMARK  status: ('A' for Active; 'I' for Inactive)
REMARK    1  A    between atoms: C_3  and  C_7
REMARK    2  A    between atoms: C_6  and  C_13
REMARK    3  A    between atoms: N_15  and  C_16
REMARK                            x       y       z     vdW  Elec       q    Type
REMARK                         _______ _______ _______ _____ _____    ______ ____
ROOT
ATOM      1  C   UNL A   1     -27.773   1.923  24.158  0.00  0.00    +0.005 A 
ATOM      2  C   UNL A   1     -28.849   2.170  23.664  0.00  0.00    +0.000 A 
ATOM      3  C   UNL A   1     -29.777   1.192  23.307  0.00  0.00    +0.000 A 
ATOM      4  C   UNL A   1     -29.429  -0.206  23.475  0.00  0.00    +0.000 A 
ATOM      5  C   UNL A   1     -28.172  -0.445  24.029  0.00  0.00    +0.005 A 
ATOM      6  C   UNL A   1     -27.351   0.542  24.329  0.00  0.00    +0.055 A 
ENDROOT
BRANCH   3   7
ATOM      7  C   UNL A   1     -31.127   1.413  22.698  0.00  0.00    +0.000 A 
ATOM      8  C   UNL A   1     -32.047   0.491  22.723  0.00  0.00    +0.000 A 
ATOM      9  C   UNL A   1     -33.300   0.677  22.064  0.00  0.00    +0.000 A 
ATOM     10  C   UNL A   1     -33.542   1.745  21.233  0.00  0.00    +0.000 A 
ATOM     11  C   UNL A   1     -31.369   2.589  21.849  0.00  0.00    +0.000 A 
ATOM     12  C   UNL A   1     -32.596   2.727  21.159  0.00  0.00    +0.000 A 
ENDBRANCH   3   7
BRANCH   6  13
ATOM     13  C   UNL A   1     -25.999   0.192  24.861  0.00  0.00    +0.269 C 
ATOM     14  O   UNL A   1     -25.368  -0.587  24.438  0.00  0.00    -0.268 OA
ATOM     15  N   UNL A   1     -25.613   0.960  25.986  0.00  0.00    -0.175 NA
BRANCH  15  16
ATOM     16  C   UNL A   1     -24.272   0.817  26.560  0.00  0.00    +0.074 A 
ATOM     17  C   UNL A   1     -24.278   0.033  27.646  0.00  0.00    +0.017 A 
ATOM     18  C   UNL A   1     -23.056   0.283  28.488  0.00  0.00    +0.001 A 
ATOM     19  C   UNL A   1     -22.127   1.232  28.021  0.00  0.00    +0.000 A 
ATOM     20  C   UNL A   1     -22.272   1.952  26.904  0.00  0.00    +0.001 A 
ATOM     21  C   UNL A   1     -23.489   1.803  26.203  0.00  0.00    +0.017 A 
ENDBRANCH  15  16
ENDBRANCH   6  13
TORSDOF 3
ENDMDL
ENDMDL
