MODEL 4861
MODEL 1
REMARK VINA RESULT:    -4.053      0.000      0.000
REMARK INTER + INTRA:          -4.741
REMARK INTER:                  -4.527
REMARK INTRA:                  -0.214
REMARK UNBOUND:                -0.214
REMARK  Name = No_4861-gen_results/8p0m/2024-11-27-11-27-31/
REMARK  2 active torsions:
REMARK  status: ('A' for Active; 'I' for Inactive)
REMARK    1  A    between atoms: C_1  and  C_2
REMARK    2  A    between atoms: C_3  and  C_4
REMARK                            x       y       z     vdW  Elec       q    Type
REMARK                         _______ _______ _______ _____ _____    ______ ____
ROOT
ATOM      1  C   UNL A   1     -24.318  -2.681  29.805  0.00  0.00    -0.005 C 
ATOM      2  C   UNL A   1     -23.681  -1.383  30.024  0.00  0.00    -0.026 C 
ENDROOT
BRANCH   1   3
ATOM      3  C   UNL A   1     -23.907  -3.223  29.000  0.00  0.00    -0.005 C 
ATOM      4  C   UNL A   1     -24.048  -4.575  28.461  0.00  0.00    -0.026 C 
ATOM      5  C   UNL A   1     -24.992  -5.319  29.208  0.00  0.00    +0.031 C 
ENDBRANCH   1   3
BRANCH   2   6
ATOM      6  C   UNL A   1     -22.658  -0.929  29.228  0.00  0.00    +0.026 C 
ATOM      7  C   UNL A   1     -22.788   0.261  28.410  0.00  0.00    +0.005 C 
ENDBRANCH   2   6
TORSDOF 2
ENDMDL
ENDMDL
