MODEL 4862
MODEL 1
REMARK VINA RESULT:    -6.521      0.000      0.000
REMARK INTER + INTRA:          -6.521
REMARK INTER:                  -6.521
REMARK INTRA:                   0.000
REMARK UNBOUND:                 0.000
REMARK  Name = No_4862-gen_results/8p0m/2024-11-27-11-27-31/
REMARK  0 active torsions:
REMARK  status: ('A' for Active; 'I' for Inactive)
REMARK                            x       y       z     vdW  Elec       q    Type
REMARK                         _______ _______ _______ _____ _____    ______ ____
ROOT
ATOM      1  O   UNL A   1     -14.458 -19.269  19.300  0.00  0.00    -0.274 OA
ATOM      2  C   UNL A   1     -13.739 -20.143  19.486  0.00  0.00    +0.233 C 
ATOM      3  C   UNL A   1     -13.870 -21.022  20.405  0.00  0.00    +0.115 C 
ATOM      4  N   UNL A   1     -12.794 -20.375  18.454  0.00  0.00    -0.247 N 
ATOM      5  C   UNL A   1     -12.447 -19.501  17.461  0.00  0.00    +0.097 C 
ATOM      6  C   UNL A   1     -12.775 -21.176  21.347  0.00  0.00    +0.021 A 
ATOM      7  C   UNL A   1     -12.621 -21.018  22.398  0.00  0.00    -0.001 A 
ATOM      8  C   UNL A   1     -11.370 -21.192  23.259  0.00  0.00    -0.000 A 
ATOM      9  C   UNL A   1     -10.211 -21.554  22.574  0.00  0.00    +0.003 A 
ATOM     10  C   UNL A   1     -10.352 -21.718  21.197  0.00  0.00    +0.037 A 
ATOM     11  C   UNL A   1     -11.469 -21.571  20.573  0.00  0.00    +0.137 A 
ATOM     12  C   UNL A   1     -11.620 -19.825  16.609  0.00  0.00    +0.022 C 
ATOM     13  C   UNL A   1     -10.882 -21.031  16.587  0.00  0.00    +0.007 C 
ATOM     14  C   UNL A   1     -11.159 -21.879  17.668  0.00  0.00    +0.066 C 
ATOM     15  C   UNL A   1     -12.046 -21.560  18.549  0.00  0.00    +0.246 C 
ATOM     16  O   UNL A   1     -12.383 -22.319  19.613  0.00  0.00    -0.461 OA
ENDROOT
TORSDOF 0
ENDMDL
ENDMDL
