MODEL 4863
MODEL 1
REMARK VINA RESULT:    -4.362      0.000      0.000
REMARK INTER + INTRA:          -4.362
REMARK INTER:                  -4.362
REMARK INTRA:                   0.000
REMARK UNBOUND:                 0.000
REMARK  Name = No_4863-gen_results/8p0m/2024-11-27-11-27-31/
REMARK  0 active torsions:
REMARK  status: ('A' for Active; 'I' for Inactive)
REMARK                            x       y       z     vdW  Elec       q    Type
REMARK                         _______ _______ _______ _____ _____    ______ ____
ROOT
ATOM      1  C   UNL A   1     -24.885  -5.419  29.019  0.00  0.00    +0.000 A 
ATOM      2  C   UNL A   1     -24.167  -4.747  28.641  0.00  0.00    +0.000 A 
ATOM      3  C   UNL A   1     -26.066  -4.756  29.584  0.00  0.00    +0.000 A 
ATOM      4  C   UNL A   1     -26.130  -3.436  29.763  0.00  0.00    +0.000 A 
ATOM      5  C   UNL A   1     -24.008  -3.316  28.734  0.00  0.00    +0.000 A 
ATOM      6  C   UNL A   1     -25.105  -2.721  29.284  0.00  0.00    +0.000 A 
ENDROOT
TORSDOF 0
ENDMDL
ENDMDL
