MODEL 4864
MODEL 1
REMARK VINA RESULT:    -4.284      0.000      0.000
REMARK INTER + INTRA:          -4.284
REMARK INTER:                  -4.284
REMARK INTRA:                   0.000
REMARK UNBOUND:                 0.000
REMARK  Name = No_4864-gen_results/8p0m/2024-11-27-11-27-31/
REMARK  0 active torsions:
REMARK  status: ('A' for Active; 'I' for Inactive)
REMARK                            x       y       z     vdW  Elec       q    Type
REMARK                         _______ _______ _______ _____ _____    ______ ____
ROOT
ATOM      1  C   UNL A   1     -26.074  -4.818  29.660  0.00  0.00    +0.000 A 
ATOM      2  C   UNL A   1     -26.189  -3.616  29.713  0.00  0.00    +0.000 A 
ATOM      3  C   UNL A   1     -25.205  -2.735  29.309  0.00  0.00    +0.000 A 
ATOM      4  C   UNL A   1     -24.007  -3.277  28.765  0.00  0.00    +0.000 A 
ATOM      5  C   UNL A   1     -23.995  -4.616  28.569  0.00  0.00    +0.000 A 
ATOM      6  C   UNL A   1     -25.002  -5.379  28.950  0.00  0.00    +0.000 A 
ENDROOT
TORSDOF 0
ENDMDL
ENDMDL
