MODEL 4865
MODEL 1
REMARK VINA RESULT:    -6.492      0.000      0.000
REMARK INTER + INTRA:          -9.539
REMARK INTER:                  -8.769
REMARK INTRA:                  -0.770
REMARK UNBOUND:                -0.770
REMARK  Name = No_4865-gen_results/8p0m/2024-11-27-11-27-31/
REMARK  6 active torsions:
REMARK  status: ('A' for Active; 'I' for Inactive)
REMARK    1  A    between atoms: C_3  and  C_7
REMARK    2  A    between atoms: C_6  and  C_13
REMARK    3  A    between atoms: N_15  and  C_16
REMARK    4  A    between atoms: C_17  and  C_18
REMARK    5  A    between atoms: N_19  and  C_20
REMARK    6  A    between atoms: C_20  and  C_21
REMARK                            x       y       z     vdW  Elec       q    Type
REMARK                         _______ _______ _______ _____ _____    ______ ____
ROOT
ATOM      1  C   UNL A   1     -25.897   3.151  26.459  0.00  0.00    +0.005 A 
ATOM      2  C   UNL A   1     -26.965   3.393  25.945  0.00  0.00    +0.000 A 
ATOM      3  C   UNL A   1     -27.618   2.518  25.078  0.00  0.00    +0.000 A 
ATOM      4  C   UNL A   1     -26.974   1.271  24.715  0.00  0.00    +0.000 A 
ATOM      5  C   UNL A   1     -25.737   1.042  25.316  0.00  0.00    +0.005 A 
ATOM      6  C   UNL A   1     -25.185   1.931  26.118  0.00  0.00    +0.055 A 
ENDROOT
BRANCH   3   7
ATOM      7  C   UNL A   1     -28.938   2.737  24.404  0.00  0.00    +0.000 A 
ATOM      8  C   UNL A   1     -29.776   3.645  24.821  0.00  0.00    +0.000 A 
ATOM      9  C   UNL A   1     -30.928   3.847  24.358  0.00  0.00    +0.000 A 
ATOM     10  C   UNL A   1     -31.556   3.004  23.410  0.00  0.00    +0.000 A 
ATOM     11  C   UNL A   1     -29.425   1.803  23.408  0.00  0.00    +0.000 A 
ATOM     12  C   UNL A   1     -30.758   1.973  22.903  0.00  0.00    +0.000 A 
ENDBRANCH   3   7
BRANCH   6  13
ATOM     13  C   UNL A   1     -23.830   1.622  26.665  0.00  0.00    +0.269 C 
ATOM     14  O   UNL A   1     -22.793   2.067  26.143  0.00  0.00    -0.268 OA
ATOM     15  N   UNL A   1     -23.712   0.908  27.790  0.00  0.00    -0.174 NA
BRANCH  15  16
ATOM     16  C   UNL A   1     -22.403   0.587  28.349  0.00  0.00    +0.090 C 
ATOM     17  C   UNL A   1     -22.267  -0.123  29.299  0.00  0.00    +0.038 C 
BRANCH  17  18
ATOM     18  C   UNL A   1     -23.212  -1.103  29.516  0.00  0.00    +0.095 C 
ATOM     19  N   UNL A   1     -23.085  -2.358  28.881  0.00  0.00    -0.264 NA
BRANCH  19  20
ATOM     20  C   UNL A   1     -24.058  -3.328  29.054  0.00  0.00    +0.152 C 
BRANCH  20  21
ATOM     21  C   UNL A   1     -24.024  -4.509  28.492  0.00  0.00    -0.000 C 
ATOM     22  C   UNL A   1     -24.947  -5.494  29.147  0.00  0.00    -0.003 C 
ENDBRANCH  20  21
ENDBRANCH  19  20
ENDBRANCH  17  18
ENDBRANCH  15  16
ENDBRANCH   6  13
TORSDOF 6
ENDMDL
ENDMDL
