REMARK  Name = No_4865-gen_results/8p0m/2024-11-27-11-27-31/
REMARK  6 active torsions:
REMARK  status: ('A' for Active; 'I' for Inactive)
REMARK    1  A    between atoms: C_3  and  C_7
REMARK    2  A    between atoms: C_6  and  C_13
REMARK    3  A    between atoms: N_15  and  C_16
REMARK    4  A    between atoms: C_17  and  C_18
REMARK    5  A    between atoms: N_19  and  C_20
REMARK    6  A    between atoms: C_20  and  C_21
REMARK                            x       y       z     vdW  Elec       q    Type
REMARK                         _______ _______ _______ _____ _____    ______ ____
ROOT
ATOM      1  C   UNL A   1     -28.016  -0.814  28.878  0.00  0.00    +0.005 A 
ATOM      2  C   UNL A   1     -27.064  -0.119  28.608  0.00  0.00    +0.000 A 
ATOM      3  C   UNL A   1     -25.765  -0.390  29.036  0.00  0.00    +0.000 A 
ATOM      4  C   UNL A   1     -25.530  -1.530  29.901  0.00  0.00    +0.000 A 
ATOM      5  C   UNL A   1     -26.658  -2.292  30.203  0.00  0.00    +0.005 A 
ATOM      6  C   UNL A   1     -27.855  -1.956  29.763  0.00  0.00    +0.055 A 
ENDROOT
BRANCH   3   7
ATOM      7  C   UNL A   1     -24.535   0.413  28.743  0.00  0.00    +0.000 A 
ATOM      8  C   UNL A   1     -24.483   1.243  27.740  0.00  0.00    +0.000 A 
ATOM      9  C   UNL A   1     -23.472   1.902  27.384  0.00  0.00    +0.000 A 
ATOM     10  C   UNL A   1     -22.179   1.716  27.929  0.00  0.00    +0.000 A 
ATOM     11  C   UNL A   1     -23.288   0.133  29.428  0.00  0.00    +0.000 A 
ATOM     12  C   UNL A   1     -22.104   0.826  29.005  0.00  0.00    +0.000 A 
ENDBRANCH   3   7
BRANCH   6  13
ATOM     13  C   UNL A   1     -29.010  -2.800  30.190  0.00  0.00    +0.269 C 
ATOM     14  O   UNL A   1     -28.917  -4.035  30.299  0.00  0.00    -0.268 OA
ATOM     15  N   UNL A   1     -30.165  -2.223  30.541  0.00  0.00    -0.174 NA
BRANCH  15  16
ATOM     16  C   UNL A   1     -31.313  -3.019  30.961  0.00  0.00    +0.090 C 
ATOM     17  C   UNL A   1     -31.300  -3.699  31.942  0.00  0.00    +0.038 C 
BRANCH  17  18
ATOM     18  C   UNL A   1     -30.489  -3.311  32.987  0.00  0.00    +0.095 C 
ATOM     19  N   UNL A   1     -30.255  -4.194  34.064  0.00  0.00    -0.264 NA
BRANCH  19  20
ATOM     20  C   UNL A   1     -29.483  -3.791  35.140  0.00  0.00    +0.152 C 
BRANCH  20  21
ATOM     21  C   UNL A   1     -29.529  -2.595  35.668  0.00  0.00    -0.000 C 
ATOM     22  C   UNL A   1     -29.639  -1.506  34.641  0.00  0.00    -0.003 C 
ENDBRANCH  20  21
ENDBRANCH  19  20
ENDBRANCH  17  18
ENDBRANCH  15  16
ENDBRANCH   6  13
TORSDOF 6
