MODEL 4866
MODEL 1
REMARK VINA RESULT:    -6.612      0.000      0.000
REMARK INTER + INTRA:          -7.315
REMARK INTER:                  -6.998
REMARK INTRA:                  -0.317
REMARK UNBOUND:                -0.317
REMARK  Name = No_4866-gen_results/8p0m/2024-11-27-11-27-31/
REMARK  1 active torsions:
REMARK  status: ('A' for Active; 'I' for Inactive)
REMARK    1  A    between atoms: C_3  and  C_4
REMARK                            x       y       z     vdW  Elec       q    Type
REMARK                         _______ _______ _______ _____ _____    ______ ____
ROOT
ATOM      1  C   UNL A   1     -24.439  -4.942  28.757  0.00  0.00    +0.000 A 
ATOM      2  C   UNL A   1     -23.977  -3.842  28.565  0.00  0.00    +0.000 A 
ATOM      3  C   UNL A   1     -24.499  -2.690  28.877  0.00  0.00    +0.000 A 
ATOM      4  C   UNL A   1     -25.722  -5.049  29.478  0.00  0.00    +0.000 A 
ATOM      5  C   UNL A   1     -26.378  -3.914  29.807  0.00  0.00    +0.000 A 
ATOM      6  C   UNL A   1     -25.768  -2.616  29.552  0.00  0.00    +0.000 A 
ENDROOT
BRANCH   3   7
ATOM      7  C   UNL A   1     -23.896  -1.357  28.629  0.00  0.00    +0.000 A 
ATOM      8  C   UNL A   1     -24.465  -0.335  27.858  0.00  0.00    +0.000 A 
ATOM      9  C   UNL A   1     -22.558  -1.119  29.139  0.00  0.00    +0.000 A 
ATOM     10  C   UNL A   1     -21.873   0.064  28.886  0.00  0.00    +0.000 A 
ATOM     11  C   UNL A   1     -23.642   0.759  27.341  0.00  0.00    +0.000 A 
ATOM     12  C   UNL A   1     -22.359   0.981  27.971  0.00  0.00    +0.000 A 
ENDBRANCH   3   7
TORSDOF 1
ENDMDL
ENDMDL
