MODEL 4867
MODEL 1
REMARK VINA RESULT:    -4.928      0.000      0.000
REMARK INTER + INTRA:          -5.289
REMARK INTER:                  -5.216
REMARK INTRA:                  -0.073
REMARK UNBOUND:                -0.073
REMARK  Name = No_4867-gen_results/8p0m/2024-11-27-11-27-31/
REMARK  1 active torsions:
REMARK  status: ('A' for Active; 'I' for Inactive)
REMARK    1  A    between atoms: C_2  and  C_7
REMARK                            x       y       z     vdW  Elec       q    Type
REMARK                         _______ _______ _______ _____ _____    ______ ____
ROOT
ATOM      1  C   UNL A   1     -23.909  -3.474  28.623  0.00  0.00    -0.000 A 
ATOM      2  C   UNL A   1     -24.744  -2.715  29.059  0.00  0.00    -0.000 A 
ATOM      3  C   UNL A   1     -25.920  -3.192  29.628  0.00  0.00    -0.000 A 
ATOM      4  C   UNL A   1     -26.202  -4.603  29.673  0.00  0.00    -0.000 A 
ATOM      5  C   UNL A   1     -25.195  -5.407  29.125  0.00  0.00    -0.000 A 
ATOM      6  C   UNL A   1     -24.108  -4.906  28.583  0.00  0.00    -0.000 A 
ENDROOT
BRANCH   2   7
ATOM      7  C   UNL A   1     -24.632  -1.232  29.072  0.00  0.00    -0.005 C 
ATOM      8  C   UNL A   1     -23.863  -0.590  29.878  0.00  0.00    -0.026 C 
ATOM      9  C   UNL A   1     -23.583  -1.218  31.238  0.00  0.00    +0.031 C 
ENDBRANCH   2   7
TORSDOF 1
ENDMDL
ENDMDL
