REMARK  Name = No_4868-gen_results/8p0m/2024-11-27-11-27-31/
REMARK  1 active torsions:
REMARK  status: ('A' for Active; 'I' for Inactive)
REMARK    1  A    between atoms: C_2  and  C_5
REMARK                            x       y       z     vdW  Elec       q    Type
REMARK                         _______ _______ _______ _____ _____    ______ ____
ROOT
ATOM      1  C   UNL A   1     -28.016  -0.814  28.878  0.00  0.00    -0.003 A 
ATOM      2  C   UNL A   1     -28.469  -0.785  29.829  0.00  0.00    -0.005 A 
ATOM      3  C   UNL A   1     -28.182   0.428  28.113  0.00  0.00    -0.000 A 
ATOM      4  C   UNL A   1     -28.984   1.415  28.515  0.00  0.00    -0.000 A 
ATOM      5  C   UNL A   1     -29.561   1.293  29.742  0.00  0.00    -0.000 A 
ATOM      6  C   UNL A   1     -29.320   0.165  30.445  0.00  0.00    -0.003 A 
ENDROOT
BRANCH   2   7
ATOM      7  C   UNL A   1     -28.337  -2.048  30.787  0.00  0.00    +0.114 C 
ATOM      8  N   UNL A   1     -27.248  -2.126  31.365  0.00  0.00    -0.128 NA
ATOM      9  C   UNL A   1     -29.423  -2.262  31.782  0.00  0.00    +0.025 C 
ENDBRANCH   2   7
TORSDOF 1
