MODEL 4868
MODEL 1
REMARK VINA RESULT:    -4.921      0.000      0.000
REMARK INTER + INTRA:          -5.317
REMARK INTER:                  -5.209
REMARK INTRA:                  -0.108
REMARK UNBOUND:                -0.108
REMARK  Name = No_4868-gen_results/8p0m/2024-11-27-11-27-31/
REMARK  1 active torsions:
REMARK  status: ('A' for Active; 'I' for Inactive)
REMARK    1  A    between atoms: C_2  and  C_5
REMARK                            x       y       z     vdW  Elec       q    Type
REMARK                         _______ _______ _______ _____ _____    ______ ____
ROOT
ATOM      1  C   UNL A   1     -23.877  -3.733  28.830  0.00  0.00    -0.003 A 
ATOM      2  C   UNL A   1     -24.427  -2.878  29.108  0.00  0.00    -0.005 A 
ATOM      3  C   UNL A   1     -24.652  -4.977  28.907  0.00  0.00    -0.000 A 
ATOM      4  C   UNL A   1     -25.868  -5.031  29.452  0.00  0.00    -0.000 A 
ATOM      5  C   UNL A   1     -26.438  -3.853  29.831  0.00  0.00    -0.000 A 
ATOM      6  C   UNL A   1     -25.717  -2.722  29.672  0.00  0.00    -0.003 A 
ENDROOT
BRANCH   2   7
ATOM      7  C   UNL A   1     -23.727  -1.451  29.036  0.00  0.00    +0.114 C 
ATOM      8  N   UNL A   1     -22.497  -1.502  28.934  0.00  0.00    -0.128 NA
ATOM      9  C   UNL A   1     -24.251  -0.488  28.029  0.00  0.00    +0.025 C 
ENDBRANCH   2   7
TORSDOF 1
ENDMDL
ENDMDL
