MODEL 4869
MODEL 1
REMARK VINA RESULT:    -8.849      0.000      0.000
REMARK INTER + INTRA:         -14.791
REMARK INTER:                 -12.987
REMARK INTRA:                  -1.804
REMARK UNBOUND:                -1.804
REMARK  Name = No_4869-gen_results/8p0m/2024-11-27-11-27-31/
REMARK  8 active torsions:
REMARK  status: ('A' for Active; 'I' for Inactive)
REMARK    1  A    between atoms: C_3  and  C_7
REMARK    2  A    between atoms: C_11  and  C_14
REMARK    3  A    between atoms: C_14  and  N_15
REMARK    4  A    between atoms: C_17  and  N_21
REMARK    5  A    between atoms: N_21  and  C_25
REMARK    6  A    between atoms: C_26  and  C_27
REMARK    7  A    between atoms: C_27  and  C_28
REMARK    8  A    between atoms: C_28  and  C_29
REMARK                            x       y       z     vdW  Elec       q    Type
REMARK                         _______ _______ _______ _____ _____    ______ ____
ROOT
ATOM      1  N   UNL A   1     -23.381   1.989  27.566  0.00  0.00    -0.259 N 
ATOM      2  C   UNL A   1     -24.025   2.080  28.745  0.00  0.00    +0.246 C 
ATOM      3  C   UNL A   1     -23.394   1.216  29.768  0.00  0.00    +0.168 C 
ATOM      4  C   UNL A   1     -22.205   1.200  27.566  0.00  0.00    +0.186 C 
ATOM      5  O   UNL A   1     -24.960   2.825  29.037  0.00  0.00    -0.273 OA
ATOM      6  C   UNL A   1     -22.392   0.380  29.532  0.00  0.00    +0.120 C 
ATOM      7  N   UNL A   1     -21.797   0.423  28.406  0.00  0.00    -0.195 NA
ENDROOT
BRANCH   3   8
ATOM      8  N   UNL A   1     -24.003   1.215  31.041  0.00  0.00    -0.298 N 
ATOM      9  C   UNL A   1     -24.537   2.104  31.749  0.00  0.00    +0.113 C 
BRANCH   8  10
ATOM     10  C   UNL A   1     -24.202  -0.188  31.609  0.00  0.00    +0.057 C 
ATOM     11  C   UNL A   1     -25.570  -0.484  31.974  0.00  0.00    -0.010 C 
BRANCH  11  12
ATOM     12  C   UNL A   1     -26.256  -1.208  30.990  0.00  0.00    +0.032 C 
BRANCH  12  13
ATOM     13  C   UNL A   1     -25.658  -1.489  29.771  0.00  0.00    +0.027 C 
ATOM     14  C   UNL A   1     -26.279  -0.733  28.620  0.00  0.00    +0.005 C 
BRANCH  13  15
ATOM     15  C   UNL A   1     -25.285  -2.704  29.496  0.00  0.00    -0.022 A 
ATOM     16  C   UNL A   1     -24.518  -2.964  28.766  0.00  0.00    -0.004 A 
ATOM     17  C   UNL A   1     -24.040  -4.398  28.461  0.00  0.00    -0.000 A 
ATOM     18  C   UNL A   1     -24.786  -5.318  29.137  0.00  0.00    -0.000 A 
ATOM     19  C   UNL A   1     -25.907  -5.026  29.435  0.00  0.00    -0.000 A 
ATOM     20  C   UNL A   1     -26.237  -3.678  29.848  0.00  0.00    -0.004 A 
ENDBRANCH  13  15
ENDBRANCH  12  13
ENDBRANCH  11  12
ENDBRANCH   8  10
ENDBRANCH   3   8
BRANCH   1  21
ATOM     21  C   UNL A   1     -23.785   2.507  26.436  0.00  0.00    +0.121 C 
BRANCH  21  26
ATOM     22  C   UNL A   1     -27.124   1.355  24.805  0.00  0.00    -0.000 A 
ATOM     23  C   UNL A   1     -26.920   0.195  24.735  0.00  0.00    -0.000 A 
ATOM     24  C   UNL A   1     -25.599  -0.374  25.007  0.00  0.00    -0.000 A 
ATOM     25  C   UNL A   1     -24.571   0.397  25.518  0.00  0.00    -0.003 A 
ATOM     26  C   UNL A   1     -24.882   1.736  25.822  0.00  0.00    -0.002 A 
ATOM     27  C   UNL A   1     -26.077   2.276  25.482  0.00  0.00    -0.003 A 
BRANCH  22  30
ATOM     28  C   UNL A   1     -29.675   3.945  25.320  0.00  0.00    +0.058 A 
ATOM     29  C   UNL A   1     -28.648   3.309  25.373  0.00  0.00    +0.011 A 
ATOM     30  C   UNL A   1     -28.358   2.197  24.602  0.00  0.00    +0.001 A 
ATOM     31  C   UNL A   1     -29.340   1.794  23.649  0.00  0.00    +0.007 A 
ATOM     32  C   UNL A   1     -30.398   2.607  23.498  0.00  0.00    +0.035 A 
ATOM     33  C   UNL A   1     -30.567   3.663  24.242  0.00  0.00    +0.018 A 
ATOM     34 BR   UNL A   1     -31.615   2.129  22.151  0.00  0.00    -0.049 Br
ATOM     35 CL   UNL A   1     -29.965   5.381  26.276  0.00  0.00    -0.082 Cl
ENDBRANCH  22  30
ENDBRANCH  21  26
ENDBRANCH   1  21
TORSDOF 8
ENDMDL
ENDMDL
