REMARK  Name = No_4870-gen_results/8p0m/2024-11-27-11-27-31/
REMARK  7 active torsions:
REMARK  status: ('A' for Active; 'I' for Inactive)
REMARK    1  A    between atoms: C_2  and  N_7
REMARK    2  A    between atoms: C_4  and  C_13
REMARK    3  A    between atoms: C_13  and  C_14
REMARK    4  A    between atoms: C_14  and  C_15
REMARK    5  A    between atoms: C_20  and  C_22
REMARK    6  A    between atoms: C_28  and  C_31
REMARK    7  A    between atoms: C_31  and  C_32
REMARK                            x       y       z     vdW  Elec       q    Type
REMARK                         _______ _______ _______ _____ _____    ______ ____
ROOT
ATOM      1  C   UNL A   1     -23.464   0.882  28.863  0.00  0.00    -0.022 A 
ATOM      2  C   UNL A   1     -22.192   0.858  28.459  0.00  0.00    -0.004 A 
ATOM      3  C   UNL A   1     -21.913   1.611  27.159  0.00  0.00    -0.000 A 
ATOM      4  C   UNL A   1     -22.970   2.258  26.542  0.00  0.00    +0.004 A 
ATOM      5  C   UNL A   1     -24.376   1.657  28.130  0.00  0.00    +0.000 A 
ATOM      6  C   UNL A   1     -24.107   2.404  27.113  0.00  0.00    +0.053 A 
ENDROOT
BRANCH   6   7
ATOM      7  C   UNL A   1     -25.134   3.237  26.405  0.00  0.00    +0.249 C 
ATOM      8  N   UNL A   1     -26.249   3.637  26.846  0.00  0.00    -0.276 N 
ATOM      9  C   UNL A   1     -26.369   4.720  27.508  0.00  0.00    +0.094 C 
ATOM     10  C   UNL A   1     -27.639   5.107  28.034  0.00  0.00    +0.022 C 
ATOM     11  C   UNL A   1     -27.334   2.815  26.683  0.00  0.00    +0.094 C 
ATOM     12  C   UNL A   1     -28.634   3.101  27.178  0.00  0.00    +0.022 C 
ATOM     13  C   UNL A   1     -28.725   4.323  27.876  0.00  0.00    +0.007 C 
ATOM     14  O   UNL A   1     -24.686   3.805  25.374  0.00  0.00    -0.270 OA
BRANCH  13  15
ATOM     15  C   UNL A   1     -30.056   4.689  28.439  0.00  0.00    +0.022 C 
ATOM     16  C   UNL A   1     -31.086   4.787  27.527  0.00  0.00    +0.005 C 
BRANCH  15  17
ATOM     17  C   UNL A   1     -30.123   4.874  29.716  0.00  0.00    -0.031 C 
ATOM     18  C   UNL A   1     -31.419   5.123  30.321  0.00  0.00    -0.030 C 
ATOM     19  C   UNL A   1     -32.512   5.155  29.455  0.00  0.00    +0.030 C 
ENDBRANCH  15  17
ENDBRANCH  13  15
ENDBRANCH   6   7
BRANCH   1  20
ATOM     20  C   UNL A   1     -23.728   0.220  30.067  0.00  0.00    +0.027 C 
ATOM     21  C   UNL A   1     -23.675   0.912  31.364  0.00  0.00    +0.005 C 
BRANCH  20  22
ATOM     22  C   UNL A   1     -24.370  -1.071  30.055  0.00  0.00    +0.031 C 
BRANCH  22  26
ATOM     23  C   UNL A   1     -28.016  -0.814  28.878  0.00  0.00    +0.014 A 
ATOM     24  C   UNL A   1     -28.469  -0.785  29.829  0.00  0.00    +0.048 A 
ATOM     25  C   UNL A   1     -26.546  -0.876  28.850  0.00  0.00    -0.003 A 
ATOM     26  C   UNL A   1     -25.804  -1.032  30.057  0.00  0.00    -0.022 A 
ATOM     27  C   UNL A   1     -27.944  -0.987  31.207  0.00  0.00    +0.014 A 
ATOM     28  C   UNL A   1     -26.582  -1.039  31.223  0.00  0.00    -0.003 A 
BRANCH  24  29
ATOM     29  N   UNL A   1     -29.965  -0.735  29.890  0.00  0.00    -0.307 N 
ATOM     30  C   UNL A   1     -30.534  -0.031  29.006  0.00  0.00    +0.093 C 
ATOM     31  C   UNL A   1     -31.853  -0.402  28.725  0.00  0.00    +0.054 C 
ATOM     32  C   UNL A   1     -30.735  -1.568  30.714  0.00  0.00    +0.093 C 
ATOM     33  C   UNL A   1     -32.047  -1.831  30.479  0.00  0.00    +0.054 C 
ATOM     34  C   UNL A   1     -32.642  -1.161  29.497  0.00  0.00    +0.155 C 
ATOM     35  O   UNL A   1     -33.944  -1.346  29.244  0.00  0.00    -0.223 OA
ENDBRANCH  24  29
ENDBRANCH  22  26
ENDBRANCH  20  22
ENDBRANCH   1  20
TORSDOF 7
