REMARK  Name = outputs/IAG933/test6/raw/output_4871_IAG933_linker_design_.xyz
REMARK  12 active torsions:
REMARK  status: ('A' for Active; 'I' for Inactive)
REMARK    1  A    between atoms: C_1  and  C_2
REMARK    2  A    between atoms: C_1  and  C_8
REMARK    3  A    between atoms: C_1  and  C_40
REMARK    4  A    between atoms: C_13  and  N_38
REMARK    5  A    between atoms: C_14  and  C_15
REMARK    6  A    between atoms: C_21  and  O_22
REMARK    7  A    between atoms: O_22  and  C_23
REMARK    8  A    between atoms: C_23  and  C_24
REMARK    9  A    between atoms: C_29  and  C_37
REMARK   10  A    between atoms: C_29  and  N_38
REMARK   11  A    between atoms: C_29  and  C_40
REMARK   12  A    between atoms: N_38  and  C_42
REMARK                            x       y       z     vdW  Elec       q    Type
REMARK                         _______ _______ _______ _____ _____    ______ ____
ROOT
ATOM      1  N   UNL A   1     -24.990   1.426  27.658  0.00  0.00    -0.248 NA
ENDROOT
BRANCH   1   2
ATOM      2  C   UNL A   1     -25.688   1.614  26.461  0.00  0.00    +0.130 C 
ATOM      3  C   UNL A   1     -26.250   2.920  26.395  0.00  0.00    +0.070 C 
ATOM      4  C   UNL A   1     -27.438   3.091  25.645  0.00  0.00    +0.103 C 
ATOM      5  N   UNL A   1     -28.075   2.089  25.003  0.00  0.00    -0.212 NA
ATOM      6  C   UNL A   1     -27.543   0.849  25.079  0.00  0.00    +0.235 C 
ATOM      7  C   UNL A   1     -26.354   0.576  25.777  0.00  0.00    +0.255 C 
ATOM      8  F   UNL A   1     -25.860  -0.681  25.795  0.00  0.00    -0.225 F 
BRANCH   3   9
ATOM      9  C   UNL A   1     -25.642   4.093  27.123  0.00  0.00    +0.264 C 
ATOM     10  N   UNL A   1     -25.614   5.252  26.449  0.00  0.00    -0.200 NA
ATOM     11  C   UNL A   1     -25.026   6.479  26.963  0.00  0.00    +0.139 C 
ATOM     12  O   UNL A   1     -25.143   3.966  28.243  0.00  0.00    -0.269 OA
ENDBRANCH   3   9
BRANCH   6  13
ATOM     13  O   UNL A   1     -28.193  -0.208  24.477  0.00  0.00    -0.459 OA
BRANCH  13  14
ATOM     14  C   UNL A   1     -29.460   0.005  23.866  0.00  0.00    +0.242 C 
BRANCH  14  15
ATOM     15  C   UNL A   1     -30.065  -1.377  23.573  0.00  0.00    +0.229 C 
ATOM     16  O   UNL A   1     -30.729  -1.878  24.721  0.00  0.00    -0.216 OA
ENDBRANCH  14  15
ENDBRANCH  13  14
ENDBRANCH   6  13
ENDBRANCH   1   2
BRANCH   1  21
ATOM     17  N   UNL A   1     -21.281   1.403  27.669  0.00  0.00    -0.182 NA
ATOM     18 CL   UNL A   1     -22.459   2.219  25.471  0.00  0.00    -0.093 Cl
ATOM     19  C   UNL A   1     -21.702   0.524  28.726  0.00  0.00    +0.181 C 
ATOM     20  C   UNL A   1     -22.591   1.631  27.109  0.00  0.00    +0.184 C 
ATOM     21  C   UNL A   1     -23.657   1.121  27.751  0.00  0.00    +0.166 C 
ATOM     22  N   UNL A   1     -23.021   0.156  28.717  0.00  0.00    -0.182 NA
ENDBRANCH   1  21
BRANCH   1  23
ATOM     23  C   UNL A   1     -25.766   1.432  29.056  0.00  0.00    +0.113 C 
BRANCH  23  29
ATOM     24  C   UNL A   1     -28.896   2.667  30.688  0.00  0.00    -0.000 C 
ATOM     25  C   UNL A   1     -27.202   4.369  30.936  0.00  0.00    -0.000 C 
ATOM     26  C   UNL A   1     -27.929   1.716  30.316  0.00  0.00    -0.003 C 
ATOM     27  C   UNL A   1     -26.274   3.435  30.621  0.00  0.00    -0.003 C 
ATOM     28  C   UNL A   1     -28.544   3.992  30.925  0.00  0.00    -0.000 C 
ATOM     29  C   UNL A   1     -26.653   2.153  30.081  0.00  0.00    -0.005 C 
ENDBRANCH  23  29
BRANCH  23  31
ATOM     30  O   UNL A   1     -27.202  -0.432  28.814  0.00  0.00    -0.221 OA
ATOM     31  C   UNL A   1     -25.812  -0.179  29.202  0.00  0.00    +0.176 C 
BRANCH  31  32
ATOM     32  C   UNL A   1     -24.855  -1.012  30.143  0.00  0.00    +0.070 C 
BRANCH  32  33
ATOM     33  C   UNL A   1     -24.973  -2.505  29.788  0.00  0.00    -0.019 C 
ATOM     34  C   UNL A   1     -23.906  -3.173  29.146  0.00  0.00    -0.004 C 
ATOM     35  C   UNL A   1     -23.989  -4.549  28.853  0.00  0.00    -0.000 C 
ATOM     36  C   UNL A   1     -25.137  -5.280  29.205  0.00  0.00    -0.000 C 
ATOM     37  C   UNL A   1     -26.232  -4.611  29.784  0.00  0.00    -0.000 C 
ATOM     38  C   UNL A   1     -26.155  -3.232  30.065  0.00  0.00    -0.004 C 
ENDBRANCH  32  33
BRANCH  32  39
ATOM     39  C   UNL A   1     -25.387  -0.679  31.571  0.00  0.00    +0.079 C 
ATOM     40  C   UNL A   1     -25.189   0.773  32.028  0.00  0.00    +0.019 C 
ATOM     41  C   UNL A   1     -25.336   0.684  33.544  0.00  0.00    +0.020 C 
ATOM     42  C   UNL A   1     -24.829  -0.715  33.905  0.00  0.00    +0.089 C 
ATOM     43  N   UNL A   1     -24.758  -1.481  32.646  0.00  0.00    -0.219 NA
ENDBRANCH  32  39
ENDBRANCH  31  32
ENDBRANCH  23  31
ENDBRANCH   1  23
TORSDOF 12
