MODEL 4872
MODEL 1
REMARK VINA RESULT:    -7.171      0.000      0.000
REMARK INTER + INTRA:         -11.609
REMARK INTER:                  -9.267
REMARK INTRA:                  -2.343
REMARK UNBOUND:                -2.343
REMARK  Name = No_4872-gen_results/8p0m/2024-11-27-11-27-31/
REMARK  5 active torsions:
REMARK  status: ('A' for Active; 'I' for Inactive)
REMARK    1  A    between atoms: C_3  and  C_13
REMARK    2  A    between atoms: C_7  and  C_23
REMARK    3  A    between atoms: C_13  and  C_14
REMARK    4  A    between atoms: C_17  and  C_20
REMARK    5  A    between atoms: C_27  and  C_28
REMARK                            x       y       z     vdW  Elec       q    Type
REMARK                         _______ _______ _______ _____ _____    ______ ____
ROOT
ATOM      1  O   UNL A   1     -26.635 -12.721  33.806  0.00  0.00    -0.273 OA
ATOM      2  C   UNL A   1     -27.352 -11.819  33.788  0.00  0.00    +0.247 C 
ATOM      3  C   UNL A   1     -28.369 -11.553  33.522  0.00  0.00    +0.093 C 
ATOM      4  N   UNL A   1     -26.759 -10.738  34.596  0.00  0.00    -0.161 NA
ATOM      5  C   UNL A   1     -27.471  -9.514  34.805  0.00  0.00    +0.155 A 
ATOM      6  C   UNL A   1     -28.742  -9.414  34.320  0.00  0.00    +0.036 A 
ATOM      7  C   UNL A   1     -29.281 -10.473  33.663  0.00  0.00    +0.076 C 
ATOM      8  N   UNL A   1     -26.886  -8.512  35.501  0.00  0.00    -0.195 NA
ATOM      9  C   UNL A   1     -27.714  -7.396  35.753  0.00  0.00    +0.258 A 
ATOM     10  N   UNL A   1     -28.907  -7.262  35.371  0.00  0.00    -0.210 NA
ATOM     11  C   UNL A   1     -29.467  -8.190  34.680  0.00  0.00    +0.101 A 
ATOM     12  N   UNL A   1     -27.122  -6.367  36.470  0.00  0.00    -0.086 NA
ENDROOT
BRANCH   7  13
ATOM     13  C   UNL A   1     -30.721 -10.335  33.133  0.00  0.00    +0.063 A 
ATOM     14  N   UNL A   1     -31.716 -10.256  33.909  0.00  0.00    -0.248 NA
ATOM     15  C   UNL A   1     -32.940 -10.110  33.319  0.00  0.00    +0.099 A 
ATOM     16  C   UNL A   1     -30.821  -9.541  31.949  0.00  0.00    +0.015 A 
ATOM     17  C   UNL A   1     -31.975  -9.481  31.259  0.00  0.00    +0.003 A 
ATOM     18  C   UNL A   1     -33.141  -9.753  32.069  0.00  0.00    +0.021 A 
BRANCH  17  19
ATOM     19  C   UNL A   1     -32.168  -9.033  29.907  0.00  0.00    +0.000 A 
ATOM     20  C   UNL A   1     -31.136  -8.701  29.226  0.00  0.00    +0.000 A 
ATOM     21  C   UNL A   1     -33.205  -9.659  29.169  0.00  0.00    +0.000 A 
ATOM     22  C   UNL A   1     -33.678  -9.080  28.003  0.00  0.00    +0.000 A 
ATOM     23  C   UNL A   1     -31.425  -8.100  27.860  0.00  0.00    +0.000 A 
ATOM     24  C   UNL A   1     -32.609  -8.460  27.241  0.00  0.00    +0.000 A 
ENDBRANCH  17  19
ENDBRANCH   7  13
BRANCH   3  25
ATOM     25  C   UNL A   1     -29.137 -12.755  32.691  0.00  0.00    +0.036 C 
BRANCH  25  26
ATOM     26  C   UNL A   1     -29.219 -12.514  31.390  0.00  0.00    -0.022 A 
ATOM     27  C   UNL A   1     -28.516 -11.925  30.713  0.00  0.00    -0.004 A 
ATOM     28  C   UNL A   1     -28.725 -11.638  29.232  0.00  0.00    +0.006 A 
ATOM     29  C   UNL A   1     -29.893 -12.171  28.722  0.00  0.00    +0.080 A 
ATOM     30  C   UNL A   1     -30.742 -12.898  29.490  0.00  0.00    +0.006 A 
ATOM     31  C   UNL A   1     -30.533 -13.091  30.836  0.00  0.00    -0.004 A 
BRANCH  29  32
ATOM     32  C   UNL A   1     -30.202 -11.913  27.268  0.00  0.00    +0.388 C 
ATOM     33  O   UNL A   1     -31.222 -11.534  26.883  0.00  0.00    -0.241 OA
ATOM     34  O   UNL A   1     -29.339 -12.508  26.506  0.00  0.00    -0.241 OA
ENDBRANCH  29  32
ENDBRANCH  25  26
ENDBRANCH   3  25
TORSDOF 5
ENDMDL
ENDMDL
