MODEL 4873
MODEL 1
REMARK VINA RESULT:    -5.257      0.000      0.000
REMARK INTER + INTRA:          -5.602
REMARK INTER:                  -5.564
REMARK INTRA:                  -0.038
REMARK UNBOUND:                -0.038
REMARK  Name = No_4873-gen_results/8p0m/2024-11-27-11-27-31/
REMARK  1 active torsions:
REMARK  status: ('A' for Active; 'I' for Inactive)
REMARK    1  A    between atoms: C_5  and  C_8
REMARK                            x       y       z     vdW  Elec       q    Type
REMARK                         _______ _______ _______ _____ _____    ______ ____
ROOT
ATOM      1  C   UNL A   1     -26.715  -3.509  30.010  0.00  0.00    +0.003 A 
ATOM      2  C   UNL A   1     -26.343  -4.620  29.708  0.00  0.00    +0.030 A 
ATOM      3  C   UNL A   1     -25.121  -4.921  29.130  0.00  0.00    +0.140 A 
ATOM      4  C   UNL A   1     -24.225  -3.835  28.904  0.00  0.00    +0.036 A 
ATOM      5  C   UNL A   1     -24.596  -2.640  29.392  0.00  0.00    +0.082 A 
ATOM      6  C   UNL A   1     -25.751  -2.458  29.964  0.00  0.00    +0.007 A 
ATOM      7  F   UNL A   1     -24.763  -6.145  28.718  0.00  0.00    -0.204 F 
ENDROOT
BRANCH   5   8
ATOM      8  C   UNL A   1     -23.624  -1.546  29.161  0.00  0.00    +0.388 C 
ATOM      9  O   UNL A   1     -22.444  -1.769  28.882  0.00  0.00    -0.241 OA
ATOM     10  O   UNL A   1     -24.126  -0.391  28.687  0.00  0.00    -0.241 OA
ENDBRANCH   5   8
TORSDOF 1
ENDMDL
ENDMDL
