MODEL 4875
MODEL 1
REMARK VINA RESULT:    -7.672      0.000      0.000
REMARK INTER + INTRA:         -10.148
REMARK INTER:                  -9.466
REMARK INTRA:                  -0.682
REMARK UNBOUND:                -0.682
REMARK  Name = No_4875-gen_results/8p0m/2024-11-27-11-27-31/
REMARK  4 active torsions:
REMARK  status: ('A' for Active; 'I' for Inactive)
REMARK    1  A    between atoms: C_3  and  C_8
REMARK    2  A    between atoms: N_4  and  C_14
REMARK    3  A    between atoms: C_14  and  C_15
REMARK    4  A    between atoms: C_15  and  C_16
REMARK                            x       y       z     vdW  Elec       q    Type
REMARK                         _______ _______ _______ _____ _____    ______ ____
ROOT
ATOM      1  O   UNL A   1     -26.073  -0.145  27.457  0.00  0.00    -0.275 OA
ATOM      2  C   UNL A   1     -25.173   0.590  27.036  0.00  0.00    +0.229 C 
ATOM      3  C   UNL A   1     -24.983   1.280  26.283  0.00  0.00    +0.099 C 
ATOM      4  N   UNL A   1     -23.928   0.403  27.926  0.00  0.00    -0.279 N 
ATOM      5  C   UNL A   1     -23.772   1.982  25.734  0.00  0.00    +0.015 C 
ATOM      6  C   UNL A   1     -22.665   1.819  26.649  0.00  0.00    +0.022 C 
ATOM      7  C   UNL A   1     -22.776   0.973  27.676  0.00  0.00    +0.093 C 
ENDROOT
BRANCH   3   8
ATOM      8  C   UNL A   1     -26.241   1.550  25.419  0.00  0.00    -0.014 A 
ATOM      9  C   UNL A   1     -26.850   2.807  25.540  0.00  0.00    -0.004 A 
ATOM     10  C   UNL A   1     -26.632   0.661  24.451  0.00  0.00    -0.004 A 
ATOM     11  C   UNL A   1     -27.796   0.795  23.716  0.00  0.00    -0.000 A 
ATOM     12  C   UNL A   1     -28.032   3.043  24.742  0.00  0.00    -0.000 A 
ATOM     13  C   UNL A   1     -28.506   2.050  23.821  0.00  0.00    -0.000 A 
ENDBRANCH   3   8
BRANCH   4  14
ATOM     14  C   UNL A   1     -24.110  -0.548  29.079  0.00  0.00    +0.098 C 
BRANCH  14  15
ATOM     15  C   UNL A   1     -23.493  -1.814  29.005  0.00  0.00    +0.048 C 
BRANCH  15  16
ATOM     16  C   UNL A   1     -24.224  -2.873  29.130  0.00  0.00    -0.021 A 
ATOM     17  C   UNL A   1     -23.995  -4.029  28.757  0.00  0.00    -0.004 A 
ATOM     18  C   UNL A   1     -24.871  -5.136  29.016  0.00  0.00    -0.000 A 
ATOM     19  C   UNL A   1     -26.153  -4.934  29.561  0.00  0.00    -0.000 A 
ATOM     20  C   UNL A   1     -26.469  -3.602  29.942  0.00  0.00    -0.000 A 
ATOM     21  C   UNL A   1     -25.544  -2.640  29.778  0.00  0.00    -0.004 A 
ENDBRANCH  15  16
ENDBRANCH  14  15
ENDBRANCH   4  14
TORSDOF 4
ENDMDL
ENDMDL
