MODEL 4876
MODEL 1
REMARK VINA RESULT:    -7.420      0.000      0.000
REMARK INTER + INTRA:         -11.416
REMARK INTER:                 -10.457
REMARK INTRA:                  -0.959
REMARK UNBOUND:                -0.959
REMARK  Name = No_4876-gen_results/8p0m/2024-11-27-11-27-31/
REMARK  7 active torsions:
REMARK  status: ('A' for Active; 'I' for Inactive)
REMARK    1  A    between atoms: C_2  and  C_7
REMARK    2  A    between atoms: C_6  and  O_13
REMARK    3  A    between atoms: O_13  and  C_14
REMARK    4  A    between atoms: C_14  and  C_15
REMARK    5  A    between atoms: N_17  and  C_18
REMARK    6  A    between atoms: C_19  and  C_20
REMARK    7  A    between atoms: C_21  and  C_22
REMARK                            x       y       z     vdW  Elec       q    Type
REMARK                         _______ _______ _______ _____ _____    ______ ____
ROOT
ATOM      1  C   UNL A   1     -24.217  -0.414  28.027  0.00  0.00    +0.037 A 
ATOM      2  C   UNL A   1     -23.795  -1.319  28.710  0.00  0.00    +0.003 A 
ATOM      3  C   UNL A   1     -22.512  -1.277  29.244  0.00  0.00    +0.000 A 
ATOM      4  C   UNL A   1     -21.627  -0.176  28.961  0.00  0.00    +0.003 A 
ATOM      5  C   UNL A   1     -22.188   0.815  28.144  0.00  0.00    +0.037 A 
ATOM      6  C   UNL A   1     -23.401   0.720  27.651  0.00  0.00    +0.139 A 
ENDROOT
BRANCH   2   7
ATOM      7  C   UNL A   1     -24.556  -2.542  29.080  0.00  0.00    +0.000 A 
ATOM      8  C   UNL A   1     -25.757  -2.512  29.541  0.00  0.00    +0.000 A 
ATOM      9  C   UNL A   1     -26.547  -3.629  29.900  0.00  0.00    +0.000 A 
ATOM     10  C   UNL A   1     -26.042  -4.916  29.552  0.00  0.00    +0.000 A 
ATOM     11  C   UNL A   1     -24.816  -4.995  28.951  0.00  0.00    +0.000 A 
ATOM     12  C   UNL A   1     -24.038  -3.825  28.691  0.00  0.00    +0.000 A 
ENDBRANCH   2   7
BRANCH   6  13
ATOM     13  O   UNL A   1     -23.803   1.713  26.814  0.00  0.00    -0.466 OA
BRANCH  13  14
ATOM     14  C   UNL A   1     -24.467   1.534  25.623  0.00  0.00    +0.291 C 
BRANCH  14  15
ATOM     15  C   UNL A   1     -25.841   1.821  25.679  0.00  0.00    +0.290 C 
ATOM     16  O   UNL A   1     -26.127   2.852  26.338  0.00  0.00    -0.269 OA
ATOM     17  N   UNL A   1     -26.746   1.099  25.121  0.00  0.00    -0.175 NA
BRANCH  17  18
ATOM     18  C   UNL A   1     -28.166   1.421  25.180  0.00  0.00    +0.089 C 
ATOM     19  C   UNL A   1     -28.857   0.487  24.716  0.00  0.00    +0.018 C 
BRANCH  19  20
ATOM     20  C   UNL A   1     -28.358  -0.581  23.984  0.00  0.00    -0.001 C 
ATOM     21  C   UNL A   1     -29.234  -1.560  23.483  0.00  0.00    +0.009 C 
BRANCH  21  22
ATOM     22  C   UNL A   1     -30.437  -1.514  23.790  0.00  0.00    +0.208 C 
ATOM     23  O   UNL A   1     -30.571  -2.353  24.591  0.00  0.00    -0.215 OA
ENDBRANCH  21  22
ENDBRANCH  19  20
ENDBRANCH  17  18
ENDBRANCH  14  15
ENDBRANCH  13  14
ENDBRANCH   6  13
TORSDOF 7
ENDMDL
ENDMDL
