MODEL 4877
MODEL 1
REMARK VINA RESULT:    -5.311      0.000      0.000
REMARK INTER + INTRA:          -5.690
REMARK INTER:                  -5.622
REMARK INTRA:                  -0.068
REMARK UNBOUND:                -0.068
REMARK  Name = No_4877-gen_results/8p0m/2024-11-27-11-27-31/
REMARK  1 active torsions:
REMARK  status: ('A' for Active; 'I' for Inactive)
REMARK    1  A    between atoms: C_2  and  C_7
REMARK                            x       y       z     vdW  Elec       q    Type
REMARK                         _______ _______ _______ _____ _____    ______ ____
ROOT
ATOM      1  C   UNL A   1     -25.609  -2.569  29.562  0.00  0.00    +0.005 A 
ATOM      2  C   UNL A   1     -24.686  -2.796  29.106  0.00  0.00    +0.055 A 
ATOM      3  C   UNL A   1     -26.479  -3.709  29.892  0.00  0.00    +0.000 A 
ATOM      4  C   UNL A   1     -26.159  -4.851  29.583  0.00  0.00    +0.000 A 
ATOM      5  C   UNL A   1     -24.042  -4.075  28.755  0.00  0.00    +0.005 A 
ATOM      6  C   UNL A   1     -24.867  -5.130  28.998  0.00  0.00    +0.000 A 
ENDROOT
BRANCH   2   7
ATOM      7  C   UNL A   1     -23.653  -1.615  28.790  0.00  0.00    +0.265 C 
ATOM      8  O   UNL A   1     -22.593  -1.862  28.954  0.00  0.00    -0.268 OA
ATOM      9  N   UNL A   1     -24.117  -0.397  28.261  0.00  0.00    -0.200 NA
ATOM     10  C   UNL A   1     -23.146   0.600  27.929  0.00  0.00    +0.139 C 
ENDBRANCH   2   7
TORSDOF 1
ENDMDL
ENDMDL
