REMARK  Name = outputs/IAG933/test6/raw/output_4878_IAG933_linker_design_.xyz
REMARK  15 active torsions:
REMARK  status: ('A' for Active; 'I' for Inactive)
REMARK    1  A    between atoms: C_1  and  C_2
REMARK    2  A    between atoms: C_1  and  C_8
REMARK    3  A    between atoms: C_9  and  C_28
REMARK    4  A    between atoms: C_13  and  C_37
REMARK    5  A    between atoms: C_14  and  C_15
REMARK    6  A    between atoms: C_21  and  O_22
REMARK    7  A    between atoms: O_22  and  C_23
REMARK    8  A    between atoms: C_23  and  C_24
REMARK    9  A    between atoms: C_28  and  O_35
REMARK   10  A    between atoms: C_28  and  O_39
REMARK   11  A    between atoms: C_30  and  C_32
REMARK   12  A    between atoms: C_32  and  C_41
REMARK   13  A    between atoms: O_35  and  C_41
REMARK   14  A    between atoms: C_36  and  C_37
REMARK   15  A    between atoms: C_38  and  O_39
REMARK                            x       y       z     vdW  Elec       q    Type
REMARK                         _______ _______ _______ _____ _____    ______ ____
ROOT
ATOM      1  C   UNL A   1     -23.373   1.373  29.618  0.00  0.00    +0.149 C 
ENDROOT
BRANCH   1   2
ATOM      2  C   UNL A   1     -22.225   1.444  28.887  0.00  0.00    +0.058 C 
BRANCH   2   4
ATOM      3  C   UNL A   1     -22.893   2.292  25.210  0.00  0.00    +0.034 C 
ATOM      4  C   UNL A   1     -22.165   1.697  27.549  0.00  0.00    -0.025 C 
ATOM      5  C   UNL A   1     -23.150   1.732  26.717  0.00  0.00    +0.013 C 
BRANCH   5   6
ATOM      6  C   UNL A   1     -24.320   1.255  27.039  0.00  0.00    +0.194 C 
ATOM      7  O   UNL A   1     -24.222   0.298  27.587  0.00  0.00    -0.287 OA
BRANCH   6   8
ATOM      8  C   UNL A   1     -25.688   1.614  26.461  0.00  0.00    +0.077 C 
ATOM      9  C   UNL A   1     -26.250   2.920  26.395  0.00  0.00    +0.080 C 
ATOM     10  C   UNL A   1     -27.438   3.091  25.645  0.00  0.00    +0.107 C 
ATOM     11  N   UNL A   1     -28.075   2.089  25.003  0.00  0.00    -0.208 NA
ATOM     12  C   UNL A   1     -27.543   0.849  25.079  0.00  0.00    +0.253 C 
ATOM     13  C   UNL A   1     -26.354   0.576  25.777  0.00  0.00    +0.196 C 
ATOM     14  F   UNL A   1     -25.860  -0.681  25.795  0.00  0.00    -0.199 F 
BRANCH   9  15
ATOM     15  C   UNL A   1     -25.642   4.093  27.123  0.00  0.00    +0.267 C 
ATOM     16  N   UNL A   1     -25.614   5.252  26.449  0.00  0.00    -0.200 NA
ATOM     17  C   UNL A   1     -25.026   6.479  26.963  0.00  0.00    +0.139 C 
ATOM     18  O   UNL A   1     -25.143   3.966  28.243  0.00  0.00    -0.268 OA
ENDBRANCH   9  15
BRANCH  12  19
ATOM     19  O   UNL A   1     -28.193  -0.208  24.477  0.00  0.00    -0.456 OA
BRANCH  19  20
ATOM     20  C   UNL A   1     -29.460   0.005  23.866  0.00  0.00    +0.243 C 
BRANCH  20  21
ATOM     21  C   UNL A   1     -30.065  -1.377  23.573  0.00  0.00    +0.229 C 
ATOM     22  O   UNL A   1     -30.729  -1.878  24.721  0.00  0.00    -0.216 OA
ENDBRANCH  20  21
ENDBRANCH  19  20
ENDBRANCH  12  19
ENDBRANCH   6   8
ENDBRANCH   5   6
ENDBRANCH   2   4
ENDBRANCH   1   2
BRANCH   1  23
ATOM     23  O   UNL A   1     -24.840   1.820  29.757  0.00  0.00    -0.330 OA
BRANCH  23  24
ATOM     24  C   UNL A   1     -25.352   1.940  31.174  0.00  0.00    +0.236 C 
BRANCH  24  26
ATOM     25  C   UNL A   1     -25.387  -0.679  31.571  0.00  0.00    +0.082 C 
ATOM     26  C   UNL A   1     -25.189   0.773  32.028  0.00  0.00    +0.074 C 
ATOM     27  C   UNL A   1     -25.336   0.684  33.544  0.00  0.00    +0.025 C 
ATOM     28  C   UNL A   1     -24.829  -0.715  33.905  0.00  0.00    +0.089 C 
ATOM     29  N   UNL A   1     -24.758  -1.481  32.646  0.00  0.00    -0.219 NA
BRANCH  25  30
ATOM     30  C   UNL A   1     -24.855  -1.012  30.143  0.00  0.00    +0.044 C 
BRANCH  30  31
ATOM     31  C   UNL A   1     -24.973  -2.505  29.788  0.00  0.00    -0.021 C 
ATOM     32  C   UNL A   1     -23.906  -3.173  29.146  0.00  0.00    -0.004 C 
ATOM     33  C   UNL A   1     -23.989  -4.549  28.853  0.00  0.00    -0.000 C 
ATOM     34  C   UNL A   1     -25.137  -5.280  29.205  0.00  0.00    -0.000 C 
ATOM     35  C   UNL A   1     -26.232  -4.611  29.784  0.00  0.00    -0.000 C 
ATOM     36  C   UNL A   1     -26.155  -3.232  30.065  0.00  0.00    -0.004 C 
ENDBRANCH  30  31
ENDBRANCH  25  30
ENDBRANCH  24  26
BRANCH  24  37
ATOM     37  O   UNL A   1     -25.804   3.107  31.714  0.00  0.00    -0.331 OA
BRANCH  37  41
ATOM     38  O   UNL A   1     -24.897   6.748  33.828  0.00  0.00    -0.118 OA
ATOM     39  C   UNL A   1     -25.881   5.219  30.827  0.00  0.00    +0.051 C 
ATOM     40  C   UNL A   1     -24.278   4.671  32.587  0.00  0.00    +0.134 C 
ATOM     41  C   UNL A   1     -24.956   4.209  31.290  0.00  0.00    +0.138 C 
ATOM     42  N   UNL A   1     -25.067   5.899  32.885  0.00  0.00    -0.130 NA
ATOM     43  C   UNL A   1     -26.147   6.123  31.969  0.00  0.00    +0.107 C 
ENDBRANCH  37  41
ENDBRANCH  24  37
ENDBRANCH  23  24
ENDBRANCH   1  23
TORSDOF 15
