MODEL 4878
MODEL 1
REMARK VINA RESULT:    -6.394      0.000      0.000
REMARK INTER + INTRA:          -6.836
REMARK INTER:                  -6.767
REMARK INTRA:                  -0.069
REMARK UNBOUND:                -0.069
REMARK  Name = No_4878-gen_results/8p0m/2024-11-27-11-27-31/
REMARK  1 active torsions:
REMARK  status: ('A' for Active; 'I' for Inactive)
REMARK    1  A    between atoms: C_9  and  C_11
REMARK                            x       y       z     vdW  Elec       q    Type
REMARK                         _______ _______ _______ _____ _____    ______ ____
ROOT
ATOM      1  C   UNL A   1     -30.612  -9.829  29.589  0.00  0.00    +0.000 A 
ATOM      2  C   UNL A   1     -30.505 -10.187  28.604  0.00  0.00    +0.000 A 
ATOM      3  C   UNL A   1     -29.929 -10.514  30.618  0.00  0.00    +0.000 A 
ATOM      4  C   UNL A   1     -29.886 -10.077  32.038  0.00  0.00    +0.000 A 
ATOM      5  C   UNL A   1     -29.753 -11.333  28.063  0.00  0.00    +0.000 A 
ATOM      6  C   UNL A   1     -29.053 -12.061  29.026  0.00  0.00    +0.000 A 
ATOM      7  C   UNL A   1     -29.082 -11.648  30.319  0.00  0.00    +0.000 A 
ATOM      8  C   UNL A   1     -29.170 -10.214  32.906  0.00  0.00    +0.007 A 
ATOM      9  C   UNL A   1     -28.073 -11.250  32.603  0.00  0.00    +0.080 A 
ATOM     10  C   UNL A   1     -28.065 -11.927  31.361  0.00  0.00    +0.007 A 
ENDROOT
BRANCH   9  11
ATOM     11  C   UNL A   1     -27.135 -11.654  33.724  0.00  0.00    +0.388 C 
ATOM     12  O   UNL A   1     -26.835 -10.863  34.649  0.00  0.00    -0.241 OA
ATOM     13  O   UNL A   1     -26.652 -12.796  33.751  0.00  0.00    -0.241 OA
ENDBRANCH   9  11
TORSDOF 1
ENDMDL
ENDMDL
