MODEL 4879
MODEL 1
REMARK VINA RESULT:    -5.888      0.000      0.000
REMARK INTER + INTRA:         -13.514
REMARK INTER:                 -11.395
REMARK INTRA:                  -2.118
REMARK UNBOUND:                -2.118
REMARK  Name = No_4879-gen_results/8p0m/2024-11-27-11-27-31/
REMARK  16 active torsions:
REMARK  status: ('A' for Active; 'I' for Inactive)
REMARK    1  A    between atoms: C_1  and  C_2
REMARK    2  A    between atoms: C_1  and  C_8
REMARK    3  A    between atoms: C_3  and  C_20
REMARK    4  A    between atoms: C_5  and  C_10
REMARK    5  A    between atoms: C_7  and  C_17
REMARK    6  A    between atoms: C_8  and  N_9
REMARK    7  A    between atoms: N_9  and  C_14
REMARK    8  A    between atoms: N_9  and  C_27
REMARK    9  A    between atoms: C_14  and  O_16
REMARK   10  A    between atoms: O_16  and  C_22
REMARK   11  A    between atoms: C_22  and  C_23
REMARK   12  A    between atoms: C_23  and  C_24
REMARK   13  A    between atoms: C_27  and  C_28
REMARK   14  A    between atoms: C_28  and  C_29
REMARK   15  A    between atoms: C_29  and  P_30
REMARK   16  A    between atoms: P_30  and  O_33
REMARK                            x       y       z     vdW  Elec       q    Type
REMARK                         _______ _______ _______ _____ _____    ______ ____
ROOT
ATOM      1  C   UNL A   1     -23.424 -19.175   6.885  0.00  0.00    +0.082 C 
ENDROOT
BRANCH   1   2
ATOM      2  N   UNL A   1     -24.644 -18.730   6.420  0.00  0.00    -0.222 NA
BRANCH   2   3
ATOM      3  C   UNL A   1     -24.789 -17.709   5.889  0.00  0.00    +0.349 C 
ATOM      4  F   UNL A   1     -24.546 -17.756   4.614  0.00  0.00    -0.184 F 
BRANCH   3   5
ATOM      5  O   UNL A   1     -23.760 -16.742   6.379  0.00  0.00    -0.285 OA
BRANCH   5   6
ATOM      6  C   UNL A   1     -23.656 -15.487   5.921  0.00  0.00    +0.289 C 
ATOM      7  F   UNL A   1     -23.989 -14.522   6.643  0.00  0.00    -0.203 F 
BRANCH   6   8
ATOM      8  C   UNL A   1     -22.406 -15.318   5.173  0.00  0.00    +0.139 C 
BRANCH   8   9
ATOM      9  C   UNL A   1     -22.452 -14.137   4.429  0.00  0.00    +0.213 C 
ATOM     10  O   UNL A   1     -21.807 -13.992   3.387  0.00  0.00    -0.288 OA
ENDBRANCH   8   9
ENDBRANCH   6   8
ENDBRANCH   5   6
ENDBRANCH   3   5
ENDBRANCH   2   3
BRANCH   2  11
ATOM     11  C   UNL A   1     -25.766 -19.658   6.718  0.00  0.00    +0.077 C 
BRANCH  11  12
ATOM     12  C   UNL A   1     -26.162 -19.616   8.055  0.00  0.00    +0.030 C 
BRANCH  12  13
ATOM     13  C   UNL A   1     -27.271 -18.723   8.369  0.00  0.00    +0.122 C 
BRANCH  13  14
ATOM     14  P   UNL A   1     -26.839 -17.310   9.391  0.00  0.00    +0.400 P 
ATOM     15  O   UNL A   1     -26.203 -16.447   8.682  0.00  0.00    -0.253 OA
ATOM     16  O   UNL A   1     -26.023 -17.821  10.542  0.00  0.00    -0.138 OA
BRANCH  14  17
ATOM     17  O   UNL A   1     -28.228 -16.859   9.917  0.00  0.00    -0.104 OA
ATOM     18  F   UNL A   1     -29.009 -16.234   9.373  0.00  0.00    -0.039 F 
ENDBRANCH  14  17
ENDBRANCH  13  14
ENDBRANCH  12  13
ENDBRANCH  11  12
ENDBRANCH   2  11
ENDBRANCH   1   2
BRANCH   1  19
ATOM     19  C   UNL A   1     -23.035 -20.614   6.631  0.00  0.00    +0.044 C 
BRANCH  19  20
ATOM     20  C   UNL A   1     -21.837 -20.778   6.653  0.00  0.00    -0.015 A 
ATOM     21  C   UNL A   1     -21.002 -20.510   5.569  0.00  0.00    +0.019 A 
ATOM     22  C   UNL A   1     -19.539 -20.691   5.504  0.00  0.00    +0.003 A 
ATOM     23  C   UNL A   1     -18.893 -20.980   6.745  0.00  0.00    +0.071 A 
ATOM     24  C   UNL A   1     -19.691 -21.212   7.870  0.00  0.00    +0.010 A 
ATOM     25  C   UNL A   1     -21.039 -21.112   7.855  0.00  0.00    +0.076 A 
BRANCH  23  26
ATOM     26  C   UNL A   1     -17.447 -21.092   6.692  0.00  0.00    +0.419 C 
ATOM     27  F   UNL A   1     -16.883 -20.093   6.225  0.00  0.00    -0.166 F 
ATOM     28  F   UNL A   1     -16.832 -21.358   7.870  0.00  0.00    -0.166 F 
ATOM     29  F   UNL A   1     -17.032 -22.159   5.924  0.00  0.00    -0.166 F 
ENDBRANCH  23  26
BRANCH  21  30
ATOM     30  C   UNL A   1     -21.557 -20.142   4.216  0.00  0.00    +0.253 C 
ATOM     31 CL   UNL A   1     -21.735 -18.717   3.603  0.00  0.00    -0.074 Cl
ATOM     32  O   UNL A   1     -21.271 -21.040   3.180  0.00  0.00    -0.200 OA
ENDBRANCH  21  30
BRANCH  25  33
ATOM     33  C   UNL A   1     -21.836 -21.305   9.101  0.00  0.00    +0.387 C 
ATOM     34  O   UNL A   1     -22.206 -22.298   9.495  0.00  0.00    -0.241 OA
ATOM     35  O   UNL A   1     -22.010 -20.165   9.798  0.00  0.00    -0.241 OA
ENDBRANCH  25  33
ENDBRANCH  19  20
ENDBRANCH   1  19
TORSDOF 16
ENDMDL
ENDMDL
