MODEL 487
MODEL 1
REMARK VINA RESULT:    -3.488      0.000      0.000
REMARK INTER + INTRA:          -3.488
REMARK INTER:                  -3.488
REMARK INTRA:                   0.000
REMARK UNBOUND:                 0.000
REMARK  Name = No_487-gen_results/8p0m/2024-11-27-11-27-31/
REMARK  0 active torsions:
REMARK  status: ('A' for Active; 'I' for Inactive)
REMARK                            x       y       z     vdW  Elec       q    Type
REMARK                         _______ _______ _______ _____ _____    ______ ____
ROOT
ATOM      1  F   UNL A   1      -7.933 -10.517  19.538  0.00  0.00    -0.140 F 
ATOM      2  C   UNL A   1      -7.892  -9.663  20.301  0.00  0.00    +0.561 C 
ATOM      3  F   UNL A   1      -7.417  -8.648  19.940  0.00  0.00    -0.140 F 
ATOM      4  F   UNL A   1      -9.247  -9.421  20.680  0.00  0.00    -0.140 F 
ATOM      5  F   UNL A   1      -7.339 -10.150  21.437  0.00  0.00    -0.140 F 
ENDROOT
TORSDOF 0
ENDMDL
ENDMDL
