MODEL 4880
MODEL 1
REMARK VINA RESULT:    -4.462      0.000      0.000
REMARK INTER + INTRA:          -4.462
REMARK INTER:                  -4.462
REMARK INTRA:                   0.000
REMARK UNBOUND:                 0.000
REMARK  Name = No_4880-gen_results/8p0m/2024-11-27-11-27-31/
REMARK  0 active torsions:
REMARK  status: ('A' for Active; 'I' for Inactive)
REMARK                            x       y       z     vdW  Elec       q    Type
REMARK                         _______ _______ _______ _____ _____    ______ ____
ROOT
ATOM      1  C   UNL A   1      -9.227  -9.165  19.985  0.00  0.00    +0.011 A 
ATOM      2  C   UNL A   1      -8.218  -9.821  19.868  0.00  0.00    +0.058 A 
ATOM      3  C   UNL A   1      -8.043 -10.683  18.791  0.00  0.00    +0.011 A 
ATOM      4  C   UNL A   1      -9.079 -10.857  17.805  0.00  0.00    +0.001 A 
ATOM      5  C   UNL A   1     -10.221 -10.078  18.030  0.00  0.00    +0.000 A 
ATOM      6  C   UNL A   1     -10.344  -9.290  19.074  0.00  0.00    +0.001 A 
ATOM      7 CL   UNL A   1      -6.908  -9.777  20.970  0.00  0.00    -0.082 Cl
ENDROOT
TORSDOF 0
ENDMDL
ENDMDL
