REMARK  Name = No_4881-gen_results/8p0m/2024-11-27-11-27-31/
REMARK  3 active torsions:
REMARK  status: ('A' for Active; 'I' for Inactive)
REMARK    1  A    between atoms: C_5  and  C_6
REMARK    2  A    between atoms: C_12  and  C_13
REMARK    3  A    between atoms: C_21  and  C_22
REMARK                            x       y       z     vdW  Elec       q    Type
REMARK                         _______ _______ _______ _____ _____    ______ ____
ROOT
ATOM      1  C   UNL A   1     -28.016  -0.814  28.878  0.00  0.00    +0.037 A 
ATOM      2  C   UNL A   1     -27.064  -0.119  28.608  0.00  0.00    +0.142 A 
ATOM      3  C   UNL A   1     -26.972   0.714  27.506  0.00  0.00    +0.017 A 
ATOM      4  C   UNL A   1     -28.105   0.774  26.642  0.00  0.00    +0.006 A 
ATOM      5  C   UNL A   1     -29.204   0.118  27.048  0.00  0.00    +0.080 A 
ATOM      6  C   UNL A   1     -29.182  -0.676  28.117  0.00  0.00    +0.010 A 
ATOM      7  C   UNL A   1     -25.660   1.415  27.143  0.00  0.00    +0.052 C 
ATOM      8  C   UNL A   1     -25.150   2.343  28.144  0.00  0.00    -0.033 C 
ATOM      9  C   UNL A   1     -25.607   2.746  28.958  0.00  0.00    +0.051 C 
ATOM     10  C   UNL A   1     -23.614   2.567  27.791  0.00  0.00    +0.046 C 
ATOM     11  C   UNL A   1     -22.695   1.606  28.430  0.00  0.00    +0.117 C 
ATOM     12  N   UNL A   1     -22.494   0.554  28.051  0.00  0.00    -0.233 NA
ATOM     13  C   UNL A   1     -23.001  -0.455  28.195  0.00  0.00    +0.117 C 
ATOM     14  C   UNL A   1     -24.279  -0.600  28.824  0.00  0.00    +0.161 C 
ATOM     15  O   UNL A   1     -25.369   0.108  28.135  0.00  0.00    -0.453 OA
ENDROOT
BRANCH  14  16
ATOM     16  C   UNL A   1     -24.739  -1.896  29.244  0.00  0.00    +0.036 A 
ATOM     17  C   UNL A   1     -24.757  -2.920  28.386  0.00  0.00    +0.003 A 
ATOM     18  C   UNL A   1     -25.161  -4.229  28.920  0.00  0.00    +0.000 A 
ATOM     19  C   UNL A   1     -26.149  -4.233  29.968  0.00  0.00    +0.000 A 
ATOM     20  C   UNL A   1     -26.434  -3.060  30.658  0.00  0.00    +0.000 A 
ATOM     21  C   UNL A   1     -25.720  -1.840  30.355  0.00  0.00    +0.003 A 
ENDBRANCH  14  16
BRANCH   9  22
ATOM     22  C   UNL A   1     -25.926   3.644  29.741  0.00  0.00    +0.264 C 
ATOM     23  N   UNL A   1     -26.754   3.571  30.603  0.00  0.00    -0.200 NA
ATOM     24  C   UNL A   1     -27.342   4.445  31.323  0.00  0.00    +0.139 C 
ATOM     25  O   UNL A   1     -25.344   4.785  29.515  0.00  0.00    -0.268 OA
ENDBRANCH   9  22
BRANCH   5  26
ATOM     26  C   UNL A   1     -30.349   0.257  26.220  0.00  0.00    +0.388 C 
ATOM     27  O   UNL A   1     -31.339  -0.235  26.500  0.00  0.00    -0.241 OA
ATOM     28  O   UNL A   1     -30.278   0.865  25.027  0.00  0.00    -0.241 OA
ENDBRANCH   5  26
TORSDOF 3
