REMARK  Name = outputs/IAG933/test6/raw/output_4882_IAG933_linker_design_.xyz
REMARK  13 active torsions:
REMARK  status: ('A' for Active; 'I' for Inactive)
REMARK    1  A    between atoms: C_1  and  C_2
REMARK    2  A    between atoms: C_1  and  C_8
REMARK    3  A    between atoms: C_1  and  N_42
REMARK    4  A    between atoms: C_13  and  C_29
REMARK    5  A    between atoms: C_14  and  C_15
REMARK    6  A    between atoms: C_21  and  O_22
REMARK    7  A    between atoms: O_22  and  C_23
REMARK    8  A    between atoms: C_23  and  C_24
REMARK    9  A    between atoms: C_32  and  C_33
REMARK   10  A    between atoms: C_32  and  O_45
REMARK   11  A    between atoms: C_34  and  N_43
REMARK   12  A    between atoms: C_34  and  O_45
REMARK   13  A    between atoms: C_37  and  N_42
REMARK                            x       y       z     vdW  Elec       q    Type
REMARK                         _______ _______ _______ _____ _____    ______ ____
ROOT
ATOM      1  O   UNL A   1     -26.523   1.745  29.379  0.00  0.00    -0.250 OA
ATOM      2  N   UNL A   1     -25.013  -0.005  29.002  0.00  0.00    -0.238 N 
ATOM      3  N   UNL A   1     -27.384  -0.337  29.341  0.00  0.00    -0.143 NA
ATOM      4  C   UNL A   1     -26.378   0.564  29.122  0.00  0.00    +0.330 C 
ENDROOT
BRANCH   2   7
ATOM      5  C   UNL A   1     -24.202   1.364  27.047  0.00  0.00    +0.016 C 
ATOM      6  C   UNL A   1     -21.588   1.176  27.904  0.00  0.00    +0.001 C 
ATOM      7  C   UNL A   1     -23.850   0.586  28.259  0.00  0.00    +0.056 C 
ATOM      8  C   UNL A   1     -23.228   2.030  26.354  0.00  0.00    +0.001 C 
ATOM      9  C   UNL A   1     -21.911   1.966  26.815  0.00  0.00    +0.000 C 
ATOM     10  C   UNL A   1     -22.561   0.473  28.579  0.00  0.00    +0.015 C 
BRANCH   5  11
ATOM     11  C   UNL A   1     -25.688   1.614  26.461  0.00  0.00    +0.039 C 
ATOM     12  C   UNL A   1     -26.250   2.920  26.395  0.00  0.00    +0.077 C 
ATOM     13  C   UNL A   1     -27.438   3.091  25.645  0.00  0.00    +0.107 C 
ATOM     14  N   UNL A   1     -28.075   2.089  25.003  0.00  0.00    -0.208 NA
ATOM     15  C   UNL A   1     -27.543   0.849  25.079  0.00  0.00    +0.253 C 
ATOM     16  C   UNL A   1     -26.354   0.576  25.777  0.00  0.00    +0.193 C 
ATOM     17  F   UNL A   1     -25.860  -0.681  25.795  0.00  0.00    -0.199 F 
BRANCH  12  18
ATOM     18  C   UNL A   1     -25.642   4.093  27.123  0.00  0.00    +0.266 C 
ATOM     19  N   UNL A   1     -25.614   5.252  26.449  0.00  0.00    -0.200 NA
ATOM     20  C   UNL A   1     -25.026   6.479  26.963  0.00  0.00    +0.139 C 
ATOM     21  O   UNL A   1     -25.143   3.966  28.243  0.00  0.00    -0.268 OA
ENDBRANCH  12  18
BRANCH  15  22
ATOM     22  O   UNL A   1     -28.193  -0.208  24.477  0.00  0.00    -0.456 OA
BRANCH  22  23
ATOM     23  C   UNL A   1     -29.460   0.005  23.866  0.00  0.00    +0.243 C 
BRANCH  23  24
ATOM     24  C   UNL A   1     -30.065  -1.377  23.573  0.00  0.00    +0.229 C 
ATOM     25  O   UNL A   1     -30.729  -1.878  24.721  0.00  0.00    -0.216 OA
ENDBRANCH  23  24
ENDBRANCH  22  23
ENDBRANCH  15  22
ENDBRANCH   5  11
ENDBRANCH   2   7
BRANCH   2  26
ATOM     26  C   UNL A   1     -24.855  -1.012  30.143  0.00  0.00    +0.120 C 
BRANCH  26  27
ATOM     27  C   UNL A   1     -24.973  -2.505  29.788  0.00  0.00    -0.003 C 
ATOM     28  C   UNL A   1     -23.906  -3.173  29.146  0.00  0.00    -0.003 C 
ATOM     29  C   UNL A   1     -23.989  -4.549  28.853  0.00  0.00    -0.000 C 
ATOM     30  C   UNL A   1     -25.137  -5.280  29.205  0.00  0.00    -0.000 C 
ATOM     31  C   UNL A   1     -26.232  -4.611  29.784  0.00  0.00    -0.000 C 
ATOM     32  C   UNL A   1     -26.155  -3.232  30.065  0.00  0.00    -0.003 C 
ENDBRANCH  26  27
BRANCH  26  33
ATOM     33  C   UNL A   1     -25.387  -0.679  31.571  0.00  0.00    +0.096 C 
ATOM     34  C   UNL A   1     -25.189   0.773  32.028  0.00  0.00    +0.021 C 
ATOM     35  C   UNL A   1     -25.336   0.684  33.544  0.00  0.00    +0.020 C 
ATOM     36  C   UNL A   1     -24.829  -0.715  33.905  0.00  0.00    +0.089 C 
ATOM     37  N   UNL A   1     -24.758  -1.481  32.646  0.00  0.00    -0.217 NA
ENDBRANCH  26  33
ENDBRANCH   2  26
BRANCH   3  38
ATOM     38  C   UNL A   1     -28.662  -0.621  28.938  0.00  0.00    +0.329 C 
BRANCH  38  39
ATOM     39  O   UNL A   1     -29.103  -0.305  27.598  0.00  0.00    -0.425 OA
BRANCH  39  40
ATOM     40  C   UNL A   1     -30.460  -0.051  27.732  0.00  0.00    +0.318 C 
ATOM     41  O   UNL A   1     -31.169  -1.221  27.704  0.00  0.00    -0.250 OA
BRANCH  40  45
ATOM     42  C   UNL A   1     -31.475   2.090  26.851  0.00  0.00    +0.011 C 
ATOM     43  C   UNL A   1     -31.640   3.432  27.539  0.00  0.00    +0.001 C 
ATOM     44  C   UNL A   1     -30.500   3.538  28.500  0.00  0.00    +0.001 C 
ATOM     45  C   UNL A   1     -30.982   1.279  28.032  0.00  0.00    +0.099 C 
ATOM     46  C   UNL A   1     -29.946   2.153  28.701  0.00  0.00    +0.011 C 
ENDBRANCH  40  45
ENDBRANCH  39  40
ENDBRANCH  38  39
ENDBRANCH   3  38
TORSDOF 13
