MODEL 4882
MODEL 1
REMARK VINA RESULT:    -4.323      0.000      0.000
REMARK INTER + INTRA:          -4.323
REMARK INTER:                  -4.323
REMARK INTRA:                   0.000
REMARK UNBOUND:                 0.000
REMARK  Name = No_4882-gen_results/8p0m/2024-11-27-11-27-31/
REMARK  0 active torsions:
REMARK  status: ('A' for Active; 'I' for Inactive)
REMARK                            x       y       z     vdW  Elec       q    Type
REMARK                         _______ _______ _______ _____ _____    ______ ____
ROOT
ATOM      1  C   UNL A   1     -23.995  -4.032  28.818  0.00  0.00    +0.011 A 
ATOM      2  C   UNL A   1     -24.272  -3.087  29.192  0.00  0.00    +0.058 A 
ATOM      3  C   UNL A   1     -25.001  -5.139  29.039  0.00  0.00    +0.001 A 
ATOM      4  C   UNL A   1     -26.266  -4.826  29.581  0.00  0.00    +0.000 A 
ATOM      5  C   UNL A   1     -25.510  -2.498  29.751  0.00  0.00    +0.011 A 
ATOM      6  C   UNL A   1     -26.462  -3.485  29.963  0.00  0.00    +0.001 A 
ATOM      7 CL   UNL A   1     -23.064  -1.745  28.918  0.00  0.00    -0.082 Cl
ENDROOT
TORSDOF 0
ENDMDL
ENDMDL
