REMARK  Name = outputs/IAG933/test6/raw/output_4883_IAG933_linker_design_.xyz
REMARK  16 active torsions:
REMARK  status: ('A' for Active; 'I' for Inactive)
REMARK    1  A    between atoms: C_1  and  C_2
REMARK    2  A    between atoms: C_1  and  C_8
REMARK    3  A    between atoms: C_1  and  C_29
REMARK    4  A    between atoms: C_13  and  C_39
REMARK    5  A    between atoms: C_14  and  C_15
REMARK    6  A    between atoms: C_21  and  O_22
REMARK    7  A    between atoms: O_22  and  C_23
REMARK    8  A    between atoms: C_23  and  C_24
REMARK    9  A    between atoms: C_28  and  C_39
REMARK   10  A    between atoms: C_28  and  O_41
REMARK   11  A    between atoms: C_29  and  C_38
REMARK   12  A    between atoms: C_30  and  C_31
REMARK   13  A    between atoms: C_30  and  O_35
REMARK   14  A    between atoms: C_31  and  C_42
REMARK   15  A    between atoms: O_35  and  C_45
REMARK   16  A    between atoms: C_38  and  C_42
REMARK                            x       y       z     vdW  Elec       q    Type
REMARK                         _______ _______ _______ _____ _____    ______ ____
ROOT
ATOM      1  C   UNL A   1     -24.299   0.602  28.265  0.00  0.00    +0.112 C 
ATOM      2  C   UNL A   1     -25.362  -0.133  28.900  0.00  0.00    -0.009 C 
ENDROOT
BRANCH   1   4
ATOM      3  C   UNL A   1     -21.806   0.977  28.152  0.00  0.00    +0.252 C 
ATOM      4  O   UNL A   1     -23.080   0.741  28.817  0.00  0.00    -0.476 OA
ENDBRANCH   1   4
BRANCH   1   6
ATOM      5  C   UNL A   1     -23.246   1.788  25.889  0.00  0.00    +0.013 C 
ATOM      6  C   UNL A   1     -24.355   1.269  26.867  0.00  0.00    +0.081 C 
BRANCH   6   7
ATOM      7  C   UNL A   1     -25.688   1.614  26.461  0.00  0.00    +0.023 C 
ATOM      8  C   UNL A   1     -26.250   2.920  26.395  0.00  0.00    +0.073 C 
ATOM      9  C   UNL A   1     -27.438   3.091  25.645  0.00  0.00    +0.106 C 
ATOM     10  N   UNL A   1     -28.075   2.089  25.003  0.00  0.00    -0.208 NA
ATOM     11  C   UNL A   1     -27.543   0.849  25.079  0.00  0.00    +0.253 C 
ATOM     12  C   UNL A   1     -26.354   0.576  25.777  0.00  0.00    +0.190 C 
ATOM     13  F   UNL A   1     -25.860  -0.681  25.795  0.00  0.00    -0.200 F 
BRANCH   8  14
ATOM     14  C   UNL A   1     -25.642   4.093  27.123  0.00  0.00    +0.266 C 
ATOM     15  N   UNL A   1     -25.614   5.252  26.449  0.00  0.00    -0.200 NA
ATOM     16  C   UNL A   1     -25.026   6.479  26.963  0.00  0.00    +0.139 C 
ATOM     17  O   UNL A   1     -25.143   3.966  28.243  0.00  0.00    -0.268 OA
ENDBRANCH   8  14
BRANCH  11  18
ATOM     18  O   UNL A   1     -28.193  -0.208  24.477  0.00  0.00    -0.456 OA
BRANCH  18  19
ATOM     19  C   UNL A   1     -29.460   0.005  23.866  0.00  0.00    +0.243 C 
BRANCH  19  20
ATOM     20  C   UNL A   1     -30.065  -1.377  23.573  0.00  0.00    +0.229 C 
ATOM     21  O   UNL A   1     -30.729  -1.878  24.721  0.00  0.00    -0.216 OA
ENDBRANCH  19  20
ENDBRANCH  18  19
ENDBRANCH  11  18
ENDBRANCH   6   7
ENDBRANCH   1   6
BRANCH   2  22
ATOM     22  C   UNL A   1     -24.855  -1.012  30.143  0.00  0.00    +0.059 C 
BRANCH  22  23
ATOM     23  C   UNL A   1     -24.973  -2.505  29.788  0.00  0.00    -0.017 C 
ATOM     24  C   UNL A   1     -23.906  -3.173  29.146  0.00  0.00    -0.004 C 
ATOM     25  C   UNL A   1     -23.989  -4.549  28.853  0.00  0.00    -0.000 C 
ATOM     26  C   UNL A   1     -25.137  -5.280  29.205  0.00  0.00    -0.000 C 
ATOM     27  C   UNL A   1     -26.232  -4.611  29.784  0.00  0.00    -0.000 C 
ATOM     28  C   UNL A   1     -26.155  -3.232  30.065  0.00  0.00    -0.004 C 
ENDBRANCH  22  23
BRANCH  22  29
ATOM     29  C   UNL A   1     -25.387  -0.679  31.571  0.00  0.00    +0.081 C 
ATOM     30  C   UNL A   1     -25.189   0.773  32.028  0.00  0.00    +0.019 C 
ATOM     31  C   UNL A   1     -25.336   0.684  33.544  0.00  0.00    +0.020 C 
ATOM     32  C   UNL A   1     -24.829  -0.715  33.905  0.00  0.00    +0.089 C 
ATOM     33  N   UNL A   1     -24.758  -1.481  32.646  0.00  0.00    -0.219 NA
ENDBRANCH  22  29
ENDBRANCH   2  22
BRANCH   2  34
ATOM     34  C   UNL A   1     -26.749  -0.454  28.619  0.00  0.00    +0.026 C 
BRANCH  34  35
ATOM     35  C   UNL A   1     -27.713  -0.169  29.363  0.00  0.00    +0.016 C 
BRANCH  35  36
ATOM     36  C   UNL A   1     -28.707   0.784  29.559  0.00  0.00    +0.110 C 
BRANCH  36  37
ATOM     37  C   UNL A   1     -28.969   0.929  31.043  0.00  0.00    +0.317 C 
ATOM     38  O   UNL A   1     -29.592  -0.041  31.656  0.00  0.00    -0.250 OA
BRANCH  37  39
ATOM     39  O   UNL A   1     -28.631   2.070  31.568  0.00  0.00    -0.452 OA
BRANCH  39  45
ATOM     40  N   UNL A   1     -28.379   4.609  32.416  0.00  0.00    -0.218 NA
ATOM     41  C   UNL A   1     -29.763   4.244  32.056  0.00  0.00    +0.092 C 
ATOM     42  C   UNL A   1     -27.361   3.783  33.085  0.00  0.00    +0.092 C 
ATOM     43  C   UNL A   1     -30.328   2.951  32.809  0.00  0.00    +0.062 C 
ATOM     44  C   UNL A   1     -28.117   2.704  33.865  0.00  0.00    +0.062 C 
ATOM     45  C   UNL A   1     -29.128   2.084  32.927  0.00  0.00    +0.172 C 
ENDBRANCH  39  45
ENDBRANCH  37  39
ENDBRANCH  36  37
ENDBRANCH  35  36
ENDBRANCH  34  35
ENDBRANCH   2  34
TORSDOF 16
