REMARK  Name = outputs/IAG933/test6/raw/output_4884_IAG933_linker_design_.xyz
REMARK  8 active torsions:
REMARK  status: ('A' for Active; 'I' for Inactive)
REMARK    1  A    between atoms: C_1  and  C_2
REMARK    2  A    between atoms: C_1  and  C_8
REMARK    3  A    between atoms: C_1  and  N_32
REMARK    4  A    between atoms: C_21  and  O_22
REMARK    5  A    between atoms: O_22  and  C_23
REMARK    6  A    between atoms: C_23  and  C_24
REMARK    7  A    between atoms: C_29  and  C_39
REMARK    8  A    between atoms: C_29  and  C_40
REMARK                            x       y       z     vdW  Elec       q    Type
REMARK                         _______ _______ _______ _____ _____    ______ ____
ROOT
ATOM      1  C   UNL A   1     -25.688   1.614  26.461  0.00  0.00    +0.082 C 
ATOM      2  C   UNL A   1     -26.250   2.920  26.395  0.00  0.00    +0.053 C 
ATOM      3  C   UNL A   1     -25.642   4.093  27.123  0.00  0.00    +0.218 C 
ATOM      4  N   UNL A   1     -25.614   5.252  26.449  0.00  0.00    -0.236 NA
ATOM      5  C   UNL A   1     -25.026   6.479  26.963  0.00  0.00    +0.155 C 
ATOM      6  O   UNL A   1     -25.143   3.966  28.243  0.00  0.00    -0.463 OA
ATOM      7  C   UNL A   1     -27.438   3.091  25.645  0.00  0.00    +0.102 C 
ATOM      8  N   UNL A   1     -28.075   2.089  25.003  0.00  0.00    -0.212 NA
ATOM      9  C   UNL A   1     -27.543   0.849  25.079  0.00  0.00    +0.234 C 
ATOM     10  C   UNL A   1     -26.354   0.576  25.777  0.00  0.00    +0.241 C 
ATOM     11  F   UNL A   1     -25.860  -0.681  25.795  0.00  0.00    -0.227 F 
ATOM     12  C   UNL A   1     -24.837   0.236  28.114  0.00  0.00    +0.085 C 
ATOM     13  C   UNL A   1     -22.101   1.447  27.646  0.00  0.00    +0.294 C 
ATOM     14  C   UNL A   1     -24.651   1.478  27.564  0.00  0.00    +0.115 C 
ATOM     15  N   UNL A   1     -24.100  -0.073  29.435  0.00  0.00    -0.254 NA
ATOM     16  O   UNL A   1     -23.152   2.219  25.750  0.00  0.00    -0.291 OA
ATOM     17  F   UNL A   1     -20.977   1.748  27.157  0.00  0.00    -0.209 F 
ATOM     18  C   UNL A   1     -23.309   1.675  26.852  0.00  0.00    +0.204 C 
ATOM     19  C   UNL A   1     -22.673   0.008  29.717  0.00  0.00    +0.167 C 
ATOM     20  C   UNL A   1     -24.705   2.630  28.764  0.00  0.00    +0.187 C 
ATOM     21  N   UNL A   1     -22.087   1.092  28.958  0.00  0.00    -0.163 NA
ENDROOT
BRANCH  15  22
ATOM     22  C   UNL A   1     -24.855  -1.012  30.143  0.00  0.00    +0.097 C 
BRANCH  22  23
ATOM     23  C   UNL A   1     -24.973  -2.505  29.788  0.00  0.00    -0.006 C 
ATOM     24  C   UNL A   1     -23.906  -3.173  29.146  0.00  0.00    -0.003 C 
ATOM     25  C   UNL A   1     -23.989  -4.549  28.853  0.00  0.00    -0.000 C 
ATOM     26  C   UNL A   1     -25.137  -5.280  29.205  0.00  0.00    -0.000 C 
ATOM     27  C   UNL A   1     -26.232  -4.611  29.784  0.00  0.00    -0.000 C 
ATOM     28  C   UNL A   1     -26.155  -3.232  30.065  0.00  0.00    -0.003 C 
ENDBRANCH  22  23
BRANCH  22  29
ATOM     29  C   UNL A   1     -25.387  -0.679  31.571  0.00  0.00    +0.092 C 
ATOM     30  C   UNL A   1     -25.189   0.773  32.028  0.00  0.00    +0.021 C 
ATOM     31  C   UNL A   1     -25.336   0.684  33.544  0.00  0.00    +0.020 C 
ATOM     32  C   UNL A   1     -24.829  -0.715  33.905  0.00  0.00    +0.089 C 
ATOM     33  N   UNL A   1     -24.758  -1.481  32.646  0.00  0.00    -0.218 NA
ENDBRANCH  22  29
ENDBRANCH  15  22
BRANCH   9  34
ATOM     34  O   UNL A   1     -28.193  -0.208  24.477  0.00  0.00    -0.459 OA
BRANCH  34  35
ATOM     35  C   UNL A   1     -29.460   0.005  23.866  0.00  0.00    +0.242 C 
BRANCH  35  36
ATOM     36  C   UNL A   1     -30.065  -1.377  23.573  0.00  0.00    +0.229 C 
ATOM     37  O   UNL A   1     -30.729  -1.878  24.721  0.00  0.00    -0.216 OA
ENDBRANCH  35  36
ENDBRANCH  34  35
ENDBRANCH   9  34
BRANCH  20  38
ATOM     38  C   UNL A   1     -25.896   2.538  29.911  0.00  0.00    +0.158 C 
BRANCH  38  41
ATOM     39  O   UNL A   1     -26.379   4.878  30.628  0.00  0.00    -0.245 OA
ATOM     40  O   UNL A   1     -27.815   3.358  31.212  0.00  0.00    -0.245 OA
ATOM     41  C   UNL A   1     -26.768   3.745  30.618  0.00  0.00    +0.368 C 
ENDBRANCH  38  41
ENDBRANCH  20  38
TORSDOF 8
