MODEL 4884
MODEL 1
REMARK VINA RESULT:    -4.773      0.000      0.000
REMARK INTER + INTRA:          -4.773
REMARK INTER:                  -4.773
REMARK INTRA:                   0.000
REMARK UNBOUND:                 0.000
REMARK  Name = No_4884-gen_results/8p0m/2024-11-27-11-27-31/
REMARK  0 active torsions:
REMARK  status: ('A' for Active; 'I' for Inactive)
REMARK                            x       y       z     vdW  Elec       q    Type
REMARK                         _______ _______ _______ _____ _____    ______ ____
ROOT
ATOM      1  C   UNL A   1     -10.278  -9.042  19.680  0.00  0.00    -0.000 A 
ATOM      2  C   UNL A   1      -9.425  -9.206  20.277  0.00  0.00    -0.004 A 
ATOM      3  C   UNL A   1     -10.243  -9.761  18.400  0.00  0.00    -0.000 A 
ATOM      4  C   UNL A   1      -9.156 -10.403  17.969  0.00  0.00    -0.000 A 
ATOM      5  C   UNL A   1      -8.148  -9.828  20.025  0.00  0.00    -0.022 A 
ATOM      6  C   UNL A   1      -7.042  -9.876  20.922  0.00  0.00    +0.031 C 
ATOM      7  C   UNL A   1      -8.138 -10.457  18.819  0.00  0.00    -0.004 A 
ENDROOT
TORSDOF 0
ENDMDL
ENDMDL
