MODEL 4885
MODEL 1
REMARK VINA RESULT:    -6.940      0.000      0.000
REMARK INTER + INTRA:          -8.508
REMARK INTER:                  -7.752
REMARK INTRA:                  -0.756
REMARK UNBOUND:                -0.756
REMARK  Name = No_4885-gen_results/8p0m/2024-11-27-11-27-31/
REMARK  2 active torsions:
REMARK  status: ('A' for Active; 'I' for Inactive)
REMARK    1  A    between atoms: C_3  and  C_7
REMARK    2  A    between atoms: C_7  and  C_8
REMARK                            x       y       z     vdW  Elec       q    Type
REMARK                         _______ _______ _______ _____ _____    ______ ____
ROOT
ATOM      1  C   UNL A   1     -25.355  -1.248  28.760  0.00  0.00    +0.044 C 
ATOM      2  C   UNL A   1     -26.636  -0.789  29.271  0.00  0.00    +0.009 C 
ENDROOT
BRANCH   1   5
ATOM      3  C   UNL A   1     -22.716   1.299  28.608  0.00  0.00    -0.000 A 
ATOM      4  C   UNL A   1     -23.419   0.385  28.972  0.00  0.00    -0.004 A 
ATOM      5  C   UNL A   1     -24.413  -0.208  28.212  0.00  0.00    -0.022 A 
ATOM      6  C   UNL A   1     -24.595   0.283  26.885  0.00  0.00    -0.025 A 
ATOM      7  C   UNL A   1     -23.700   1.186  26.452  0.00  0.00    -0.005 A 
ATOM      8  C   UNL A   1     -22.766   1.657  27.227  0.00  0.00    -0.000 A 
ATOM      9  C   UNL A   1     -25.611  -0.321  26.026  0.00  0.00    +0.031 C 
ENDBRANCH   1   5
BRANCH   1  10
ATOM     10  C   UNL A   1     -24.906  -2.443  29.184  0.00  0.00    -0.018 A 
ATOM     11  C   UNL A   1     -23.956  -3.242  28.543  0.00  0.00    -0.004 A 
ATOM     12  C   UNL A   1     -24.033  -4.657  28.538  0.00  0.00    -0.000 A 
ATOM     13  C   UNL A   1     -25.141  -5.256  29.114  0.00  0.00    -0.000 A 
ATOM     14  C   UNL A   1     -26.227  -4.522  29.632  0.00  0.00    -0.000 A 
ATOM     15  C   UNL A   1     -26.106  -3.181  29.793  0.00  0.00    -0.004 A 
ENDBRANCH   1  10
TORSDOF 2
ENDMDL
ENDMDL
