MODEL 4886
MODEL 1
REMARK VINA RESULT:    -6.480      0.000      0.000
REMARK INTER + INTRA:          -9.506
REMARK INTER:                  -7.995
REMARK INTRA:                  -1.511
REMARK UNBOUND:                -1.511
REMARK  Name = No_4886-gen_results/8p0m/2024-11-27-11-27-31/
REMARK  4 active torsions:
REMARK  status: ('A' for Active; 'I' for Inactive)
REMARK    1  A    between atoms: C_3  and  C_7
REMARK    2  A    between atoms: C_7  and  C_9
REMARK    3  A    between atoms: C_9  and  C_10
REMARK    4  A    between atoms: C_10  and  C_11
REMARK                            x       y       z     vdW  Elec       q    Type
REMARK                         _______ _______ _______ _____ _____    ______ ____
ROOT
ATOM      1  C   UNL A   1     -22.317  -0.280  29.619  0.00  0.00    +0.009 C 
ENDROOT
BRANCH   1   2
ATOM      2  C   UNL A   1     -23.040  -1.031  30.516  0.00  0.00    +0.023 C 
ATOM      3  C   UNL A   1     -22.783  -0.999  31.882  0.00  0.00    +0.005 C 
BRANCH   2   6
ATOM      4  C   UNL A   1     -23.876  -3.056  29.157  0.00  0.00    -0.004 A 
ATOM      5  C   UNL A   1     -24.720  -3.662  28.980  0.00  0.00    -0.000 A 
ATOM      6  C   UNL A   1     -24.123  -1.971  30.106  0.00  0.00    -0.022 A 
ATOM      7  C   UNL A   1     -25.343  -1.794  30.711  0.00  0.00    -0.004 A 
ATOM      8  C   UNL A   1     -26.098  -3.715  29.466  0.00  0.00    -0.000 A 
ATOM      9  C   UNL A   1     -26.348  -2.669  30.386  0.00  0.00    -0.000 A 
ENDBRANCH   2   6
ENDBRANCH   1   2
BRANCH   1  10
ATOM     10  C   UNL A   1     -22.796   0.878  29.063  0.00  0.00    +0.026 C 
BRANCH  10  11
ATOM     11  C   UNL A   1     -23.304   0.917  27.874  0.00  0.00    -0.026 A 
ATOM     12  C   UNL A   1     -22.975   1.773  27.046  0.00  0.00    -0.005 A 
ATOM     13  C   UNL A   1     -23.592   1.885  25.727  0.00  0.00    -0.000 A 
ATOM     14  C   UNL A   1     -24.541   0.936  25.417  0.00  0.00    -0.000 A 
ATOM     15  C   UNL A   1     -24.985   0.032  26.297  0.00  0.00    -0.005 A 
ATOM     16  C   UNL A   1     -24.351   0.378  27.644  0.00  0.00    -0.026 A 
ATOM     17  C   UNL A   1     -25.633   1.217  28.296  0.00  0.00    +0.031 C 
ENDBRANCH  10  11
ENDBRANCH   1  10
TORSDOF 4
ENDMDL
ENDMDL
