REMARK  Name = No_4887-gen_results/8p0m/2024-11-27-11-27-31/
REMARK  5 active torsions:
REMARK  status: ('A' for Active; 'I' for Inactive)
REMARK    1  A    between atoms: C_2  and  C_15
REMARK    2  A    between atoms: C_8  and  C_11
REMARK    3  A    between atoms: C_15  and  O_17
REMARK    4  A    between atoms: O_17  and  C_18
REMARK    5  A    between atoms: C_19  and  C_20
REMARK                            x       y       z     vdW  Elec       q    Type
REMARK                         _______ _______ _______ _____ _____    ______ ____
ROOT
ATOM      1  C   UNL A   1     -28.016  -0.814  28.878  0.00  0.00    +0.018 A 
ATOM      2  C   UNL A   1     -27.064  -0.119  28.608  0.00  0.00    +0.077 A 
ATOM      3  C   UNL A   1     -25.765  -0.390  29.036  0.00  0.00    +0.006 A 
ATOM      4  C   UNL A   1     -25.530  -1.530  29.901  0.00  0.00    +0.001 A 
ATOM      5  C   UNL A   1     -26.689  -2.289  30.181  0.00  0.00    +0.011 A 
ATOM      6  C   UNL A   1     -27.873  -1.951  29.737  0.00  0.00    +0.058 A 
ATOM      7  C   UNL A   1     -24.549   0.410  28.734  0.00  0.00    +0.005 A 
ATOM      8  C   UNL A   1     -23.331   0.044  29.057  0.00  0.00    +0.057 A 
ATOM      9  C   UNL A   1     -23.191  -1.221  29.741  0.00  0.00    +0.005 A 
ATOM     10  C   UNL A   1     -24.219  -1.960  30.201  0.00  0.00    +0.000 A 
ATOM     11 CL   UNL A   1     -29.214  -2.971  30.313  0.00  0.00    -0.082 Cl
ENDROOT
BRANCH   8  12
ATOM     12  C   UNL A   1     -22.033   0.570  28.702  0.00  0.00    +0.284 C 
ATOM     13  N   UNL A   1     -21.973   1.782  28.085  0.00  0.00    -0.084 NA
ATOM     14  O   UNL A   1     -20.926  -0.033  28.842  0.00  0.00    -0.267 OA
ENDBRANCH   8  12
BRANCH   2  15
ATOM     15  C   UNL A   1     -27.196   1.072  27.671  0.00  0.00    +0.346 C 
ATOM     16  O   UNL A   1     -27.426   0.869  26.491  0.00  0.00    -0.244 OA
BRANCH  15  17
ATOM     17  O   UNL A   1     -27.014   2.265  28.154  0.00  0.00    -0.418 OA
BRANCH  17  18
ATOM     18  C   UNL A   1     -26.671   3.321  27.393  0.00  0.00    +0.183 C 
ATOM     19  C   UNL A   1     -27.077   4.411  27.534  0.00  0.00    +0.042 C 
BRANCH  19  20
ATOM     20  C   UNL A   1     -28.072   4.824  28.183  0.00  0.00    +0.022 A 
ATOM     21  C   UNL A   1     -28.804   4.025  28.944  0.00  0.00    +0.099 A 
ATOM     22  N   UNL A   1     -29.912   4.584  29.552  0.00  0.00    -0.242 NA
ATOM     23  C   UNL A   1     -30.456   5.500  29.251  0.00  0.00    +0.099 A 
ATOM     24  C   UNL A   1     -29.880   6.493  28.389  0.00  0.00    +0.021 A 
ATOM     25  C   UNL A   1     -28.679   6.166  27.786  0.00  0.00    +0.003 A 
ENDBRANCH  19  20
ENDBRANCH  17  18
ENDBRANCH  15  17
ENDBRANCH   2  15
TORSDOF 5
