MODEL 4888
MODEL 1
REMARK VINA RESULT:    -7.962      0.000      0.000
REMARK INTER + INTRA:         -10.425
REMARK INTER:                  -9.824
REMARK INTRA:                  -0.600
REMARK UNBOUND:                -0.600
REMARK  Name = No_4888-gen_results/8p0m/2024-11-27-11-27-31/
REMARK  4 active torsions:
REMARK  status: ('A' for Active; 'I' for Inactive)
REMARK    1  A    between atoms: C_3  and  O_14
REMARK    2  A    between atoms: C_4  and  C_7
REMARK    3  A    between atoms: C_7  and  C_8
REMARK    4  A    between atoms: O_14  and  C_15
REMARK                            x       y       z     vdW  Elec       q    Type
REMARK                         _______ _______ _______ _____ _____    ______ ____
ROOT
ATOM      1  C   UNL A   1     -22.694   1.417  27.428  0.00  0.00    +0.037 A 
ATOM      2  C   UNL A   1     -21.687   1.133  27.551  0.00  0.00    +0.003 A 
ATOM      3  C   UNL A   1     -23.681   0.723  28.270  0.00  0.00    +0.141 A 
ATOM      4  C   UNL A   1     -23.258  -0.179  29.290  0.00  0.00    +0.015 A 
ATOM      5  C   UNL A   1     -21.907  -0.404  29.371  0.00  0.00    -0.001 A 
ATOM      6  C   UNL A   1     -21.047   0.242  28.554  0.00  0.00    -0.000 A 
ENDROOT
BRANCH   4   7
ATOM      7  C   UNL A   1     -24.208  -0.854  30.136  0.00  0.00    +0.041 C 
ATOM      8  C   UNL A   1     -25.352   0.031  30.574  0.00  0.00    +0.009 C 
ATOM      9  C   UNL A   1     -23.468  -1.259  31.566  0.00  0.00    +0.009 C 
BRANCH   7  10
ATOM     10  C   UNL A   1     -24.607  -2.133  29.697  0.00  0.00    -0.019 A 
ATOM     11  C   UNL A   1     -23.743  -2.932  28.903  0.00  0.00    -0.004 A 
ATOM     12  C   UNL A   1     -24.035  -4.252  28.587  0.00  0.00    -0.000 A 
ATOM     13  C   UNL A   1     -25.933  -2.675  29.932  0.00  0.00    -0.004 A 
ATOM     14  C   UNL A   1     -26.210  -4.036  29.722  0.00  0.00    -0.000 A 
ATOM     15  C   UNL A   1     -25.266  -4.809  29.007  0.00  0.00    -0.000 A 
ENDBRANCH   7  10
ENDBRANCH   4   7
BRANCH   3  16
ATOM     16  O   UNL A   1     -25.023   0.903  28.169  0.00  0.00    -0.454 OA
BRANCH  16  17
ATOM     17  C   UNL A   1     -25.628   0.806  26.946  0.00  0.00    +0.145 A 
ATOM     18  C   UNL A   1     -25.343  -0.185  26.164  0.00  0.00    +0.037 A 
ATOM     19  C   UNL A   1     -26.473   1.825  26.496  0.00  0.00    +0.037 A 
ATOM     20  C   UNL A   1     -25.888  -0.459  24.930  0.00  0.00    +0.003 A 
ATOM     21  C   UNL A   1     -27.157   1.650  25.283  0.00  0.00    +0.003 A 
ATOM     22  C   UNL A   1     -26.819   0.499  24.471  0.00  0.00    +0.000 A 
ENDBRANCH  16  17
ENDBRANCH   3  16
TORSDOF 4
ENDMDL
ENDMDL
