REMARK  Name = outputs/IAG933/test6/raw/output_4888_IAG933_linker_design_.xyz
REMARK  16 active torsions:
REMARK  status: ('A' for Active; 'I' for Inactive)
REMARK    1  A    between atoms: C_1  and  C_2
REMARK    2  A    between atoms: C_1  and  C_8
REMARK    3  A    between atoms: C_1  and  C_30
REMARK    4  A    between atoms: C_13  and  N_35
REMARK    5  A    between atoms: C_14  and  C_15
REMARK    6  A    between atoms: C_21  and  O_22
REMARK    7  A    between atoms: O_22  and  C_23
REMARK    8  A    between atoms: C_23  and  C_24
REMARK    9  A    between atoms: C_28  and  O_43
REMARK   10  A    between atoms: C_28  and  C_45
REMARK   11  A    between atoms: C_29  and  C_30
REMARK   12  A    between atoms: C_29  and  N_35
REMARK   13  A    between atoms: C_29  and  C_38
REMARK   14  A    between atoms: C_30  and  C_33
REMARK   15  A    between atoms: C_33  and  C_46
REMARK   16  A    between atoms: C_38  and  C_42
REMARK                            x       y       z     vdW  Elec       q    Type
REMARK                         _______ _______ _______ _____ _____    ______ ____
ROOT
ATOM      1  C   UNL A   1     -25.677  -0.069  29.137  0.00  0.00    +0.025 C 
ENDROOT
BRANCH   1   2
ATOM      2  C   UNL A   1     -24.659   0.946  28.759  0.00  0.00    +0.074 C 
BRANCH   2   3
ATOM      3  N   UNL A   1     -24.911   1.665  27.462  0.00  0.00    -0.213 NA
BRANCH   3   4
ATOM      4  C   UNL A   1     -25.688   1.614  26.461  0.00  0.00    +0.142 C 
ATOM      5  C   UNL A   1     -26.250   2.920  26.395  0.00  0.00    +0.071 C 
ATOM      6  C   UNL A   1     -27.438   3.091  25.645  0.00  0.00    +0.103 C 
ATOM      7  N   UNL A   1     -28.075   2.089  25.003  0.00  0.00    -0.212 NA
ATOM      8  C   UNL A   1     -27.543   0.849  25.079  0.00  0.00    +0.236 C 
ATOM      9  C   UNL A   1     -26.354   0.576  25.777  0.00  0.00    +0.256 C 
ATOM     10  F   UNL A   1     -25.860  -0.681  25.795  0.00  0.00    -0.225 F 
BRANCH   5  11
ATOM     11  C   UNL A   1     -25.642   4.093  27.123  0.00  0.00    +0.264 C 
ATOM     12  N   UNL A   1     -25.614   5.252  26.449  0.00  0.00    -0.200 NA
ATOM     13  C   UNL A   1     -25.026   6.479  26.963  0.00  0.00    +0.139 C 
ATOM     14  O   UNL A   1     -25.143   3.966  28.243  0.00  0.00    -0.269 OA
ENDBRANCH   5  11
BRANCH   8  15
ATOM     15  O   UNL A   1     -28.193  -0.208  24.477  0.00  0.00    -0.459 OA
BRANCH  15  16
ATOM     16  C   UNL A   1     -29.460   0.005  23.866  0.00  0.00    +0.242 C 
BRANCH  16  17
ATOM     17  C   UNL A   1     -30.065  -1.377  23.573  0.00  0.00    +0.229 C 
ATOM     18  O   UNL A   1     -30.729  -1.878  24.721  0.00  0.00    -0.216 OA
ENDBRANCH  16  17
ENDBRANCH  15  16
ENDBRANCH   8  15
ENDBRANCH   3   4
ENDBRANCH   2   3
BRANCH   2  19
ATOM     19  C   UNL A   1     -23.081   1.102  29.094  0.00  0.00    +0.017 C 
BRANCH  19  21
ATOM     20  C   UNL A   1     -21.963   1.836  26.949  0.00  0.00    +0.000 C 
ATOM     21  C   UNL A   1     -22.095   0.738  28.000  0.00  0.00    +0.001 C 
ENDBRANCH  19  21
ENDBRANCH   2  19
ENDBRANCH   1   2
BRANCH   1  22
ATOM     22  C   UNL A   1     -27.158   0.430  28.907  0.00  0.00    +0.025 C 
BRANCH  22  30
ATOM     23  C   UNL A   1     -27.618   2.711  30.019  0.00  0.00    -0.006 C 
ATOM     24  C   UNL A   1     -31.718   2.952  28.596  0.00  0.00    +0.091 C 
ATOM     25  C   UNL A   1     -31.687   1.803  27.538  0.00  0.00    +0.024 C 
ATOM     26  C   UNL A   1     -29.478   1.761  28.723  0.00  0.00    +0.091 C 
ATOM     27  C   UNL A   1     -29.941   3.479  30.296  0.00  0.00    +0.061 C 
ATOM     28  C   UNL A   1     -30.450   0.914  27.894  0.00  0.00    +0.026 C 
ATOM     29  C   UNL A   1     -28.574   3.621  30.507  0.00  0.00    +0.037 C 
ATOM     30  C   UNL A   1     -28.021   1.613  29.171  0.00  0.00    -0.027 C 
ATOM     31  N   UNL A   1     -30.348   2.829  29.189  0.00  0.00    -0.305 N 
BRANCH  29  32
ATOM     32  C   UNL A   1     -28.241   5.038  31.068  0.00  0.00    +0.231 C 
ATOM     33  N   UNL A   1     -26.856   5.163  31.693  0.00  0.00    -0.095 NA
BRANCH  32  35
ATOM     34  C   UNL A   1     -29.592   5.199  33.075  0.00  0.00    +0.176 C 
ATOM     35  O   UNL A   1     -29.411   5.372  31.825  0.00  0.00    -0.332 OA
ENDBRANCH  32  35
ENDBRANCH  29  32
ENDBRANCH  22  30
ENDBRANCH   1  22
BRANCH   1  36
ATOM     36  C   UNL A   1     -24.855  -1.012  30.143  0.00  0.00    +0.040 C 
BRANCH  36  37
ATOM     37  C   UNL A   1     -24.973  -2.505  29.788  0.00  0.00    -0.021 C 
ATOM     38  C   UNL A   1     -23.906  -3.173  29.146  0.00  0.00    -0.004 C 
ATOM     39  C   UNL A   1     -23.989  -4.549  28.853  0.00  0.00    -0.000 C 
ATOM     40  C   UNL A   1     -25.137  -5.280  29.205  0.00  0.00    -0.000 C 
ATOM     41  C   UNL A   1     -26.232  -4.611  29.784  0.00  0.00    -0.000 C 
ATOM     42  C   UNL A   1     -26.155  -3.232  30.065  0.00  0.00    -0.004 C 
ENDBRANCH  36  37
BRANCH  36  43
ATOM     43  C   UNL A   1     -25.387  -0.679  31.571  0.00  0.00    +0.077 C 
ATOM     44  C   UNL A   1     -25.189   0.773  32.028  0.00  0.00    +0.019 C 
ATOM     45  C   UNL A   1     -25.336   0.684  33.544  0.00  0.00    +0.020 C 
ATOM     46  C   UNL A   1     -24.829  -0.715  33.905  0.00  0.00    +0.089 C 
ATOM     47  N   UNL A   1     -24.758  -1.481  32.646  0.00  0.00    -0.219 NA
ENDBRANCH  36  43
ENDBRANCH   1  36
TORSDOF 16
