MODEL 4889
MODEL 1
REMARK VINA RESULT:    -4.265      0.000      0.000
REMARK INTER + INTRA:          -4.265
REMARK INTER:                  -4.265
REMARK INTRA:                   0.000
REMARK UNBOUND:                 0.000
REMARK  Name = No_4889-gen_results/8p0m/2024-11-27-11-27-31/
REMARK  0 active torsions:
REMARK  status: ('A' for Active; 'I' for Inactive)
REMARK                            x       y       z     vdW  Elec       q    Type
REMARK                         _______ _______ _______ _____ _____    ______ ____
ROOT
ATOM      1  C   UNL A   1     -24.065  -3.248  28.793  0.00  0.00    +0.000 A 
ATOM      2  C   UNL A   1     -24.019  -4.436  28.574  0.00  0.00    +0.000 A 
ATOM      3  C   UNL A   1     -24.988  -5.328  28.992  0.00  0.00    +0.000 A 
ATOM      4  C   UNL A   1     -26.118  -4.809  29.684  0.00  0.00    +0.000 A 
ATOM      5  C   UNL A   1     -26.206  -3.461  29.754  0.00  0.00    +0.000 A 
ATOM      6  C   UNL A   1     -25.248  -2.681  29.289  0.00  0.00    +0.000 A 
ENDROOT
TORSDOF 0
ENDMDL
ENDMDL
