MODEL 488
MODEL 1
REMARK VINA RESULT:    -4.241      0.000      0.000
REMARK INTER + INTRA:          -4.241
REMARK INTER:                  -4.241
REMARK INTRA:                   0.000
REMARK UNBOUND:                 0.000
REMARK  Name = No_488-gen_results/8p0m/2024-11-27-11-27-31/
REMARK  0 active torsions:
REMARK  status: ('A' for Active; 'I' for Inactive)
REMARK                            x       y       z     vdW  Elec       q    Type
REMARK                         _______ _______ _______ _____ _____    ______ ____
ROOT
ATOM      1  C   UNL A   1     -24.929  -5.336  28.927  0.00  0.00    +0.000 A 
ATOM      2  C   UNL A   1     -24.136  -4.675  28.715  0.00  0.00    +0.000 A 
ATOM      3  C   UNL A   1     -26.097  -4.764  29.615  0.00  0.00    +0.000 A 
ATOM      4  C   UNL A   1     -26.189  -3.360  29.842  0.00  0.00    +0.000 A 
ATOM      5  C   UNL A   1     -24.004  -3.194  28.792  0.00  0.00    +0.000 A 
ATOM      6  C   UNL A   1     -25.065  -2.628  29.433  0.00  0.00    +0.000 A 
ENDROOT
TORSDOF 0
ENDMDL
ENDMDL
