REMARK  Name = No_4890-gen_results/8p0m/2024-11-27-11-27-31/
REMARK  3 active torsions:
REMARK  status: ('A' for Active; 'I' for Inactive)
REMARK    1  A    between atoms: C_3  and  C_8
REMARK    2  A    between atoms: C_8  and  C_9
REMARK    3  A    between atoms: C_8  and  C_15
REMARK                            x       y       z     vdW  Elec       q    Type
REMARK                         _______ _______ _______ _____ _____    ______ ____
ROOT
ATOM      1  C   UNL A   1     -24.586   0.615  28.871  0.00  0.00    +0.109 C 
ENDROOT
BRANCH   1   4
ATOM      2  C   UNL A   1     -28.016  -0.814  28.878  0.00  0.00    +0.029 A 
ATOM      3  C   UNL A   1     -27.064  -0.119  28.608  0.00  0.00    -0.001 A 
ATOM      4  C   UNL A   1     -25.790  -0.234  29.130  0.00  0.00    -0.011 A 
ATOM      5  C   UNL A   1     -25.519  -1.281  30.116  0.00  0.00    -0.001 A 
ATOM      6  C   UNL A   1     -26.642  -2.093  30.424  0.00  0.00    +0.029 A 
ATOM      7  C   UNL A   1     -27.826  -1.890  29.854  0.00  0.00    +0.140 A 
ATOM      8  F   UNL A   1     -28.817  -2.709  30.181  0.00  0.00    -0.204 F 
ENDBRANCH   1   4
BRANCH   1   9
ATOM      9  C   UNL A   1     -24.541   1.411  27.827  0.00  0.00    -0.011 A 
ATOM     10  C   UNL A   1     -25.072   2.196  27.331  0.00  0.00    -0.004 A 
ATOM     11  C   UNL A   1     -24.679   3.030  26.150  0.00  0.00    -0.000 A 
ATOM     12  C   UNL A   1     -23.474   2.730  25.586  0.00  0.00    -0.000 A 
ATOM     13  C   UNL A   1     -22.632   1.856  26.165  0.00  0.00    -0.000 A 
ATOM     14  C   UNL A   1     -22.985   1.125  27.313  0.00  0.00    -0.004 A 
ENDBRANCH   1   9
BRANCH   1  15
ATOM     15  C   UNL A   1     -23.589   0.613  29.948  0.00  0.00    +0.216 C 
ATOM     16  O   UNL A   1     -22.497   0.099  29.779  0.00  0.00    -0.288 OA
ENDBRANCH   1  15
TORSDOF 3
