MODEL 4890
MODEL 1
REMARK VINA RESULT:    -6.915      0.000      0.000
REMARK INTER + INTRA:          -8.802
REMARK INTER:                  -8.127
REMARK INTRA:                  -0.675
REMARK UNBOUND:                -0.675
REMARK  Name = No_4890-gen_results/8p0m/2024-11-27-11-27-31/
REMARK  3 active torsions:
REMARK  status: ('A' for Active; 'I' for Inactive)
REMARK    1  A    between atoms: C_3  and  C_8
REMARK    2  A    between atoms: C_8  and  C_9
REMARK    3  A    between atoms: C_8  and  C_15
REMARK                            x       y       z     vdW  Elec       q    Type
REMARK                         _______ _______ _______ _____ _____    ______ ____
ROOT
ATOM      1  C   UNL A   1     -24.042  -1.145  29.495  0.00  0.00    +0.109 C 
ENDROOT
BRANCH   1   4
ATOM      2  C   UNL A   1     -24.390   0.822  26.362  0.00  0.00    +0.029 A 
ATOM      3  C   UNL A   1     -24.614   0.036  27.253  0.00  0.00    -0.001 A 
ATOM      4  C   UNL A   1     -23.844  -0.165  28.383  0.00  0.00    -0.011 A 
ATOM      5  C   UNL A   1     -22.625   0.624  28.560  0.00  0.00    -0.001 A 
ATOM      6  C   UNL A   1     -22.372   1.546  27.511  0.00  0.00    +0.029 A 
ATOM      7  C   UNL A   1     -23.189   1.655  26.467  0.00  0.00    +0.140 A 
ATOM      8  F   UNL A   1     -22.891   2.558  25.542  0.00  0.00    -0.204 F 
ENDBRANCH   1   4
BRANCH   1   9
ATOM      9  C   UNL A   1     -24.277  -2.412  29.236  0.00  0.00    -0.011 A 
ATOM     10  C   UNL A   1     -23.816  -3.306  28.874  0.00  0.00    -0.004 A 
ATOM     11  C   UNL A   1     -24.349  -4.705  28.802  0.00  0.00    -0.000 A 
ATOM     12  C   UNL A   1     -25.634  -4.873  29.228  0.00  0.00    -0.000 A 
ATOM     13  C   UNL A   1     -26.306  -3.875  29.827  0.00  0.00    -0.000 A 
ATOM     14  C   UNL A   1     -25.770  -2.580  29.950  0.00  0.00    -0.004 A 
ENDBRANCH   1   9
BRANCH   1  15
ATOM     15  C   UNL A   1     -23.773  -0.616  30.837  0.00  0.00    +0.216 C 
ATOM     16  O   UNL A   1     -22.935  -1.138  31.552  0.00  0.00    -0.288 OA
ENDBRANCH   1  15
TORSDOF 3
ENDMDL
ENDMDL
