REMARK  Name = No_4891-gen_results/8p0m/2024-11-27-11-27-31/
REMARK  4 active torsions:
REMARK  status: ('A' for Active; 'I' for Inactive)
REMARK    1  A    between atoms: C_4  and  C_11
REMARK    2  A    between atoms: C_7  and  O_20
REMARK    3  A    between atoms: C_12  and  C_17
REMARK    4  A    between atoms: O_20  and  C_21
REMARK                            x       y       z     vdW  Elec       q    Type
REMARK                         _______ _______ _______ _____ _____    ______ ____
ROOT
ATOM      1  C   UNL A   1     -28.016  -0.814  28.878  0.00  0.00    +0.037 A 
ATOM      2  C   UNL A   1     -27.064  -0.119  28.608  0.00  0.00    +0.003 A 
ATOM      3  C   UNL A   1     -25.765  -0.390  29.036  0.00  0.00    +0.000 A 
ATOM      4  C   UNL A   1     -24.552   0.406  28.765  0.00  0.00    +0.000 A 
ATOM      5  C   UNL A   1     -23.230   0.118  29.258  0.00  0.00    +0.000 A 
ATOM      6  C   UNL A   1     -23.094  -1.131  29.873  0.00  0.00    +0.000 A 
ATOM      7  C   UNL A   1     -27.798  -1.934  29.856  0.00  0.00    +0.145 A 
ATOM      8  C   UNL A   1     -26.542  -2.327  30.258  0.00  0.00    +0.037 A 
ATOM      9  C   UNL A   1     -25.451  -1.552  29.908  0.00  0.00    +0.003 A 
ATOM     10  C   UNL A   1     -24.156  -1.910  30.281  0.00  0.00    +0.000 A 
ENDROOT
BRANCH   4  11
ATOM     11  C   UNL A   1     -24.645   1.658  27.946  0.00  0.00    +0.006 A 
ATOM     12  C   UNL A   1     -24.896   2.756  28.561  0.00  0.00    +0.080 A 
ATOM     13  C   UNL A   1     -25.173   3.934  27.844  0.00  0.00    +0.007 A 
ATOM     14  C   UNL A   1     -23.968   1.691  26.707  0.00  0.00    +0.000 A 
ATOM     15  C   UNL A   1     -24.137   2.751  26.022  0.00  0.00    +0.000 A 
ATOM     16  C   UNL A   1     -24.608   3.987  26.507  0.00  0.00    +0.000 A 
BRANCH  12  17
ATOM     17  C   UNL A   1     -25.460   2.852  30.001  0.00  0.00    +0.388 C 
ATOM     18  O   UNL A   1     -26.405   2.361  30.318  0.00  0.00    -0.241 OA
ATOM     19  O   UNL A   1     -24.899   3.802  30.807  0.00  0.00    -0.241 OA
ENDBRANCH  12  17
ENDBRANCH   4  11
BRANCH   7  20
ATOM     20  O   UNL A   1     -28.901  -2.671  30.204  0.00  0.00    -0.454 OA
BRANCH  20  21
ATOM     21  C   UNL A   1     -29.186  -2.878  31.547  0.00  0.00    +0.145 A 
ATOM     22  C   UNL A   1     -30.581  -2.804  31.833  0.00  0.00    +0.037 A 
ATOM     23  C   UNL A   1     -30.925  -2.996  33.037  0.00  0.00    +0.003 A 
ATOM     24  C   UNL A   1     -29.985  -3.294  34.124  0.00  0.00    +0.000 A 
ATOM     25  C   UNL A   1     -28.675  -3.368  33.770  0.00  0.00    +0.003 A 
ATOM     26  C   UNL A   1     -28.252  -3.158  32.510  0.00  0.00    +0.037 A 
ENDBRANCH  20  21
ENDBRANCH   7  20
TORSDOF 4
