MODEL 4891
MODEL 1
REMARK VINA RESULT:    -7.698      0.000      0.000
REMARK INTER + INTRA:         -10.760
REMARK INTER:                  -9.498
REMARK INTRA:                  -1.262
REMARK UNBOUND:                -1.262
REMARK  Name = No_4891-gen_results/8p0m/2024-11-27-11-27-31/
REMARK  4 active torsions:
REMARK  status: ('A' for Active; 'I' for Inactive)
REMARK    1  A    between atoms: C_4  and  C_11
REMARK    2  A    between atoms: C_7  and  O_20
REMARK    3  A    between atoms: C_12  and  C_17
REMARK    4  A    between atoms: O_20  and  C_21
REMARK                            x       y       z     vdW  Elec       q    Type
REMARK                         _______ _______ _______ _____ _____    ______ ____
ROOT
ATOM      1  C   UNL A   1     -25.601   0.222  24.686  0.00  0.00    +0.037 A 
ATOM      2  C   UNL A   1     -24.963   0.426  25.693  0.00  0.00    +0.003 A 
ATOM      3  C   UNL A   1     -25.442   1.167  26.773  0.00  0.00    +0.000 A 
ATOM      4  C   UNL A   1     -24.732   1.475  28.029  0.00  0.00    +0.000 A 
ATOM      5  C   UNL A   1     -25.243   2.279  29.109  0.00  0.00    +0.000 A 
ATOM      6  C   UNL A   1     -26.598   2.609  29.002  0.00  0.00    +0.000 A 
ATOM      7  C   UNL A   1     -26.912   0.941  24.542  0.00  0.00    +0.145 A 
ATOM      8  C   UNL A   1     -27.501   1.617  25.586  0.00  0.00    +0.037 A 
ATOM      9  C   UNL A   1     -26.783   1.809  26.753  0.00  0.00    +0.003 A 
ATOM     10  C   UNL A   1     -27.335   2.478  27.844  0.00  0.00    +0.000 A 
ENDROOT
BRANCH   4  11
ATOM     11  C   UNL A   1     -23.336   0.971  28.244  0.00  0.00    +0.006 A 
ATOM     12  C   UNL A   1     -23.194  -0.244  28.631  0.00  0.00    +0.080 A 
ATOM     13  C   UNL A   1     -21.933  -0.730  29.022  0.00  0.00    +0.007 A 
ATOM     14  C   UNL A   1     -22.287   1.609  27.546  0.00  0.00    +0.000 A 
ATOM     15  C   UNL A   1     -21.117   1.186  27.817  0.00  0.00    +0.000 A 
ATOM     16  C   UNL A   1     -20.799  -0.039  28.436  0.00  0.00    +0.000 A 
BRANCH  12  17
ATOM     17  C   UNL A   1     -24.323  -1.116  29.236  0.00  0.00    +0.388 C 
ATOM     18  O   UNL A   1     -24.515  -1.191  30.328  0.00  0.00    -0.241 OA
ATOM     19  O   UNL A   1     -24.905  -2.020  28.392  0.00  0.00    -0.241 OA
ENDBRANCH  12  17
ENDBRANCH   4  11
BRANCH   7  20
ATOM     20  O   UNL A   1     -27.592   0.752  23.366  0.00  0.00    -0.454 OA
BRANCH  20  21
ATOM     21  C   UNL A   1     -28.892   0.265  23.401  0.00  0.00    +0.145 A 
ATOM     22  C   UNL A   1     -28.950  -1.136  23.657  0.00  0.00    +0.037 A 
ATOM     23  C   UNL A   1     -30.104  -1.655  23.718  0.00  0.00    +0.003 A 
ATOM     24  C   UNL A   1     -31.354  -0.904  23.554  0.00  0.00    +0.000 A 
ATOM     25  C   UNL A   1     -31.218   0.430  23.334  0.00  0.00    +0.003 A 
ATOM     26  C   UNL A   1     -30.018   1.031  23.244  0.00  0.00    +0.037 A 
ENDBRANCH  20  21
ENDBRANCH   7  20
TORSDOF 4
ENDMDL
ENDMDL
