REMARK  Name = outputs/IAG933/test6/raw/output_4892_IAG933_linker_design_.xyz
REMARK  15 active torsions:
REMARK  status: ('A' for Active; 'I' for Inactive)
REMARK    1  A    between atoms: C_1  and  C_2
REMARK    2  A    between atoms: C_1  and  C_8
REMARK    3  A    between atoms: C_1  and  N_39
REMARK    4  A    between atoms: C_13  and  C_32
REMARK    5  A    between atoms: C_14  and  C_15
REMARK    6  A    between atoms: C_21  and  O_22
REMARK    7  A    between atoms: O_22  and  C_23
REMARK    8  A    between atoms: C_23  and  C_24
REMARK    9  A    between atoms: C_29  and  C_35
REMARK   10  A    between atoms: C_29  and  C_41
REMARK   11  A    between atoms: C_31  and  C_32
REMARK   12  A    between atoms: C_31  and  N_39
REMARK   13  A    between atoms: C_32  and  C_43
REMARK   14  A    between atoms: C_35  and  N_39
REMARK   15  A    between atoms: C_43  and  C_44
REMARK                            x       y       z     vdW  Elec       q    Type
REMARK                         _______ _______ _______ _____ _____    ______ ____
ROOT
ATOM      1  C   UNL A   1     -24.662  -0.060  27.977  0.00  0.00    +0.079 C 
ENDROOT
BRANCH   1   2
ATOM      2  C   UNL A   1     -24.567   1.274  27.152  0.00  0.00    +0.064 C 
BRANCH   2   3
ATOM      3  C   UNL A   1     -25.688   1.614  26.461  0.00  0.00    +0.019 C 
ATOM      4  C   UNL A   1     -26.250   2.920  26.395  0.00  0.00    +0.073 C 
ATOM      5  C   UNL A   1     -27.438   3.091  25.645  0.00  0.00    +0.106 C 
ATOM      6  N   UNL A   1     -28.075   2.089  25.003  0.00  0.00    -0.208 NA
ATOM      7  C   UNL A   1     -27.543   0.849  25.079  0.00  0.00    +0.253 C 
ATOM      8  C   UNL A   1     -26.354   0.576  25.777  0.00  0.00    +0.189 C 
ATOM      9  F   UNL A   1     -25.860  -0.681  25.795  0.00  0.00    -0.200 F 
BRANCH   4  10
ATOM     10  C   UNL A   1     -25.642   4.093  27.123  0.00  0.00    +0.266 C 
ATOM     11  N   UNL A   1     -25.614   5.252  26.449  0.00  0.00    -0.200 NA
ATOM     12  C   UNL A   1     -25.026   6.479  26.963  0.00  0.00    +0.139 C 
ATOM     13  O   UNL A   1     -25.143   3.966  28.243  0.00  0.00    -0.268 OA
ENDBRANCH   4  10
BRANCH   7  14
ATOM     14  O   UNL A   1     -28.193  -0.208  24.477  0.00  0.00    -0.456 OA
BRANCH  14  15
ATOM     15  C   UNL A   1     -29.460   0.005  23.866  0.00  0.00    +0.243 C 
BRANCH  15  16
ATOM     16  C   UNL A   1     -30.065  -1.377  23.573  0.00  0.00    +0.229 C 
ATOM     17  O   UNL A   1     -30.729  -1.878  24.721  0.00  0.00    -0.216 OA
ENDBRANCH  15  16
ENDBRANCH  14  15
ENDBRANCH   7  14
ENDBRANCH   2   3
BRANCH   2  19
ATOM     18 CL   UNL A   1     -22.877   2.555  25.619  0.00  0.00    -0.105 Cl
ATOM     19  C   UNL A   1     -23.327   2.001  27.068  0.00  0.00    +0.155 C 
BRANCH  19  22
ATOM     20  N   UNL A   1     -22.383   1.518  29.155  0.00  0.00    -0.119 NA
ATOM     21  F   UNL A   1     -21.013   1.718  27.476  0.00  0.00    -0.185 F 
ATOM     22  C   UNL A   1     -22.236   1.700  27.933  0.00  0.00    +0.234 C 
ENDBRANCH  19  22
ENDBRANCH   2  19
ENDBRANCH   1   2
BRANCH   1  23
ATOM     23  N   UNL A   1     -25.615  -0.079  29.177  0.00  0.00    -0.269 NA
BRANCH  23  24
ATOM     24  C   UNL A   1     -24.855  -1.012  30.143  0.00  0.00    +0.096 C 
BRANCH  24  25
ATOM     25  C   UNL A   1     -24.973  -2.505  29.788  0.00  0.00    -0.006 C 
ATOM     26  C   UNL A   1     -23.906  -3.173  29.146  0.00  0.00    -0.003 C 
ATOM     27  C   UNL A   1     -23.989  -4.549  28.853  0.00  0.00    -0.000 C 
ATOM     28  C   UNL A   1     -25.137  -5.280  29.205  0.00  0.00    -0.000 C 
ATOM     29  C   UNL A   1     -26.232  -4.611  29.784  0.00  0.00    -0.000 C 
ATOM     30  C   UNL A   1     -26.155  -3.232  30.065  0.00  0.00    -0.003 C 
ENDBRANCH  24  25
BRANCH  24  31
ATOM     31  C   UNL A   1     -25.387  -0.679  31.571  0.00  0.00    +0.092 C 
ATOM     32  C   UNL A   1     -25.189   0.773  32.028  0.00  0.00    +0.021 C 
ATOM     33  C   UNL A   1     -25.336   0.684  33.544  0.00  0.00    +0.020 C 
ATOM     34  C   UNL A   1     -24.829  -0.715  33.905  0.00  0.00    +0.089 C 
ATOM     35  N   UNL A   1     -24.758  -1.481  32.646  0.00  0.00    -0.218 NA
ENDBRANCH  24  31
ENDBRANCH  23  24
BRANCH  23  36
ATOM     36  C   UNL A   1     -27.140   0.027  29.508  0.00  0.00    +0.077 C 
BRANCH  36  37
ATOM     37  C   UNL A   1     -28.176   1.283  29.146  0.00  0.00    +0.044 C 
BRANCH  37  44
ATOM     38 CL   UNL A   1     -26.503   5.247  31.913  0.00  0.00    -0.082 Cl
ATOM     39  C   UNL A   1     -29.778   3.057  29.905  0.00  0.00    -0.004 C 
ATOM     40  C   UNL A   1     -27.721   4.464  31.143  0.00  0.00    +0.057 C 
ATOM     41  C   UNL A   1     -29.047   4.965  31.147  0.00  0.00    +0.011 C 
ATOM     42  C   UNL A   1     -30.076   4.244  30.545  0.00  0.00    +0.001 C 
ATOM     43  C   UNL A   1     -27.407   3.249  30.512  0.00  0.00    +0.007 C 
ATOM     44  C   UNL A   1     -28.454   2.561  29.879  0.00  0.00    -0.020 C 
ENDBRANCH  37  44
ENDBRANCH  36  37
ENDBRANCH  23  36
ENDBRANCH   1  23
TORSDOF 15
