MODEL 4892
MODEL 1
REMARK VINA RESULT:    -6.558      0.000      0.000
REMARK INTER + INTRA:          -6.558
REMARK INTER:                  -6.558
REMARK INTRA:                   0.000
REMARK UNBOUND:                 0.000
REMARK  Name = No_4892-gen_results/8p0m/2024-11-27-11-27-31/
REMARK  0 active torsions:
REMARK  status: ('A' for Active; 'I' for Inactive)
REMARK                            x       y       z     vdW  Elec       q    Type
REMARK                         _______ _______ _______ _____ _____    ______ ____
ROOT
ATOM      1  C   UNL A   1     -23.861  -3.924  28.829  0.00  0.00    +0.000 A 
ATOM      2  C   UNL A   1     -24.384  -2.900  29.202  0.00  0.00    +0.000 A 
ATOM      3  C   UNL A   1     -25.667  -2.903  29.739  0.00  0.00    +0.000 A 
ATOM      4  C   UNL A   1     -26.431  -4.120  29.825  0.00  0.00    +0.000 A 
ATOM      5  C   UNL A   1     -25.759  -5.254  29.349  0.00  0.00    +0.000 A 
ATOM      6  C   UNL A   1     -24.552  -5.195  28.835  0.00  0.00    +0.000 A 
ATOM      7  C   UNL A   1     -23.756  -1.552  29.163  0.00  0.00    +0.000 A 
ATOM      8  C   UNL A   1     -22.816  -1.243  28.907  0.00  0.00    +0.000 A 
ATOM      9  C   UNL A   1     -22.197   0.083  28.996  0.00  0.00    +0.000 A 
ATOM     10  C   UNL A   1     -22.986   1.132  29.509  0.00  0.00    +0.000 A 
ATOM     11  C   UNL A   1     -24.271   0.837  29.948  0.00  0.00    +0.000 A 
ATOM     12  C   UNL A   1     -24.735  -0.417  29.819  0.00  0.00    +0.000 A 
ATOM     13  C   UNL A   1     -26.042  -0.682  30.301  0.00  0.00    +0.000 A 
ATOM     14  C   UNL A   1     -26.445  -1.843  30.263  0.00  0.00    +0.000 A 
ENDROOT
TORSDOF 0
ENDMDL
ENDMDL
