MODEL 4893
MODEL 1
REMARK VINA RESULT:    -5.939      0.000      0.000
REMARK INTER + INTRA:          -6.956
REMARK INTER:                  -6.634
REMARK INTRA:                  -0.322
REMARK UNBOUND:                -0.322
REMARK  Name = No_4893-gen_results/8p0m/2024-11-27-11-27-31/
REMARK  2 active torsions:
REMARK  status: ('A' for Active; 'I' for Inactive)
REMARK    1  A    between atoms: C_3  and  C_4
REMARK    2  A    between atoms: C_8  and  C_9
REMARK                            x       y       z     vdW  Elec       q    Type
REMARK                         _______ _______ _______ _____ _____    ______ ____
ROOT
ATOM      1  C   UNL A   1     -24.229  -4.428  28.862  0.00  0.00    -0.000 A 
ATOM      2  C   UNL A   1     -25.045  -5.053  29.094  0.00  0.00    +0.000 A 
ATOM      3  C   UNL A   1     -24.354  -3.050  29.143  0.00  0.00    -0.000 A 
ATOM      4  C   UNL A   1     -26.366  -4.753  29.673  0.00  0.00    +0.000 A 
ATOM      5  C   UNL A   1     -26.563  -3.406  29.975  0.00  0.00    +0.000 A 
ATOM      6  C   UNL A   1     -25.551  -2.525  29.764  0.00  0.00    -0.000 A 
ENDROOT
BRANCH   3   7
ATOM      7  C   UNL A   1     -23.264  -2.053  28.979  0.00  0.00    -0.000 C 
ATOM      8  C   UNL A   1     -23.187  -0.923  29.019  0.00  0.00    -0.000 C 
BRANCH   8   9
ATOM      9  C   UNL A   1     -22.068  -0.050  28.868  0.00  0.00    -0.005 C 
ATOM     10  C   UNL A   1     -22.032   1.050  28.030  0.00  0.00    -0.026 C 
ATOM     11  C   UNL A   1     -23.151   1.302  27.230  0.00  0.00    +0.031 C 
ENDBRANCH   8   9
ENDBRANCH   3   7
TORSDOF 2
ENDMDL
ENDMDL
