REMARK  Name = outputs/IAG933/test6/raw/output_4894_IAG933_linker_design_.xyz
REMARK  11 active torsions:
REMARK  status: ('A' for Active; 'I' for Inactive)
REMARK    1  A    between atoms: C_1  and  C_2
REMARK    2  A    between atoms: C_1  and  C_8
REMARK    3  A    between atoms: C_1  and  C_43
REMARK    4  A    between atoms: C_13  and  C_35
REMARK    5  A    between atoms: C_14  and  C_15
REMARK    6  A    between atoms: C_21  and  O_22
REMARK    7  A    between atoms: O_22  and  C_23
REMARK    8  A    between atoms: C_23  and  C_24
REMARK    9  A    between atoms: C_32  and  C_43
REMARK   10  A    between atoms: C_33  and  N_39
REMARK   11  A    between atoms: N_39  and  C_43
REMARK                            x       y       z     vdW  Elec       q    Type
REMARK                         _______ _______ _______ _____ _____    ______ ____
ROOT
ATOM      1  C   UNL A   1     -21.639   1.233  27.741  0.00  0.00    +0.045 C 
ATOM      2  C   UNL A   1     -23.958   0.622  28.049  0.00  0.00    +0.032 C 
ATOM      3  C   UNL A   1     -24.281   1.435  26.907  0.00  0.00    +0.024 C 
ATOM      4  O   UNL A   1     -23.538   2.989  25.222  0.00  0.00    -0.287 OA
ATOM      5  O   UNL A   1     -22.265   0.123  29.669  0.00  0.00    -0.287 OA
ATOM      6  C   UNL A   1     -22.629   0.634  28.513  0.00  0.00    +0.193 C 
ATOM      7  C   UNL A   1     -21.920   1.972  26.584  0.00  0.00    +0.045 C 
ATOM      8  C   UNL A   1     -23.257   2.127  26.200  0.00  0.00    +0.192 C 
ENDROOT
BRANCH   3   9
ATOM      9  C   UNL A   1     -25.688   1.614  26.461  0.00  0.00    +0.095 C 
ATOM     10  C   UNL A   1     -26.250   2.920  26.395  0.00  0.00    +0.059 C 
ATOM     11  C   UNL A   1     -27.438   3.091  25.645  0.00  0.00    +0.102 C 
ATOM     12  N   UNL A   1     -28.075   2.089  25.003  0.00  0.00    -0.212 NA
ATOM     13  C   UNL A   1     -27.543   0.849  25.079  0.00  0.00    +0.234 C 
ATOM     14  C   UNL A   1     -26.354   0.576  25.777  0.00  0.00    +0.244 C 
ATOM     15  F   UNL A   1     -25.860  -0.681  25.795  0.00  0.00    -0.227 F 
BRANCH  10  16
ATOM     16  C   UNL A   1     -25.642   4.093  27.123  0.00  0.00    +0.263 C 
ATOM     17  N   UNL A   1     -25.614   5.252  26.449  0.00  0.00    -0.200 NA
ATOM     18  C   UNL A   1     -25.026   6.479  26.963  0.00  0.00    +0.139 C 
ATOM     19  O   UNL A   1     -25.143   3.966  28.243  0.00  0.00    -0.269 OA
ENDBRANCH  10  16
BRANCH  13  20
ATOM     20  O   UNL A   1     -28.193  -0.208  24.477  0.00  0.00    -0.459 OA
BRANCH  20  21
ATOM     21  C   UNL A   1     -29.460   0.005  23.866  0.00  0.00    +0.242 C 
BRANCH  21  22
ATOM     22  C   UNL A   1     -30.065  -1.377  23.573  0.00  0.00    +0.229 C 
ATOM     23  O   UNL A   1     -30.729  -1.878  24.721  0.00  0.00    -0.216 OA
ENDBRANCH  21  22
ENDBRANCH  20  21
ENDBRANCH  13  20
ENDBRANCH   3   9
BRANCH   2  24
ATOM     24  C   UNL A   1     -25.027  -0.178  28.827  0.00  0.00    +0.103 C 
BRANCH  24  25
ATOM     25  C   UNL A   1     -24.855  -1.012  30.143  0.00  0.00    +0.059 C 
BRANCH  25  26
ATOM     26  C   UNL A   1     -24.973  -2.505  29.788  0.00  0.00    -0.019 C 
ATOM     27  C   UNL A   1     -23.906  -3.173  29.146  0.00  0.00    -0.004 C 
ATOM     28  C   UNL A   1     -23.989  -4.549  28.853  0.00  0.00    -0.000 C 
ATOM     29  C   UNL A   1     -25.137  -5.280  29.205  0.00  0.00    -0.000 C 
ATOM     30  C   UNL A   1     -26.232  -4.611  29.784  0.00  0.00    -0.000 C 
ATOM     31  C   UNL A   1     -26.155  -3.232  30.065  0.00  0.00    -0.004 C 
ENDBRANCH  25  26
BRANCH  25  32
ATOM     32  C   UNL A   1     -25.387  -0.679  31.571  0.00  0.00    +0.079 C 
ATOM     33  C   UNL A   1     -25.189   0.773  32.028  0.00  0.00    +0.019 C 
ATOM     34  C   UNL A   1     -25.336   0.684  33.544  0.00  0.00    +0.020 C 
ATOM     35  C   UNL A   1     -24.829  -0.715  33.905  0.00  0.00    +0.089 C 
ATOM     36  N   UNL A   1     -24.758  -1.481  32.646  0.00  0.00    -0.219 NA
ENDBRANCH  25  32
ENDBRANCH  24  25
BRANCH  24  37
ATOM     37  N   UNL A   1     -26.253   0.728  28.916  0.00  0.00    -0.213 NA
BRANCH  37  41
ATOM     38  C   UNL A   1     -28.198   1.587  29.466  0.00  0.00    +0.159 C 
ATOM     39  C   UNL A   1     -29.026  -1.115  30.219  0.00  0.00    +0.034 C 
ATOM     40  C   UNL A   1     -29.360  -0.487  28.856  0.00  0.00    +0.117 C 
ATOM     41  C   UNL A   1     -27.247   0.444  29.240  0.00  0.00    +0.105 C 
ATOM     42  C   UNL A   1     -27.932  -0.899  29.202  0.00  0.00    +0.048 C 
ATOM     43  O   UNL A   1     -29.259   1.030  28.645  0.00  0.00    -0.355 OA
ENDBRANCH  37  41
ENDBRANCH  24  37
ENDBRANCH   2  24
TORSDOF 11
