MODEL 4895
MODEL 1
REMARK VINA RESULT:    -6.470      0.000      0.000
REMARK INTER + INTRA:          -6.470
REMARK INTER:                  -6.470
REMARK INTRA:                   0.000
REMARK UNBOUND:                 0.000
REMARK  Name = No_4895-gen_results/8p0m/2024-11-27-11-27-31/
REMARK  0 active torsions:
REMARK  status: ('A' for Active; 'I' for Inactive)
REMARK                            x       y       z     vdW  Elec       q    Type
REMARK                         _______ _______ _______ _____ _____    ______ ____
ROOT
ATOM      1  C   UNL A   1     -26.652  -4.003  30.030  0.00  0.00    -0.004 A 
ATOM      2  C   UNL A   1     -26.292  -4.899  29.610  0.00  0.00    -0.000 A 
ATOM      3  C   UNL A   1     -25.689  -2.904  29.979  0.00  0.00    -0.022 A 
ATOM      4  C   UNL A   1     -24.446  -3.048  29.414  0.00  0.00    -0.026 A 
ATOM      5  C   UNL A   1     -25.059  -5.334  28.955  0.00  0.00    -0.000 A 
ATOM      6  C   UNL A   1     -24.119  -4.277  28.901  0.00  0.00    -0.005 A 
ATOM      7  C   UNL A   1     -26.036  -1.539  30.483  0.00  0.00    +0.048 C 
ATOM      8  C   UNL A   1     -25.054  -0.540  30.277  0.00  0.00    -0.036 C 
ATOM      9  C   UNL A   1     -25.320   0.742  30.365  0.00  0.00    -0.008 C 
ATOM     10  C   UNL A   1     -24.239   1.774  30.037  0.00  0.00    -0.005 C 
ATOM     11  C   UNL A   1     -23.043   1.207  29.662  0.00  0.00    -0.022 C 
ATOM     12  C   UNL A   1     -23.626  -0.667  29.817  0.00  0.00    +0.041 C 
ATOM     13  C   UNL A   1     -23.306  -1.328  29.002  0.00  0.00    +0.013 C 
ATOM     14  C   UNL A   1     -23.421  -2.197  28.984  0.00  0.00    +0.027 C 
ENDROOT
TORSDOF 0
ENDMDL
ENDMDL
