MODEL 4896
MODEL 1
REMARK VINA RESULT:    -6.788      0.000      0.000
REMARK INTER + INTRA:          -9.070
REMARK INTER:                  -8.375
REMARK INTRA:                  -0.695
REMARK UNBOUND:                -0.695
REMARK  Name = No_4896-gen_results/8p0m/2024-11-27-11-27-31/
REMARK  4 active torsions:
REMARK  status: ('A' for Active; 'I' for Inactive)
REMARK    1  A    between atoms: C_3  and  C_8
REMARK    2  A    between atoms: C_6  and  O_7
REMARK    3  A    between atoms: O_7  and  C_14
REMARK    4  A    between atoms: C_14  and  C_16
REMARK                            x       y       z     vdW  Elec       q    Type
REMARK                         _______ _______ _______ _____ _____    ______ ____
ROOT
ATOM      1  C   UNL A   1     -24.943   0.466  27.543  0.00  0.00    +0.037 A 
ATOM      2  C   UNL A   1     -25.200  -0.648  27.937  0.00  0.00    +0.003 A 
ATOM      3  C   UNL A   1     -24.315  -1.426  28.683  0.00  0.00    +0.000 A 
ATOM      4  C   UNL A   1     -22.988  -0.914  28.962  0.00  0.00    +0.003 A 
ATOM      5  C   UNL A   1     -22.756   0.387  28.463  0.00  0.00    +0.037 A 
ATOM      6  C   UNL A   1     -23.650   1.041  27.765  0.00  0.00    +0.139 A 
ENDROOT
BRANCH   3   7
ATOM      7  C   UNL A   1     -24.563  -2.810  29.205  0.00  0.00    +0.000 A 
ATOM      8  C   UNL A   1     -23.817  -3.883  28.794  0.00  0.00    +0.000 A 
ATOM      9  C   UNL A   1     -24.106  -4.899  28.586  0.00  0.00    +0.000 A 
ATOM     10  C   UNL A   1     -25.438  -5.425  29.150  0.00  0.00    +0.000 A 
ATOM     11  C   UNL A   1     -26.244  -4.427  29.699  0.00  0.00    +0.000 A 
ATOM     12  C   UNL A   1     -25.891  -3.121  29.631  0.00  0.00    +0.000 A 
ENDBRANCH   3   7
BRANCH   6  13
ATOM     13  O   UNL A   1     -23.296   2.271  27.289  0.00  0.00    -0.471 OA
BRANCH  13  14
ATOM     14  C   UNL A   1     -23.514   2.659  25.982  0.00  0.00    +0.230 C 
ATOM     15  C   UNL A   1     -22.627   2.425  25.115  0.00  0.00    +0.056 C 
BRANCH  14  16
ATOM     16  C   UNL A   1     -24.547   3.618  25.792  0.00  0.00    +0.251 C 
ATOM     17  O   UNL A   1     -24.640   4.612  26.638  0.00  0.00    -0.284 OA
ENDBRANCH  14  16
ENDBRANCH  13  14
ENDBRANCH   6  13
TORSDOF 4
ENDMDL
ENDMDL
