REMARK  Name = No_4897-gen_results/8p0m/2024-11-27-11-27-31/
REMARK  3 active torsions:
REMARK  status: ('A' for Active; 'I' for Inactive)
REMARK    1  A    between atoms: C_3  and  O_7
REMARK    2  A    between atoms: O_7  and  C_8
REMARK    3  A    between atoms: C_13  and  C_15
REMARK                            x       y       z     vdW  Elec       q    Type
REMARK                         _______ _______ _______ _____ _____    ______ ____
ROOT
ATOM      1  C   UNL A   1     -25.784   0.363  27.042  0.00  0.00    +0.192 C 
ATOM      2  C   UNL A   1     -24.559   0.879  26.982  0.00  0.00    +0.017 C 
ATOM      3  C   UNL A   1     -24.228   1.821  27.528  0.00  0.00    -0.001 C 
ATOM      4  C   UNL A   1     -24.965   2.565  28.564  0.00  0.00    -0.005 C 
ATOM      5  C   UNL A   1     -26.229   2.763  28.168  0.00  0.00    -0.026 C 
ATOM      6  C   UNL A   1     -26.912   1.223  26.920  0.00  0.00    +0.070 C 
ATOM      7  C   UNL A   1     -27.167   2.283  27.712  0.00  0.00    +0.034 C 
ENDROOT
BRANCH   6   8
ATOM      8  C   UNL A   1     -27.812   0.685  25.890  0.00  0.00    -0.027 C 
ATOM      9  C   UNL A   1     -29.178   0.969  25.872  0.00  0.00    -0.030 C 
ATOM     10  C   UNL A   1     -29.970   0.528  24.905  0.00  0.00    +0.030 C 
ENDBRANCH   6   8
BRANCH   1  11
ATOM     11  O   UNL A   1     -25.800  -0.826  27.711  0.00  0.00    -0.474 OA
BRANCH  11  14
ATOM     12  C   UNL A   1     -28.016  -0.814  28.878  0.00  0.00    +0.037 A 
ATOM     13  C   UNL A   1     -28.469  -0.785  29.829  0.00  0.00    +0.003 A 
ATOM     14  C   UNL A   1     -26.546  -0.876  28.850  0.00  0.00    +0.139 A 
ATOM     15  C   UNL A   1     -25.804  -1.032  30.057  0.00  0.00    +0.037 A 
ATOM     16  C   UNL A   1     -26.537  -1.039  31.217  0.00  0.00    +0.003 A 
ATOM     17  C   UNL A   1     -27.893  -0.960  31.174  0.00  0.00    +0.000 A 
ENDBRANCH  11  14
ENDBRANCH   1  11
TORSDOF 3
