MODEL 4898
MODEL 1
REMARK VINA RESULT:    -9.967      0.000      0.000
REMARK INTER + INTRA:          -9.967
REMARK INTER:                  -9.967
REMARK INTRA:                   0.000
REMARK UNBOUND:                 0.000
REMARK  Name = No_4898-gen_results/8p0m/2024-11-27-11-27-31/
REMARK  0 active torsions:
REMARK  status: ('A' for Active; 'I' for Inactive)
REMARK                            x       y       z     vdW  Elec       q    Type
REMARK                         _______ _______ _______ _____ _____    ______ ____
ROOT
ATOM      1  C   UNL A   1     -25.882  -0.726  29.258  0.00  0.00    +0.003 A 
ATOM      2  C   UNL A   1     -25.074  -0.178  28.861  0.00  0.00    +0.034 A 
ATOM      3  C   UNL A   1     -25.669  -2.220  29.352  0.00  0.00    +0.000 A 
ATOM      4  C   UNL A   1     -26.659  -3.202  29.717  0.00  0.00    +0.000 A 
ATOM      5  C   UNL A   1     -25.172   1.341  28.714  0.00  0.00    +0.141 A 
ATOM      6  C   UNL A   1     -26.224  -4.577  29.713  0.00  0.00    +0.000 A 
ATOM      7  C   UNL A   1     -25.132  -4.867  29.201  0.00  0.00    +0.000 A 
ATOM      8  C   UNL A   1     -24.123  -4.070  28.744  0.00  0.00    +0.000 A 
ATOM      9  C   UNL A   1     -24.392  -2.705  28.817  0.00  0.00    +0.000 A 
ATOM     10  C   UNL A   1     -24.109   2.130  28.436  0.00  0.00    +0.017 A 
ATOM     11  C   UNL A   1     -22.866   1.566  28.126  0.00  0.00    -0.001 A 
ATOM     12  C   UNL A   1     -22.643   0.238  28.244  0.00  0.00    -0.000 A 
ATOM     13  C   UNL A   1     -23.611  -0.590  28.641  0.00  0.00    +0.003 A 
ATOM     14  C   UNL A   1     -23.394  -1.924  28.877  0.00  0.00    +0.000 A 
ATOM     15  O   UNL A   1     -26.329   1.839  28.945  0.00  0.00    -0.458 OA
ATOM     16  C   UNL A   1     -26.908   2.762  28.183  0.00  0.00    +0.123 C 
ATOM     17  C   UNL A   1     -27.026   2.903  27.194  0.00  0.00    +0.013 C 
ATOM     18  C   UNL A   1     -27.516   3.831  29.139  0.00  0.00    +0.079 C 
ATOM     19  C   UNL A   1     -26.657   1.822  26.166  0.00  0.00    -0.005 A 
ATOM     20  C   UNL A   1     -27.057   1.394  25.321  0.00  0.00    -0.001 A 
ATOM     21  C   UNL A   1     -26.557   0.272  24.449  0.00  0.00    -0.000 A 
ATOM     22  C   UNL A   1     -25.408  -0.373  24.900  0.00  0.00    -0.000 A 
ATOM     23  C   UNL A   1     -24.778   0.115  26.016  0.00  0.00    -0.004 A 
ATOM     24  C   UNL A   1     -25.325   1.109  26.628  0.00  0.00    -0.018 A 
ATOM     25  C   UNL A   1     -24.429   2.106  26.779  0.00  0.00    +0.056 C 
ATOM     26  C   UNL A   1     -28.038   3.493  30.256  0.00  0.00    -0.019 C 
ATOM     27  C   UNL A   1     -28.895   2.444  30.331  0.00  0.00    -0.004 C 
ATOM     28  C   UNL A   1     -29.528   1.841  29.268  0.00  0.00    -0.004 A 
ATOM     29  C   UNL A   1     -30.371   0.700  29.384  0.00  0.00    -0.000 A 
ATOM     30  C   UNL A   1     -30.718  -0.077  28.258  0.00  0.00    -0.000 A 
ATOM     31  C   UNL A   1     -30.296   0.338  26.997  0.00  0.00    -0.000 A 
ATOM     32  C   UNL A   1     -29.569   1.513  26.881  0.00  0.00    -0.004 A 
ATOM     33  C   UNL A   1     -29.076   2.113  27.976  0.00  0.00    -0.018 A 
ATOM     34  C   UNL A   1     -28.730   3.434  27.564  0.00  0.00    +0.055 C 
ATOM     35  C   UNL A   1     -26.156   4.765  29.479  0.00  0.00    +0.013 C 
ENDROOT
TORSDOF 0
ENDMDL
ENDMDL
