REMARK  Name = outputs/IAG933/test6/raw/output_4898_IAG933_linker_design_.xyz
REMARK  8 active torsions:
REMARK  status: ('A' for Active; 'I' for Inactive)
REMARK    1  A    between atoms: C_1  and  C_2
REMARK    2  A    between atoms: C_13  and  C_30
REMARK    3  A    between atoms: C_14  and  C_15
REMARK    4  A    between atoms: C_21  and  O_22
REMARK    5  A    between atoms: O_22  and  C_23
REMARK    6  A    between atoms: C_23  and  C_24
REMARK    7  A    between atoms: C_32  and  N_38
REMARK    8  A    between atoms: C_39  and  C_41
REMARK                            x       y       z     vdW  Elec       q    Type
REMARK                         _______ _______ _______ _____ _____    ______ ____
ROOT
ATOM      1  C   UNL A   1     -21.738   1.772  26.531  0.00  0.00    +0.012 C 
ATOM      2  C   UNL A   1     -24.191   1.260  26.954  0.00  0.00    +0.046 C 
ATOM      3  O   UNL A   1     -22.020  -0.066  29.617  0.00  0.00    -0.290 OA
ATOM      4  C   UNL A   1     -23.710   0.608  28.202  0.00  0.00    +0.086 C 
ATOM      5  F   UNL A   1     -23.334   2.189  24.761  0.00  0.00    -0.204 F 
ATOM      6  C   UNL A   1     -23.063   1.757  26.095  0.00  0.00    +0.138 C 
ATOM      7  C   UNL A   1     -22.316   0.564  28.554  0.00  0.00    +0.191 C 
ATOM      8  C   UNL A   1     -21.338   1.142  27.739  0.00  0.00    +0.099 C 
ENDROOT
BRANCH   4  16
ATOM      9  C   UNL A   1     -24.855  -1.012  30.143  0.00  0.00    +0.111 C 
ATOM     10  C   UNL A   1     -25.387  -0.679  31.571  0.00  0.00    +0.096 C 
ATOM     11  C   UNL A   1     -25.189   0.773  32.028  0.00  0.00    +0.032 C 
ATOM     12  C   UNL A   1     -25.336   0.684  33.544  0.00  0.00    +0.021 C 
ATOM     13  C   UNL A   1     -24.829  -0.715  33.905  0.00  0.00    +0.089 C 
ATOM     14  N   UNL A   1     -24.758  -1.481  32.646  0.00  0.00    -0.217 NA
ATOM     15  C   UNL A   1     -25.607   1.159  29.431  0.00  0.00    +0.102 C 
ATOM     16  N   UNL A   1     -24.705  -0.007  29.054  0.00  0.00    -0.301 N 
ATOM     17  C   UNL A   1     -25.006   1.698  30.795  0.00  0.00    +0.124 C 
BRANCH   9  18
ATOM     18  C   UNL A   1     -24.973  -2.505  29.788  0.00  0.00    -0.003 C 
ATOM     19  C   UNL A   1     -23.906  -3.173  29.146  0.00  0.00    -0.003 C 
ATOM     20  C   UNL A   1     -23.989  -4.549  28.853  0.00  0.00    -0.000 C 
ATOM     21  C   UNL A   1     -25.137  -5.280  29.205  0.00  0.00    -0.000 C 
ATOM     22  C   UNL A   1     -26.232  -4.611  29.784  0.00  0.00    -0.000 C 
ATOM     23  C   UNL A   1     -26.155  -3.232  30.065  0.00  0.00    -0.003 C 
ENDBRANCH   9  18
BRANCH  17  26
ATOM     24  O   UNL A   1     -25.050   4.025  31.062  0.00  0.00    -0.246 OA
ATOM     25  O   UNL A   1     -26.743   2.968  31.679  0.00  0.00    -0.246 OA
ATOM     26  C   UNL A   1     -25.695   3.071  31.271  0.00  0.00    +0.366 C 
ENDBRANCH  17  26
ENDBRANCH   4  16
BRANCH   2  27
ATOM     27  C   UNL A   1     -25.688   1.614  26.461  0.00  0.00    +0.042 C 
ATOM     28  C   UNL A   1     -26.250   2.920  26.395  0.00  0.00    +0.077 C 
ATOM     29  C   UNL A   1     -27.438   3.091  25.645  0.00  0.00    +0.107 C 
ATOM     30  N   UNL A   1     -28.075   2.089  25.003  0.00  0.00    -0.208 NA
ATOM     31  C   UNL A   1     -27.543   0.849  25.079  0.00  0.00    +0.253 C 
ATOM     32  C   UNL A   1     -26.354   0.576  25.777  0.00  0.00    +0.193 C 
ATOM     33  F   UNL A   1     -25.860  -0.681  25.795  0.00  0.00    -0.199 F 
BRANCH  28  34
ATOM     34  C   UNL A   1     -25.642   4.093  27.123  0.00  0.00    +0.266 C 
ATOM     35  N   UNL A   1     -25.614   5.252  26.449  0.00  0.00    -0.200 NA
ATOM     36  C   UNL A   1     -25.026   6.479  26.963  0.00  0.00    +0.139 C 
ATOM     37  O   UNL A   1     -25.143   3.966  28.243  0.00  0.00    -0.268 OA
ENDBRANCH  28  34
BRANCH  31  38
ATOM     38  O   UNL A   1     -28.193  -0.208  24.477  0.00  0.00    -0.456 OA
BRANCH  38  39
ATOM     39  C   UNL A   1     -29.460   0.005  23.866  0.00  0.00    +0.243 C 
BRANCH  39  40
ATOM     40  C   UNL A   1     -30.065  -1.377  23.573  0.00  0.00    +0.229 C 
ATOM     41  O   UNL A   1     -30.729  -1.878  24.721  0.00  0.00    -0.216 OA
ENDBRANCH  39  40
ENDBRANCH  38  39
ENDBRANCH  31  38
ENDBRANCH   2  27
TORSDOF 8
