MODEL 4899
MODEL 1
REMARK VINA RESULT:    -7.009      0.000      0.000
REMARK INTER + INTRA:          -8.868
REMARK INTER:                  -8.239
REMARK INTRA:                  -0.630
REMARK UNBOUND:                -0.630
REMARK  Name = No_4899-gen_results/8p0m/2024-11-27-11-27-31/
REMARK  3 active torsions:
REMARK  status: ('A' for Active; 'I' for Inactive)
REMARK    1  A    between atoms: C_2  and  C_7
REMARK    2  A    between atoms: C_7  and  C_8
REMARK    3  A    between atoms: C_8  and  C_9
REMARK                            x       y       z     vdW  Elec       q    Type
REMARK                         _______ _______ _______ _____ _____    ______ ____
ROOT
ATOM      1  C   UNL A   1     -23.967  -0.681  29.040  0.00  0.00    +0.031 C 
ENDROOT
BRANCH   1   3
ATOM      2  C   UNL A   1     -24.423   0.365  27.066  0.00  0.00    -0.004 A 
ATOM      3  C   UNL A   1     -23.713   0.360  27.844  0.00  0.00    -0.022 A 
ATOM      4  C   UNL A   1     -24.153   1.345  25.945  0.00  0.00    -0.000 A 
ATOM      5  C   UNL A   1     -22.938   2.062  25.932  0.00  0.00    -0.000 A 
ATOM      6  C   UNL A   1     -22.377   0.964  28.054  0.00  0.00    -0.004 A 
ATOM      7  C   UNL A   1     -22.091   1.866  27.039  0.00  0.00    -0.000 A 
ENDBRANCH   1   3
BRANCH   1   8
ATOM      8  C   UNL A   1     -23.380  -1.935  28.963  0.00  0.00    +0.031 C 
BRANCH   8   9
ATOM      9  C   UNL A   1     -24.041  -2.916  29.041  0.00  0.00    -0.022 A 
ATOM     10  C   UNL A   1     -24.025  -4.055  28.809  0.00  0.00    -0.004 A 
ATOM     11  C   UNL A   1     -24.936  -5.219  29.023  0.00  0.00    -0.000 A 
ATOM     12  C   UNL A   1     -26.186  -4.834  29.582  0.00  0.00    -0.000 A 
ATOM     13  C   UNL A   1     -26.395  -3.518  29.889  0.00  0.00    -0.000 A 
ATOM     14  C   UNL A   1     -25.460  -2.650  29.707  0.00  0.00    -0.004 A 
ENDBRANCH   8   9
ENDBRANCH   1   8
TORSDOF 3
ENDMDL
ENDMDL
