MODEL 48
MODEL 1
REMARK VINA RESULT:    -6.408      0.000      0.000
REMARK INTER + INTRA:          -6.909
REMARK INTER:                  -6.783
REMARK INTRA:                  -0.126
REMARK UNBOUND:                -0.126
REMARK  Name = No_48-gen_results/8p0m/2024-11-27-11-27-31/
REMARK  1 active torsions:
REMARK  status: ('A' for Active; 'I' for Inactive)
REMARK    1  A    between atoms: C_10  and  C_13
REMARK                            x       y       z     vdW  Elec       q    Type
REMARK                         _______ _______ _______ _____ _____    ______ ____
ROOT
ATOM      1  C   UNL A   1     -24.012  -4.244  28.742  0.00  0.00    +0.030 A 
ATOM      2  C   UNL A   1     -24.886  -4.789  28.966  0.00  0.00    +0.140 A 
ATOM      3  C   UNL A   1     -24.074  -2.842  29.153  0.00  0.00    +0.003 A 
ATOM      4  C   UNL A   1     -25.171  -2.315  29.788  0.00  0.00    +0.008 A 
ATOM      5  C   UNL A   1     -26.164  -4.505  29.618  0.00  0.00    +0.030 A 
ATOM      6  C   UNL A   1     -26.235  -3.150  30.020  0.00  0.00    +0.003 A 
ATOM      7  C   UNL A   1     -23.045  -1.748  29.002  0.00  0.00    +0.003 A 
ATOM      8  C   UNL A   1     -22.787  -0.883  29.720  0.00  0.00    +0.042 A 
ATOM      9  C   UNL A   1     -23.982  -0.345  30.529  0.00  0.00    +0.200 A 
ATOM     10  C   UNL A   1     -25.089  -1.149  30.650  0.00  0.00    +0.096 A 
ATOM     11  O   UNL A   1     -23.772   0.857  31.149  0.00  0.00    -0.286 OA
ATOM     12  F   UNL A   1     -24.926  -6.190  28.487  0.00  0.00    -0.204 F 
ENDROOT
BRANCH  10  13
ATOM     13  C   UNL A   1     -26.194  -0.647  31.502  0.00  0.00    +0.287 C 
ATOM     14  N   UNL A   1     -27.074   0.217  31.042  0.00  0.00    -0.084 NA
ATOM     15  O   UNL A   1     -26.001  -0.719  32.818  0.00  0.00    -0.267 OA
ENDBRANCH  10  13
TORSDOF 1
ENDMDL
ENDMDL
