MODEL 4900
MODEL 1
REMARK VINA RESULT:    -6.895      0.000      0.000
REMARK INTER + INTRA:          -6.895
REMARK INTER:                  -6.895
REMARK INTRA:                   0.000
REMARK UNBOUND:                 0.000
REMARK  Name = No_4900-gen_results/8p0m/2024-11-27-11-27-31/
REMARK  0 active torsions:
REMARK  status: ('A' for Active; 'I' for Inactive)
REMARK                            x       y       z     vdW  Elec       q    Type
REMARK                         _______ _______ _______ _____ _____    ______ ____
ROOT
ATOM      1  C   UNL A   1     -26.672  -3.703  30.096  0.00  0.00    -0.000 A 
ATOM      2  C   UNL A   1     -25.984  -2.721  29.937  0.00  0.00    -0.000 A 
ATOM      3  C   UNL A   1     -24.716  -2.757  29.390  0.00  0.00    +0.039 A 
ATOM      4  C   UNL A   1     -24.212  -4.015  28.956  0.00  0.00    +0.033 A 
ATOM      5  C   UNL A   1     -25.082  -5.051  28.998  0.00  0.00    +0.140 A 
ATOM      6  C   UNL A   1     -26.294  -4.916  29.501  0.00  0.00    +0.029 A 
ATOM      7  F   UNL A   1     -24.622  -6.217  28.546  0.00  0.00    -0.204 F 
ATOM      8  C   UNL A   1     -26.371  -1.306  30.490  0.00  0.00    +0.124 C 
ATOM      9  C   UNL A   1     -25.557  -0.347  30.666  0.00  0.00    -0.000 A 
ATOM     10  C   UNL A   1     -25.893   0.943  31.187  0.00  0.00    -0.003 A 
ATOM     11  C   UNL A   1     -24.954   2.015  31.333  0.00  0.00    -0.000 A 
ATOM     12  C   UNL A   1     -23.637   1.868  30.957  0.00  0.00    +0.000 A 
ATOM     13  C   UNL A   1     -23.242   0.692  30.330  0.00  0.00    +0.003 A 
ATOM     14  C   UNL A   1     -24.138  -0.394  30.189  0.00  0.00    +0.036 A 
ATOM     15  C   UNL A   1     -23.760  -1.612  29.533  0.00  0.00    +0.195 C 
ATOM     16 CL   UNL A   1     -27.950  -1.217  31.175  0.00  0.00    -0.105 Cl
ATOM     17  O   UNL A   1     -22.584  -1.738  29.032  0.00  0.00    -0.287 OA
ENDROOT
TORSDOF 0
ENDMDL
ENDMDL
