MODEL 4901
MODEL 1
REMARK VINA RESULT:    -6.670      0.000      0.000
REMARK INTER + INTRA:         -11.789
REMARK INTER:                 -10.960
REMARK INTRA:                  -0.829
REMARK UNBOUND:                -0.829
REMARK  Name = No_4901-gen_results/8p0m/2024-11-27-11-27-31/
REMARK  11 active torsions:
REMARK  status: ('A' for Active; 'I' for Inactive)
REMARK    1  A    between atoms: C_2  and  C_10
REMARK    2  A    between atoms: C_5  and  C_7
REMARK    3  A    between atoms: C_10  and  O_12
REMARK    4  A    between atoms: O_12  and  C_13
REMARK    5  A    between atoms: C_13  and  C_14
REMARK    6  A    between atoms: C_14  and  O_16
REMARK    7  A    between atoms: O_16  and  C_17
REMARK    8  A    between atoms: C_19  and  C_23
REMARK    9  A    between atoms: C_23  and  O_25
REMARK   10  A    between atoms: O_25  and  C_26
REMARK   11  A    between atoms: C_26  and  C_27
REMARK                            x       y       z     vdW  Elec       q    Type
REMARK                         _______ _______ _______ _____ _____    ______ ____
ROOT
ATOM      1  C   UNL A   1     -21.538 -17.740   5.277  0.00  0.00    +0.367 C 
ATOM      2  O   UNL A   1     -21.582 -18.346   4.154  0.00  0.00    -0.245 OA
ENDROOT
BRANCH   1   3
ATOM      3  C   UNL A   1     -20.883 -18.216   6.420  0.00  0.00    +0.317 C 
BRANCH   3   4
ATOM      4  O   UNL A   1     -20.454 -19.530   6.289  0.00  0.00    -0.433 OA
BRANCH   4   5
ATOM      5  C   UNL A   1     -19.080 -19.667   6.216  0.00  0.00    +0.342 C 
ATOM      6  O   UNL A   1     -18.499 -19.189   5.424  0.00  0.00    -0.245 OA
BRANCH   5   8
ATOM      7  C   UNL A   1     -19.134 -21.473   7.875  0.00  0.00    +0.007 A 
ATOM      8  C   UNL A   1     -18.452 -20.826   7.115  0.00  0.00    +0.076 A 
ATOM      9  C   UNL A   1     -17.072 -20.890   7.030  0.00  0.00    +0.007 A 
ATOM     10  C   UNL A   1     -16.412 -21.817   7.889  0.00  0.00    +0.007 A 
ATOM     11  C   UNL A   1     -17.210 -22.626   8.615  0.00  0.00    +0.080 A 
ATOM     12  C   UNL A   1     -18.541 -22.538   8.556  0.00  0.00    +0.007 A 
BRANCH  11  13
ATOM     13  C   UNL A   1     -16.495 -23.605   9.457  0.00  0.00    +0.388 C 
ATOM     14  O   UNL A   1     -16.178 -23.295  10.469  0.00  0.00    -0.241 OA
ATOM     15  O   UNL A   1     -16.142 -24.794   8.986  0.00  0.00    -0.241 OA
ENDBRANCH  11  13
ENDBRANCH   5   8
ENDBRANCH   4   5
ENDBRANCH   3   4
ENDBRANCH   1   3
BRANCH   1  16
ATOM     16  O   UNL A   1     -22.776 -17.153   5.631  0.00  0.00    -0.422 OA
BRANCH  16  17
ATOM     17  C   UNL A   1     -22.867 -15.855   5.819  0.00  0.00    +0.149 A 
ATOM     18  C   UNL A   1     -22.931 -15.162   4.653  0.00  0.00    +0.044 A 
ATOM     19  C   UNL A   1     -23.241 -13.659   4.769  0.00  0.00    +0.079 A 
ATOM     20  C   UNL A   1     -24.266 -13.371   5.659  0.00  0.00    +0.007 A 
ATOM     21  C   UNL A   1     -24.518 -14.277   6.732  0.00  0.00    +0.003 A 
ATOM     22  C   UNL A   1     -24.298 -15.704   6.437  0.00  0.00    +0.038 A 
BRANCH  19  23
ATOM     23  C   UNL A   1     -22.810 -12.685   3.818  0.00  0.00    +0.342 C 
ATOM     24  O   UNL A   1     -23.514 -12.061   3.177  0.00  0.00    -0.245 OA
BRANCH  23  25
ATOM     25  O   UNL A   1     -21.486 -12.202   3.995  0.00  0.00    -0.433 OA
BRANCH  25  26
ATOM     26  C   UNL A   1     -20.764 -11.824   2.932  0.00  0.00    +0.322 C 
BRANCH  26  27
ATOM     27  C   UNL A   1     -19.540 -12.245   2.853  0.00  0.00    +0.409 C 
ATOM     28  O   UNL A   1     -19.122 -12.770   1.974  0.00  0.00    -0.241 OA
ATOM     29  O   UNL A   1     -18.977 -12.382   4.067  0.00  0.00    -0.241 OA
ENDBRANCH  26  27
ENDBRANCH  25  26
ENDBRANCH  23  25
ENDBRANCH  19  23
ENDBRANCH  16  17
ENDBRANCH   1  16
TORSDOF 11
ENDMDL
ENDMDL
