MODEL 4902
MODEL 1
REMARK VINA RESULT:    -6.974      0.000      0.000
REMARK INTER + INTRA:          -9.283
REMARK INTER:                  -8.197
REMARK INTRA:                  -1.086
REMARK UNBOUND:                -1.086
REMARK  Name = No_4902-gen_results/8p0m/2024-11-27-11-27-31/
REMARK  3 active torsions:
REMARK  status: ('A' for Active; 'I' for Inactive)
REMARK    1  A    between atoms: C_3  and  C_7
REMARK    2  A    between atoms: C_7  and  C_8
REMARK    3  A    between atoms: C_7  and  C_9
REMARK                            x       y       z     vdW  Elec       q    Type
REMARK                         _______ _______ _______ _____ _____    ______ ____
ROOT
ATOM      1  C   UNL A   1     -23.953  -1.653  29.921  0.00  0.00    +0.045 C 
ENDROOT
BRANCH   1   4
ATOM      2  C   UNL A   1     -23.952   0.182  28.132  0.00  0.00    -0.004 A 
ATOM      3  C   UNL A   1     -23.388   0.881  27.581  0.00  0.00    -0.000 A 
ATOM      4  C   UNL A   1     -23.264  -0.644  29.049  0.00  0.00    -0.018 A 
ATOM      5  C   UNL A   1     -21.896  -0.563  29.221  0.00  0.00    -0.004 A 
ATOM      6  C   UNL A   1     -21.940   1.170  27.576  0.00  0.00    -0.000 A 
ATOM      7  C   UNL A   1     -21.243   0.399  28.439  0.00  0.00    -0.000 A 
ENDBRANCH   1   4
BRANCH   1   8
ATOM      8  C   UNL A   1     -24.746  -2.531  29.235  0.00  0.00    -0.018 A 
ATOM      9  C   UNL A   1     -26.011  -3.047  29.716  0.00  0.00    -0.004 A 
ATOM     10  C   UNL A   1     -26.293  -4.312  29.730  0.00  0.00    -0.000 A 
ATOM     11  C   UNL A   1     -25.295  -5.280  29.165  0.00  0.00    -0.000 A 
ATOM     12  C   UNL A   1     -24.115  -4.813  28.611  0.00  0.00    -0.000 A 
ATOM     13  C   UNL A   1     -23.863  -3.534  28.553  0.00  0.00    -0.004 A 
ENDBRANCH   1   8
BRANCH   1  14
ATOM     14  C   UNL A   1     -23.802  -1.699  31.288  0.00  0.00    +0.009 C 
ATOM     15  C   UNL A   1     -24.397  -0.723  32.052  0.00  0.00    +0.001 C 
ENDBRANCH   1  14
TORSDOF 3
ENDMDL
ENDMDL
