MODEL 4903
MODEL 1
REMARK VINA RESULT:    -4.594      0.000      0.000
REMARK INTER + INTRA:          -4.594
REMARK INTER:                  -4.594
REMARK INTRA:                   0.000
REMARK UNBOUND:                 0.000
REMARK  Name = No_4903-gen_results/8p0m/2024-11-27-11-27-31/
REMARK  0 active torsions:
REMARK  status: ('A' for Active; 'I' for Inactive)
REMARK                            x       y       z     vdW  Elec       q    Type
REMARK                         _______ _______ _______ _____ _____    ______ ____
ROOT
ATOM      1  C   UNL A   1      -9.545  -9.062  20.249  0.00  0.00    +0.030 A 
ATOM      2  C   UNL A   1     -10.257  -9.208  19.486  0.00  0.00    +0.002 A 
ATOM      3  C   UNL A   1      -8.262  -9.768  20.097  0.00  0.00    +0.140 A 
ATOM      4  C   UNL A   1      -7.969 -10.489  18.903  0.00  0.00    +0.030 A 
ATOM      5  C   UNL A   1      -8.973 -10.541  17.969  0.00  0.00    +0.002 A 
ATOM      6  C   UNL A   1     -10.142  -9.881  18.180  0.00  0.00    +0.000 A 
ATOM      7  F   UNL A   1      -7.294  -9.743  20.996  0.00  0.00    -0.204 F 
ENDROOT
TORSDOF 0
ENDMDL
ENDMDL
