REMARK  Name = outputs/IAG933/test6/raw/output_4903_IAG933_linker_design_.xyz
REMARK  11 active torsions:
REMARK  status: ('A' for Active; 'I' for Inactive)
REMARK    1  A    between atoms: C_1  and  C_2
REMARK    2  A    between atoms: C_1  and  C_8
REMARK    3  A    between atoms: C_1  and  C_35
REMARK    4  A    between atoms: C_13  and  C_46
REMARK    5  A    between atoms: C_14  and  C_15
REMARK    6  A    between atoms: C_21  and  O_22
REMARK    7  A    between atoms: O_22  and  C_23
REMARK    8  A    between atoms: C_23  and  C_24
REMARK    9  A    between atoms: C_30  and  C_35
REMARK   10  A    between atoms: C_35  and  C_40
REMARK   11  A    between atoms: C_38  and  C_40
REMARK                            x       y       z     vdW  Elec       q    Type
REMARK                         _______ _______ _______ _____ _____    ______ ____
ROOT
ATOM      1  F   UNL A   1     -21.261   2.226  25.596  0.00  0.00    -0.202 F 
ATOM      2  C   UNL A   1     -24.252   0.686  28.121  0.00  0.00    +0.008 C 
ATOM      3  C   UNL A   1     -22.876   0.809  28.553  0.00  0.00    +0.139 C 
ATOM      4  F   UNL A   1     -23.431   1.029  24.703  0.00  0.00    -0.202 F 
ATOM      5  F   UNL A   1     -22.610   0.587  29.859  0.00  0.00    -0.204 F 
ATOM      6  C   UNL A   1     -23.390   1.343  25.992  0.00  0.00    +0.167 C 
ATOM      7  C   UNL A   1     -22.122   1.640  26.450  0.00  0.00    +0.170 C 
ATOM      8  C   UNL A   1     -21.814   1.320  27.764  0.00  0.00    +0.061 C 
ATOM      9  C   UNL A   1     -24.483   1.234  26.888  0.00  0.00    +0.030 C 
ENDROOT
BRANCH   9  10
ATOM     10  C   UNL A   1     -25.688   1.614  26.461  0.00  0.00    +0.040 C 
ATOM     11  C   UNL A   1     -26.250   2.920  26.395  0.00  0.00    +0.077 C 
ATOM     12  C   UNL A   1     -27.438   3.091  25.645  0.00  0.00    +0.107 C 
ATOM     13  N   UNL A   1     -28.075   2.089  25.003  0.00  0.00    -0.208 NA
ATOM     14  C   UNL A   1     -27.543   0.849  25.079  0.00  0.00    +0.253 C 
ATOM     15  C   UNL A   1     -26.354   0.576  25.777  0.00  0.00    +0.193 C 
ATOM     16  F   UNL A   1     -25.860  -0.681  25.795  0.00  0.00    -0.199 F 
BRANCH  11  17
ATOM     17  C   UNL A   1     -25.642   4.093  27.123  0.00  0.00    +0.266 C 
ATOM     18  N   UNL A   1     -25.614   5.252  26.449  0.00  0.00    -0.200 NA
ATOM     19  C   UNL A   1     -25.026   6.479  26.963  0.00  0.00    +0.139 C 
ATOM     20  O   UNL A   1     -25.143   3.966  28.243  0.00  0.00    -0.268 OA
ENDBRANCH  11  17
BRANCH  14  21
ATOM     21  O   UNL A   1     -28.193  -0.208  24.477  0.00  0.00    -0.456 OA
BRANCH  21  22
ATOM     22  C   UNL A   1     -29.460   0.005  23.866  0.00  0.00    +0.243 C 
BRANCH  22  23
ATOM     23  C   UNL A   1     -30.065  -1.377  23.573  0.00  0.00    +0.229 C 
ATOM     24  O   UNL A   1     -30.729  -1.878  24.721  0.00  0.00    -0.216 OA
ENDBRANCH  22  23
ENDBRANCH  21  22
ENDBRANCH  14  21
ENDBRANCH   9  10
BRANCH   2  25
ATOM     25  C   UNL A   1     -25.360  -0.031  28.979  0.00  0.00    +0.030 C 
BRANCH  25  26
ATOM     26  C   UNL A   1     -24.855  -1.012  30.143  0.00  0.00    +0.042 C 
BRANCH  26  27
ATOM     27  C   UNL A   1     -24.973  -2.505  29.788  0.00  0.00    -0.021 C 
ATOM     28  C   UNL A   1     -23.906  -3.173  29.146  0.00  0.00    -0.004 C 
ATOM     29  C   UNL A   1     -23.989  -4.549  28.853  0.00  0.00    -0.000 C 
ATOM     30  C   UNL A   1     -25.137  -5.280  29.205  0.00  0.00    -0.000 C 
ATOM     31  C   UNL A   1     -26.232  -4.611  29.784  0.00  0.00    -0.000 C 
ATOM     32  C   UNL A   1     -26.155  -3.232  30.065  0.00  0.00    -0.004 C 
ENDBRANCH  26  27
BRANCH  26  33
ATOM     33  C   UNL A   1     -25.387  -0.679  31.571  0.00  0.00    +0.077 C 
ATOM     34  C   UNL A   1     -25.189   0.773  32.028  0.00  0.00    +0.019 C 
ATOM     35  C   UNL A   1     -25.336   0.684  33.544  0.00  0.00    +0.020 C 
ATOM     36  C   UNL A   1     -24.829  -0.715  33.905  0.00  0.00    +0.089 C 
ATOM     37  N   UNL A   1     -24.758  -1.481  32.646  0.00  0.00    -0.219 NA
ENDBRANCH  26  33
ENDBRANCH  25  26
BRANCH  25  38
ATOM     38  C   UNL A   1     -27.010   0.162  28.695  0.00  0.00    +0.005 C 
BRANCH  38  43
ATOM     39  C   UNL A   1     -29.613   2.734  28.445  0.00  0.00    +0.014 C 
ATOM     40  C   UNL A   1     -29.181   1.484  28.863  0.00  0.00    +0.029 C 
ATOM     41  C   UNL A   1     -29.064   2.261  31.518  0.00  0.00    +0.047 C 
ATOM     42  C   UNL A   1     -28.680   0.943  30.924  0.00  0.00    +0.004 C 
ATOM     43  C   UNL A   1     -28.000   1.061  29.584  0.00  0.00    +0.005 C 
ATOM     44  C   UNL A   1     -29.452   4.125  29.005  0.00  0.00    +0.168 C 
ATOM     45  C   UNL A   1     -27.952   3.305  31.010  0.00  0.00    +0.205 C 
ATOM     46  O   UNL A   1     -28.517   4.273  30.114  0.00  0.00    -0.473 OA
ENDBRANCH  38  43
ENDBRANCH  25  38
ENDBRANCH   2  25
TORSDOF 11
