MODEL 4904
MODEL 1
REMARK VINA RESULT:    -5.891      0.000      0.000
REMARK INTER + INTRA:          -8.600
REMARK INTER:                  -7.613
REMARK INTRA:                  -0.987
REMARK UNBOUND:                -0.987
REMARK  Name = No_4904-gen_results/8p0m/2024-11-27-11-27-31/
REMARK  5 active torsions:
REMARK  status: ('A' for Active; 'I' for Inactive)
REMARK    1  A    between atoms: C_1  and  C_2
REMARK    2  A    between atoms: C_1  and  N_8
REMARK    3  A    between atoms: C_5  and  C_12
REMARK    4  A    between atoms: C_9  and  C_10
REMARK    5  A    between atoms: C_15  and  C_16
REMARK                            x       y       z     vdW  Elec       q    Type
REMARK                         _______ _______ _______ _____ _____    ______ ____
ROOT
ATOM      1  C   UNL A   1     -24.258  -0.628  29.517  0.00  0.00    -0.001 A 
ATOM      2  C   UNL A   1     -25.510  -1.101  29.895  0.00  0.00    -0.003 A 
ATOM      3  C   UNL A   1     -25.931  -2.531  29.949  0.00  0.00    +0.001 A 
ATOM      4  C   UNL A   1     -25.005  -3.475  29.414  0.00  0.00    +0.044 A 
ATOM      5  C   UNL A   1     -23.764  -2.966  28.981  0.00  0.00    +0.001 A 
ATOM      6  C   UNL A   1     -23.422  -1.670  29.007  0.00  0.00    -0.003 A 
ENDROOT
BRANCH   4   7
ATOM      7  C   UNL A   1     -25.410  -4.866  29.422  0.00  0.00    +0.341 C 
ATOM      8  F   UNL A   1     -25.012  -5.611  28.657  0.00  0.00    -0.193 F 
ATOM      9  F   UNL A   1     -26.761  -4.960  29.502  0.00  0.00    -0.193 F 
ENDBRANCH   4   7
BRANCH   1  10
ATOM     10  C   UNL A   1     -24.012   0.556  29.515  0.00  0.00    +0.142 C 
BRANCH  10  11
ATOM     11  N   UNL A   1     -22.844   0.944  28.819  0.00  0.00    -0.190 NA
ATOM     12  C   UNL A   1     -22.609   1.500  27.942  0.00  0.00    +0.309 C 
ATOM     13  O   UNL A   1     -21.496   1.484  27.246  0.00  0.00    -0.259 OA
BRANCH  12  14
ATOM     14  C   UNL A   1     -23.662   1.948  27.119  0.00  0.00    -0.001 C 
ATOM     15  C   UNL A   1     -23.870   1.462  26.061  0.00  0.00    -0.055 C 
BRANCH  15  16
ATOM     16  C   UNL A   1     -24.536   0.479  25.838  0.00  0.00    +0.050 C 
ATOM     17  C   UNL A   1     -25.979   0.336  26.137  0.00  0.00    +0.009 C 
ENDBRANCH  15  16
ENDBRANCH  12  14
ENDBRANCH  10  11
ENDBRANCH   1  10
TORSDOF 5
ENDMDL
ENDMDL
