REMARK  Name = outputs/IAG933/test6/raw/output_4905_IAG933_linker_design_.xyz
REMARK  15 active torsions:
REMARK  status: ('A' for Active; 'I' for Inactive)
REMARK    1  A    between atoms: C_1  and  C_2
REMARK    2  A    between atoms: C_1  and  C_8
REMARK    3  A    between atoms: C_1  and  N_40
REMARK    4  A    between atoms: C_13  and  C_42
REMARK    5  A    between atoms: C_14  and  C_15
REMARK    6  A    between atoms: C_21  and  O_22
REMARK    7  A    between atoms: O_22  and  C_23
REMARK    8  A    between atoms: C_23  and  C_24
REMARK    9  A    between atoms: C_29  and  C_36
REMARK   10  A    between atoms: C_30  and  C_31
REMARK   11  A    between atoms: C_30  and  C_36
REMARK   12  A    between atoms: C_33  and  C_37
REMARK   13  A    between atoms: C_33  and  N_40
REMARK   14  A    between atoms: C_36  and  C_37
REMARK   15  A    between atoms: C_41  and  C_42
REMARK                            x       y       z     vdW  Elec       q    Type
REMARK                         _______ _______ _______ _____ _____    ______ ____
ROOT
ATOM      1  O   UNL A   1     -23.141   0.045  28.406  0.00  0.00    -0.270 OA
ATOM      2  N   UNL A   1     -25.500  -0.157  29.120  0.00  0.00    -0.273 N 
ATOM      3  C   UNL A   1     -24.460   0.646  28.435  0.00  0.00    +0.249 C 
ENDROOT
BRANCH   3   6
ATOM      4  C   UNL A   1     -21.697   1.779  27.161  0.00  0.00    +0.031 C 
ATOM      5  C   UNL A   1     -23.089   1.956  26.450  0.00  0.00    -0.021 C 
ATOM      6  C   UNL A   1     -24.366   1.419  27.109  0.00  0.00    +0.052 C 
BRANCH   6   7
ATOM      7  C   UNL A   1     -25.688   1.614  26.461  0.00  0.00    +0.042 C 
ATOM      8  C   UNL A   1     -26.250   2.920  26.395  0.00  0.00    +0.077 C 
ATOM      9  C   UNL A   1     -27.438   3.091  25.645  0.00  0.00    +0.107 C 
ATOM     10  N   UNL A   1     -28.075   2.089  25.003  0.00  0.00    -0.208 NA
ATOM     11  C   UNL A   1     -27.543   0.849  25.079  0.00  0.00    +0.253 C 
ATOM     12  C   UNL A   1     -26.354   0.576  25.777  0.00  0.00    +0.193 C 
ATOM     13  F   UNL A   1     -25.860  -0.681  25.795  0.00  0.00    -0.199 F 
BRANCH   8  14
ATOM     14  C   UNL A   1     -25.642   4.093  27.123  0.00  0.00    +0.266 C 
ATOM     15  N   UNL A   1     -25.614   5.252  26.449  0.00  0.00    -0.200 NA
ATOM     16  C   UNL A   1     -25.026   6.479  26.963  0.00  0.00    +0.139 C 
ATOM     17  O   UNL A   1     -25.143   3.966  28.243  0.00  0.00    -0.268 OA
ENDBRANCH   8  14
BRANCH  11  18
ATOM     18  O   UNL A   1     -28.193  -0.208  24.477  0.00  0.00    -0.456 OA
BRANCH  18  19
ATOM     19  C   UNL A   1     -29.460   0.005  23.866  0.00  0.00    +0.243 C 
BRANCH  19  20
ATOM     20  C   UNL A   1     -30.065  -1.377  23.573  0.00  0.00    +0.229 C 
ATOM     21  O   UNL A   1     -30.729  -1.878  24.721  0.00  0.00    -0.216 OA
ENDBRANCH  19  20
ENDBRANCH  18  19
ENDBRANCH  11  18
ENDBRANCH   6   7
ENDBRANCH   3   6
BRANCH   2  22
ATOM     22  C   UNL A   1     -24.855  -1.012  30.143  0.00  0.00    +0.114 C 
BRANCH  22  23
ATOM     23  C   UNL A   1     -24.973  -2.505  29.788  0.00  0.00    -0.003 C 
ATOM     24  C   UNL A   1     -23.906  -3.173  29.146  0.00  0.00    -0.003 C 
ATOM     25  C   UNL A   1     -23.989  -4.549  28.853  0.00  0.00    -0.000 C 
ATOM     26  C   UNL A   1     -25.137  -5.280  29.205  0.00  0.00    -0.000 C 
ATOM     27  C   UNL A   1     -26.232  -4.611  29.784  0.00  0.00    -0.000 C 
ATOM     28  C   UNL A   1     -26.155  -3.232  30.065  0.00  0.00    -0.003 C 
ENDBRANCH  22  23
BRANCH  22  29
ATOM     29  C   UNL A   1     -25.387  -0.679  31.571  0.00  0.00    +0.095 C 
ATOM     30  C   UNL A   1     -25.189   0.773  32.028  0.00  0.00    +0.021 C 
ATOM     31  C   UNL A   1     -25.336   0.684  33.544  0.00  0.00    +0.020 C 
ATOM     32  C   UNL A   1     -24.829  -0.715  33.905  0.00  0.00    +0.089 C 
ATOM     33  N   UNL A   1     -24.758  -1.481  32.646  0.00  0.00    -0.217 NA
ENDBRANCH  22  29
ENDBRANCH   2  22
BRANCH   2  34
ATOM     34  C   UNL A   1     -26.920   0.077  28.768  0.00  0.00    +0.095 C 
BRANCH  34  35
ATOM     35  C   UNL A   1     -27.798  -1.160  28.872  0.00  0.00    +0.034 C 
BRANCH  35  36
ATOM     36  C   UNL A   1     -29.298  -1.033  29.415  0.00  0.00    +0.120 C 
BRANCH  36  37
ATOM     37  C   UNL A   1     -29.969  -0.123  28.470  0.00  0.00    +0.365 C 
ATOM     38  O   UNL A   1     -29.746  -0.302  27.231  0.00  0.00    -0.246 OA
ATOM     39  O   UNL A   1     -30.732   0.738  28.978  0.00  0.00    -0.246 OA
ENDBRANCH  36  37
BRANCH  36  40
ATOM     40  C   UNL A   1     -30.322  -1.506  30.547  0.00  0.00    +0.117 C 
BRANCH  40  41
ATOM     41  C   UNL A   1     -30.065  -2.987  30.913  0.00  0.00    +0.074 C 
ATOM     42  N   UNL A   1     -29.872  -4.025  31.106  0.00  0.00    -0.196 NA
ENDBRANCH  40  41
ENDBRANCH  36  40
ENDBRANCH  35  36
ENDBRANCH  34  35
ENDBRANCH   2  34
TORSDOF 15
