MODEL 4907
MODEL 1
REMARK VINA RESULT:    -4.271      0.000      0.000
REMARK INTER + INTRA:          -4.271
REMARK INTER:                  -4.271
REMARK INTRA:                   0.000
REMARK UNBOUND:                 0.000
REMARK  Name = No_4907-gen_results/8p0m/2024-11-27-11-27-31/
REMARK  0 active torsions:
REMARK  status: ('A' for Active; 'I' for Inactive)
REMARK                            x       y       z     vdW  Elec       q    Type
REMARK                         _______ _______ _______ _____ _____    ______ ____
ROOT
ATOM      1  C   UNL A   1     -24.116  -4.821  28.537  0.00  0.00    +0.000 A 
ATOM      2  C   UNL A   1     -23.987  -3.777  28.600  0.00  0.00    +0.000 A 
ATOM      3  C   UNL A   1     -25.315  -5.305  29.222  0.00  0.00    +0.000 A 
ATOM      4  C   UNL A   1     -26.117  -4.589  29.652  0.00  0.00    +0.000 A 
ATOM      5  C   UNL A   1     -24.804  -2.686  29.096  0.00  0.00    +0.000 A 
ATOM      6  C   UNL A   1     -25.981  -3.198  29.708  0.00  0.00    +0.000 A 
ENDROOT
TORSDOF 0
ENDMDL
ENDMDL
