REMARK  Name = outputs/IAG933/test6/raw/output_4908_IAG933_linker_design_.xyz
REMARK  11 active torsions:
REMARK  status: ('A' for Active; 'I' for Inactive)
REMARK    1  A    between atoms: C_1  and  C_2
REMARK    2  A    between atoms: C_1  and  C_8
REMARK    3  A    between atoms: C_1  and  C_28
REMARK    4  A    between atoms: C_9  and  C_43
REMARK    5  A    between atoms: C_13  and  C_35
REMARK    6  A    between atoms: C_14  and  C_15
REMARK    7  A    between atoms: C_21  and  O_22
REMARK    8  A    between atoms: O_22  and  C_23
REMARK    9  A    between atoms: C_23  and  C_24
REMARK   10  A    between atoms: C_32  and  C_40
REMARK   11  A    between atoms: C_34  and  C_43
REMARK                            x       y       z     vdW  Elec       q    Type
REMARK                         _______ _______ _______ _____ _____    ______ ____
ROOT
ATOM      1  C   UNL A   1     -24.306   0.048  29.130  0.00  0.00    +0.121 C 
ATOM      2  O   UNL A   1     -24.584   1.416  28.320  0.00  0.00    -0.354 OA
ATOM      3  C   UNL A   1     -22.824   0.337  29.375  0.00  0.00    +0.030 C 
ATOM      4  C   UNL A   1     -24.514   1.311  27.033  0.00  0.00    +0.140 C 
ATOM      5  C   UNL A   1     -22.197   2.030  27.342  0.00  0.00    +0.003 C 
ATOM      6  C   UNL A   1     -23.307   1.992  26.303  0.00  0.00    +0.034 C 
ATOM      7  C   UNL A   1     -22.100   0.653  28.042  0.00  0.00    +0.003 C 
ENDROOT
BRANCH   4   8
ATOM      8  C   UNL A   1     -25.688   1.614  26.461  0.00  0.00    +0.043 C 
ATOM      9  C   UNL A   1     -26.250   2.920  26.395  0.00  0.00    +0.075 C 
ATOM     10  C   UNL A   1     -27.438   3.091  25.645  0.00  0.00    +0.106 C 
ATOM     11  N   UNL A   1     -28.075   2.089  25.003  0.00  0.00    -0.208 NA
ATOM     12  C   UNL A   1     -27.543   0.849  25.079  0.00  0.00    +0.253 C 
ATOM     13  C   UNL A   1     -26.354   0.576  25.777  0.00  0.00    +0.191 C 
ATOM     14  F   UNL A   1     -25.860  -0.681  25.795  0.00  0.00    -0.200 F 
BRANCH   9  15
ATOM     15  C   UNL A   1     -25.642   4.093  27.123  0.00  0.00    +0.266 C 
ATOM     16  N   UNL A   1     -25.614   5.252  26.449  0.00  0.00    -0.200 NA
ATOM     17  C   UNL A   1     -25.026   6.479  26.963  0.00  0.00    +0.139 C 
ATOM     18  O   UNL A   1     -25.143   3.966  28.243  0.00  0.00    -0.268 OA
ENDBRANCH   9  15
BRANCH  12  19
ATOM     19  O   UNL A   1     -28.193  -0.208  24.477  0.00  0.00    -0.456 OA
BRANCH  19  20
ATOM     20  C   UNL A   1     -29.460   0.005  23.866  0.00  0.00    +0.243 C 
BRANCH  20  21
ATOM     21  C   UNL A   1     -30.065  -1.377  23.573  0.00  0.00    +0.229 C 
ATOM     22  O   UNL A   1     -30.729  -1.878  24.721  0.00  0.00    -0.216 OA
ENDBRANCH  20  21
ENDBRANCH  19  20
ENDBRANCH  12  19
ENDBRANCH   4   8
BRANCH   1  23
ATOM     23  C   UNL A   1     -24.855  -1.012  30.143  0.00  0.00    +0.066 C 
BRANCH  23  24
ATOM     24  C   UNL A   1     -24.973  -2.505  29.788  0.00  0.00    -0.019 C 
ATOM     25  C   UNL A   1     -23.906  -3.173  29.146  0.00  0.00    -0.004 C 
ATOM     26  C   UNL A   1     -23.989  -4.549  28.853  0.00  0.00    -0.000 C 
ATOM     27  C   UNL A   1     -25.137  -5.280  29.205  0.00  0.00    -0.000 C 
ATOM     28  C   UNL A   1     -26.232  -4.611  29.784  0.00  0.00    -0.000 C 
ATOM     29  C   UNL A   1     -26.155  -3.232  30.065  0.00  0.00    -0.004 C 
ENDBRANCH  23  24
BRANCH  23  30
ATOM     30  C   UNL A   1     -25.387  -0.679  31.571  0.00  0.00    +0.080 C 
ATOM     31  C   UNL A   1     -25.189   0.773  32.028  0.00  0.00    +0.027 C 
ATOM     32  C   UNL A   1     -25.336   0.684  33.544  0.00  0.00    +0.021 C 
ATOM     33  C   UNL A   1     -24.829  -0.715  33.905  0.00  0.00    +0.089 C 
ATOM     34  N   UNL A   1     -24.758  -1.481  32.646  0.00  0.00    -0.219 NA
BRANCH  31  35
ATOM     35  C   UNL A   1     -25.383   2.001  31.230  0.00  0.00    +0.089 C 
BRANCH  35  38
ATOM     36  O   UNL A   1     -23.627   3.435  32.002  0.00  0.00    -0.273 OA
ATOM     37  C   UNL A   1     -25.900   5.176  32.663  0.00  0.00    +0.263 C 
ATOM     38  C   UNL A   1     -24.801   3.269  31.733  0.00  0.00    +0.248 C 
ATOM     39  O   UNL A   1     -27.014   5.280  33.182  0.00  0.00    -0.272 OA
ATOM     40  N   UNL A   1     -25.787   4.248  31.652  0.00  0.00    -0.144 NA
BRANCH  37  42
ATOM     41  C   UNL A   1     -25.259   7.102  33.977  0.00  0.00    +0.027 C 
ATOM     42  C   UNL A   1     -24.795   5.906  33.151  0.00  0.00    +0.158 C 
ATOM     43 CL   UNL A   1     -23.782   6.477  31.945  0.00  0.00    -0.105 Cl
ENDBRANCH  37  42
ENDBRANCH  35  38
ENDBRANCH  31  35
ENDBRANCH  23  30
ENDBRANCH   1  23
TORSDOF 11
