MODEL 4908
MODEL 1
REMARK VINA RESULT:    -5.476      0.000      0.000
REMARK INTER + INTRA:          -5.871
REMARK INTER:                  -5.797
REMARK INTRA:                  -0.074
REMARK UNBOUND:                -0.074
REMARK  Name = No_4908-gen_results/8p0m/2024-11-27-11-27-31/
REMARK  1 active torsions:
REMARK  status: ('A' for Active; 'I' for Inactive)
REMARK    1  A    between atoms: C_1  and  C_7
REMARK                            x       y       z     vdW  Elec       q    Type
REMARK                         _______ _______ _______ _____ _____    ______ ____
ROOT
ATOM      1  C   UNL A   1      -9.566 -10.000  18.388  0.00  0.00    +0.048 A 
ATOM      2  C   UNL A   1      -8.471 -10.459  18.615  0.00  0.00    +0.004 A 
ATOM      3  C   UNL A   1      -7.757 -10.201  19.768  0.00  0.00    +0.000 A 
ATOM      4  C   UNL A   1      -8.365  -9.380  20.759  0.00  0.00    +0.000 A 
ATOM      5  C   UNL A   1      -9.653  -9.032  20.535  0.00  0.00    +0.000 A 
ATOM      6  C   UNL A   1     -10.273  -9.359  19.417  0.00  0.00    +0.004 A 
ENDROOT
BRANCH   1   7
ATOM      7  C   UNL A   1     -10.279 -10.345  17.104  0.00  0.00    +0.242 C 
ATOM      8  N   UNL A   1     -11.343 -10.510  16.869  0.00  0.00    -0.116 NA
ATOM      9  F   UNL A   1      -9.390 -10.776  16.208  0.00  0.00    -0.181 F 
ENDBRANCH   1   7
TORSDOF 1
ENDMDL
ENDMDL
