MODEL 4909
MODEL 1
REMARK VINA RESULT:    -7.680      0.000      0.000
REMARK INTER + INTRA:         -14.059
REMARK INTER:                 -10.822
REMARK INTRA:                  -3.236
REMARK UNBOUND:                -3.236
REMARK  Name = No_4909-gen_results/8p0m/2024-11-27-11-27-31/
REMARK  7 active torsions:
REMARK  status: ('A' for Active; 'I' for Inactive)
REMARK    1  A    between atoms: C_2  and  C_20
REMARK    2  A    between atoms: C_3  and  N_11
REMARK    3  A    between atoms: C_10  and  O_23
REMARK    4  A    between atoms: C_12  and  C_13
REMARK    5  A    between atoms: O_23  and  C_24
REMARK    6  A    between atoms: C_24  and  C_25
REMARK    7  A    between atoms: C_25  and  C_26
REMARK                            x       y       z     vdW  Elec       q    Type
REMARK                         _______ _______ _______ _____ _____    ______ ____
ROOT
ATOM      1  C   UNL A   1     -30.498 -10.531  10.976  0.00  0.00    +0.023 A 
ATOM      2  C   UNL A   1     -30.022 -11.461  11.115  0.00  0.00    +0.081 A 
ATOM      3  C   UNL A   1     -30.344  -9.922   9.601  0.00  0.00    +0.074 A 
ATOM      4  C   UNL A   1     -29.723 -10.670   8.579  0.00  0.00    +0.018 A 
ATOM      5  C   UNL A   1     -29.359 -12.446  10.232  0.00  0.00    +0.010 A 
ATOM      6  C   UNL A   1     -29.205 -11.923   8.955  0.00  0.00    +0.035 A 
ATOM      7  C   UNL A   1     -29.534 -10.141   7.271  0.00  0.00    +0.002 A 
ATOM      8  C   UNL A   1     -29.144 -10.689   6.392  0.00  0.00    +0.003 A 
ATOM      9  C   UNL A   1     -28.595 -12.067   6.638  0.00  0.00    +0.037 A 
ATOM     10  C   UNL A   1     -28.575 -12.617   7.878  0.00  0.00    +0.139 A 
ENDROOT
BRANCH   3  11
ATOM     11  N   UNL A   1     -30.848  -8.662   9.297  0.00  0.00    -0.175 NA
ATOM     12  C   UNL A   1     -30.266  -7.507   9.666  0.00  0.00    +0.269 C 
ATOM     13  O   UNL A   1     -30.824  -6.805  10.550  0.00  0.00    -0.268 OA
BRANCH  12  14
ATOM     14  C   UNL A   1     -29.105  -7.000   8.963  0.00  0.00    +0.055 A 
ATOM     15  C   UNL A   1     -27.958  -7.324   9.252  0.00  0.00    +0.005 A 
ATOM     16  C   UNL A   1     -26.825  -6.753   8.499  0.00  0.00    +0.000 A 
ATOM     17  C   UNL A   1     -27.086  -5.794   7.516  0.00  0.00    +0.000 A 
ATOM     18  C   UNL A   1     -29.412  -5.969   7.937  0.00  0.00    +0.005 A 
ATOM     19  C   UNL A   1     -28.389  -5.411   7.267  0.00  0.00    +0.000 A 
ENDBRANCH  12  14
ENDBRANCH   3  11
BRANCH   2  20
ATOM     20  C   UNL A   1     -30.162 -12.083  12.642  0.00  0.00    +0.388 C 
ATOM     21  O   UNL A   1     -29.484 -13.016  12.777  0.00  0.00    -0.241 OA
ATOM     22  O   UNL A   1     -30.978 -11.641  13.445  0.00  0.00    -0.241 OA
ENDBRANCH   2  20
BRANCH  10  23
ATOM     23  O   UNL A   1     -28.040 -13.816   8.057  0.00  0.00    -0.474 OA
BRANCH  23  24
ATOM     24  C   UNL A   1     -28.336 -14.864   7.141  0.00  0.00    +0.217 C 
BRANCH  24  25
ATOM     25  C   UNL A   1     -28.719 -16.028   7.836  0.00  0.00    +0.096 C 
ATOM     26  C   UNL A   1     -27.495 -16.460   8.719  0.00  0.00    -0.015 C 
ATOM     27  C   UNL A   1     -28.857 -17.377   7.253  0.00  0.00    -0.015 C 
ATOM     28  C   UNL A   1     -27.627 -17.914   6.873  0.00  0.00    -0.004 C 
ATOM     29  C   UNL A   1     -26.784 -17.435   8.002  0.00  0.00    -0.004 C 
BRANCH  25  30
ATOM     30  C   UNL A   1     -29.820 -15.817   8.647  0.00  0.00    -0.012 A 
ATOM     31  C   UNL A   1     -31.051 -15.384   8.149  0.00  0.00    -0.004 A 
ATOM     32  C   UNL A   1     -29.781 -15.896  10.091  0.00  0.00    -0.004 A 
ATOM     33  C   UNL A   1     -30.842 -15.539  10.948  0.00  0.00    -0.000 A 
ATOM     34  C   UNL A   1     -32.170 -15.010   9.017  0.00  0.00    -0.000 A 
ATOM     35  C   UNL A   1     -32.047 -15.176  10.362  0.00  0.00    -0.000 A 
ENDBRANCH  25  30
ENDBRANCH  24  25
ENDBRANCH  23  24
ENDBRANCH  10  23
TORSDOF 7
ENDMDL
ENDMDL
