MODEL 490
MODEL 1
REMARK VINA RESULT:    -5.470      0.000      0.000
REMARK INTER + INTRA:          -6.328
REMARK INTER:                  -6.110
REMARK INTRA:                  -0.219
REMARK UNBOUND:                -0.219
REMARK  Name = No_490-gen_results/8p0m/2024-11-27-11-27-31/
REMARK  2 active torsions:
REMARK  status: ('A' for Active; 'I' for Inactive)
REMARK    1  A    between atoms: C_2  and  C_8
REMARK    2  A    between atoms: C_4  and  C_11
REMARK                            x       y       z     vdW  Elec       q    Type
REMARK                         _______ _______ _______ _____ _____    ______ ____
ROOT
ATOM      1  C   UNL A   1     -22.872   1.357  27.440  0.00  0.00    +0.018 A 
ATOM      2  C   UNL A   1     -23.579   1.489  26.670  0.00  0.00    +0.081 A 
ATOM      3  C   UNL A   1     -23.031   0.246  28.297  0.00  0.00    +0.060 A 
ATOM      4  C   UNL A   1     -24.078  -0.643  28.155  0.00  0.00    +0.064 A 
ATOM      5  C   UNL A   1     -24.770   0.698  26.302  0.00  0.00    +0.006 A 
ATOM      6  C   UNL A   1     -24.959  -0.376  27.099  0.00  0.00    +0.003 A 
ATOM      7 CL   UNL A   1     -21.914  -0.106  29.567  0.00  0.00    -0.082 Cl
ENDROOT
BRANCH   4   8
ATOM      8  C   UNL A   1     -24.272  -1.785  29.071  0.00  0.00    +0.351 C 
ATOM      9 CL   UNL A   1     -24.676  -1.673  30.443  0.00  0.00    -0.042 Cl
ATOM     10  F   UNL A   1     -25.244  -2.664  28.497  0.00  0.00    -0.182 F 
ATOM     11  F   UNL A   1     -23.212  -2.709  28.832  0.00  0.00    -0.182 F 
ENDBRANCH   4   8
BRANCH   2  12
ATOM     12  C   UNL A   1     -23.426   2.683  25.613  0.00  0.00    +0.388 C 
ATOM     13  O   UNL A   1     -22.373   2.644  24.816  0.00  0.00    -0.241 OA
ATOM     14  O   UNL A   1     -24.116   3.648  25.726  0.00  0.00    -0.241 OA
ENDBRANCH   2  12
TORSDOF 2
ENDMDL
ENDMDL
