REMARK  Name = outputs/IAG933/test6/raw/output_491_IAG933_linker_design_.xyz
REMARK  8 active torsions:
REMARK  status: ('A' for Active; 'I' for Inactive)
REMARK    1  A    between atoms: C_1  and  C_2
REMARK    2  A    between atoms: C_1  and  C_8
REMARK    3  A    between atoms: C_1  and  N_39
REMARK    4  A    between atoms: C_13  and  C_33
REMARK    5  A    between atoms: C_14  and  C_15
REMARK    6  A    between atoms: C_21  and  O_22
REMARK    7  A    between atoms: O_22  and  C_23
REMARK    8  A    between atoms: C_23  and  C_24
REMARK                            x       y       z     vdW  Elec       q    Type
REMARK                         _______ _______ _______ _____ _____    ______ ____
ROOT
ATOM      1  N   UNL A   1     -20.336  -0.274  28.467  0.00  0.00    -0.131 NA
ATOM      2  F   UNL A   1     -23.756   1.878  24.382  0.00  0.00    -0.174 F 
ATOM      3  C   UNL A   1     -22.415  -0.681  29.695  0.00  0.00    +0.111 C 
ATOM      4  C   UNL A   1     -24.247   0.214  28.623  0.00  0.00    +0.053 C 
ATOM      5  F   UNL A   1     -23.555   3.533  25.630  0.00  0.00    -0.174 F 
ATOM      6  C   UNL A   1     -24.251   1.490  26.645  0.00  0.00    +0.118 C 
ATOM      7  C   UNL A   1     -22.291   0.844  27.896  0.00  0.00    +0.101 C 
ATOM      8  C   UNL A   1     -23.375   2.192  25.684  0.00  0.00    +0.371 C 
ATOM      9  C   UNL A   1     -21.663  -0.095  28.709  0.00  0.00    +0.120 C 
ATOM     10  O   UNL A   1     -21.948   2.268  26.035  0.00  0.00    -0.276 OA
ATOM     11  C   UNL A   1     -23.625   0.852  27.662  0.00  0.00    -0.015 C 
ATOM     12  N   UNL A   1     -23.720  -0.448  29.525  0.00  0.00    -0.302 N 
ATOM     13  C   UNL A   1     -21.464   1.756  27.139  0.00  0.00    +0.287 C 
ATOM     14  F   UNL A   1     -20.297   2.030  27.491  0.00  0.00    -0.203 F 
ENDROOT
BRANCH   6  15
ATOM     15  C   UNL A   1     -25.688   1.614  26.461  0.00  0.00    +0.082 C 
ATOM     16  C   UNL A   1     -26.250   2.920  26.395  0.00  0.00    +0.055 C 
ATOM     17  C   UNL A   1     -27.438   3.091  25.645  0.00  0.00    +0.102 C 
ATOM     18  N   UNL A   1     -28.075   2.089  25.003  0.00  0.00    -0.212 NA
ATOM     19  C   UNL A   1     -27.543   0.849  25.079  0.00  0.00    +0.234 C 
ATOM     20  C   UNL A   1     -26.354   0.576  25.777  0.00  0.00    +0.241 C 
ATOM     21  F   UNL A   1     -25.860  -0.681  25.795  0.00  0.00    -0.227 F 
BRANCH  16  22
ATOM     22  C   UNL A   1     -25.642   4.093  27.123  0.00  0.00    +0.263 C 
ATOM     23  N   UNL A   1     -25.614   5.252  26.449  0.00  0.00    -0.200 NA
ATOM     24  C   UNL A   1     -25.026   6.479  26.963  0.00  0.00    +0.139 C 
ATOM     25  O   UNL A   1     -25.143   3.966  28.243  0.00  0.00    -0.269 OA
ENDBRANCH  16  22
BRANCH  19  26
ATOM     26  O   UNL A   1     -28.193  -0.208  24.477  0.00  0.00    -0.459 OA
BRANCH  26  27
ATOM     27  C   UNL A   1     -29.460   0.005  23.866  0.00  0.00    +0.242 C 
BRANCH  27  28
ATOM     28  C   UNL A   1     -30.065  -1.377  23.573  0.00  0.00    +0.229 C 
ATOM     29  O   UNL A   1     -30.729  -1.878  24.721  0.00  0.00    -0.216 OA
ENDBRANCH  27  28
ENDBRANCH  26  27
ENDBRANCH  19  26
ENDBRANCH   6  15
BRANCH  12  30
ATOM     30  C   UNL A   1     -24.855  -1.012  30.143  0.00  0.00    +0.111 C 
BRANCH  30  31
ATOM     31  C   UNL A   1     -24.973  -2.505  29.788  0.00  0.00    -0.003 C 
ATOM     32  C   UNL A   1     -23.906  -3.173  29.146  0.00  0.00    -0.003 C 
ATOM     33  C   UNL A   1     -23.989  -4.549  28.853  0.00  0.00    -0.000 C 
ATOM     34  C   UNL A   1     -25.137  -5.280  29.205  0.00  0.00    -0.000 C 
ATOM     35  C   UNL A   1     -26.232  -4.611  29.784  0.00  0.00    -0.000 C 
ATOM     36  C   UNL A   1     -26.155  -3.232  30.065  0.00  0.00    -0.003 C 
ENDBRANCH  30  31
BRANCH  30  37
ATOM     37  C   UNL A   1     -25.387  -0.679  31.571  0.00  0.00    +0.095 C 
ATOM     38  C   UNL A   1     -25.189   0.773  32.028  0.00  0.00    +0.021 C 
ATOM     39  C   UNL A   1     -25.336   0.684  33.544  0.00  0.00    +0.020 C 
ATOM     40  C   UNL A   1     -24.829  -0.715  33.905  0.00  0.00    +0.089 C 
ATOM     41  N   UNL A   1     -24.758  -1.481  32.646  0.00  0.00    -0.217 NA
ENDBRANCH  30  37
ENDBRANCH  12  30
TORSDOF 8
