REMARK  Name = outputs/IAG933/test6/raw/output_4910_IAG933_linker_design_.xyz
REMARK  11 active torsions:
REMARK  status: ('A' for Active; 'I' for Inactive)
REMARK    1  A    between atoms: C_1  and  C_2
REMARK    2  A    between atoms: C_1  and  C_8
REMARK    3  A    between atoms: C_1  and  O_33
REMARK    4  A    between atoms: C_13  and  C_41
REMARK    5  A    between atoms: C_14  and  C_15
REMARK    6  A    between atoms: C_21  and  O_22
REMARK    7  A    between atoms: O_22  and  C_23
REMARK    8  A    between atoms: C_23  and  C_24
REMARK    9  A    between atoms: C_30  and  C_41
REMARK   10  A    between atoms: C_31  and  C_41
REMARK   11  A    between atoms: N_32  and  O_33
REMARK                            x       y       z     vdW  Elec       q    Type
REMARK                         _______ _______ _______ _____ _____    ______ ____
ROOT
ATOM      1  C   UNL A   1     -22.875  -0.181  29.630  0.00  0.00    +0.274 C 
ATOM      2  C   UNL A   1     -23.791   0.900  27.850  0.00  0.00    +0.230 C 
ATOM      3  N   UNL A   1     -24.071   0.179  29.008  0.00  0.00    -0.138 N 
ATOM      4  O   UNL A   1     -22.559   1.665  27.888  0.00  0.00    -0.304 OA
ATOM      5  C   UNL A   1     -20.729  -0.923  29.137  0.00  0.00    +0.005 C 
ATOM      6  F   UNL A   1     -20.265   1.159  27.235  0.00  0.00    -0.199 F 
ATOM      7  O   UNL A   1     -22.743  -0.495  30.753  0.00  0.00    -0.268 OA
ATOM      8  C   UNL A   1     -21.488  -0.137  28.817  0.00  0.00    +0.094 C 
ATOM      9  C   UNL A   1     -21.433   0.907  27.817  0.00  0.00    +0.308 C 
ENDROOT
BRANCH   3  10
ATOM     10  O   UNL A   1     -25.381   0.162  29.077  0.00  0.00    -0.257 OA
BRANCH  10  11
ATOM     11  C   UNL A   1     -24.855  -1.012  30.143  0.00  0.00    +0.180 C 
BRANCH  11  12
ATOM     12  C   UNL A   1     -24.973  -2.505  29.788  0.00  0.00    +0.008 C 
ATOM     13  C   UNL A   1     -23.906  -3.173  29.146  0.00  0.00    -0.002 C 
ATOM     14  C   UNL A   1     -23.989  -4.549  28.853  0.00  0.00    -0.000 C 
ATOM     15  C   UNL A   1     -25.137  -5.280  29.205  0.00  0.00    -0.000 C 
ATOM     16  C   UNL A   1     -26.232  -4.611  29.784  0.00  0.00    -0.000 C 
ATOM     17  C   UNL A   1     -26.155  -3.232  30.065  0.00  0.00    -0.002 C 
ENDBRANCH  11  12
BRANCH  11  18
ATOM     18  C   UNL A   1     -25.387  -0.679  31.571  0.00  0.00    +0.106 C 
ATOM     19  C   UNL A   1     -25.189   0.773  32.028  0.00  0.00    +0.022 C 
ATOM     20  C   UNL A   1     -25.336   0.684  33.544  0.00  0.00    +0.020 C 
ATOM     21  C   UNL A   1     -24.829  -0.715  33.905  0.00  0.00    +0.089 C 
ATOM     22  N   UNL A   1     -24.758  -1.481  32.646  0.00  0.00    -0.217 NA
ENDBRANCH  11  18
ENDBRANCH  10  11
ENDBRANCH   3  10
BRANCH   2  23
ATOM     23  C   UNL A   1     -24.250   1.524  26.773  0.00  0.00    +0.151 C 
BRANCH  23  24
ATOM     24  C   UNL A   1     -25.688   1.614  26.461  0.00  0.00    +0.083 C 
ATOM     25  C   UNL A   1     -26.250   2.920  26.395  0.00  0.00    +0.055 C 
ATOM     26  C   UNL A   1     -27.438   3.091  25.645  0.00  0.00    +0.102 C 
ATOM     27  N   UNL A   1     -28.075   2.089  25.003  0.00  0.00    -0.212 NA
ATOM     28  C   UNL A   1     -27.543   0.849  25.079  0.00  0.00    +0.234 C 
ATOM     29  C   UNL A   1     -26.354   0.576  25.777  0.00  0.00    +0.240 C 
ATOM     30  F   UNL A   1     -25.860  -0.681  25.795  0.00  0.00    -0.227 F 
BRANCH  25  31
ATOM     31  C   UNL A   1     -25.642   4.093  27.123  0.00  0.00    +0.262 C 
ATOM     32  N   UNL A   1     -25.614   5.252  26.449  0.00  0.00    -0.200 NA
ATOM     33  C   UNL A   1     -25.026   6.479  26.963  0.00  0.00    +0.139 C 
ATOM     34  O   UNL A   1     -25.143   3.966  28.243  0.00  0.00    -0.269 OA
ENDBRANCH  25  31
BRANCH  28  35
ATOM     35  O   UNL A   1     -28.193  -0.208  24.477  0.00  0.00    -0.459 OA
BRANCH  35  36
ATOM     36  C   UNL A   1     -29.460   0.005  23.866  0.00  0.00    +0.242 C 
BRANCH  36  37
ATOM     37  C   UNL A   1     -30.065  -1.377  23.573  0.00  0.00    +0.229 C 
ATOM     38  O   UNL A   1     -30.729  -1.878  24.721  0.00  0.00    -0.216 OA
ENDBRANCH  36  37
ENDBRANCH  35  36
ENDBRANCH  28  35
ENDBRANCH  23  24
BRANCH  23  40
ATOM     39  F   UNL A   1     -23.492   1.552  24.499  0.00  0.00    -0.170 F 
ATOM     40  C   UNL A   1     -23.245   2.102  25.721  0.00  0.00    +0.402 C 
ATOM     41  F   UNL A   1     -23.440   3.395  25.711  0.00  0.00    -0.170 F 
ATOM     42  F   UNL A   1     -21.800   2.098  25.702  0.00  0.00    -0.170 F 
ENDBRANCH  23  40
ENDBRANCH   2  23
TORSDOF 11
