MODEL 4911
MODEL 1
REMARK VINA RESULT:    -6.003      0.000      0.000
REMARK INTER + INTRA:          -7.498
REMARK INTER:                  -7.056
REMARK INTRA:                  -0.442
REMARK UNBOUND:                -0.442
REMARK  Name = No_4911-gen_results/8p0m/2024-11-27-11-27-31/
REMARK  3 active torsions:
REMARK  status: ('A' for Active; 'I' for Inactive)
REMARK    1  A    between atoms: C_3  and  C_7
REMARK    2  A    between atoms: C_7  and  C_8
REMARK    3  A    between atoms: C_9  and  C_10
REMARK                            x       y       z     vdW  Elec       q    Type
REMARK                         _______ _______ _______ _____ _____    ______ ____
ROOT
ATOM      1  C   UNL A   1     -23.965  -3.418  28.584  0.00  0.00    -0.004 A 
ATOM      2  C   UNL A   1     -24.008  -4.471  28.563  0.00  0.00    -0.000 A 
ATOM      3  C   UNL A   1     -25.041  -2.726  29.184  0.00  0.00    -0.018 A 
ATOM      4  C   UNL A   1     -26.128  -3.389  29.719  0.00  0.00    -0.004 A 
ATOM      5  C   UNL A   1     -25.035  -5.408  29.058  0.00  0.00    -0.000 A 
ATOM      6  C   UNL A   1     -26.085  -4.786  29.639  0.00  0.00    -0.000 A 
ENDROOT
BRANCH   3   7
ATOM      7  C   UNL A   1     -25.082  -1.231  29.323  0.00  0.00    +0.048 C 
BRANCH   7   8
ATOM      8  C   UNL A   1     -23.825  -0.552  29.247  0.00  0.00    -0.040 C 
ATOM      9  C   UNL A   1     -23.381   0.016  28.208  0.00  0.00    -0.008 C 
ATOM     10  C   UNL A   1     -22.747  -0.521  30.315  0.00  0.00    +0.027 C 
BRANCH   9  11
ATOM     11  C   UNL A   1     -21.955   0.610  28.212  0.00  0.00    -0.001 C 
ATOM     12  C   UNL A   1     -21.777   1.742  27.422  0.00  0.00    -0.000 C 
ENDBRANCH   9  11
ENDBRANCH   7   8
ENDBRANCH   3   7
TORSDOF 3
ENDMDL
ENDMDL
