MODEL 4912
MODEL 1
REMARK VINA RESULT:    -6.537      0.000      0.000
REMARK INTER + INTRA:          -7.712
REMARK INTER:                  -7.301
REMARK INTRA:                  -0.411
REMARK UNBOUND:                -0.411
REMARK  Name = No_4912-gen_results/8p0m/2024-11-27-11-27-31/
REMARK  2 active torsions:
REMARK  status: ('A' for Active; 'I' for Inactive)
REMARK    1  A    between atoms: C_3  and  C_4
REMARK    2  A    between atoms: C_6  and  C_13
REMARK                            x       y       z     vdW  Elec       q    Type
REMARK                         _______ _______ _______ _____ _____    ______ ____
ROOT
ATOM      1  C   UNL A   1     -29.372 -10.129  32.505  0.00  0.00    +0.007 A 
ATOM      2  C   UNL A   1     -29.802 -10.092  31.376  0.00  0.00    +0.000 A 
ATOM      3  C   UNL A   1     -29.405 -11.026  30.425  0.00  0.00    +0.000 A 
ATOM      4  C   UNL A   1     -28.276 -11.049  32.848  0.00  0.00    +0.080 A 
ATOM      5  C   UNL A   1     -27.880 -12.048  31.992  0.00  0.00    +0.007 A 
ATOM      6  C   UNL A   1     -28.397 -12.069  30.686  0.00  0.00    +0.000 A 
ENDROOT
BRANCH   3   7
ATOM      7  C   UNL A   1     -29.853 -11.081  29.004  0.00  0.00    +0.000 A 
ATOM      8  C   UNL A   1     -30.747 -10.146  28.376  0.00  0.00    +0.000 A 
ATOM      9  C   UNL A   1     -31.013 -10.280  27.031  0.00  0.00    +0.000 A 
ATOM     10  C   UNL A   1     -30.392 -11.088  26.136  0.00  0.00    +0.000 A 
ATOM     11  C   UNL A   1     -29.184 -11.963  28.060  0.00  0.00    +0.000 A 
ATOM     12  C   UNL A   1     -29.481 -11.949  26.686  0.00  0.00    +0.000 A 
ENDBRANCH   3   7
BRANCH   4  13
ATOM     13  C   UNL A   1     -27.650 -11.075  34.204  0.00  0.00    +0.388 C 
ATOM     14  O   UNL A   1     -27.509 -10.068  34.881  0.00  0.00    -0.241 OA
ATOM     15  O   UNL A   1     -27.286 -12.202  34.693  0.00  0.00    -0.241 OA
ENDBRANCH   4  13
TORSDOF 2
ENDMDL
ENDMDL
