REMARK  Name = No_4913-gen_results/8p0m/2024-11-27-11-27-31/
REMARK  4 active torsions:
REMARK  status: ('A' for Active; 'I' for Inactive)
REMARK    1  A    between atoms: C_2  and  C_8
REMARK    2  A    between atoms: C_3  and  C_17
REMARK    3  A    between atoms: C_5  and  C_14
REMARK    4  A    between atoms: C_17  and  C_18
REMARK                            x       y       z     vdW  Elec       q    Type
REMARK                         _______ _______ _______ _____ _____    ______ ____
ROOT
ATOM      1  C   UNL A   1     -28.016  -0.814  28.878  0.00  0.00    +0.041 C 
ATOM      2  C   UNL A   1     -27.064  -0.119  28.608  0.00  0.00    +0.045 C 
ATOM      3  C   UNL A   1     -25.792  -0.430  29.076  0.00  0.00    -0.040 C 
ATOM      4  C   UNL A   1     -25.270  -0.049  30.012  0.00  0.00    -0.029 C 
ATOM      5  C   UNL A   1     -27.885  -1.668  30.112  0.00  0.00    +0.054 C 
ATOM      6  C   UNL A   1     -26.925  -1.604  31.180  0.00  0.00    -0.019 C 
ATOM      7  C   UNL A   1     -25.636  -1.099  31.056  0.00  0.00    +0.051 C 
ENDROOT
BRANCH   2   8
ATOM      8  C   UNL A   1     -26.989   0.458  27.201  0.00  0.00    -0.018 A 
ATOM      9  C   UNL A   1     -26.830   1.844  27.183  0.00  0.00    -0.004 A 
ATOM     10  C   UNL A   1     -27.222  -0.167  26.011  0.00  0.00    -0.004 A 
ATOM     11  C   UNL A   1     -27.285   0.459  24.756  0.00  0.00    -0.000 A 
ATOM     12  C   UNL A   1     -26.839   2.597  25.979  0.00  0.00    -0.000 A 
ATOM     13  C   UNL A   1     -27.111   1.917  24.782  0.00  0.00    -0.000 A 
ENDBRANCH   2   8
BRANCH   5  14
ATOM     14  C   UNL A   1     -29.029  -2.626  30.440  0.00  0.00    +0.384 C 
ATOM     15  O   UNL A   1     -28.763  -3.849  30.334  0.00  0.00    -0.241 OA
ATOM     16  O   UNL A   1     -30.159  -2.251  30.582  0.00  0.00    -0.241 OA
ENDBRANCH   5  14
BRANCH   3  17
ATOM     17  C   UNL A   1     -24.775  -0.953  28.088  0.00  0.00    +0.048 C 
BRANCH  17  18
ATOM     18  C   UNL A   1     -23.420  -0.502  28.360  0.00  0.00    -0.026 C 
ATOM     19  C   UNL A   1     -22.594  -0.506  29.115  0.00  0.00    -0.030 C 
ATOM     20  C   UNL A   1     -22.785  -1.135  30.396  0.00  0.00    +0.030 C 
ENDBRANCH  17  18
ENDBRANCH   3  17
TORSDOF 4
