REMARK  Name = outputs/IAG933/test6/raw/output_4914_IAG933_linker_design_.xyz
REMARK  18 active torsions:
REMARK  status: ('A' for Active; 'I' for Inactive)
REMARK    1  A    between atoms: C_1  and  C_2
REMARK    2  A    between atoms: C_1  and  C_8
REMARK    3  A    between atoms: C_1  and  N_28
REMARK    4  A    between atoms: C_13  and  C_39
REMARK    5  A    between atoms: C_14  and  C_15
REMARK    6  A    between atoms: C_21  and  O_22
REMARK    7  A    between atoms: O_22  and  C_23
REMARK    8  A    between atoms: C_23  and  C_24
REMARK    9  A    between atoms: N_28  and  C_33
REMARK   10  A    between atoms: N_28  and  C_46
REMARK   11  A    between atoms: C_34  and  C_48
REMARK   12  A    between atoms: C_37  and  C_41
REMARK   13  A    between atoms: C_37  and  C_47
REMARK   14  A    between atoms: C_39  and  C_45
REMARK   15  A    between atoms: C_40  and  C_45
REMARK   16  A    between atoms: C_40  and  C_46
REMARK   17  A    between atoms: C_41  and  C_44
REMARK   18  A    between atoms: C_43  and  C_44
REMARK                            x       y       z     vdW  Elec       q    Type
REMARK                         _______ _______ _______ _____ _____    ______ ____
ROOT
ATOM      1  N   UNL A   1     -25.574  -0.267  28.890  0.00  0.00    -0.268 NA
ENDROOT
BRANCH   1   3
ATOM      2  O   UNL A   1     -29.396   0.629  29.837  0.00  0.00    -0.331 OA
ATOM      3  C   UNL A   1     -27.340  -0.124  29.139  0.00  0.00    +0.090 C 
ATOM      4  O   UNL A   1     -30.289  -1.363  30.183  0.00  0.00    -0.192 OA
ATOM      5  C   UNL A   1     -28.242  -1.434  29.174  0.00  0.00    +0.080 C 
ATOM      6  C   UNL A   1     -28.044   0.914  29.752  0.00  0.00    +0.132 C 
ATOM      7  C   UNL A   1     -29.553  -0.617  29.220  0.00  0.00    +0.251 C 
BRANCH   7   9
ATOM      8  O   UNL A   1     -31.583  -0.434  28.000  0.00  0.00    -0.215 OA
ATOM      9  C   UNL A   1     -30.240  -0.854  27.774  0.00  0.00    +0.241 C 
ENDBRANCH   7   9
BRANCH   6  10
ATOM     10  C   UNL A   1     -27.619   2.290  30.254  0.00  0.00    +0.031 C 
BRANCH  10  11
ATOM     11  C   UNL A   1     -28.499   3.269  30.447  0.00  0.00    +0.003 C 
BRANCH  11  12
ATOM     12  C   UNL A   1     -29.709   3.575  29.776  0.00  0.00    +0.000 C 
ATOM     13  C   UNL A   1     -29.638   4.229  28.356  0.00  0.00    +0.000 C 
BRANCH  12  16
ATOM     14  C   UNL A   1     -32.151   3.981  29.542  0.00  0.00    +0.000 C 
ATOM     15  C   UNL A   1     -31.365   3.592  31.814  0.00  0.00    +0.000 C 
ATOM     16  C   UNL A   1     -31.071   3.350  30.354  0.00  0.00    +0.000 C 
ENDBRANCH  12  16
ENDBRANCH  11  12
ENDBRANCH  10  11
ENDBRANCH   6  10
ENDBRANCH   1   3
BRANCH   1  17
ATOM     17  C   UNL A   1     -24.855  -1.012  30.143  0.00  0.00    +0.096 C 
BRANCH  17  18
ATOM     18  C   UNL A   1     -24.973  -2.505  29.788  0.00  0.00    -0.006 C 
ATOM     19  C   UNL A   1     -23.906  -3.173  29.146  0.00  0.00    -0.003 C 
ATOM     20  C   UNL A   1     -23.989  -4.549  28.853  0.00  0.00    -0.000 C 
ATOM     21  C   UNL A   1     -25.137  -5.280  29.205  0.00  0.00    -0.000 C 
ATOM     22  C   UNL A   1     -26.232  -4.611  29.784  0.00  0.00    -0.000 C 
ATOM     23  C   UNL A   1     -26.155  -3.232  30.065  0.00  0.00    -0.003 C 
ENDBRANCH  17  18
BRANCH  17  24
ATOM     24  C   UNL A   1     -25.387  -0.679  31.571  0.00  0.00    +0.092 C 
ATOM     25  C   UNL A   1     -25.189   0.773  32.028  0.00  0.00    +0.021 C 
ATOM     26  C   UNL A   1     -25.336   0.684  33.544  0.00  0.00    +0.020 C 
ATOM     27  C   UNL A   1     -24.829  -0.715  33.905  0.00  0.00    +0.089 C 
ATOM     28  N   UNL A   1     -24.758  -1.481  32.646  0.00  0.00    -0.218 NA
ENDBRANCH  17  24
ENDBRANCH   1  17
BRANCH   1  29
ATOM     29  C   UNL A   1     -24.130  -0.112  28.068  0.00  0.00    +0.072 C 
BRANCH  29  30
ATOM     30  C   UNL A   1     -23.352   1.029  28.660  0.00  0.00    +0.017 C 
BRANCH  30  32
ATOM     31  C   UNL A   1     -21.378   1.720  27.134  0.00  0.00    +0.000 C 
ATOM     32  C   UNL A   1     -22.970   1.800  27.395  0.00  0.00    +0.002 C 
BRANCH  32  33
ATOM     33  C   UNL A   1     -24.113   1.719  26.307  0.00  0.00    +0.008 C 
BRANCH  33  34
ATOM     34  C   UNL A   1     -25.688   1.614  26.461  0.00  0.00    +0.070 C 
ATOM     35  C   UNL A   1     -26.250   2.920  26.395  0.00  0.00    +0.055 C 
ATOM     36  C   UNL A   1     -27.438   3.091  25.645  0.00  0.00    +0.102 C 
ATOM     37  N   UNL A   1     -28.075   2.089  25.003  0.00  0.00    -0.212 NA
ATOM     38  C   UNL A   1     -27.543   0.849  25.079  0.00  0.00    +0.234 C 
ATOM     39  C   UNL A   1     -26.354   0.576  25.777  0.00  0.00    +0.240 C 
ATOM     40  F   UNL A   1     -25.860  -0.681  25.795  0.00  0.00    -0.227 F 
BRANCH  35  41
ATOM     41  C   UNL A   1     -25.642   4.093  27.123  0.00  0.00    +0.262 C 
ATOM     42  N   UNL A   1     -25.614   5.252  26.449  0.00  0.00    -0.200 NA
ATOM     43  C   UNL A   1     -25.026   6.479  26.963  0.00  0.00    +0.139 C 
ATOM     44  O   UNL A   1     -25.143   3.966  28.243  0.00  0.00    -0.269 OA
ENDBRANCH  35  41
BRANCH  38  45
ATOM     45  O   UNL A   1     -28.193  -0.208  24.477  0.00  0.00    -0.459 OA
BRANCH  45  46
ATOM     46  C   UNL A   1     -29.460   0.005  23.866  0.00  0.00    +0.242 C 
BRANCH  46  47
ATOM     47  C   UNL A   1     -30.065  -1.377  23.573  0.00  0.00    +0.229 C 
ATOM     48  O   UNL A   1     -30.729  -1.878  24.721  0.00  0.00    -0.216 OA
ENDBRANCH  46  47
ENDBRANCH  45  46
ENDBRANCH  38  45
ENDBRANCH  33  34
ENDBRANCH  32  33
ENDBRANCH  30  32
ENDBRANCH  29  30
ENDBRANCH   1  29
TORSDOF 18
