MODEL 4914
MODEL 1
REMARK VINA RESULT:    -7.568      0.000      0.000
REMARK INTER + INTRA:         -10.180
REMARK INTER:                  -9.338
REMARK INTRA:                  -0.843
REMARK UNBOUND:                -0.843
REMARK  Name = No_4914-gen_results/8p0m/2024-11-27-11-27-31/
REMARK  4 active torsions:
REMARK  status: ('A' for Active; 'I' for Inactive)
REMARK    1  A    between atoms: C_2  and  C_3
REMARK    2  A    between atoms: C_5  and  C_14
REMARK    3  A    between atoms: C_14  and  C_15
REMARK    4  A    between atoms: C_16  and  C_17
REMARK                            x       y       z     vdW  Elec       q    Type
REMARK                         _______ _______ _______ _____ _____    ______ ____
ROOT
ATOM      1  C   UNL A   1     -23.974  -1.377  28.901  0.00  0.00    -0.000 A 
ATOM      2  C   UNL A   1     -24.413  -0.612  27.784  0.00  0.00    -0.004 A 
ATOM      3  C   UNL A   1     -23.741   0.462  27.341  0.00  0.00    -0.018 A 
ATOM      4  C   UNL A   1     -22.513   0.833  27.906  0.00  0.00    -0.004 A 
ATOM      5  C   UNL A   1     -22.618  -1.172  29.245  0.00  0.00    -0.000 A 
ATOM      6  C   UNL A   1     -21.924   0.051  28.897  0.00  0.00    -0.000 A 
ENDROOT
BRANCH   1   8
ATOM      7  C   UNL A   1     -25.857  -2.500  29.540  0.00  0.00    +0.011 A 
ATOM      8  C   UNL A   1     -24.689  -2.512  29.229  0.00  0.00    +0.001 A 
ATOM      9  C   UNL A   1     -26.482  -3.794  29.921  0.00  0.00    +0.058 A 
ATOM     10  C   UNL A   1     -25.885  -4.951  29.490  0.00  0.00    +0.011 A 
ATOM     11  C   UNL A   1     -24.642  -5.008  28.924  0.00  0.00    +0.001 A 
ATOM     12  C   UNL A   1     -23.982  -3.767  28.773  0.00  0.00    +0.000 A 
ATOM     13 CL   UNL A   1     -28.082  -3.842  30.540  0.00  0.00    -0.082 Cl
ENDBRANCH   1   8
BRANCH   3  14
ATOM     14  C   UNL A   1     -24.287   1.408  26.354  0.00  0.00    +0.052 C 
BRANCH  14  15
ATOM     15  C   UNL A   1     -25.619   1.133  25.978  0.00  0.00    -0.021 C 
ATOM     16  C   UNL A   1     -25.830   0.397  24.834  0.00  0.00    -0.005 C 
BRANCH  16  17
ATOM     17  C   UNL A   1     -27.093   0.139  24.306  0.00  0.00    -0.005 C 
ATOM     18  C   UNL A   1     -27.889   1.246  23.986  0.00  0.00    -0.026 C 
ATOM     19  C   UNL A   1     -29.215   1.085  23.548  0.00  0.00    +0.031 C 
ENDBRANCH  16  17
ENDBRANCH  14  15
ENDBRANCH   3  14
TORSDOF 4
ENDMDL
ENDMDL
