MODEL 4915
MODEL 1
REMARK VINA RESULT:    -5.349      0.000      0.000
REMARK INTER + INTRA:          -5.707
REMARK INTER:                  -5.662
REMARK INTRA:                  -0.046
REMARK UNBOUND:                -0.046
REMARK  Name = No_4915-gen_results/8p0m/2024-11-27-11-27-31/
REMARK  1 active torsions:
REMARK  status: ('A' for Active; 'I' for Inactive)
REMARK    1  A    between atoms: C_5  and  C_7
REMARK                            x       y       z     vdW  Elec       q    Type
REMARK                         _______ _______ _______ _____ _____    ______ ____
ROOT
ATOM      1  C   UNL A   1     -29.718  -9.826  31.828  0.00  0.00    +0.001 A 
ATOM      2  C   UNL A   1     -29.872 -10.195  30.687  0.00  0.00    +0.011 A 
ATOM      3  C   UNL A   1     -29.170 -11.222  30.079  0.00  0.00    +0.058 A 
ATOM      4  C   UNL A   1     -28.212 -11.913  30.878  0.00  0.00    +0.016 A 
ATOM      5  C   UNL A   1     -28.172 -11.591  32.181  0.00  0.00    +0.058 A 
ATOM      6  C   UNL A   1     -28.906 -10.636  32.677  0.00  0.00    +0.005 A 
ATOM      7 CL   UNL A   1     -29.294 -11.556  28.364  0.00  0.00    -0.082 Cl
ENDROOT
BRANCH   5   8
ATOM      8  C   UNL A   1     -27.186 -12.356  32.983  0.00  0.00    +0.284 C 
ATOM      9  O   UNL A   1     -26.333 -12.834  32.480  0.00  0.00    -0.267 OA
ATOM     10  N   UNL A   1     -27.243 -12.242  34.353  0.00  0.00    -0.084 NA
ENDBRANCH   5   8
TORSDOF 1
ENDMDL
ENDMDL
