REMARK  Name = outputs/IAG933/test6/raw/output_4915_IAG933_linker_design_.xyz
REMARK  11 active torsions:
REMARK  status: ('A' for Active; 'I' for Inactive)
REMARK    1  A    between atoms: C_1  and  C_2
REMARK    2  A    between atoms: C_1  and  C_8
REMARK    3  A    between atoms: C_1  and  N_33
REMARK    4  A    between atoms: C_13  and  C_40
REMARK    5  A    between atoms: C_14  and  C_15
REMARK    6  A    between atoms: C_21  and  O_22
REMARK    7  A    between atoms: O_22  and  C_23
REMARK    8  A    between atoms: C_23  and  C_24
REMARK    9  A    between atoms: N_30  and  C_40
REMARK   10  A    between atoms: N_30  and  C_46
REMARK   11  A    between atoms: N_33  and  C_39
REMARK                            x       y       z     vdW  Elec       q    Type
REMARK                         _______ _______ _______ _____ _____    ______ ____
ROOT
ATOM      1  N   UNL A   1     -23.599   1.368  27.806  0.00  0.00    -0.241 N 
ATOM      2  N   UNL A   1     -25.084   0.143  29.297  0.00  0.00    -0.257 N 
ATOM      3  C   UNL A   1     -23.909   0.570  28.764  0.00  0.00    +0.311 C 
ATOM      4  O   UNL A   1     -22.816  -0.027  29.430  0.00  0.00    -0.252 OA
ENDROOT
BRANCH   2  12
ATOM      5  C   UNL A   1     -30.451   3.193  28.677  0.00  0.00    +0.228 C 
ATOM      6  O   UNL A   1     -30.487   3.950  29.894  0.00  0.00    -0.447 OA
ATOM      7  C   UNL A   1     -29.690  -0.618  28.173  0.00  0.00    +0.029 C 
ATOM      8  C   UNL A   1     -30.056   3.382  31.138  0.00  0.00    +0.317 C 
ATOM      9  C   UNL A   1     -28.942   4.247  31.656  0.00  0.00    +0.111 C 
ATOM     10  C   UNL A   1     -27.790   4.216  30.662  0.00  0.00    +0.031 C 
ATOM     11  N   UNL A   1     -28.606   1.754  29.629  0.00  0.00    -0.309 N 
ATOM     12  C   UNL A   1     -26.261   1.086  29.319  0.00  0.00    +0.114 C 
ATOM     13  O   UNL A   1     -30.332   2.293  31.842  0.00  0.00    -0.250 OA
ATOM     14  C   UNL A   1     -27.597   0.837  29.021  0.00  0.00    +0.039 C 
ATOM     15  C   UNL A   1     -30.077   1.748  29.075  0.00  0.00    +0.117 C 
ATOM     16  C   UNL A   1     -28.161  -0.317  28.134  0.00  0.00    -0.014 C 
ATOM     17  C   UNL A   1     -27.666   2.969  29.765  0.00  0.00    +0.075 C 
ATOM     18  C   UNL A   1     -30.438   0.711  27.928  0.00  0.00    +0.028 C 
ATOM     19  C   UNL A   1     -26.266   2.439  29.945  0.00  0.00    +0.045 C 
ENDBRANCH   2  12
BRANCH   1  21
ATOM     20  C   UNL A   1     -21.064   1.098  28.199  0.00  0.00    +0.018 C 
ATOM     21  C   UNL A   1     -22.085   1.660  27.501  0.00  0.00    +0.069 C 
ENDBRANCH   1  21
BRANCH   2  22
ATOM     22  C   UNL A   1     -24.855  -1.012  30.143  0.00  0.00    +0.116 C 
BRANCH  22  23
ATOM     23  C   UNL A   1     -24.973  -2.505  29.788  0.00  0.00    -0.003 C 
ATOM     24  C   UNL A   1     -23.906  -3.173  29.146  0.00  0.00    -0.003 C 
ATOM     25  C   UNL A   1     -23.989  -4.549  28.853  0.00  0.00    -0.000 C 
ATOM     26  C   UNL A   1     -25.137  -5.280  29.205  0.00  0.00    -0.000 C 
ATOM     27  C   UNL A   1     -26.232  -4.611  29.784  0.00  0.00    -0.000 C 
ATOM     28  C   UNL A   1     -26.155  -3.232  30.065  0.00  0.00    -0.003 C 
ENDBRANCH  22  23
BRANCH  22  29
ATOM     29  C   UNL A   1     -25.387  -0.679  31.571  0.00  0.00    +0.095 C 
ATOM     30  C   UNL A   1     -25.189   0.773  32.028  0.00  0.00    +0.021 C 
ATOM     31  C   UNL A   1     -25.336   0.684  33.544  0.00  0.00    +0.020 C 
ATOM     32  C   UNL A   1     -24.829  -0.715  33.905  0.00  0.00    +0.089 C 
ATOM     33  N   UNL A   1     -24.758  -1.481  32.646  0.00  0.00    -0.217 NA
ENDBRANCH  22  29
ENDBRANCH   2  22
BRANCH   1  34
ATOM     34  C   UNL A   1     -24.200   1.566  26.596  0.00  0.00    +0.108 C 
BRANCH  34  35
ATOM     35  C   UNL A   1     -25.688   1.614  26.461  0.00  0.00    +0.090 C 
ATOM     36  C   UNL A   1     -26.250   2.920  26.395  0.00  0.00    +0.057 C 
ATOM     37  C   UNL A   1     -27.438   3.091  25.645  0.00  0.00    +0.102 C 
ATOM     38  N   UNL A   1     -28.075   2.089  25.003  0.00  0.00    -0.212 NA
ATOM     39  C   UNL A   1     -27.543   0.849  25.079  0.00  0.00    +0.234 C 
ATOM     40  C   UNL A   1     -26.354   0.576  25.777  0.00  0.00    +0.242 C 
ATOM     41  F   UNL A   1     -25.860  -0.681  25.795  0.00  0.00    -0.227 F 
BRANCH  36  42
ATOM     42  C   UNL A   1     -25.642   4.093  27.123  0.00  0.00    +0.263 C 
ATOM     43  N   UNL A   1     -25.614   5.252  26.449  0.00  0.00    -0.200 NA
ATOM     44  C   UNL A   1     -25.026   6.479  26.963  0.00  0.00    +0.139 C 
ATOM     45  O   UNL A   1     -25.143   3.966  28.243  0.00  0.00    -0.269 OA
ENDBRANCH  36  42
BRANCH  39  46
ATOM     46  O   UNL A   1     -28.193  -0.208  24.477  0.00  0.00    -0.459 OA
BRANCH  46  47
ATOM     47  C   UNL A   1     -29.460   0.005  23.866  0.00  0.00    +0.242 C 
BRANCH  47  48
ATOM     48  C   UNL A   1     -30.065  -1.377  23.573  0.00  0.00    +0.229 C 
ATOM     49  O   UNL A   1     -30.729  -1.878  24.721  0.00  0.00    -0.216 OA
ENDBRANCH  47  48
ENDBRANCH  46  47
ENDBRANCH  39  46
ENDBRANCH  34  35
ENDBRANCH   1  34
TORSDOF 11
