MODEL 4916
MODEL 1
REMARK VINA RESULT:    -7.251      0.000      0.000
REMARK INTER + INTRA:         -11.862
REMARK INTER:                 -10.642
REMARK INTRA:                  -1.220
REMARK UNBOUND:                -1.220
REMARK  Name = No_4916-gen_results/8p0m/2024-11-27-11-27-31/
REMARK  8 active torsions:
REMARK  status: ('A' for Active; 'I' for Inactive)
REMARK    1  A    between atoms: C_2  and  C_16
REMARK    2  A    between atoms: C_4  and  C_7
REMARK    3  A    between atoms: C_7  and  C_8
REMARK    4  A    between atoms: C_8  and  C_9
REMARK    5  A    between atoms: N_18  and  C_19
REMARK    6  A    between atoms: C_19  and  C_20
REMARK    7  A    between atoms: C_19  and  C_26
REMARK    8  A    between atoms: C_26  and  N_27
REMARK                            x       y       z     vdW  Elec       q    Type
REMARK                         _______ _______ _______ _____ _____    ______ ____
ROOT
ATOM      1  C   UNL A   1     -24.159   0.829  26.674  0.00  0.00    +0.004 A 
ATOM      2  C   UNL A   1     -23.397   1.555  26.733  0.00  0.00    +0.055 A 
ATOM      3  C   UNL A   1     -24.156  -0.207  27.776  0.00  0.00    -0.004 A 
ATOM      4  C   UNL A   1     -23.261  -0.063  28.857  0.00  0.00    -0.022 A 
ATOM      5  C   UNL A   1     -22.387   1.941  27.744  0.00  0.00    +0.004 A 
ATOM      6  C   UNL A   1     -22.359   1.014  28.777  0.00  0.00    -0.004 A 
ENDROOT
BRANCH   2   7
ATOM      7  C   UNL A   1     -23.380   2.651  25.523  0.00  0.00    +0.265 C 
ATOM      8  O   UNL A   1     -22.555   2.802  24.756  0.00  0.00    -0.268 OA
ATOM      9  N   UNL A   1     -24.293   3.689  25.779  0.00  0.00    -0.197 NA
BRANCH   9  10
ATOM     10  C   UNL A   1     -25.361   3.664  26.632  0.00  0.00    +0.135 C 
BRANCH  10  11
ATOM     11  C   UNL A   1     -26.572   3.514  25.994  0.00  0.00    -0.001 A 
ATOM     12  C   UNL A   1     -27.449   4.192  26.153  0.00  0.00    -0.003 A 
ATOM     13  C   UNL A   1     -28.769   4.039  25.427  0.00  0.00    -0.000 A 
ATOM     14  C   UNL A   1     -28.931   2.940  24.606  0.00  0.00    -0.000 A 
ATOM     15  C   UNL A   1     -27.863   2.039  24.460  0.00  0.00    -0.000 A 
ATOM     16  C   UNL A   1     -26.714   2.268  25.159  0.00  0.00    -0.003 A 
ENDBRANCH  10  11
BRANCH  10  17
ATOM     17  C   UNL A   1     -25.222   4.084  27.937  0.00  0.00    +0.115 C 
BRANCH  17  18
ATOM     18  N   UNL A   1     -25.395   3.658  29.005  0.00  0.00    -0.214 NA
ATOM     19  C   UNL A   1     -25.928   2.550  29.458  0.00  0.00    +0.107 C 
ENDBRANCH  17  18
ENDBRANCH  10  17
ENDBRANCH   9  10
ENDBRANCH   2   7
BRANCH   4  20
ATOM     20  C   UNL A   1     -23.202  -1.017  29.912  0.00  0.00    +0.031 C 
BRANCH  20  21
ATOM     21  C   UNL A   1     -24.445  -1.630  30.242  0.00  0.00    +0.027 C 
ATOM     22  C   UNL A   1     -25.274  -0.903  31.242  0.00  0.00    +0.005 C 
BRANCH  21  23
ATOM     23  C   UNL A   1     -24.823  -2.855  29.781  0.00  0.00    -0.022 A 
ATOM     24  C   UNL A   1     -26.061  -3.338  30.089  0.00  0.00    -0.004 A 
ATOM     25  C   UNL A   1     -23.863  -3.652  29.120  0.00  0.00    -0.004 A 
ATOM     26  C   UNL A   1     -24.279  -4.927  28.629  0.00  0.00    -0.000 A 
ATOM     27  C   UNL A   1     -26.443  -4.665  29.687  0.00  0.00    -0.000 A 
ATOM     28  C   UNL A   1     -25.465  -5.441  29.051  0.00  0.00    -0.000 A 
ENDBRANCH  21  23
ENDBRANCH  20  21
ENDBRANCH   4  20
TORSDOF 8
ENDMDL
ENDMDL
