REMARK  Name = outputs/IAG933/test6/raw/output_4916_IAG933_linker_design_.xyz
REMARK  7 active torsions:
REMARK  status: ('A' for Active; 'I' for Inactive)
REMARK    1  A    between atoms: C_1  and  C_2
REMARK    2  A    between atoms: C_1  and  C_8
REMARK    3  A    between atoms: C_1  and  O_37
REMARK    4  A    between atoms: C_21  and  O_22
REMARK    5  A    between atoms: O_22  and  C_23
REMARK    6  A    between atoms: C_23  and  C_24
REMARK    7  A    between atoms: C_34  and  O_37
REMARK                            x       y       z     vdW  Elec       q    Type
REMARK                         _______ _______ _______ _____ _____    ______ ____
ROOT
ATOM      1  C   UNL A   1     -25.688   1.614  26.461  0.00  0.00    +0.042 C 
ATOM      2  C   UNL A   1     -26.250   2.920  26.395  0.00  0.00    +0.074 C 
ATOM      3  C   UNL A   1     -25.642   4.093  27.123  0.00  0.00    +0.222 C 
ATOM      4  N   UNL A   1     -25.614   5.252  26.449  0.00  0.00    -0.236 NA
ATOM      5  C   UNL A   1     -25.026   6.479  26.963  0.00  0.00    +0.155 C 
ATOM      6  O   UNL A   1     -25.143   3.966  28.243  0.00  0.00    -0.459 OA
ATOM      7  C   UNL A   1     -27.438   3.091  25.645  0.00  0.00    +0.107 C 
ATOM      8  N   UNL A   1     -28.075   2.089  25.003  0.00  0.00    -0.208 NA
ATOM      9  C   UNL A   1     -27.543   0.849  25.079  0.00  0.00    +0.253 C 
ATOM     10  C   UNL A   1     -26.354   0.576  25.777  0.00  0.00    +0.193 C 
ATOM     11  F   UNL A   1     -25.860  -0.681  25.795  0.00  0.00    -0.199 F 
ATOM     12  C   UNL A   1     -23.253   1.723  26.714  0.00  0.00    +0.223 C 
ATOM     13  C   UNL A   1     -24.470   1.439  27.356  0.00  0.00    +0.072 C 
ATOM     14  F   UNL A   1     -20.992   1.929  26.759  0.00  0.00    -0.201 F 
ATOM     15  C   UNL A   1     -22.020   0.902  28.529  0.00  0.00    +0.012 C 
ATOM     16  C   UNL A   1     -25.866   4.462  29.492  0.00  0.00    +0.224 C 
ATOM     17  O   UNL A   1     -26.600   6.013  31.316  0.00  0.00    -0.350 OA
ATOM     18  C   UNL A   1     -24.449   0.980  28.814  0.00  0.00    +0.215 C 
ATOM     19  C   UNL A   1     -23.148   0.663  29.341  0.00  0.00    +0.089 C 
ATOM     20  O   UNL A   1     -23.240   2.281  25.465  0.00  0.00    -0.284 OA
ATOM     21  C   UNL A   1     -27.076   5.014  30.476  0.00  0.00    +0.188 C 
ATOM     22  O   UNL A   1     -25.073   2.127  29.951  0.00  0.00    -0.329 OA
ATOM     23  C   UNL A   1     -24.721   4.515  31.874  0.00  0.00    +0.066 C 
ATOM     24  C   UNL A   1     -25.163   3.578  30.613  0.00  0.00    +0.163 C 
ATOM     25  C   UNL A   1     -22.081   1.482  27.317  0.00  0.00    +0.175 C 
ATOM     26  C   UNL A   1     -25.117   6.037  31.391  0.00  0.00    +0.145 C 
ENDROOT
BRANCH   9  27
ATOM     27  O   UNL A   1     -28.193  -0.208  24.477  0.00  0.00    -0.456 OA
BRANCH  27  28
ATOM     28  C   UNL A   1     -29.460   0.005  23.866  0.00  0.00    +0.243 C 
BRANCH  28  29
ATOM     29  C   UNL A   1     -30.065  -1.377  23.573  0.00  0.00    +0.229 C 
ATOM     30  O   UNL A   1     -30.729  -1.878  24.721  0.00  0.00    -0.216 OA
ENDBRANCH  28  29
ENDBRANCH  27  28
ENDBRANCH   9  27
BRANCH  18  31
ATOM     31  O   UNL A   1     -25.487  -0.172  29.139  0.00  0.00    -0.327 OA
BRANCH  31  32
ATOM     32  C   UNL A   1     -24.855  -1.012  30.143  0.00  0.00    +0.156 C 
BRANCH  32  33
ATOM     33  C   UNL A   1     -24.973  -2.505  29.788  0.00  0.00    +0.006 C 
ATOM     34  C   UNL A   1     -23.906  -3.173  29.146  0.00  0.00    -0.002 C 
ATOM     35  C   UNL A   1     -23.989  -4.549  28.853  0.00  0.00    -0.000 C 
ATOM     36  C   UNL A   1     -25.137  -5.280  29.205  0.00  0.00    -0.000 C 
ATOM     37  C   UNL A   1     -26.232  -4.611  29.784  0.00  0.00    -0.000 C 
ATOM     38  C   UNL A   1     -26.155  -3.232  30.065  0.00  0.00    -0.002 C 
ENDBRANCH  32  33
BRANCH  32  39
ATOM     39  C   UNL A   1     -25.387  -0.679  31.571  0.00  0.00    +0.104 C 
ATOM     40  C   UNL A   1     -25.189   0.773  32.028  0.00  0.00    +0.022 C 
ATOM     41  C   UNL A   1     -25.336   0.684  33.544  0.00  0.00    +0.020 C 
ATOM     42  C   UNL A   1     -24.829  -0.715  33.905  0.00  0.00    +0.089 C 
ATOM     43  N   UNL A   1     -24.758  -1.481  32.646  0.00  0.00    -0.217 NA
ENDBRANCH  32  39
ENDBRANCH  31  32
ENDBRANCH  18  31
TORSDOF 7
