MODEL 4917
MODEL 1
REMARK VINA RESULT:    -6.651      0.000      0.000
REMARK INTER + INTRA:         -13.713
REMARK INTER:                 -10.151
REMARK INTRA:                  -3.562
REMARK UNBOUND:                -3.562
REMARK  Name = No_4917-gen_results/8p0m/2024-11-27-11-27-31/
REMARK  9 active torsions:
REMARK  status: ('A' for Active; 'I' for Inactive)
REMARK    1  A    between atoms: C_2  and  C_12
REMARK    2  A    between atoms: C_4  and  C_7
REMARK    3  A    between atoms: C_9  and  C_10
REMARK    4  A    between atoms: C_10  and  C_11
REMARK    5  A    between atoms: C_11  and  C_18
REMARK    6  A    between atoms: C_22  and  O_24
REMARK    7  A    between atoms: O_24  and  C_25
REMARK    8  A    between atoms: C_25  and  C_26
REMARK    9  A    between atoms: C_27  and  C_28
REMARK                            x       y       z     vdW  Elec       q    Type
REMARK                         _______ _______ _______ _____ _____    ______ ____
ROOT
ATOM      1  C   UNL A   1     -28.063 -14.601   8.292  0.00  0.00    +0.031 C 
ENDROOT
BRANCH   1   2
ATOM      2  C   UNL A   1     -29.380 -14.845   8.931  0.00  0.00    -0.019 A 
ATOM      3  C   UNL A   1     -29.503 -15.549  10.143  0.00  0.00    -0.004 A 
ATOM      4  C   UNL A   1     -30.708 -15.570  10.856  0.00  0.00    +0.003 A 
ATOM      5  C   UNL A   1     -31.837 -14.861  10.277  0.00  0.00    +0.038 A 
ATOM      6  C   UNL A   1     -31.687 -14.072   9.161  0.00  0.00    +0.148 A 
ATOM      7  C   UNL A   1     -30.467 -13.954   8.500  0.00  0.00    +0.033 A 
BRANCH   6   8
ATOM      8  O   UNL A   1     -32.751 -13.354   8.721  0.00  0.00    -0.421 OA
BRANCH   8   9
ATOM      9  C   UNL A   1     -33.364 -12.466   9.612  0.00  0.00    +0.346 C 
ATOM     10  O   UNL A   1     -34.155 -12.900  10.514  0.00  0.00    -0.244 OA
BRANCH   9  11
ATOM     11  C   UNL A   1     -33.194 -11.121   9.361  0.00  0.00    +0.082 C 
ATOM     12  C   UNL A   1     -32.161 -10.526   9.883  0.00  0.00    +0.007 C 
BRANCH  12  13
ATOM     13  C   UNL A   1     -31.473 -11.056  10.791  0.00  0.00    +0.000 A 
ATOM     14  C   UNL A   1     -31.634 -11.410  11.713  0.00  0.00    +0.000 A 
ATOM     15  C   UNL A   1     -30.767 -12.006  12.760  0.00  0.00    +0.000 A 
ATOM     16  C   UNL A   1     -29.429 -12.140  12.373  0.00  0.00    +0.000 A 
ATOM     17  C   UNL A   1     -29.024 -11.693  11.115  0.00  0.00    +0.000 A 
ATOM     18  C   UNL A   1     -29.978 -11.173  10.290  0.00  0.00    +0.000 A 
ENDBRANCH  12  13
ENDBRANCH   9  11
ENDBRANCH   8   9
ENDBRANCH   6   8
ENDBRANCH   1   2
BRANCH   1  19
ATOM     19  C   UNL A   1     -27.861 -14.257   6.956  0.00  0.00    +0.033 C 
BRANCH  19  22
ATOM     20  C   UNL A   1     -27.098 -10.750   7.413  0.00  0.00    +0.019 A 
ATOM     21  C   UNL A   1     -27.348 -11.953   7.744  0.00  0.00    -0.001 A 
ATOM     22  C   UNL A   1     -27.267 -12.997   6.838  0.00  0.00    -0.003 A 
ATOM     23  C   UNL A   1     -26.046 -10.524   6.383  0.00  0.00    +0.099 A 
ATOM     24  N   UNL A   1     -25.714 -11.609   5.592  0.00  0.00    -0.243 NA
ATOM     25  C   UNL A   1     -26.330 -12.747   5.644  0.00  0.00    +0.095 A 
BRANCH  20  29
ATOM     26  C   UNL A   1     -28.050  -7.729   9.585  0.00  0.00    +0.007 A 
ATOM     27  C   UNL A   1     -28.969  -7.514   9.116  0.00  0.00    +0.080 A 
ATOM     28  C   UNL A   1     -27.317  -8.904   9.089  0.00  0.00    +0.000 A 
ATOM     29  C   UNL A   1     -27.775  -9.613   7.940  0.00  0.00    +0.002 A 
ATOM     30  C   UNL A   1     -29.631  -8.045   7.893  0.00  0.00    +0.007 A 
ATOM     31  C   UNL A   1     -28.984  -9.143   7.409  0.00  0.00    +0.000 A 
BRANCH  27  32
ATOM     32  C   UNL A   1     -29.817  -6.236   9.658  0.00  0.00    +0.388 C 
ATOM     33  O   UNL A   1     -29.982  -5.190   8.885  0.00  0.00    -0.241 OA
ATOM     34  O   UNL A   1     -30.338  -6.335  10.751  0.00  0.00    -0.241 OA
ENDBRANCH  27  32
ENDBRANCH  20  29
ENDBRANCH  19  22
ENDBRANCH   1  19
TORSDOF 9
ENDMDL
ENDMDL
