REMARK  Name = No_4917-gen_results/8p0m/2024-11-27-11-27-31/
REMARK  9 active torsions:
REMARK  status: ('A' for Active; 'I' for Inactive)
REMARK    1  A    between atoms: C_2  and  C_12
REMARK    2  A    between atoms: C_4  and  C_7
REMARK    3  A    between atoms: C_9  and  C_10
REMARK    4  A    between atoms: C_10  and  C_11
REMARK    5  A    between atoms: C_11  and  C_18
REMARK    6  A    between atoms: C_22  and  O_24
REMARK    7  A    between atoms: O_24  and  C_25
REMARK    8  A    between atoms: C_25  and  C_26
REMARK    9  A    between atoms: C_27  and  C_28
REMARK                            x       y       z     vdW  Elec       q    Type
REMARK                         _______ _______ _______ _____ _____    ______ ____
ROOT
ATOM      1  C   UNL A   1     -21.613   1.269  27.781  0.00  0.00    +0.031 C 
ENDROOT
BRANCH   1   2
ATOM      2  C   UNL A   1     -22.755   2.163  27.465  0.00  0.00    -0.019 A 
ATOM      3  C   UNL A   1     -23.353   2.190  26.192  0.00  0.00    -0.004 A 
ATOM      4  C   UNL A   1     -24.567   2.851  25.969  0.00  0.00    +0.003 A 
ATOM      5  C   UNL A   1     -25.169   3.537  27.101  0.00  0.00    +0.038 A 
ATOM      6  C   UNL A   1     -24.654   3.409  28.369  0.00  0.00    +0.148 A 
ATOM      7  C   UNL A   1     -23.505   2.664  28.626  0.00  0.00    +0.033 A 
BRANCH   6   8
ATOM      8  O   UNL A   1     -25.313   3.989  29.403  0.00  0.00    -0.421 OA
BRANCH   8   9
ATOM      9  C   UNL A   1     -26.577   3.495  29.743  0.00  0.00    +0.346 C 
ATOM     10  O   UNL A   1     -27.528   3.514  28.893  0.00  0.00    -0.244 OA
BRANCH   9  11
ATOM     11  C   UNL A   1     -26.771   3.145  31.063  0.00  0.00    +0.082 C 
ATOM     12  C   UNL A   1     -27.407   3.980  31.832  0.00  0.00    +0.007 C 
BRANCH  12  13
ATOM     13  C   UNL A   1     -27.619   5.171  31.492  0.00  0.00    +0.000 A 
ATOM     14  C   UNL A   1     -28.405   5.715  31.195  0.00  0.00    +0.000 A 
ATOM     15  C   UNL A   1     -28.590   7.126  30.776  0.00  0.00    +0.000 A 
ATOM     16  C   UNL A   1     -27.418   7.888  30.835  0.00  0.00    +0.000 A 
ATOM     17  C   UNL A   1     -26.221   7.289  31.226  0.00  0.00    +0.000 A 
ATOM     18  C   UNL A   1     -26.257   5.971  31.578  0.00  0.00    +0.000 A 
ENDBRANCH  12  13
ENDBRANCH   9  11
ENDBRANCH   8   9
ENDBRANCH   6   8
ENDBRANCH   1   2
BRANCH   1  19
ATOM     19  C   UNL A   1     -21.677  -0.119  27.894  0.00  0.00    +0.033 C 
BRANCH  19  22
ATOM     20  C   UNL A   1     -24.381  -1.108  30.085  0.00  0.00    +0.019 A 
ATOM     21  C   UNL A   1     -23.642  -1.118  29.049  0.00  0.00    -0.001 A 
ATOM     22  C   UNL A   1     -22.400  -0.506  29.027  0.00  0.00    -0.003 A 
ATOM     23  C   UNL A   1     -23.708  -1.149  31.412  0.00  0.00    +0.099 A 
ATOM     24  N   UNL A   1     -22.370  -0.796  31.436  0.00  0.00    -0.243 NA
ATOM     25  C   UNL A   1     -21.730  -0.351  30.402  0.00  0.00    +0.095 A 
BRANCH  20  29
ATOM     26  C   UNL A   1     -28.016  -0.814  28.878  0.00  0.00    +0.007 A 
ATOM     27  C   UNL A   1     -28.469  -0.785  29.829  0.00  0.00    +0.080 A 
ATOM     28  C   UNL A   1     -26.546  -0.876  28.850  0.00  0.00    +0.000 A 
ATOM     29  C   UNL A   1     -25.804  -1.032  30.057  0.00  0.00    +0.002 A 
ATOM     30  C   UNL A   1     -27.944  -0.987  31.207  0.00  0.00    +0.007 A 
ATOM     31  C   UNL A   1     -26.582  -1.039  31.223  0.00  0.00    +0.000 A 
BRANCH  27  32
ATOM     32  C   UNL A   1     -30.091  -0.691  29.895  0.00  0.00    +0.388 C 
ATOM     33  O   UNL A   1     -30.662   0.076  30.792  0.00  0.00    -0.241 OA
ATOM     34  O   UNL A   1     -30.719  -1.290  29.045  0.00  0.00    -0.241 OA
ENDBRANCH  27  32
ENDBRANCH  20  29
ENDBRANCH  19  22
ENDBRANCH   1  19
TORSDOF 9
