MODEL 4919
MODEL 1
REMARK VINA RESULT:    -6.817      0.000      0.000
REMARK INTER + INTRA:          -8.138
REMARK INTER:                  -7.614
REMARK INTRA:                  -0.523
REMARK UNBOUND:                -0.523
REMARK  Name = No_4919-gen_results/8p0m/2024-11-27-11-27-31/
REMARK  2 active torsions:
REMARK  status: ('A' for Active; 'I' for Inactive)
REMARK    1  A    between atoms: C_3  and  C_13
REMARK    2  A    between atoms: C_5  and  C_7
REMARK                            x       y       z     vdW  Elec       q    Type
REMARK                         _______ _______ _______ _____ _____    ______ ____
ROOT
ATOM      1  C   UNL A   1     -23.668   0.396  30.983  0.00  0.00    -0.000 A 
ATOM      2  C   UNL A   1     -23.293   1.086  30.064  0.00  0.00    +0.004 A 
ATOM      3  C   UNL A   1     -23.047   0.637  28.777  0.00  0.00    +0.071 A 
ATOM      4  C   UNL A   1     -23.285  -0.745  28.517  0.00  0.00    +0.005 A 
ATOM      5  C   UNL A   1     -23.843  -1.451  29.521  0.00  0.00    +0.018 A 
ATOM      6  C   UNL A   1     -24.122  -0.895  30.702  0.00  0.00    +0.002 A 
ENDROOT
BRANCH   5   7
ATOM      7  C   UNL A   1     -24.260  -2.848  29.391  0.00  0.00    +0.081 A 
ATOM      8  N   UNL A   1     -23.646  -3.684  28.798  0.00  0.00    -0.244 NA
ATOM      9  C   UNL A   1     -25.679  -3.166  29.857  0.00  0.00    +0.019 A 
ATOM     10  C   UNL A   1     -26.139  -4.469  29.654  0.00  0.00    +0.003 A 
ATOM     11  C   UNL A   1     -24.127  -4.989  28.573  0.00  0.00    +0.099 A 
ATOM     12  C   UNL A   1     -25.322  -5.360  29.029  0.00  0.00    +0.021 A 
ENDBRANCH   5   7
BRANCH   3  13
ATOM     13  C   UNL A   1     -22.388   1.468  27.716  0.00  0.00    +0.419 C 
ATOM     14  F   UNL A   1     -22.317   2.632  27.962  0.00  0.00    -0.166 F 
ATOM     15  F   UNL A   1     -21.111   1.021  27.601  0.00  0.00    -0.166 F 
ATOM     16  F   UNL A   1     -22.925   1.257  26.510  0.00  0.00    -0.166 F 
ENDBRANCH   3  13
TORSDOF 2
ENDMDL
ENDMDL
