MODEL 491
MODEL 1
REMARK VINA RESULT:    -8.121      0.000      0.000
REMARK INTER + INTRA:         -12.900
REMARK INTER:                 -10.970
REMARK INTRA:                  -1.930
REMARK UNBOUND:                -1.930
REMARK  Name = No_491-gen_results/8p0m/2024-11-27-11-27-31/
REMARK  6 active torsions:
REMARK  status: ('A' for Active; 'I' for Inactive)
REMARK    1  A    between atoms: C_2  and  C_16
REMARK    2  A    between atoms: C_3  and  C_4
REMARK    3  A    between atoms: N_8  and  C_10
REMARK    4  A    between atoms: N_18  and  C_20
REMARK    5  A    between atoms: C_19  and  C_26
REMARK    6  A    between atoms: C_26  and  C_27
REMARK                            x       y       z     vdW  Elec       q    Type
REMARK                         _______ _______ _______ _____ _____    ______ ____
ROOT
ATOM      1  C   UNL A   1     -25.759   0.243  26.127  0.00  0.00    +0.259 C 
ATOM      2  O   UNL A   1     -25.879  -0.750  25.585  0.00  0.00    -0.269 OA
ATOM      3  N   UNL A   1     -26.788   1.091  26.287  0.00  0.00    -0.204 N 
ATOM      4  C   UNL A   1     -28.103   0.733  25.794  0.00  0.00    +0.240 C 
ATOM      5  O   UNL A   1     -28.879   0.024  26.368  0.00  0.00    -0.274 OA
ENDROOT
BRANCH   1   7
ATOM      6  C   UNL A   1     -24.039   0.040  27.640  0.00  0.00    +0.009 A 
ATOM      7  C   UNL A   1     -24.350   0.591  26.797  0.00  0.00    +0.054 A 
ATOM      8  C   UNL A   1     -22.652   0.361  28.149  0.00  0.00    +0.056 A 
ATOM      9  C   UNL A   1     -23.787   1.777  26.139  0.00  0.00    +0.004 A 
ATOM     10  C   UNL A   1     -22.531   2.149  26.569  0.00  0.00    +0.000 A 
ATOM     11  C   UNL A   1     -21.929   1.483  27.605  0.00  0.00    +0.005 A 
BRANCH   8  12
ATOM     12  C   UNL A   1     -21.939  -0.345  29.185  0.00  0.00    +0.269 C 
ATOM     13  N   UNL A   1     -22.321  -0.392  30.390  0.00  0.00    -0.175 NA
ATOM     14  O   UNL A   1     -20.896  -1.074  28.879  0.00  0.00    -0.268 OA
BRANCH  13  15
ATOM     15  C   UNL A   1     -23.478   0.184  30.937  0.00  0.00    +0.074 A 
ATOM     16  C   UNL A   1     -24.121  -0.647  31.653  0.00  0.00    +0.017 A 
ATOM     17  C   UNL A   1     -23.611   1.553  30.996  0.00  0.00    +0.017 A 
ATOM     18  C   UNL A   1     -24.651   2.123  31.706  0.00  0.00    +0.001 A 
ATOM     19  C   UNL A   1     -25.301  -0.136  32.350  0.00  0.00    +0.001 A 
ATOM     20  C   UNL A   1     -25.498   1.237  32.469  0.00  0.00    +0.000 A 
ENDBRANCH  13  15
ENDBRANCH   8  12
ENDBRANCH   1   7
BRANCH   3  21
ATOM     21  C   UNL A   1     -26.924   1.767  27.580  0.00  0.00    +0.061 A 
ATOM     22  C   UNL A   1     -27.324   1.096  28.649  0.00  0.00    +0.015 A 
ATOM     23  C   UNL A   1     -27.806   1.838  29.693  0.00  0.00    +0.001 A 
ATOM     24  C   UNL A   1     -27.648   3.281  29.760  0.00  0.00    +0.000 A 
ATOM     25  C   UNL A   1     -27.213   3.895  28.603  0.00  0.00    +0.001 A 
ATOM     26  C   UNL A   1     -26.967   3.205  27.563  0.00  0.00    +0.015 A 
ENDBRANCH   3  21
BRANCH   4  27
ATOM     27  C   UNL A   1     -28.167   0.823  24.357  0.00  0.00    +0.112 C 
BRANCH  27  28
ATOM     28  C   UNL A   1     -29.170   1.210  23.802  0.00  0.00    -0.013 A 
ATOM     29  C   UNL A   1     -29.597   2.321  23.425  0.00  0.00    -0.004 A 
ATOM     30  C   UNL A   1     -30.834   2.673  22.762  0.00  0.00    -0.000 A 
ATOM     31  C   UNL A   1     -31.738   1.630  22.552  0.00  0.00    -0.000 A 
ATOM     32  C   UNL A   1     -31.418   0.331  22.950  0.00  0.00    -0.000 A 
ATOM     33  C   UNL A   1     -30.247   0.125  23.548  0.00  0.00    -0.004 A 
ENDBRANCH  27  28
ENDBRANCH   4  27
TORSDOF 6
ENDMDL
ENDMDL
