MODEL 4920
MODEL 1
REMARK VINA RESULT:    -8.101      0.000      0.000
REMARK INTER + INTRA:         -15.556
REMARK INTER:                 -12.836
REMARK INTRA:                  -2.720
REMARK UNBOUND:                -2.720
REMARK  Name = No_4920-gen_results/8p0m/2024-11-27-11-27-31/
REMARK  10 active torsions:
REMARK  status: ('A' for Active; 'I' for Inactive)
REMARK    1  A    between atoms: C_1  and  O_20
REMARK    2  A    between atoms: C_3  and  C_8
REMARK    3  A    between atoms: C_6  and  O_7
REMARK    4  A    between atoms: O_7  and  C_14
REMARK    5  A    between atoms: C_14  and  C_15
REMARK    6  A    between atoms: O_20  and  C_21
REMARK    7  A    between atoms: C_21  and  C_22
REMARK    8  A    between atoms: C_22  and  C_23
REMARK    9  A    between atoms: C_22  and  C_25
REMARK   10  A    between atoms: C_25  and  C_26
REMARK                            x       y       z     vdW  Elec       q    Type
REMARK                         _______ _______ _______ _____ _____    ______ ____
ROOT
ATOM      1  C   UNL A   1     -25.023  -0.004  32.993  0.00  0.00    +0.172 A 
ATOM      2  C   UNL A   1     -24.789  -0.495  34.073  0.00  0.00    +0.040 A 
ATOM      3  C   UNL A   1     -25.806  -0.728  34.992  0.00  0.00    +0.003 A 
ATOM      4  C   UNL A   1     -27.166  -0.349  34.704  0.00  0.00    +0.003 A 
ATOM      5  C   UNL A   1     -27.344   0.234  33.442  0.00  0.00    +0.040 A 
ATOM      6  C   UNL A   1     -26.345   0.447  32.616  0.00  0.00    +0.173 A 
ENDROOT
BRANCH   3   7
ATOM      7  C   UNL A   1     -25.643  -1.341  36.361  0.00  0.00    +0.000 A 
ATOM      8  C   UNL A   1     -26.463  -2.293  36.769  0.00  0.00    +0.000 A 
ATOM      9  C   UNL A   1     -26.349  -2.823  38.107  0.00  0.00    +0.000 A 
ATOM     10  C   UNL A   1     -25.454  -2.272  39.042  0.00  0.00    +0.000 A 
ATOM     11  C   UNL A   1     -24.753  -0.762  37.318  0.00  0.00    +0.000 A 
ATOM     12  C   UNL A   1     -24.662  -1.285  38.650  0.00  0.00    +0.000 A 
ENDBRANCH   3   7
BRANCH   6  13
ATOM     13  O   UNL A   1     -26.598   1.054  31.424  0.00  0.00    -0.463 OA
BRANCH  13  14
ATOM     14  C   UNL A   1     -26.894   2.380  31.333  0.00  0.00    +0.290 C 
BRANCH  14  15
ATOM     15  C   UNL A   1     -25.756   3.263  31.436  0.00  0.00    +0.270 C 
ATOM     16  O   UNL A   1     -24.965   3.284  30.594  0.00  0.00    -0.271 OA
ATOM     17  N   UNL A   1     -25.498   3.840  32.610  0.00  0.00    -0.273 N 
ATOM     18  C   UNL A   1     -26.348   3.764  33.826  0.00  0.00    +0.115 C 
ATOM     19  C   UNL A   1     -24.336   4.749  32.694  0.00  0.00    +0.115 C 
ENDBRANCH  14  15
ENDBRANCH  13  14
ENDBRANCH   6  13
BRANCH   1  20
ATOM     20  O   UNL A   1     -24.045   0.247  32.089  0.00  0.00    -0.472 OA
BRANCH  20  21
ATOM     21  C   UNL A   1     -23.519  -0.720  31.302  0.00  0.00    +0.210 C 
BRANCH  21  22
ATOM     22  C   UNL A   1     -23.747  -0.693  30.033  0.00  0.00    +0.070 C 
BRANCH  22  23
ATOM     23  C   UNL A   1     -22.903   0.071  29.211  0.00  0.00    -0.018 A 
ATOM     24  C   UNL A   1     -23.435   0.987  28.548  0.00  0.00    -0.004 A 
ATOM     25  C   UNL A   1     -22.609   1.787  27.735  0.00  0.00    -0.000 A 
ATOM     26  C   UNL A   1     -21.277   1.447  27.501  0.00  0.00    -0.000 A 
ATOM     27  C   UNL A   1     -20.714   0.387  28.201  0.00  0.00    -0.000 A 
ATOM     28  C   UNL A   1     -21.548  -0.279  29.059  0.00  0.00    -0.004 A 
ENDBRANCH  22  23
BRANCH  22  29
ATOM     29  C   UNL A   1     -24.898  -1.268  29.437  0.00  0.00    +0.034 C 
BRANCH  29  30
ATOM     30  C   UNL A   1     -25.022  -2.689  29.166  0.00  0.00    -0.022 A 
ATOM     31  C   UNL A   1     -26.007  -3.328  29.721  0.00  0.00    -0.004 A 
ATOM     32  C   UNL A   1     -26.057  -4.804  29.680  0.00  0.00    -0.000 A 
ATOM     33  C   UNL A   1     -24.976  -5.432  29.029  0.00  0.00    -0.000 A 
ATOM     34  C   UNL A   1     -23.954  -4.712  28.473  0.00  0.00    -0.000 A 
ATOM     35  C   UNL A   1     -23.955  -3.318  28.620  0.00  0.00    -0.004 A 
ENDBRANCH  29  30
ENDBRANCH  22  29
ENDBRANCH  21  22
ENDBRANCH  20  21
ENDBRANCH   1  20
TORSDOF 10
ENDMDL
ENDMDL
