MODEL 4921
MODEL 1
REMARK VINA RESULT:    -5.254      0.000      0.000
REMARK INTER + INTRA:          -6.011
REMARK INTER:                  -5.869
REMARK INTRA:                  -0.142
REMARK UNBOUND:                -0.142
REMARK  Name = No_4921-gen_results/8p0m/2024-11-27-11-27-31/
REMARK  2 active torsions:
REMARK  status: ('A' for Active; 'I' for Inactive)
REMARK    1  A    between atoms: C_1  and  C_8
REMARK    2  A    between atoms: C_5  and  C_11
REMARK                            x       y       z     vdW  Elec       q    Type
REMARK                         _______ _______ _______ _____ _____    ______ ____
ROOT
ATOM      1  C   UNL A   1     -28.394 -10.803  33.260  0.00  0.00    +0.078 C 
ATOM      2  C   UNL A   1     -28.828 -10.917  32.137  0.00  0.00    -0.038 C 
ATOM      3  C   UNL A   1     -29.793 -10.069  31.594  0.00  0.00    +0.022 C 
ATOM      4  C   UNL A   1     -30.385 -10.141  30.244  0.00  0.00    +0.006 C 
ATOM      5  C   UNL A   1     -29.756 -11.049  29.338  0.00  0.00    +0.017 C 
ATOM      6  C   UNL A   1     -28.751 -11.887  29.830  0.00  0.00    +0.006 C 
ATOM      7  C   UNL A   1     -28.301 -11.836  31.103  0.00  0.00    +0.022 C 
ENDROOT
BRANCH   1   8
ATOM      8  C   UNL A   1     -28.337 -12.088  34.021  0.00  0.00    +0.387 C 
ATOM      9  O   UNL A   1     -27.139 -12.379  34.419  0.00  0.00    -0.241 OA
ATOM     10  O   UNL A   1     -29.246 -12.813  34.266  0.00  0.00    -0.241 OA
ENDBRANCH   1   8
BRANCH   5  11
ATOM     11  C   UNL A   1     -30.201 -10.753  28.039  0.00  0.00    +0.095 C 
ATOM     12 CL   UNL A   1     -29.784 -11.188  26.551  0.00  0.00    -0.114 Cl
ENDBRANCH   5  11
TORSDOF 2
ENDMDL
ENDMDL
