REMARK  Name = outputs/IAG933/test6/raw/output_4922_IAG933_linker_design_.xyz
REMARK  16 active torsions:
REMARK  status: ('A' for Active; 'I' for Inactive)
REMARK    1  A    between atoms: C_1  and  C_2
REMARK    2  A    between atoms: C_1  and  C_8
REMARK    3  A    between atoms: C_1  and  N_44
REMARK    4  A    between atoms: C_14  and  C_15
REMARK    5  A    between atoms: C_15  and  O_18
REMARK    6  A    between atoms: O_18  and  C_37
REMARK    7  A    between atoms: C_21  and  O_22
REMARK    8  A    between atoms: O_22  and  C_23
REMARK    9  A    between atoms: C_23  and  C_24
REMARK   10  A    between atoms: C_28  and  C_37
REMARK   11  A    between atoms: C_28  and  C_39
REMARK   12  A    between atoms: C_28  and  N_42
REMARK   13  A    between atoms: C_35  and  O_41
REMARK   14  A    between atoms: C_35  and  C_46
REMARK   15  A    between atoms: C_36  and  O_38
REMARK   16  A    between atoms: C_37  and  O_41
REMARK                            x       y       z     vdW  Elec       q    Type
REMARK                         _______ _______ _______ _____ _____    ______ ____
ROOT
ATOM      1  C   UNL A   1     -24.798   2.848  29.124  0.00  0.00    +0.314 C 
ENDROOT
BRANCH   1   2
ATOM      2  C   UNL A   1     -25.932   2.996  30.175  0.00  0.00    +0.194 C 
BRANCH   2   7
ATOM      3  C   UNL A   1     -25.085   4.154  32.211  0.00  0.00    +0.001 C 
ATOM      4  C   UNL A   1     -26.563   5.502  30.893  0.00  0.00    +0.194 C 
ATOM      5  O   UNL A   1     -27.433   5.617  29.907  0.00  0.00    -0.287 OA
ATOM      6  C   UNL A   1     -24.819   5.235  33.027  0.00  0.00    -0.000 C 
ATOM      7  C   UNL A   1     -25.880   4.236  31.074  0.00  0.00    +0.043 C 
ATOM      8  C   UNL A   1     -25.369   6.489  32.736  0.00  0.00    +0.003 C 
ATOM      9  C   UNL A   1     -26.318   6.611  31.721  0.00  0.00    +0.042 C 
ENDBRANCH   2   7
BRANCH   2  11
ATOM     10  C   UNL A   1     -28.114   2.137  29.806  0.00  0.00    +0.422 C 
ATOM     11  N   UNL A   1     -27.186   2.998  29.461  0.00  0.00    -0.159 NA
ATOM     12  O   UNL A   1     -28.550   1.304  29.040  0.00  0.00    -0.225 OA
BRANCH  10  14
ATOM     13  C   UNL A   1     -29.523   1.305  31.619  0.00  0.00    +0.257 C 
ATOM     14  O   UNL A   1     -28.480   2.185  31.134  0.00  0.00    -0.429 OA
ENDBRANCH  10  14
ENDBRANCH   2  11
ENDBRANCH   1   2
BRANCH   1  15
ATOM     15  O   UNL A   1     -25.143   3.966  28.243  0.00  0.00    -0.434 OA
BRANCH  15  16
ATOM     16  C   UNL A   1     -25.642   4.093  27.123  0.00  0.00    +0.224 C 
ATOM     17  N   UNL A   1     -25.614   5.252  26.449  0.00  0.00    -0.236 NA
ATOM     18  C   UNL A   1     -25.026   6.479  26.963  0.00  0.00    +0.155 C 
BRANCH  16  20
ATOM     19  C   UNL A   1     -25.688   1.614  26.461  0.00  0.00    +0.041 C 
ATOM     20  C   UNL A   1     -26.250   2.920  26.395  0.00  0.00    +0.074 C 
ATOM     21  C   UNL A   1     -27.438   3.091  25.645  0.00  0.00    +0.107 C 
ATOM     22  N   UNL A   1     -28.075   2.089  25.003  0.00  0.00    -0.208 NA
ATOM     23  C   UNL A   1     -27.543   0.849  25.079  0.00  0.00    +0.253 C 
ATOM     24  C   UNL A   1     -26.354   0.576  25.777  0.00  0.00    +0.193 C 
ATOM     25  F   UNL A   1     -25.860  -0.681  25.795  0.00  0.00    -0.199 F 
BRANCH  23  26
ATOM     26  O   UNL A   1     -28.193  -0.208  24.477  0.00  0.00    -0.456 OA
BRANCH  26  27
ATOM     27  C   UNL A   1     -29.460   0.005  23.866  0.00  0.00    +0.243 C 
BRANCH  27  28
ATOM     28  C   UNL A   1     -30.065  -1.377  23.573  0.00  0.00    +0.229 C 
ATOM     29  O   UNL A   1     -30.729  -1.878  24.721  0.00  0.00    -0.216 OA
ENDBRANCH  27  28
ENDBRANCH  26  27
ENDBRANCH  23  26
ENDBRANCH  16  20
ENDBRANCH  15  16
ENDBRANCH   1  15
BRANCH   1  30
ATOM     30  O   UNL A   1     -23.398   2.391  28.473  0.00  0.00    -0.312 OA
BRANCH  30  32
ATOM     31  C   UNL A   1     -21.346   1.362  27.700  0.00  0.00    +0.042 C 
ATOM     32  C   UNL A   1     -22.422   1.388  28.713  0.00  0.00    +0.196 C 
BRANCH  32  35
ATOM     33  O   UNL A   1     -22.058  -0.570  29.927  0.00  0.00    -0.271 OA
ATOM     34  N   UNL A   1     -24.114  -0.002  29.608  0.00  0.00    -0.199 NA
ATOM     35  C   UNL A   1     -22.859   0.224  29.425  0.00  0.00    +0.269 C 
BRANCH  34  36
ATOM     36  C   UNL A   1     -24.855  -1.012  30.143  0.00  0.00    +0.133 C 
BRANCH  36  37
ATOM     37  C   UNL A   1     -24.973  -2.505  29.788  0.00  0.00    -0.001 C 
ATOM     38  C   UNL A   1     -23.906  -3.173  29.146  0.00  0.00    -0.003 C 
ATOM     39  C   UNL A   1     -23.989  -4.549  28.853  0.00  0.00    -0.000 C 
ATOM     40  C   UNL A   1     -25.137  -5.280  29.205  0.00  0.00    -0.000 C 
ATOM     41  C   UNL A   1     -26.232  -4.611  29.784  0.00  0.00    -0.000 C 
ATOM     42  C   UNL A   1     -26.155  -3.232  30.065  0.00  0.00    -0.003 C 
ENDBRANCH  36  37
BRANCH  36  43
ATOM     43  C   UNL A   1     -25.387  -0.679  31.571  0.00  0.00    +0.097 C 
ATOM     44  C   UNL A   1     -25.189   0.773  32.028  0.00  0.00    +0.021 C 
ATOM     45  C   UNL A   1     -25.336   0.684  33.544  0.00  0.00    +0.020 C 
ATOM     46  C   UNL A   1     -24.829  -0.715  33.905  0.00  0.00    +0.089 C 
ATOM     47  N   UNL A   1     -24.758  -1.481  32.646  0.00  0.00    -0.217 NA
ENDBRANCH  36  43
ENDBRANCH  34  36
ENDBRANCH  32  35
ENDBRANCH  30  32
ENDBRANCH   1  30
TORSDOF 16
