MODEL 4923
MODEL 1
REMARK VINA RESULT:    -5.543      0.000      0.000
REMARK INTER + INTRA:          -5.543
REMARK INTER:                  -5.543
REMARK INTRA:                   0.000
REMARK UNBOUND:                 0.000
REMARK  Name = No_4923-gen_results/8p0m/2024-11-27-11-27-31/
REMARK  0 active torsions:
REMARK  status: ('A' for Active; 'I' for Inactive)
REMARK                            x       y       z     vdW  Elec       q    Type
REMARK                         _______ _______ _______ _____ _____    ______ ____
ROOT
ATOM      1  O   UNL A   1     -23.853  -2.896  29.593  0.00  0.00    -0.275 OA
ATOM      2  C   UNL A   1     -23.786  -1.756  29.434  0.00  0.00    +0.230 C 
ATOM      3  C   UNL A   1     -24.313  -1.152  28.310  0.00  0.00    +0.111 C 
ATOM      4  N   UNL A   1     -22.726  -0.963  30.065  0.00  0.00    -0.273 N 
ATOM      5  C   UNL A   1     -24.015   0.062  27.874  0.00  0.00    -0.015 A 
ATOM      6  C   UNL A   1     -24.602   0.751  26.769  0.00  0.00    -0.004 A 
ATOM      7  C   UNL A   1     -23.943   1.749  26.143  0.00  0.00    -0.000 A 
ATOM      8  C   UNL A   1     -22.622   2.110  26.603  0.00  0.00    -0.000 A 
ATOM      9  C   UNL A   1     -21.985   1.450  27.612  0.00  0.00    -0.003 A 
ATOM     10  C   UNL A   1     -22.634   0.356  28.149  0.00  0.00    -0.006 A 
ATOM     11  C   UNL A   1     -22.025  -0.146  29.372  0.00  0.00    +0.120 C 
ATOM     12  C   UNL A   1     -23.238  -0.682  31.389  0.00  0.00    +0.115 C 
ENDROOT
TORSDOF 0
ENDMDL
ENDMDL
