REMARK  Name = outputs/IAG933/test6/raw/output_4923_IAG933_linker_design_.xyz
REMARK  15 active torsions:
REMARK  status: ('A' for Active; 'I' for Inactive)
REMARK    1  A    between atoms: C_1  and  C_2
REMARK    2  A    between atoms: C_1  and  C_8
REMARK    3  A    between atoms: C_1  and  C_42
REMARK    4  A    between atoms: C_13  and  O_29
REMARK    5  A    between atoms: C_14  and  C_15
REMARK    6  A    between atoms: C_21  and  O_22
REMARK    7  A    between atoms: O_22  and  C_23
REMARK    8  A    between atoms: C_23  and  C_24
REMARK    9  A    between atoms: O_29  and  C_43
REMARK   10  A    between atoms: C_35  and  C_39
REMARK   11  A    between atoms: C_35  and  C_40
REMARK   12  A    between atoms: C_38  and  C_42
REMARK   13  A    between atoms: C_38  and  C_45
REMARK   14  A    between atoms: C_39  and  C_42
REMARK   15  A    between atoms: C_43  and  C_45
REMARK                            x       y       z     vdW  Elec       q    Type
REMARK                         _______ _______ _______ _____ _____    ______ ____
ROOT
ATOM      1  C   UNL A   1     -24.685   0.120  29.054  0.00  0.00    +0.036 C 
ENDROOT
BRANCH   1   2
ATOM      2  C   UNL A   1     -23.084   0.444  29.131  0.00  0.00    +0.155 C 
ATOM      3  O   UNL A   1     -22.493   0.454  30.394  0.00  0.00    -0.223 OA
BRANCH   2   5
ATOM      4  C   UNL A   1     -21.088   1.675  27.466  0.00  0.00    +0.005 C 
ATOM      5  C   UNL A   1     -22.377   0.902  27.856  0.00  0.00    +0.060 C 
BRANCH   5   6
ATOM      6  C   UNL A   1     -23.411   1.636  26.939  0.00  0.00    +0.145 C 
BRANCH   6   7
ATOM      7  O   UNL A   1     -24.722   1.369  27.611  0.00  0.00    -0.348 OA
BRANCH   7   8
ATOM      8  C   UNL A   1     -25.688   1.614  26.461  0.00  0.00    +0.185 C 
ATOM      9  C   UNL A   1     -26.250   2.920  26.395  0.00  0.00    +0.082 C 
ATOM     10  C   UNL A   1     -27.438   3.091  25.645  0.00  0.00    +0.104 C 
ATOM     11  N   UNL A   1     -28.075   2.089  25.003  0.00  0.00    -0.212 NA
ATOM     12  C   UNL A   1     -27.543   0.849  25.079  0.00  0.00    +0.237 C 
ATOM     13  C   UNL A   1     -26.354   0.576  25.777  0.00  0.00    +0.267 C 
ATOM     14  F   UNL A   1     -25.860  -0.681  25.795  0.00  0.00    -0.224 F 
BRANCH   9  15
ATOM     15  C   UNL A   1     -25.642   4.093  27.123  0.00  0.00    +0.265 C 
ATOM     16  N   UNL A   1     -25.614   5.252  26.449  0.00  0.00    -0.200 NA
ATOM     17  C   UNL A   1     -25.026   6.479  26.963  0.00  0.00    +0.139 C 
ATOM     18  O   UNL A   1     -25.143   3.966  28.243  0.00  0.00    -0.269 OA
ENDBRANCH   9  15
BRANCH  12  19
ATOM     19  O   UNL A   1     -28.193  -0.208  24.477  0.00  0.00    -0.459 OA
BRANCH  19  20
ATOM     20  C   UNL A   1     -29.460   0.005  23.866  0.00  0.00    +0.242 C 
BRANCH  20  21
ATOM     21  C   UNL A   1     -30.065  -1.377  23.573  0.00  0.00    +0.229 C 
ATOM     22  O   UNL A   1     -30.729  -1.878  24.721  0.00  0.00    -0.216 OA
ENDBRANCH  20  21
ENDBRANCH  19  20
ENDBRANCH  12  19
ENDBRANCH   7   8
ENDBRANCH   6   7
ENDBRANCH   5   6
ENDBRANCH   2   5
ENDBRANCH   1   2
BRANCH   1  23
ATOM     23  C   UNL A   1     -24.855  -1.012  30.143  0.00  0.00    +0.041 C 
BRANCH  23  24
ATOM     24  C   UNL A   1     -24.973  -2.505  29.788  0.00  0.00    -0.021 C 
ATOM     25  C   UNL A   1     -23.906  -3.173  29.146  0.00  0.00    -0.004 C 
ATOM     26  C   UNL A   1     -23.989  -4.549  28.853  0.00  0.00    -0.000 C 
ATOM     27  C   UNL A   1     -25.137  -5.280  29.205  0.00  0.00    -0.000 C 
ATOM     28  C   UNL A   1     -26.232  -4.611  29.784  0.00  0.00    -0.000 C 
ATOM     29  C   UNL A   1     -26.155  -3.232  30.065  0.00  0.00    -0.004 C 
ENDBRANCH  23  24
BRANCH  23  30
ATOM     30  C   UNL A   1     -25.387  -0.679  31.571  0.00  0.00    +0.077 C 
ATOM     31  C   UNL A   1     -25.189   0.773  32.028  0.00  0.00    +0.019 C 
ATOM     32  C   UNL A   1     -25.336   0.684  33.544  0.00  0.00    +0.020 C 
ATOM     33  C   UNL A   1     -24.829  -0.715  33.905  0.00  0.00    +0.089 C 
ATOM     34  N   UNL A   1     -24.758  -1.481  32.646  0.00  0.00    -0.219 NA
ENDBRANCH  23  30
ENDBRANCH   1  23
BRANCH   1  35
ATOM     35  C   UNL A   1     -26.282   0.699  29.337  0.00  0.00    +0.004 C 
BRANCH  35  36
ATOM     36  C   UNL A   1     -27.495  -0.190  28.812  0.00  0.00    +0.012 C 
BRANCH  36  44
ATOM     37  C   UNL A   1     -33.463   1.500  29.785  0.00  0.00    +0.099 C 
ATOM     38  C   UNL A   1     -30.216  -0.058  28.679  0.00  0.00    +0.194 C 
ATOM     39  C   UNL A   1     -29.084  -0.240  30.930  0.00  0.00    -0.019 C 
ATOM     40  C   UNL A   1     -33.640   1.004  31.113  0.00  0.00    +0.021 C 
ATOM     41  C   UNL A   1     -31.468   0.011  30.937  0.00  0.00    +0.020 C 
ATOM     42  N   UNL A   1     -32.446   1.085  28.962  0.00  0.00    -0.241 NA
ATOM     43  O   UNL A   1     -30.140  -0.247  27.429  0.00  0.00    -0.289 OA
ATOM     44  C   UNL A   1     -28.931  -0.146  29.481  0.00  0.00    +0.085 C 
ATOM     45  C   UNL A   1     -30.283  -0.230  31.644  0.00  0.00    -0.003 C 
ATOM     46  C   UNL A   1     -31.415   0.312  29.491  0.00  0.00    +0.116 C 
ATOM     47  C   UNL A   1     -32.740   0.111  31.644  0.00  0.00    +0.003 C 
ENDBRANCH  36  44
ENDBRANCH  35  36
ENDBRANCH   1  35
TORSDOF 15
