REMARK  Name = No_4924-gen_results/8p0m/2024-11-27-11-27-31/
REMARK  3 active torsions:
REMARK  status: ('A' for Active; 'I' for Inactive)
REMARK    1  A    between atoms: C_2  and  C_7
REMARK    2  A    between atoms: C_4  and  C_16
REMARK    3  A    between atoms: C_7  and  C_8
REMARK                            x       y       z     vdW  Elec       q    Type
REMARK                         _______ _______ _______ _____ _____    ______ ____
ROOT
ATOM      1  C   UNL A   1     -28.016  -0.814  28.878  0.00  0.00    -0.003 A 
ATOM      2  C   UNL A   1     -27.064  -0.119  28.608  0.00  0.00    -0.018 A 
ATOM      3  C   UNL A   1     -26.929   1.171  29.008  0.00  0.00    +0.004 A 
ATOM      4  C   UNL A   1     -27.956   1.741  29.784  0.00  0.00    +0.090 A 
ATOM      5  C   UNL A   1     -28.772  -0.454  29.870  0.00  0.00    +0.011 A 
ATOM      6  C   UNL A   1     -28.864   0.873  30.292  0.00  0.00    +0.064 A 
ATOM      7 CL   UNL A   1     -30.113   1.382  31.399  0.00  0.00    -0.082 Cl
ENDROOT
BRANCH   4   8
ATOM      8  C   UNL A   1     -27.825   3.165  30.248  0.00  0.00    +0.389 C 
ATOM      9  O   UNL A   1     -28.688   3.893  30.269  0.00  0.00    -0.240 OA
ATOM     10  O   UNL A   1     -26.538   3.501  30.497  0.00  0.00    -0.240 OA
ENDBRANCH   4   8
BRANCH   2  11
ATOM     11  C   UNL A   1     -25.933  -0.550  27.646  0.00  0.00    +0.053 C 
BRANCH  11  12
ATOM     12  C   UNL A   1     -24.655  -0.828  28.360  0.00  0.00    -0.007 A 
ATOM     13  C   UNL A   1     -23.606   0.064  28.513  0.00  0.00    +0.054 A 
ATOM     14  C   UNL A   1     -22.438  -0.350  29.192  0.00  0.00    +0.011 A 
ATOM     15  C   UNL A   1     -24.633  -1.965  29.226  0.00  0.00    -0.003 A 
ATOM     16  C   UNL A   1     -23.470  -2.334  29.876  0.00  0.00    -0.000 A 
ATOM     17  C   UNL A   1     -22.377  -1.491  29.854  0.00  0.00    +0.001 A 
ATOM     18 CL   UNL A   1     -23.613   1.580  27.644  0.00  0.00    -0.083 Cl
ENDBRANCH  11  12
ENDBRANCH   2  11
TORSDOF 3
