MODEL 4924
MODEL 1
REMARK VINA RESULT:    -6.948      0.000      0.000
REMARK INTER + INTRA:          -8.758
REMARK INTER:                  -8.166
REMARK INTRA:                  -0.591
REMARK UNBOUND:                -0.591
REMARK  Name = No_4924-gen_results/8p0m/2024-11-27-11-27-31/
REMARK  3 active torsions:
REMARK  status: ('A' for Active; 'I' for Inactive)
REMARK    1  A    between atoms: C_2  and  C_7
REMARK    2  A    between atoms: C_4  and  C_16
REMARK    3  A    between atoms: C_7  and  C_8
REMARK                            x       y       z     vdW  Elec       q    Type
REMARK                         _______ _______ _______ _____ _____    ______ ____
ROOT
ATOM      1  C   UNL A   1     -23.096   0.385  28.978  0.00  0.00    -0.003 A 
ATOM      2  C   UNL A   1     -24.106  -0.279  28.947  0.00  0.00    -0.018 A 
ATOM      3  C   UNL A   1     -24.992  -0.265  27.918  0.00  0.00    +0.004 A 
ATOM      4  C   UNL A   1     -24.725   0.572  26.818  0.00  0.00    +0.090 A 
ATOM      5  C   UNL A   1     -22.645   0.862  27.858  0.00  0.00    +0.011 A 
ATOM      6  C   UNL A   1     -23.473   1.088  26.758  0.00  0.00    +0.064 A 
ATOM      7 CL   UNL A   1     -22.921   2.019  25.390  0.00  0.00    -0.082 Cl
ENDROOT
BRANCH   4   8
ATOM      8  C   UNL A   1     -25.686   0.598  25.662  0.00  0.00    +0.389 C 
ATOM      9  O   UNL A   1     -26.660   1.168  25.678  0.00  0.00    -0.240 OA
ATOM     10  O   UNL A   1     -25.312  -0.247  24.673  0.00  0.00    -0.240 OA
ENDBRANCH   4   8
BRANCH   2  11
ATOM     11  C   UNL A   1     -24.610  -1.129  30.136  0.00  0.00    +0.053 C 
BRANCH  11  12
ATOM     12  C   UNL A   1     -24.826  -2.556  29.764  0.00  0.00    -0.007 A 
ATOM     13  C   UNL A   1     -26.022  -3.246  29.873  0.00  0.00    +0.054 A 
ATOM     14  C   UNL A   1     -26.070  -4.610  29.509  0.00  0.00    +0.011 A 
ATOM     15  C   UNL A   1     -23.832  -3.164  28.936  0.00  0.00    -0.003 A 
ATOM     16  C   UNL A   1     -23.919  -4.502  28.598  0.00  0.00    -0.000 A 
ATOM     17  C   UNL A   1     -25.069  -5.208  28.888  0.00  0.00    +0.001 A 
ATOM     18 CL   UNL A   1     -27.376  -2.522  30.707  0.00  0.00    -0.083 Cl
ENDBRANCH  11  12
ENDBRANCH   2  11
TORSDOF 3
ENDMDL
ENDMDL
