MODEL 4925
MODEL 1
REMARK VINA RESULT:    -4.240      0.000      0.000
REMARK INTER + INTRA:          -4.841
REMARK INTER:                  -4.736
REMARK INTRA:                  -0.105
REMARK UNBOUND:                -0.105
REMARK  Name = No_4925-gen_results/8p0m/2024-11-27-11-27-31/
REMARK  2 active torsions:
REMARK  status: ('A' for Active; 'I' for Inactive)
REMARK    1  A    between atoms: C_2  and  C_4
REMARK    2  A    between atoms: C_4  and  C_6
REMARK                            x       y       z     vdW  Elec       q    Type
REMARK                         _______ _______ _______ _____ _____    ______ ____
ROOT
ATOM      1  C   UNL A   1     -24.311  -4.121  28.722  0.00  0.00    +0.249 C 
ATOM      2  F   UNL A   1     -23.531  -4.653  27.970  0.00  0.00    -0.226 F 
ENDROOT
BRANCH   1   4
ATOM      3  F   UNL A   1     -26.252  -4.752  29.790  0.00  0.00    -0.195 F 
ATOM      4  C   UNL A   1     -25.193  -5.164  29.302  0.00  0.00    +0.355 C 
ATOM      5  F   UNL A   1     -24.931  -6.210  29.162  0.00  0.00    -0.195 F 
ENDBRANCH   1   4
BRANCH   1   6
ATOM      6  C   UNL A   1     -24.444  -2.837  28.909  0.00  0.00    +0.010 C 
ATOM      7  C   UNL A   1     -23.403  -2.121  29.006  0.00  0.00    -0.028 C 
ATOM      8  C   UNL A   1     -23.581  -0.637  29.210  0.00  0.00    +0.030 C 
ENDBRANCH   1   6
TORSDOF 2
ENDMDL
ENDMDL
