MODEL 4926
MODEL 1
REMARK VINA RESULT:    -6.787      0.000      0.000
REMARK INTER + INTRA:         -15.376
REMARK INTER:                 -10.358
REMARK INTRA:                  -5.018
REMARK UNBOUND:                -5.018
REMARK  Name = No_4926-gen_results/8p0m/2024-11-27-11-27-31/
REMARK  9 active torsions:
REMARK  status: ('A' for Active; 'I' for Inactive)
REMARK    1  A    between atoms: C_3  and  C_7
REMARK    2  A    between atoms: C_7  and  C_8
REMARK    3  A    between atoms: C_7  and  C_9
REMARK    4  A    between atoms: C_8  and  C_17
REMARK    5  A    between atoms: C_9  and  C_10
REMARK    6  A    between atoms: C_14  and  C_20
REMARK    7  A    between atoms: C_17  and  C_19
REMARK    8  A    between atoms: C_28  and  C_31
REMARK    9  A    between atoms: C_31  and  N_32
REMARK                            x       y       z     vdW  Elec       q    Type
REMARK                         _______ _______ _______ _____ _____    ______ ____
ROOT
ATOM      1  C   UNL A   1     -25.218   2.260  26.873  0.00  0.00    +0.030 C 
ENDROOT
BRANCH   1   4
ATOM      2  C   UNL A   1     -27.120   3.008  25.302  0.00  0.00    -0.003 A 
ATOM      3  C   UNL A   1     -27.851   2.649  24.633  0.00  0.00    +0.011 A 
ATOM      4  C   UNL A   1     -26.329   1.948  25.928  0.00  0.00    -0.022 A 
ATOM      5  C   UNL A   1     -26.527   0.621  25.639  0.00  0.00    -0.003 A 
ATOM      6  C   UNL A   1     -28.275   1.338  24.141  0.00  0.00    +0.058 A 
ATOM      7  C   UNL A   1     -27.515   0.306  24.741  0.00  0.00    +0.011 A 
ATOM      8 CL   UNL A   1     -29.594   0.996  23.144  0.00  0.00    -0.082 Cl
ENDBRANCH   1   4
BRANCH   1   9
ATOM      9  C   UNL A   1     -23.940   1.776  26.716  0.00  0.00    +0.027 C 
ATOM     10  C   UNL A   1     -23.191   2.308  25.620  0.00  0.00    +0.005 C 
BRANCH   9  11
ATOM     11  C   UNL A   1     -23.405   0.811  27.530  0.00  0.00    -0.022 A 
ATOM     12  C   UNL A   1     -22.115   1.021  28.008  0.00  0.00    -0.004 A 
ATOM     13  C   UNL A   1     -21.507   0.055  28.850  0.00  0.00    -0.000 A 
ATOM     14  C   UNL A   1     -22.219  -1.057  29.199  0.00  0.00    +0.004 A 
ATOM     15  C   UNL A   1     -23.502  -1.278  28.723  0.00  0.00    +0.071 A 
ATOM     16  C   UNL A   1     -24.081  -0.412  27.892  0.00  0.00    -0.000 A 
BRANCH  15  17
ATOM     17  C   UNL A   1     -23.908  -2.647  29.080  0.00  0.00    +0.419 C 
ATOM     18  F   UNL A   1     -23.498  -3.684  28.516  0.00  0.00    -0.166 F 
ATOM     19  F   UNL A   1     -23.970  -2.917  30.388  0.00  0.00    -0.166 F 
ATOM     20  F   UNL A   1     -25.332  -2.649  28.627  0.00  0.00    -0.166 F 
ENDBRANCH  15  17
ENDBRANCH   9  11
ENDBRANCH   1   9
BRANCH   1  21
ATOM     21  C   UNL A   1     -25.581   3.049  27.959  0.00  0.00    +0.027 C 
BRANCH  21  22
ATOM     22  C   UNL A   1     -26.511   2.568  28.902  0.00  0.00    -0.044 C 
ATOM     23  C   UNL A   1     -27.717   3.199  29.069  0.00  0.00    -0.009 C 
BRANCH  22  24
ATOM     24  C   UNL A   1     -25.987   1.846  30.049  0.00  0.00    +0.019 C 
ATOM     25  C   UNL A   1     -24.903   2.421  30.804  0.00  0.00    +0.009 C 
ATOM     26  C   UNL A   1     -24.029   1.570  31.471  0.00  0.00    +0.026 C 
ATOM     27  C   UNL A   1     -24.607   0.238  31.620  0.00  0.00    -0.031 C 
ATOM     28  C   UNL A   1     -27.019   1.418  31.181  0.00  0.00    +0.010 C 
ATOM     29  C   UNL A   1     -27.244   0.212  31.332  0.00  0.00    +0.039 C 
ATOM     30  C   UNL A   1     -25.700  -0.310  31.468  0.00  0.00    -0.030 C 
BRANCH  29  31
ATOM     31  C   UNL A   1     -28.326  -0.574  31.462  0.00  0.00    +0.093 C 
BRANCH  31  32
ATOM     32  N   UNL A   1     -28.361  -1.914  31.444  0.00  0.00    -0.216 NA
ATOM     33  C   UNL A   1     -29.372  -2.725  31.018  0.00  0.00    +0.107 C 
ENDBRANCH  31  32
ENDBRANCH  29  31
ENDBRANCH  22  24
ENDBRANCH  21  22
ENDBRANCH   1  21
TORSDOF 9
ENDMDL
ENDMDL
