MODEL 4927
MODEL 1
REMARK VINA RESULT:    -7.079      0.000      0.000
REMARK INTER + INTRA:          -8.336
REMARK INTER:                  -7.906
REMARK INTRA:                  -0.430
REMARK UNBOUND:                -0.430
REMARK  Name = No_4927-gen_results/8p0m/2024-11-27-11-27-31/
REMARK  2 active torsions:
REMARK  status: ('A' for Active; 'I' for Inactive)
REMARK    1  A    between atoms: C_3  and  C_7
REMARK    2  A    between atoms: C_5  and  C_14
REMARK                            x       y       z     vdW  Elec       q    Type
REMARK                         _______ _______ _______ _____ _____    ______ ____
ROOT
ATOM      1  C   UNL A   1     -29.706  -9.708  32.404  0.00  0.00    +0.000 A 
ATOM      2  C   UNL A   1     -29.968 -10.007  31.262  0.00  0.00    +0.000 A 
ATOM      3  C   UNL A   1     -29.324 -10.987  30.527  0.00  0.00    +0.000 A 
ATOM      4  C   UNL A   1     -28.292 -11.718  31.185  0.00  0.00    +0.007 A 
ATOM      5  C   UNL A   1     -28.129 -11.477  32.496  0.00  0.00    +0.080 A 
ATOM      6  C   UNL A   1     -28.814 -10.562  33.119  0.00  0.00    +0.007 A 
ENDROOT
BRANCH   3   7
ATOM      7  C   UNL A   1     -29.593 -11.226  29.064  0.00  0.00    +0.001 A 
ATOM      8  C   UNL A   1     -29.045 -11.868  28.238  0.00  0.00    +0.000 A 
ATOM      9  C   UNL A   1     -29.452 -11.987  26.821  0.00  0.00    +0.001 A 
ATOM     10  C   UNL A   1     -30.479 -11.137  26.366  0.00  0.00    +0.018 A 
ATOM     11  C   UNL A   1     -31.017 -10.202  27.270  0.00  0.00    +0.089 A 
ATOM     12  C   UNL A   1     -30.646 -10.196  28.597  0.00  0.00    +0.018 A 
ATOM     13  N   UNL A   1     -31.991  -9.380  26.745  0.00  0.00    -0.128 NA
ENDBRANCH   3   7
BRANCH   5  14
ATOM     14  C   UNL A   1     -27.112 -12.309  33.202  0.00  0.00    +0.388 C 
ATOM     15  O   UNL A   1     -26.422 -12.921  32.724  0.00  0.00    -0.241 OA
ATOM     16  O   UNL A   1     -27.241 -12.426  34.493  0.00  0.00    -0.241 OA
ENDBRANCH   5  14
TORSDOF 2
ENDMDL
ENDMDL
