REMARK  Name = outputs/IAG933/test6/raw/output_4927_IAG933_linker_design_.xyz
REMARK  15 active torsions:
REMARK  status: ('A' for Active; 'I' for Inactive)
REMARK    1  A    between atoms: C_1  and  C_2
REMARK    2  A    between atoms: C_1  and  C_8
REMARK    3  A    between atoms: C_1  and  N_29
REMARK    4  A    between atoms: C_13  and  O_32
REMARK    5  A    between atoms: C_14  and  C_15
REMARK    6  A    between atoms: C_21  and  O_22
REMARK    7  A    between atoms: O_22  and  C_23
REMARK    8  A    between atoms: C_23  and  C_24
REMARK    9  A    between atoms: C_28  and  C_31
REMARK   10  A    between atoms: C_28  and  O_41
REMARK   11  A    between atoms: N_29  and  C_35
REMARK   12  A    between atoms: N_29  and  C_42
REMARK   13  A    between atoms: O_32  and  C_35
REMARK   14  A    between atoms: S_34  and  C_42
REMARK   15  A    between atoms: C_35  and  O_41
REMARK                            x       y       z     vdW  Elec       q    Type
REMARK                         _______ _______ _______ _____ _____    ______ ____
ROOT
ATOM      1  C   UNL A   1     -24.445   0.561  28.345  0.00  0.00    +0.365 C 
ENDROOT
BRANCH   1   2
ATOM      2  N   UNL A   1     -25.320  -0.226  28.898  0.00  0.00    -0.188 NA
BRANCH   2   3
ATOM      3  C   UNL A   1     -24.855  -1.012  30.143  0.00  0.00    +0.103 C 
BRANCH   3   4
ATOM      4  C   UNL A   1     -24.973  -2.505  29.788  0.00  0.00    -0.006 C 
ATOM      5  C   UNL A   1     -23.906  -3.173  29.146  0.00  0.00    -0.003 C 
ATOM      6  C   UNL A   1     -23.989  -4.549  28.853  0.00  0.00    -0.000 C 
ATOM      7  C   UNL A   1     -25.137  -5.280  29.205  0.00  0.00    -0.000 C 
ATOM      8  C   UNL A   1     -26.232  -4.611  29.784  0.00  0.00    -0.000 C 
ATOM      9  C   UNL A   1     -26.155  -3.232  30.065  0.00  0.00    -0.003 C 
ENDBRANCH   3   4
BRANCH   3  10
ATOM     10  C   UNL A   1     -25.387  -0.679  31.571  0.00  0.00    +0.092 C 
ATOM     11  C   UNL A   1     -25.189   0.773  32.028  0.00  0.00    +0.021 C 
ATOM     12  C   UNL A   1     -25.336   0.684  33.544  0.00  0.00    +0.020 C 
ATOM     13  C   UNL A   1     -24.829  -0.715  33.905  0.00  0.00    +0.089 C 
ATOM     14  N   UNL A   1     -24.758  -1.481  32.646  0.00  0.00    -0.218 NA
ENDBRANCH   3  10
ENDBRANCH   2   3
BRANCH   2  15
ATOM     15  C   UNL A   1     -26.651  -0.318  28.296  0.00  0.00    +0.253 C 
BRANCH  15  16
ATOM     16  S   UNL A   1     -27.940   0.484  29.139  0.00  0.00    +0.090 S 
ATOM     17  N   UNL A   1     -27.562   1.767  29.970  0.00  0.00    +0.036 NA
ATOM     18  O   UNL A   1     -28.376  -0.570  30.003  0.00  0.00    -0.153 OA
ATOM     19  O   UNL A   1     -29.166   0.867  28.383  0.00  0.00    -0.153 OA
ENDBRANCH  15  16
ENDBRANCH   2  15
ENDBRANCH   1   2
BRANCH   1  20
ATOM     20  O   UNL A   1     -24.583   1.425  27.296  0.00  0.00    -0.438 OA
BRANCH  20  21
ATOM     21  C   UNL A   1     -25.688   1.614  26.461  0.00  0.00    +0.180 C 
ATOM     22  C   UNL A   1     -26.250   2.920  26.395  0.00  0.00    +0.111 C 
ATOM     23  C   UNL A   1     -27.438   3.091  25.645  0.00  0.00    +0.110 C 
ATOM     24  N   UNL A   1     -28.075   2.089  25.003  0.00  0.00    -0.208 NA
ATOM     25  C   UNL A   1     -27.543   0.849  25.079  0.00  0.00    +0.256 C 
ATOM     26  C   UNL A   1     -26.354   0.576  25.777  0.00  0.00    +0.227 C 
ATOM     27  F   UNL A   1     -25.860  -0.681  25.795  0.00  0.00    -0.196 F 
BRANCH  22  28
ATOM     28  C   UNL A   1     -25.642   4.093  27.123  0.00  0.00    +0.269 C 
ATOM     29  N   UNL A   1     -25.614   5.252  26.449  0.00  0.00    -0.200 NA
ATOM     30  C   UNL A   1     -25.026   6.479  26.963  0.00  0.00    +0.139 C 
ATOM     31  O   UNL A   1     -25.143   3.966  28.243  0.00  0.00    -0.268 OA
ENDBRANCH  22  28
BRANCH  25  32
ATOM     32  O   UNL A   1     -28.193  -0.208  24.477  0.00  0.00    -0.456 OA
BRANCH  32  33
ATOM     33  C   UNL A   1     -29.460   0.005  23.866  0.00  0.00    +0.243 C 
BRANCH  33  34
ATOM     34  C   UNL A   1     -30.065  -1.377  23.573  0.00  0.00    +0.229 C 
ATOM     35  O   UNL A   1     -30.729  -1.878  24.721  0.00  0.00    -0.216 OA
ENDBRANCH  33  34
ENDBRANCH  32  33
ENDBRANCH  25  32
ENDBRANCH  20  21
ENDBRANCH   1  20
BRANCH   1  36
ATOM     36  O   UNL A   1     -23.387   0.475  28.896  0.00  0.00    -0.302 OA
BRANCH  36  37
ATOM     37  C   UNL A   1     -22.101   0.688  28.800  0.00  0.00    +0.182 C 
BRANCH  37  39
ATOM     38  C   UNL A   1     -22.663   2.140  25.704  0.00  0.00    +0.369 C 
ATOM     39  C   UNL A   1     -21.458   1.008  27.637  0.00  0.00    +0.053 C 
ATOM     40  F   UNL A   1     -22.040   2.363  24.590  0.00  0.00    -0.150 F 
ATOM     41  C   UNL A   1     -21.951   1.430  26.608  0.00  0.00    -0.032 C 
ATOM     42  O   UNL A   1     -23.669   2.809  25.681  0.00  0.00    -0.245 OA
ENDBRANCH  37  39
ENDBRANCH  36  37
ENDBRANCH   1  36
TORSDOF 15
