MODEL 4928
MODEL 1
REMARK VINA RESULT:    -7.041      0.000      0.000
REMARK INTER + INTRA:          -9.168
REMARK INTER:                  -8.687
REMARK INTRA:                  -0.481
REMARK UNBOUND:                -0.481
REMARK  Name = No_4928-gen_results/8p0m/2024-11-27-11-27-31/
REMARK  4 active torsions:
REMARK  status: ('A' for Active; 'I' for Inactive)
REMARK    1  A    between atoms: C_3  and  C_7
REMARK    2  A    between atoms: C_7  and  C_8
REMARK    3  A    between atoms: C_8  and  C_9
REMARK    4  A    between atoms: C_14  and  O_15
REMARK                            x       y       z     vdW  Elec       q    Type
REMARK                         _______ _______ _______ _____ _____    ______ ____
ROOT
ATOM      1  C   UNL A   1     -25.324  -0.736  27.712  0.00  0.00    +0.034 C 
ENDROOT
BRANCH   1   2
ATOM      2  C   UNL A   1     -24.530   0.308  27.376  0.00  0.00    +0.012 A 
ATOM      3  C   UNL A   1     -24.423   0.719  26.013  0.00  0.00    -0.001 A 
ATOM      4  C   UNL A   1     -23.536   1.800  25.636  0.00  0.00    -0.000 A 
ATOM      5  C   UNL A   1     -22.569   2.198  26.569  0.00  0.00    +0.003 A 
ATOM      6  C   UNL A   1     -22.618   1.762  27.845  0.00  0.00    +0.037 A 
ATOM      7  C   UNL A   1     -23.503   0.845  28.239  0.00  0.00    +0.135 A 
BRANCH   7   8
ATOM      8  O   UNL A   1     -22.580  -0.005  28.162  0.00  0.00    -0.472 OA
ATOM      9  C   UNL A   1     -21.732  -0.559  29.010  0.00  0.00    +0.253 C 
ENDBRANCH   7   8
ENDBRANCH   1   2
BRANCH   1  10
ATOM     10  C   UNL A   1     -25.246  -1.380  29.005  0.00  0.00    +0.031 C 
BRANCH  10  13
ATOM     11  C   UNL A   1     -26.205  -3.624  29.709  0.00  0.00    -0.004 A 
ATOM     12  C   UNL A   1     -26.122  -4.672  29.639  0.00  0.00    -0.000 A 
ATOM     13  C   UNL A   1     -25.115  -2.904  29.039  0.00  0.00    -0.022 A 
ATOM     14  C   UNL A   1     -24.038  -3.525  28.556  0.00  0.00    -0.004 A 
ATOM     15  C   UNL A   1     -25.068  -5.551  29.196  0.00  0.00    -0.000 A 
ATOM     16  C   UNL A   1     -24.053  -4.863  28.599  0.00  0.00    -0.000 A 
ENDBRANCH  10  13
ENDBRANCH   1  10
TORSDOF 4
ENDMDL
ENDMDL
