MODEL 492
MODEL 1
REMARK VINA RESULT:    -4.909      0.000      0.000
REMARK INTER + INTRA:          -5.269
REMARK INTER:                  -5.196
REMARK INTRA:                  -0.073
REMARK UNBOUND:                -0.073
REMARK  Name = No_492-gen_results/8p0m/2024-11-27-11-27-31/
REMARK  1 active torsions:
REMARK  status: ('A' for Active; 'I' for Inactive)
REMARK    1  A    between atoms: C_2  and  C_7
REMARK                            x       y       z     vdW  Elec       q    Type
REMARK                         _______ _______ _______ _____ _____    ______ ____
ROOT
ATOM      1  C   UNL A   1     -23.869  -3.591  28.555  0.00  0.00    -0.000 A 
ATOM      2  C   UNL A   1     -24.588  -2.662  28.842  0.00  0.00    -0.000 A 
ATOM      3  C   UNL A   1     -25.823  -2.870  29.446  0.00  0.00    -0.000 A 
ATOM      4  C   UNL A   1     -26.307  -4.201  29.706  0.00  0.00    -0.000 A 
ATOM      5  C   UNL A   1     -25.423  -5.217  29.320  0.00  0.00    -0.000 A 
ATOM      6  C   UNL A   1     -24.272  -4.969  28.737  0.00  0.00    -0.000 A 
ENDROOT
BRANCH   2   7
ATOM      7  C   UNL A   1     -24.264  -1.227  28.623  0.00  0.00    -0.005 C 
ATOM      8  C   UNL A   1     -23.414  -0.579  29.339  0.00  0.00    -0.026 C 
ATOM      9  C   UNL A   1     -23.234  -1.014  30.788  0.00  0.00    +0.031 C 
ENDBRANCH   2   7
TORSDOF 1
ENDMDL
ENDMDL
