MODEL 4930
MODEL 1
REMARK VINA RESULT:    -6.102      0.000      0.000
REMARK INTER + INTRA:         -10.696
REMARK INTER:                  -9.669
REMARK INTRA:                  -1.026
REMARK UNBOUND:                -1.026
REMARK  Name = No_4930-gen_results/8p0m/2024-11-27-11-27-31/
REMARK  10 active torsions:
REMARK  status: ('A' for Active; 'I' for Inactive)
REMARK    1  A    between atoms: C_1  and  C_2
REMARK    2  A    between atoms: C_1  and  C_8
REMARK    3  A    between atoms: C_3  and  C_14
REMARK    4  A    between atoms: C_8  and  C_9
REMARK    5  A    between atoms: C_14  and  P_15
REMARK    6  A    between atoms: P_15  and  O_16
REMARK    7  A    between atoms: O_16  and  C_19
REMARK    8  A    between atoms: C_20  and  C_21
REMARK    9  A    between atoms: C_21  and  C_22
REMARK   10  A    between atoms: C_23  and  C_24
REMARK                            x       y       z     vdW  Elec       q    Type
REMARK                         _______ _______ _______ _____ _____    ______ ____
ROOT
ATOM      1  C   UNL A   1     -23.048 -12.938   4.975  0.00  0.00    -0.018 A 
ATOM      2  C   UNL A   1     -23.664 -14.049   5.525  0.00  0.00    -0.012 A 
ATOM      3  C   UNL A   1     -25.084 -14.301   5.577  0.00  0.00    +0.007 A 
ATOM      4  C   UNL A   1     -25.963 -13.337   5.027  0.00  0.00    +0.057 A 
ATOM      5  C   UNL A   1     -25.395 -12.172   4.450  0.00  0.00    +0.011 A 
ATOM      6  C   UNL A   1     -24.041 -12.039   4.423  0.00  0.00    -0.003 A 
ATOM      7 CL   UNL A   1     -27.645 -13.527   5.067  0.00  0.00    -0.082 Cl
ENDROOT
BRANCH   1   8
ATOM      8  C   UNL A   1     -21.853 -12.779   4.881  0.00  0.00    +0.102 C 
BRANCH   8   9
ATOM      9  C   UNL A   1     -21.303 -12.980   3.512  0.00  0.00    +0.256 C 
ATOM     10  O   UNL A   1     -21.725 -13.875   2.708  0.00  0.00    -0.284 OA
BRANCH   9  11
ATOM     11  C   UNL A   1     -20.178 -12.153   3.067  0.00  0.00    +0.422 C 
ATOM     12  O   UNL A   1     -19.945 -11.120   3.389  0.00  0.00    -0.237 OA
ATOM     13  O   UNL A   1     -19.398 -12.772   2.201  0.00  0.00    -0.237 OA
ENDBRANCH   9  11
ENDBRANCH   8   9
ENDBRANCH   1   8
BRANCH   2  14
ATOM     14  C   UNL A   1     -22.855 -15.126   6.093  0.00  0.00    +0.157 C 
BRANCH  14  15
ATOM     15  P   UNL A   1     -22.554 -16.539   5.432  0.00  0.00    +0.422 P 
ATOM     16  O   UNL A   1     -23.104 -16.591   4.054  0.00  0.00    -0.241 OA
ATOM     17  O   UNL A   1     -23.564 -17.495   6.249  0.00  0.00    -0.129 OA
BRANCH  15  18
ATOM     18  O   UNL A   1     -21.242 -16.969   5.647  0.00  0.00    -0.418 OA
BRANCH  18  19
ATOM     19  C   UNL A   1     -20.810 -18.048   6.276  0.00  0.00    +0.177 C 
ATOM     20  C   UNL A   1     -20.657 -19.229   5.413  0.00  0.00    +0.019 C 
BRANCH  20  21
ATOM     21  C   UNL A   1     -19.472 -20.004   5.609  0.00  0.00    +0.055 C 
BRANCH  21  22
ATOM     22  C   UNL A   1     -18.475 -19.671   6.289  0.00  0.00    -0.026 C 
ATOM     23  C   UNL A   1     -17.255 -20.436   6.445  0.00  0.00    -0.030 C 
BRANCH  23  24
ATOM     24  C   UNL A   1     -17.371 -21.774   6.119  0.00  0.00    +0.026 C 
ATOM     25  C   UNL A   1     -16.264 -22.409   5.441  0.00  0.00    +0.005 C 
ENDBRANCH  23  24
ENDBRANCH  21  22
ENDBRANCH  20  21
ENDBRANCH  18  19
ENDBRANCH  15  18
ENDBRANCH  14  15
ENDBRANCH   2  14
TORSDOF 10
ENDMDL
ENDMDL
