MODEL 4931
MODEL 1
REMARK VINA RESULT:    -5.329      0.000      0.000
REMARK INTER + INTRA:          -5.671
REMARK INTER:                  -5.640
REMARK INTRA:                  -0.031
REMARK UNBOUND:                -0.031
REMARK  Name = No_4931-gen_results/8p0m/2024-11-27-11-27-31/
REMARK  1 active torsions:
REMARK  status: ('A' for Active; 'I' for Inactive)
REMARK    1  A    between atoms: C_2  and  C_7
REMARK                            x       y       z     vdW  Elec       q    Type
REMARK                         _______ _______ _______ _____ _____    ______ ____
ROOT
ATOM      1  C   UNL A   1      -8.478 -10.307  18.472  0.00  0.00    +0.007 A 
ATOM      2  C   UNL A   1      -9.642 -10.016  18.323  0.00  0.00    +0.080 A 
ATOM      3  C   UNL A   1     -10.349  -9.350  19.317  0.00  0.00    +0.007 A 
ATOM      4  C   UNL A   1      -9.730  -9.025  20.576  0.00  0.00    +0.000 A 
ATOM      5  C   UNL A   1      -8.388  -9.419  20.673  0.00  0.00    +0.000 A 
ATOM      6  C   UNL A   1      -7.770 -10.062  19.709  0.00  0.00    +0.000 A 
ENDROOT
BRANCH   2   7
ATOM      7  C   UNL A   1     -10.279 -10.447  17.078  0.00  0.00    +0.388 C 
ATOM      8  O   UNL A   1     -11.462 -10.483  16.910  0.00  0.00    -0.241 OA
ATOM      9  O   UNL A   1      -9.478 -11.149  16.144  0.00  0.00    -0.241 OA
ENDBRANCH   2   7
TORSDOF 1
ENDMDL
ENDMDL
