REMARK  Name = outputs/IAG933/test6/raw/output_4932_IAG933_linker_design_.xyz
REMARK  10 active torsions:
REMARK  status: ('A' for Active; 'I' for Inactive)
REMARK    1  A    between atoms: C_1  and  C_2
REMARK    2  A    between atoms: C_1  and  C_8
REMARK    3  A    between atoms: C_1  and  N_39
REMARK    4  A    between atoms: C_13  and  C_42
REMARK    5  A    between atoms: C_14  and  C_15
REMARK    6  A    between atoms: C_21  and  O_22
REMARK    7  A    between atoms: O_22  and  C_23
REMARK    8  A    between atoms: C_23  and  C_24
REMARK    9  A    between atoms: C_29  and  C_37
REMARK   10  A    between atoms: N_30  and  C_37
REMARK                            x       y       z     vdW  Elec       q    Type
REMARK                         _______ _______ _______ _____ _____    ______ ____
ROOT
ATOM      1  C   UNL A   1     -23.155   1.703  26.658  0.00  0.00    +0.069 C 
ATOM      2  C   UNL A   1     -26.892  -0.217  29.066  0.00  0.00    +0.330 C 
ATOM      3  O   UNL A   1     -27.487  -0.954  28.288  0.00  0.00    -0.245 OA
ATOM      4  C   UNL A   1     -21.979   1.483  27.338  0.00  0.00    +0.062 C 
ATOM      5  N   UNL A   1     -23.205   0.236  28.988  0.00  0.00    -0.036 NA
ATOM      6  C   UNL A   1     -24.379   0.490  28.402  0.00  0.00    +0.331 C 
ATOM      7  N   UNL A   1     -25.496  -0.138  29.160  0.00  0.00    -0.138 N 
ATOM      8  C   UNL A   1     -22.041   0.680  28.472  0.00  0.00    +0.237 C 
ATOM      9 CL   UNL A   1     -23.030   2.501  25.036  0.00  0.00    -0.082 Cl
ATOM     10  C   UNL A   1     -24.410   1.272  27.147  0.00  0.00    +0.096 C 
ENDROOT
BRANCH  10  11
ATOM     11  C   UNL A   1     -25.688   1.614  26.461  0.00  0.00    +0.046 C 
ATOM     12  C   UNL A   1     -26.250   2.920  26.395  0.00  0.00    +0.077 C 
ATOM     13  C   UNL A   1     -27.438   3.091  25.645  0.00  0.00    +0.107 C 
ATOM     14  N   UNL A   1     -28.075   2.089  25.003  0.00  0.00    -0.208 NA
ATOM     15  C   UNL A   1     -27.543   0.849  25.079  0.00  0.00    +0.253 C 
ATOM     16  C   UNL A   1     -26.354   0.576  25.777  0.00  0.00    +0.193 C 
ATOM     17  F   UNL A   1     -25.860  -0.681  25.795  0.00  0.00    -0.199 F 
BRANCH  12  18
ATOM     18  C   UNL A   1     -25.642   4.093  27.123  0.00  0.00    +0.266 C 
ATOM     19  N   UNL A   1     -25.614   5.252  26.449  0.00  0.00    -0.200 NA
ATOM     20  C   UNL A   1     -25.026   6.479  26.963  0.00  0.00    +0.139 C 
ATOM     21  O   UNL A   1     -25.143   3.966  28.243  0.00  0.00    -0.268 OA
ENDBRANCH  12  18
BRANCH  15  22
ATOM     22  O   UNL A   1     -28.193  -0.208  24.477  0.00  0.00    -0.456 OA
BRANCH  22  23
ATOM     23  C   UNL A   1     -29.460   0.005  23.866  0.00  0.00    +0.243 C 
BRANCH  23  24
ATOM     24  C   UNL A   1     -30.065  -1.377  23.573  0.00  0.00    +0.229 C 
ATOM     25  O   UNL A   1     -30.729  -1.878  24.721  0.00  0.00    -0.216 OA
ENDBRANCH  23  24
ENDBRANCH  22  23
ENDBRANCH  15  22
ENDBRANCH  10  11
BRANCH   7  26
ATOM     26  C   UNL A   1     -24.855  -1.012  30.143  0.00  0.00    +0.206 C 
BRANCH  26  27
ATOM     27  C   UNL A   1     -24.973  -2.505  29.788  0.00  0.00    +0.022 C 
ATOM     28  C   UNL A   1     -23.906  -3.173  29.146  0.00  0.00    -0.000 C 
ATOM     29  C   UNL A   1     -23.989  -4.549  28.853  0.00  0.00    -0.000 C 
ATOM     30  C   UNL A   1     -25.137  -5.280  29.205  0.00  0.00    -0.000 C 
ATOM     31  C   UNL A   1     -26.232  -4.611  29.784  0.00  0.00    -0.000 C 
ATOM     32  C   UNL A   1     -26.155  -3.232  30.065  0.00  0.00    -0.000 C 
ENDBRANCH  26  27
BRANCH  26  33
ATOM     33  C   UNL A   1     -25.387  -0.679  31.571  0.00  0.00    +0.120 C 
ATOM     34  C   UNL A   1     -25.189   0.773  32.028  0.00  0.00    +0.023 C 
ATOM     35  C   UNL A   1     -25.336   0.684  33.544  0.00  0.00    +0.020 C 
ATOM     36  C   UNL A   1     -24.829  -0.715  33.905  0.00  0.00    +0.089 C 
ATOM     37  N   UNL A   1     -24.758  -1.481  32.646  0.00  0.00    -0.215 NA
ENDBRANCH  26  33
ENDBRANCH   7  26
BRANCH   2  38
ATOM     38  C   UNL A   1     -27.876   0.449  29.959  0.00  0.00    +0.186 C 
BRANCH  38  39
ATOM     39  N   UNL A   1     -28.446   1.675  29.457  0.00  0.00    -0.263 NA
ATOM     40  C   UNL A   1     -30.710   2.987  30.801  0.00  0.00    +0.060 C 
ATOM     41  C   UNL A   1     -29.238   3.400  30.972  0.00  0.00    +0.029 C 
ATOM     42  C   UNL A   1     -30.982   2.341  29.493  0.00  0.00    +0.029 C 
ATOM     43  C   UNL A   1     -28.326   2.617  30.681  0.00  0.00    +0.073 C 
ATOM     44 BR   UNL A   1     -31.512   3.443  32.639  0.00  0.00    -0.082 Br
ATOM     45  C   UNL A   1     -29.696   2.079  28.755  0.00  0.00    +0.073 C 
ENDBRANCH  38  39
ENDBRANCH   2  38
TORSDOF 10
