MODEL 4932
MODEL 1
REMARK VINA RESULT:    -4.227      0.000      0.000
REMARK INTER + INTRA:          -4.227
REMARK INTER:                  -4.227
REMARK INTRA:                   0.000
REMARK UNBOUND:                 0.000
REMARK  Name = No_4932-gen_results/8p0m/2024-11-27-11-27-31/
REMARK  0 active torsions:
REMARK  status: ('A' for Active; 'I' for Inactive)
REMARK                            x       y       z     vdW  Elec       q    Type
REMARK                         _______ _______ _______ _____ _____    ______ ____
ROOT
ATOM      1  C   UNL A   1     -25.222  -5.281  29.201  0.00  0.00    +0.000 A 
ATOM      2  C   UNL A   1     -26.163  -4.642  29.610  0.00  0.00    +0.000 A 
ATOM      3  C   UNL A   1     -26.142  -3.270  29.774  0.00  0.00    +0.000 A 
ATOM      4  C   UNL A   1     -24.960  -2.572  29.401  0.00  0.00    +0.000 A 
ATOM      5  C   UNL A   1     -24.001  -3.307  28.791  0.00  0.00    +0.000 A 
ATOM      6  C   UNL A   1     -24.124  -4.612  28.639  0.00  0.00    +0.000 A 
ENDROOT
TORSDOF 0
ENDMDL
ENDMDL
