MODEL 4933
MODEL 1
REMARK VINA RESULT:    -4.635      0.000      0.000
REMARK INTER + INTRA:          -4.938
REMARK INTER:                  -4.906
REMARK INTRA:                  -0.032
REMARK UNBOUND:                -0.032
REMARK  Name = No_4933-gen_results/8p0m/2024-11-27-11-27-31/
REMARK  1 active torsions:
REMARK  status: ('A' for Active; 'I' for Inactive)
REMARK    1  A    between atoms: C_2  and  O_7
REMARK                            x       y       z     vdW  Elec       q    Type
REMARK                         _______ _______ _______ _____ _____    ______ ____
ROOT
ATOM      1  C   UNL A   1     -24.083  -4.269  28.849  0.00  0.00    +0.037 A 
ATOM      2  C   UNL A   1     -24.170  -3.259  29.139  0.00  0.00    +0.139 A 
ATOM      3  C   UNL A   1     -25.223  -5.145  29.161  0.00  0.00    +0.003 A 
ATOM      4  C   UNL A   1     -26.427  -4.604  29.698  0.00  0.00    +0.000 A 
ATOM      5  C   UNL A   1     -25.309  -2.448  29.648  0.00  0.00    +0.037 A 
ATOM      6  C   UNL A   1     -26.382  -3.228  29.959  0.00  0.00    +0.003 A 
ENDROOT
BRANCH   2   7
ATOM      7  O   UNL A   1     -23.050  -2.374  28.835  0.00  0.00    -0.471 OA
ATOM      8  C   UNL A   1     -22.900  -1.195  29.156  0.00  0.00    +0.253 C 
ENDBRANCH   2   7
TORSDOF 1
ENDMDL
ENDMDL
