REMARK  Name = outputs/IAG933/test6/raw/output_4933_IAG933_linker_design_.xyz
REMARK  11 active torsions:
REMARK  status: ('A' for Active; 'I' for Inactive)
REMARK    1  A    between atoms: C_1  and  C_2
REMARK    2  A    between atoms: C_1  and  C_8
REMARK    3  A    between atoms: C_1  and  N_43
REMARK    4  A    between atoms: C_9  and  N_36
REMARK    5  A    between atoms: C_13  and  C_30
REMARK    6  A    between atoms: C_14  and  C_15
REMARK    7  A    between atoms: C_21  and  O_22
REMARK    8  A    between atoms: O_22  and  C_23
REMARK    9  A    between atoms: C_23  and  C_24
REMARK   10  A    between atoms: C_32  and  C_39
REMARK   11  A    between atoms: N_36  and  C_45
REMARK                            x       y       z     vdW  Elec       q    Type
REMARK                         _______ _______ _______ _____ _____    ______ ____
ROOT
ATOM      1  C   UNL A   1     -24.033  -0.175  28.234  0.00  0.00    +0.069 C 
ATOM      2  N   UNL A   1     -24.435  -0.102  29.283  0.00  0.00    -0.270 NA
ENDROOT
BRANCH   1   5
ATOM      3  C   UNL A   1     -24.128   1.623  26.683  0.00  0.00    +0.045 C 
ATOM      4  C   UNL A   1     -21.545   0.649  28.895  0.00  0.00    +0.032 C 
ATOM      5  C   UNL A   1     -23.627   0.830  27.611  0.00  0.00    +0.071 C 
ATOM      6  C   UNL A   1     -22.327   1.177  27.700  0.00  0.00    +0.121 C 
ATOM      7  O   UNL A   1     -21.906   1.976  26.646  0.00  0.00    -0.356 OA
ATOM      8  C   UNL A   1     -23.103   2.455  26.032  0.00  0.00    +0.143 C 
BRANCH   3   9
ATOM      9  C   UNL A   1     -25.688   1.614  26.461  0.00  0.00    +0.073 C 
ATOM     10  C   UNL A   1     -26.250   2.920  26.395  0.00  0.00    +0.055 C 
ATOM     11  C   UNL A   1     -27.438   3.091  25.645  0.00  0.00    +0.102 C 
ATOM     12  N   UNL A   1     -28.075   2.089  25.003  0.00  0.00    -0.212 NA
ATOM     13  C   UNL A   1     -27.543   0.849  25.079  0.00  0.00    +0.234 C 
ATOM     14  C   UNL A   1     -26.354   0.576  25.777  0.00  0.00    +0.240 C 
ATOM     15  F   UNL A   1     -25.860  -0.681  25.795  0.00  0.00    -0.227 F 
BRANCH  10  16
ATOM     16  C   UNL A   1     -25.642   4.093  27.123  0.00  0.00    +0.262 C 
ATOM     17  N   UNL A   1     -25.614   5.252  26.449  0.00  0.00    -0.200 NA
ATOM     18  C   UNL A   1     -25.026   6.479  26.963  0.00  0.00    +0.139 C 
ATOM     19  O   UNL A   1     -25.143   3.966  28.243  0.00  0.00    -0.269 OA
ENDBRANCH  10  16
BRANCH  13  20
ATOM     20  O   UNL A   1     -28.193  -0.208  24.477  0.00  0.00    -0.459 OA
BRANCH  20  21
ATOM     21  C   UNL A   1     -29.460   0.005  23.866  0.00  0.00    +0.242 C 
BRANCH  21  22
ATOM     22  C   UNL A   1     -30.065  -1.377  23.573  0.00  0.00    +0.229 C 
ATOM     23  O   UNL A   1     -30.729  -1.878  24.721  0.00  0.00    -0.216 OA
ENDBRANCH  21  22
ENDBRANCH  20  21
ENDBRANCH  13  20
ENDBRANCH   3   9
ENDBRANCH   1   5
BRANCH   2  24
ATOM     24  C   UNL A   1     -24.855  -1.012  30.143  0.00  0.00    +0.142 C 
BRANCH  24  25
ATOM     25  C   UNL A   1     -24.973  -2.505  29.788  0.00  0.00    +0.001 C 
ATOM     26  C   UNL A   1     -23.906  -3.173  29.146  0.00  0.00    -0.002 C 
ATOM     27  C   UNL A   1     -23.989  -4.549  28.853  0.00  0.00    -0.000 C 
ATOM     28  C   UNL A   1     -25.137  -5.280  29.205  0.00  0.00    -0.000 C 
ATOM     29  C   UNL A   1     -26.232  -4.611  29.784  0.00  0.00    -0.000 C 
ATOM     30  C   UNL A   1     -26.155  -3.232  30.065  0.00  0.00    -0.002 C 
ENDBRANCH  24  25
BRANCH  24  31
ATOM     31  C   UNL A   1     -25.387  -0.679  31.571  0.00  0.00    +0.115 C 
ATOM     32  C   UNL A   1     -25.189   0.773  32.028  0.00  0.00    +0.094 C 
ATOM     33  C   UNL A   1     -25.336   0.684  33.544  0.00  0.00    +0.038 C 
ATOM     34  C   UNL A   1     -24.829  -0.715  33.905  0.00  0.00    +0.090 C 
ATOM     35  N   UNL A   1     -24.758  -1.481  32.646  0.00  0.00    -0.216 NA
BRANCH  32  36
ATOM     36  N   UNL A   1     -26.246   1.647  31.466  0.00  0.00    -0.197 NA
BRANCH  36  45
ATOM     37  C   UNL A   1     -28.230   3.978  30.091  0.00  0.00    +0.114 C 
ATOM     38  O   UNL A   1     -23.799   2.937  31.503  0.00  0.00    -0.274 OA
ATOM     39  N   UNL A   1     -25.782   3.951  31.105  0.00  0.00    -0.216 N 
ATOM     40  O   UNL A   1     -27.947   1.770  29.129  0.00  0.00    -0.219 OA
ATOM     41  S   UNL A   1     -26.941   5.138  30.433  0.00  0.00    -0.041 S 
ATOM     42  C   UNL A   1     -24.656   3.728  31.869  0.00  0.00    +0.236 C 
ATOM     43  C   UNL A   1     -24.561   4.521  33.097  0.00  0.00    +0.096 C 
ATOM     44  C   UNL A   1     -27.689   2.994  29.941  0.00  0.00    +0.200 C 
ATOM     45  C   UNL A   1     -26.371   2.902  30.809  0.00  0.00    +0.191 C 
ENDBRANCH  36  45
ENDBRANCH  32  36
ENDBRANCH  24  31
ENDBRANCH   2  24
TORSDOF 11
