REMARK  Name = No_4934-gen_results/8p0m/2024-11-27-11-27-31/
REMARK  1 active torsions:
REMARK  status: ('A' for Active; 'I' for Inactive)
REMARK    1  A    between atoms: N_2  and  C_6
REMARK                            x       y       z     vdW  Elec       q    Type
REMARK                         _______ _______ _______ _____ _____    ______ ____
ROOT
ATOM      1  C   UNL A   1     -28.016  -0.814  28.878  0.00  0.00    +0.061 C 
ATOM      2  N   UNL A   1     -27.188  -0.359  28.452  0.00  0.00    -0.285 N 
ATOM      3  C   UNL A   1     -29.199   0.040  28.963  0.00  0.00    -0.008 C 
ATOM      4  C   UNL A   1     -27.329   0.881  27.866  0.00  0.00    +0.100 C 
ATOM      5  C   UNL A   1     -28.633   1.128  28.166  0.00  0.00    +0.049 C 
ENDROOT
BRANCH   2   6
ATOM      6  C   UNL A   1     -25.710  -0.923  28.337  0.00  0.00    +0.061 C 
ATOM      7  C   UNL A   1     -25.355  -1.746  29.155  0.00  0.00    -0.010 C 
ATOM      8  C   UNL A   1     -23.995  -2.333  29.050  0.00  0.00    +0.032 C 
ENDBRANCH   2   6
TORSDOF 1
