MODEL 4934
MODEL 1
REMARK VINA RESULT:    -4.258      0.000      0.000
REMARK INTER + INTRA:          -4.621
REMARK INTER:                  -4.507
REMARK INTRA:                  -0.114
REMARK UNBOUND:                -0.114
REMARK  Name = No_4934-gen_results/8p0m/2024-11-27-11-27-31/
REMARK  1 active torsions:
REMARK  status: ('A' for Active; 'I' for Inactive)
REMARK    1  A    between atoms: N_2  and  C_6
REMARK                            x       y       z     vdW  Elec       q    Type
REMARK                         _______ _______ _______ _____ _____    ______ ____
ROOT
ATOM      1  C   UNL A   1     -24.195  -4.140  28.646  0.00  0.00    +0.061 C 
ATOM      2  N   UNL A   1     -24.656  -3.273  28.977  0.00  0.00    -0.285 N 
ATOM      3  C   UNL A   1     -24.862  -5.375  29.054  0.00  0.00    -0.008 C 
ATOM      4  C   UNL A   1     -25.892  -3.358  29.580  0.00  0.00    +0.100 C 
ATOM      5  C   UNL A   1     -26.043  -4.710  29.604  0.00  0.00    +0.049 C 
ENDROOT
BRANCH   2   6
ATOM      6  C   UNL A   1     -24.138  -1.779  28.855  0.00  0.00    +0.061 C 
ATOM      7  C   UNL A   1     -22.968  -1.566  29.098  0.00  0.00    -0.010 C 
ATOM      8  C   UNL A   1     -22.435  -0.188  28.947  0.00  0.00    +0.032 C 
ENDBRANCH   2   6
TORSDOF 1
ENDMDL
ENDMDL
