MODEL 4935
MODEL 1
REMARK VINA RESULT:    -7.092      0.000      0.000
REMARK INTER + INTRA:          -9.355
REMARK INTER:                  -8.751
REMARK INTRA:                  -0.604
REMARK UNBOUND:                -0.604
REMARK  Name = No_4935-gen_results/8p0m/2024-11-27-11-27-31/
REMARK  4 active torsions:
REMARK  status: ('A' for Active; 'I' for Inactive)
REMARK    1  A    between atoms: C_1  and  C_2
REMARK    2  A    between atoms: C_1  and  N_8
REMARK    3  A    between atoms: C_3  and  C_17
REMARK    4  A    between atoms: C_5  and  C_14
REMARK                            x       y       z     vdW  Elec       q    Type
REMARK                         _______ _______ _______ _____ _____    ______ ____
ROOT
ATOM      1  C   UNL A   1     -24.434  -0.484  28.908  0.00  0.00    -0.002 A 
ATOM      2  C   UNL A   1     -23.189   0.011  28.574  0.00  0.00    +0.069 A 
ATOM      3  C   UNL A   1     -22.915   0.972  27.522  0.00  0.00    +0.008 A 
ATOM      4  C   UNL A   1     -23.991   1.455  26.745  0.00  0.00    +0.057 A 
ATOM      5  C   UNL A   1     -25.298   0.957  27.093  0.00  0.00    +0.004 A 
ATOM      6  C   UNL A   1     -25.538   0.074  28.119  0.00  0.00    -0.003 A 
ENDROOT
BRANCH   2   7
ATOM      7  C   UNL A   1     -21.994  -0.405  29.264  0.00  0.00    +0.418 C 
ATOM      8  F   UNL A   1     -21.569  -1.481  28.957  0.00  0.00    -0.166 F 
ATOM      9  F   UNL A   1     -20.949   0.443  28.968  0.00  0.00    -0.166 F 
ATOM     10  F   UNL A   1     -21.883  -0.242  30.648  0.00  0.00    -0.166 F 
ENDBRANCH   2   7
BRANCH   4  11
ATOM     11  C   UNL A   1     -24.078   2.518  25.806  0.00  0.00    +0.284 C 
ATOM     12  N   UNL A   1     -25.064   3.394  25.714  0.00  0.00    -0.084 NA
ATOM     13  O   UNL A   1     -22.922   2.849  25.165  0.00  0.00    -0.267 OA
ENDBRANCH   4  11
BRANCH   1  14
ATOM     14  C   UNL A   1     -24.629  -1.235  29.836  0.00  0.00    +0.099 C 
BRANCH  14  15
ATOM     15  N   UNL A   1     -24.897  -2.573  29.590  0.00  0.00    -0.269 NA
ATOM     16  C   UNL A   1     -26.038  -3.234  29.937  0.00  0.00    +0.072 C 
ATOM     17  C   UNL A   1     -26.150  -4.582  29.601  0.00  0.00    +0.017 C 
ATOM     18  C   UNL A   1     -23.978  -3.431  28.916  0.00  0.00    +0.072 C 
ATOM     19  C   UNL A   1     -24.093  -4.689  28.620  0.00  0.00    +0.017 C 
ATOM     20  C   UNL A   1     -25.216  -5.313  28.958  0.00  0.00    +0.003 C 
ENDBRANCH  14  15
ENDBRANCH   1  14
TORSDOF 4
ENDMDL
ENDMDL
