MODEL 4936
MODEL 1
REMARK VINA RESULT:    -6.583      0.000      0.000
REMARK INTER + INTRA:         -12.878
REMARK INTER:                  -9.662
REMARK INTRA:                  -3.216
REMARK UNBOUND:                -3.216
REMARK  Name = No_4936-gen_results/8p0m/2024-11-27-11-27-31/
REMARK  8 active torsions:
REMARK  status: ('A' for Active; 'I' for Inactive)
REMARK    1  A    between atoms: C_1  and  O_24
REMARK    2  A    between atoms: C_5  and  C_7
REMARK    3  A    between atoms: O_24  and  C_25
REMARK    4  A    between atoms: C_25  and  C_26
REMARK    5  A    between atoms: C_26  and  O_27
REMARK    6  A    between atoms: O_27  and  C_28
REMARK    7  A    between atoms: C_29  and  C_30
REMARK    8  A    between atoms: C_31  and  C_32
REMARK                            x       y       z     vdW  Elec       q    Type
REMARK                         _______ _______ _______ _____ _____    ______ ____
ROOT
ATOM      1  C   UNL A   1     -29.589 -11.208  29.202  0.00  0.00    +0.139 A 
ATOM      2  C   UNL A   1     -29.605 -10.755  30.322  0.00  0.00    +0.037 A 
ATOM      3  C   UNL A   1     -30.279  -9.609  30.710  0.00  0.00    +0.038 A 
ATOM      4  C   UNL A   1     -31.037  -8.933  29.709  0.00  0.00    +0.008 A 
ATOM      5  C   UNL A   1     -31.119  -9.547  28.510  0.00  0.00    +0.057 A 
ATOM      6  C   UNL A   1     -30.496 -10.702  28.268  0.00  0.00    +0.041 A 
ATOM      7  C   UNL A   1     -28.680 -11.351  31.474  0.00  0.00    +0.003 A 
ATOM      8  C   UNL A   1     -28.050 -12.168  31.408  0.00  0.00    +0.000 A 
ATOM      9  C   UNL A   1     -27.223 -12.657  32.183  0.00  0.00    +0.003 A 
ATOM     10  C   UNL A   1     -27.044 -12.108  33.531  0.00  0.00    +0.037 A 
ATOM     11  C   UNL A   1     -27.816 -11.010  33.738  0.00  0.00    +0.142 A 
ATOM     12  C   UNL A   1     -28.698 -10.486  32.696  0.00  0.00    +0.024 A 
ATOM     13  O   UNL A   1     -27.729 -10.372  34.941  0.00  0.00    -0.451 OA
ATOM     14  C   UNL A   1     -28.253  -9.044  34.979  0.00  0.00    +0.176 C 
ATOM     15  C   UNL A   1     -29.318  -8.589  34.285  0.00  0.00    +0.026 C 
ATOM     16  C   UNL A   1     -29.414  -9.295  33.001  0.00  0.00    +0.112 C 
ATOM     17  C   UNL A   1     -30.281  -8.837  31.913  0.00  0.00    +0.181 C 
ATOM     18  O   UNL A   1     -31.227  -8.034  32.225  0.00  0.00    -0.291 OA
ENDROOT
BRANCH   5  19
ATOM     19  C   UNL A   1     -31.949  -8.844  27.513  0.00  0.00    +0.249 C 
ATOM     20  N   UNL A   1     -33.041  -9.243  27.129  0.00  0.00    -0.273 N 
ATOM     21  O   UNL A   1     -31.590  -7.644  27.201  0.00  0.00    -0.270 OA
ATOM     22  C   UNL A   1     -33.991  -8.504  26.286  0.00  0.00    +0.115 C 
ATOM     23  C   UNL A   1     -33.935 -10.000  28.090  0.00  0.00    +0.115 C 
ENDBRANCH   5  19
BRANCH   1  24
ATOM     24  O   UNL A   1     -29.038 -12.362  28.822  0.00  0.00    -0.471 OA
BRANCH  24  25
ATOM     25  C   UNL A   1     -29.449 -13.000  27.662  0.00  0.00    +0.253 C 
BRANCH  25  26
ATOM     26  C   UNL A   1     -30.234 -14.183  27.959  0.00  0.00    +0.253 C 
BRANCH  26  27
ATOM     27  O   UNL A   1     -30.123 -14.537  29.162  0.00  0.00    -0.468 OA
BRANCH  27  28
ATOM     28  C   UNL A   1     -30.386 -15.345  29.815  0.00  0.00    +0.172 C 
ATOM     29  C   UNL A   1     -30.204 -15.194  31.132  0.00  0.00    +0.040 C 
BRANCH  29  30
ATOM     30  C   UNL A   1     -30.827 -14.356  31.558  0.00  0.00    +0.003 C 
ATOM     31  C   UNL A   1     -30.802 -14.053  32.927  0.00  0.00    -0.000 C 
BRANCH  31  32
ATOM     32  C   UNL A   1     -31.385 -12.848  33.585  0.00  0.00    -0.005 C 
ATOM     33  C   UNL A   1     -30.865 -12.609  34.863  0.00  0.00    -0.026 C 
ATOM     34  C   UNL A   1     -29.957 -13.458  35.462  0.00  0.00    +0.031 C 
ENDBRANCH  31  32
ENDBRANCH  29  30
ENDBRANCH  27  28
ENDBRANCH  26  27
ENDBRANCH  25  26
ENDBRANCH  24  25
ENDBRANCH   1  24
TORSDOF 8
ENDMDL
ENDMDL
