REMARK  Name = No_4936-gen_results/8p0m/2024-11-27-11-27-31/
REMARK  8 active torsions:
REMARK  status: ('A' for Active; 'I' for Inactive)
REMARK    1  A    between atoms: C_1  and  O_24
REMARK    2  A    between atoms: C_5  and  C_7
REMARK    3  A    between atoms: O_24  and  C_25
REMARK    4  A    between atoms: C_25  and  C_26
REMARK    5  A    between atoms: C_26  and  O_27
REMARK    6  A    between atoms: O_27  and  C_28
REMARK    7  A    between atoms: C_29  and  C_30
REMARK    8  A    between atoms: C_31  and  C_32
REMARK                            x       y       z     vdW  Elec       q    Type
REMARK                         _______ _______ _______ _____ _____    ______ ____
ROOT
ATOM      1  C   UNL A   1     -28.016  -0.814  28.878  0.00  0.00    +0.139 A 
ATOM      2  C   UNL A   1     -27.064  -0.119  28.608  0.00  0.00    +0.037 A 
ATOM      3  C   UNL A   1     -26.972   0.714  27.506  0.00  0.00    +0.038 A 
ATOM      4  C   UNL A   1     -28.105   0.774  26.642  0.00  0.00    +0.008 A 
ATOM      5  C   UNL A   1     -29.201   0.104  27.053  0.00  0.00    +0.057 A 
ATOM      6  C   UNL A   1     -29.210  -0.603  28.185  0.00  0.00    +0.041 A 
ATOM      7  C   UNL A   1     -25.701  -0.222  29.426  0.00  0.00    +0.003 A 
ATOM      8  C   UNL A   1     -25.512  -0.812  30.253  0.00  0.00    +0.000 A 
ATOM      9  C   UNL A   1     -24.488  -1.051  30.900  0.00  0.00    +0.003 A 
ATOM     10  C   UNL A   1     -23.226  -0.375  30.581  0.00  0.00    +0.037 A 
ATOM     11  C   UNL A   1     -23.342   0.428  29.492  0.00  0.00    +0.142 A 
ATOM     12  C   UNL A   1     -24.605   0.556  28.766  0.00  0.00    +0.024 A 
ATOM     13  O   UNL A   1     -22.236   1.098  29.058  0.00  0.00    -0.451 OA
ATOM     14  C   UNL A   1     -22.304   1.614  27.728  0.00  0.00    +0.176 C 
ATOM     15  C   UNL A   1     -23.408   2.091  27.116  0.00  0.00    +0.026 C 
ATOM     16  C   UNL A   1     -24.595   1.377  27.604  0.00  0.00    +0.112 C 
ATOM     17  C   UNL A   1     -25.896   1.463  26.935  0.00  0.00    +0.181 C 
ATOM     18  O   UNL A   1     -26.077   2.453  26.145  0.00  0.00    -0.291 OA
ENDROOT
BRANCH   5  19
ATOM     19  C   UNL A   1     -30.370   0.226  26.160  0.00  0.00    +0.249 C 
ATOM     20  N   UNL A   1     -30.299   0.234  24.938  0.00  0.00    -0.273 N 
ATOM     21  O   UNL A   1     -31.533   0.100  26.707  0.00  0.00    -0.270 OA
ATOM     22  C   UNL A   1     -31.428   0.166  24.000  0.00  0.00    +0.115 C 
ATOM     23  C   UNL A   1     -29.219  -0.577  24.252  0.00  0.00    +0.115 C 
ENDBRANCH   5  19
BRANCH   1  24
ATOM     24  O   UNL A   1     -28.176  -1.543  29.984  0.00  0.00    -0.471 OA
BRANCH  24  25
ATOM     25  C   UNL A   1     -28.345  -2.917  29.913  0.00  0.00    +0.253 C 
BRANCH  25  26
ATOM     26  C   UNL A   1     -29.238  -3.393  30.953  0.00  0.00    +0.253 C 
BRANCH  26  27
ATOM     27  O   UNL A   1     -29.313  -4.649  30.977  0.00  0.00    -0.468 OA
BRANCH  27  28
ATOM     28  C   UNL A   1     -29.551  -5.452  31.646  0.00  0.00    +0.172 C 
ATOM     29  C   UNL A   1     -29.882  -5.161  32.909  0.00  0.00    +0.040 C 
BRANCH  29  30
ATOM     30  C   UNL A   1     -30.819  -4.537  32.974  0.00  0.00    +0.003 C 
ATOM     31  C   UNL A   1     -31.419  -4.250  34.209  0.00  0.00    -0.000 C 
BRANCH  31  32
ATOM     32  C   UNL A   1     -32.509  -3.265  34.464  0.00  0.00    -0.005 C 
ATOM     33  C   UNL A   1     -32.911  -2.574  33.314  0.00  0.00    -0.026 C 
ATOM     34  C   UNL A   1     -32.295  -2.752  32.092  0.00  0.00    +0.031 C 
ENDBRANCH  31  32
ENDBRANCH  29  30
ENDBRANCH  27  28
ENDBRANCH  26  27
ENDBRANCH  25  26
ENDBRANCH  24  25
ENDBRANCH   1  24
TORSDOF 8
