MODEL 4937
MODEL 1
REMARK VINA RESULT:    -5.456      0.000      0.000
REMARK INTER + INTRA:          -6.665
REMARK INTER:                  -6.413
REMARK INTRA:                  -0.252
REMARK UNBOUND:                -0.252
REMARK  Name = No_4937-gen_results/8p0m/2024-11-27-11-27-31/
REMARK  3 active torsions:
REMARK  status: ('A' for Active; 'I' for Inactive)
REMARK    1  A    between atoms: C_1  and  C_2
REMARK    2  A    between atoms: C_1  and  C_10
REMARK    3  A    between atoms: N_3  and  C_4
REMARK                            x       y       z     vdW  Elec       q    Type
REMARK                         _______ _______ _______ _____ _____    ______ ____
ROOT
ATOM      1  C   UNL A   1     -24.138  -2.996  29.065  0.00  0.00    +0.081 A 
ATOM      2  C   UNL A   1     -25.246  -2.607  29.750  0.00  0.00    +0.019 A 
ATOM      3  C   UNL A   1     -26.325  -3.476  29.930  0.00  0.00    +0.002 A 
ATOM      4  C   UNL A   1     -26.136  -4.837  29.588  0.00  0.00    +0.000 A 
ATOM      5  C   UNL A   1     -24.986  -5.260  28.952  0.00  0.00    +0.002 A 
ATOM      6  C   UNL A   1     -23.921  -4.323  28.724  0.00  0.00    +0.019 A 
ENDROOT
BRANCH   1   8
ATOM      7  C   UNL A   1     -22.885  -0.945  29.685  0.00  0.00    +0.072 C 
ATOM      8  N   UNL A   1     -23.059  -2.055  28.954  0.00  0.00    -0.248 NA
BRANCH   7   9
ATOM      9  C   UNL A   1     -21.956  -0.181  29.551  0.00  0.00    +0.047 C 
BRANCH   9  10
ATOM     10  C   UNL A   1     -21.755   0.316  28.304  0.00  0.00    +0.006 C 
ATOM     11  C   UNL A   1     -22.717   1.462  28.005  0.00  0.00    +0.000 C 
ENDBRANCH   9  10
ENDBRANCH   7   9
ENDBRANCH   1   8
TORSDOF 3
ENDMDL
ENDMDL
