MODEL 4938
MODEL 1
REMARK VINA RESULT:    -4.883      0.000      0.000
REMARK INTER + INTRA:          -5.688
REMARK INTER:                  -5.454
REMARK INTRA:                  -0.233
REMARK UNBOUND:                -0.233
REMARK  Name = No_4938-gen_results/8p0m/2024-11-27-11-27-31/
REMARK  2 active torsions:
REMARK  status: ('A' for Active; 'I' for Inactive)
REMARK    1  A    between atoms: C_3  and  C_7
REMARK    2  A    between atoms: C_7  and  C_8
REMARK                            x       y       z     vdW  Elec       q    Type
REMARK                         _______ _______ _______ _____ _____    ______ ____
ROOT
ATOM      1  C   UNL A   1     -23.870  -3.856  28.543  0.00  0.00    -0.004 A 
ATOM      2  C   UNL A   1     -24.241  -4.828  28.708  0.00  0.00    -0.000 A 
ATOM      3  C   UNL A   1     -24.667  -2.767  28.961  0.00  0.00    -0.018 A 
ATOM      4  C   UNL A   1     -25.900  -2.950  29.556  0.00  0.00    -0.004 A 
ATOM      5  C   UNL A   1     -25.503  -5.294  29.316  0.00  0.00    -0.000 A 
ATOM      6  C   UNL A   1     -26.297  -4.282  29.729  0.00  0.00    -0.000 A 
ENDROOT
BRANCH   3   7
ATOM      7  C   UNL A   1     -24.240  -1.335  28.817  0.00  0.00    +0.052 C 
BRANCH   7   8
ATOM      8  C   UNL A   1     -22.876  -1.045  29.032  0.00  0.00    -0.021 C 
ATOM      9  C   UNL A   1     -22.446  -0.463  30.209  0.00  0.00    -0.005 C 
ENDBRANCH   7   8
ENDBRANCH   3   7
TORSDOF 2
ENDMDL
ENDMDL
