MODEL 493
MODEL 1
REMARK VINA RESULT:    -5.811      0.000      0.000
REMARK INTER + INTRA:          -7.016
REMARK INTER:                  -6.491
REMARK INTRA:                  -0.525
REMARK UNBOUND:                -0.525
REMARK  Name = No_493-gen_results/8p0m/2024-11-27-11-27-31/
REMARK  2 active torsions:
REMARK  status: ('A' for Active; 'I' for Inactive)
REMARK    1  A    between atoms: C_2  and  C_8
REMARK    2  A    between atoms: C_4  and  C_12
REMARK                            x       y       z     vdW  Elec       q    Type
REMARK                         _______ _______ _______ _____ _____    ______ ____
ROOT
ATOM      1  C   UNL A   1     -24.531  -0.692  28.395  0.00  0.00    +0.005 A 
ATOM      2  C   UNL A   1     -23.606   0.047  28.637  0.00  0.00    +0.071 A 
ATOM      3  C   UNL A   1     -23.112   0.973  27.739  0.00  0.00    +0.009 A 
ATOM      4  C   UNL A   1     -23.756   1.086  26.475  0.00  0.00    +0.082 A 
ATOM      5  C   UNL A   1     -24.887   0.360  26.317  0.00  0.00    +0.061 A 
ATOM      6  C   UNL A   1     -25.310  -0.472  27.249  0.00  0.00    +0.011 A 
ATOM      7 CL   UNL A   1     -25.687   0.527  24.823  0.00  0.00    -0.082 Cl
ENDROOT
BRANCH   2   8
ATOM      8  C   UNL A   1     -22.741  -0.107  29.944  0.00  0.00    +0.419 C 
ATOM      9  F   UNL A   1     -21.543  -0.063  29.720  0.00  0.00    -0.166 F 
ATOM     10  F   UNL A   1     -23.049   0.940  30.730  0.00  0.00    -0.166 F 
ATOM     11  F   UNL A   1     -22.972  -1.242  30.583  0.00  0.00    -0.166 F 
ENDBRANCH   2   8
BRANCH   4  12
ATOM     12  C   UNL A   1     -23.011   2.041  25.597  0.00  0.00    +0.419 C 
ATOM     13  F   UNL A   1     -22.879   1.867  24.412  0.00  0.00    -0.166 F 
ATOM     14  F   UNL A   1     -21.804   2.220  26.210  0.00  0.00    -0.166 F 
ATOM     15  F   UNL A   1     -23.659   3.272  25.694  0.00  0.00    -0.166 F 
ENDBRANCH   4  12
TORSDOF 2
ENDMDL
ENDMDL
