MODEL 4940
MODEL 1
REMARK VINA RESULT:    -6.674      0.000      0.000
REMARK INTER + INTRA:          -6.674
REMARK INTER:                  -6.674
REMARK INTRA:                   0.000
REMARK UNBOUND:                 0.000
REMARK  Name = No_4940-gen_results/8p0m/2024-11-27-11-27-31/
REMARK  0 active torsions:
REMARK  status: ('A' for Active; 'I' for Inactive)
REMARK                            x       y       z     vdW  Elec       q    Type
REMARK                         _______ _______ _______ _____ _____    ______ ____
ROOT
ATOM      1  C   UNL A   1     -30.172 -10.752  28.908  0.00  0.00    +0.011 A 
ATOM      2  C   UNL A   1     -29.804 -11.075  30.014  0.00  0.00    +0.001 A 
ATOM      3  C   UNL A   1     -29.967 -10.308  31.122  0.00  0.00    +0.003 A 
ATOM      4  C   UNL A   1     -30.602  -9.059  30.982  0.00  0.00    +0.001 A 
ATOM      5  C   UNL A   1     -30.913  -9.532  28.708  0.00  0.00    +0.058 A 
ATOM      6  C   UNL A   1     -31.078  -8.712  29.784  0.00  0.00    +0.011 A 
ATOM      7  C   UNL A   1     -29.046 -12.324  30.468  0.00  0.00    +0.000 A 
ATOM      8  C   UNL A   1     -28.051 -12.299  31.374  0.00  0.00    +0.005 A 
ATOM      9  C   UNL A   1     -28.225 -11.419  32.465  0.00  0.00    +0.058 A 
ATOM     10  C   UNL A   1     -29.024 -10.296  32.278  0.00  0.00    +0.041 A 
ATOM     11  C   UNL A   1     -27.372 -11.651  33.656  0.00  0.00    +0.265 C 
ATOM     12  N   UNL A   1     -27.508 -10.871  34.664  0.00  0.00    -0.193 NA
ATOM     13  O   UNL A   1     -26.618 -12.657  33.771  0.00  0.00    -0.268 OA
ATOM     14 CL   UNL A   1     -31.667  -9.299  27.179  0.00  0.00    -0.082 Cl
ATOM     15  C   UNL A   1     -28.335  -9.708  34.710  0.00  0.00    +0.184 C 
ATOM     16  C   UNL A   1     -29.185  -9.460  33.475  0.00  0.00    +0.195 C 
ATOM     17  O   UNL A   1     -30.014  -8.430  33.466  0.00  0.00    -0.289 OA
ENDROOT
TORSDOF 0
ENDMDL
ENDMDL
