MODEL 4941
MODEL 1
REMARK VINA RESULT:    -8.480      0.000      0.000
REMARK INTER + INTRA:         -17.865
REMARK INTER:                 -13.437
REMARK INTRA:                  -4.428
REMARK UNBOUND:                -4.428
REMARK  Name = No_4941-gen_results/8p0m/2024-11-27-11-27-31/
REMARK  10 active torsions:
REMARK  status: ('A' for Active; 'I' for Inactive)
REMARK    1  A    between atoms: C_2  and  C_29
REMARK    2  A    between atoms: C_3  and  C_4
REMARK    3  A    between atoms: C_4  and  C_8
REMARK    4  A    between atoms: C_8  and  C_9
REMARK    5  A    between atoms: C_8  and  C_15
REMARK    6  A    between atoms: C_18  and  C_21
REMARK    7  A    between atoms: C_21  and  C_22
REMARK    8  A    between atoms: C_22  and  C_23
REMARK    9  A    between atoms: C_22  and  C_32
REMARK   10  A    between atoms: C_32  and  C_33
REMARK                            x       y       z     vdW  Elec       q    Type
REMARK                         _______ _______ _______ _____ _____    ______ ____
ROOT
ATOM      1  C   UNL A   1     -23.457   0.427  28.203  0.00  0.00    -0.022 A 
ATOM      2  C   UNL A   1     -22.365   1.280  28.335  0.00  0.00    -0.004 A 
ATOM      3  C   UNL A   1     -21.858   1.859  27.151  0.00  0.00    -0.000 A 
ATOM      4  C   UNL A   1     -24.391   0.544  27.166  0.00  0.00    -0.025 A 
ATOM      5  C   UNL A   1     -24.015   1.358  26.001  0.00  0.00    -0.005 A 
ATOM      6  C   UNL A   1     -22.788   2.086  26.081  0.00  0.00    -0.000 A 
ENDROOT
BRANCH   1   7
ATOM      7  C   UNL A   1     -23.586  -0.571  29.118  0.00  0.00    +0.049 C 
BRANCH   7   8
ATOM      8  C   UNL A   1     -23.937  -0.424  30.433  0.00  0.00    -0.018 A 
ATOM      9  C   UNL A   1     -25.020   0.113  31.038  0.00  0.00    -0.004 A 
ATOM     10  C   UNL A   1     -25.298   0.075  32.430  0.00  0.00    -0.000 A 
ATOM     11  C   UNL A   1     -24.428  -0.576  33.273  0.00  0.00    -0.000 A 
ATOM     12  C   UNL A   1     -22.964  -1.111  31.408  0.00  0.00    -0.004 A 
ATOM     13  C   UNL A   1     -23.280  -1.177  32.760  0.00  0.00    -0.000 A 
ENDBRANCH   7   8
BRANCH   7  14
ATOM     14  C   UNL A   1     -23.254  -1.956  28.791  0.00  0.00    +0.035 C 
BRANCH  14  17
ATOM     15  C   UNL A   1     -25.682  -2.643  29.552  0.00  0.00    +0.002 A 
ATOM     16  C   UNL A   1     -26.268  -3.492  29.767  0.00  0.00    +0.080 A 
ATOM     17  C   UNL A   1     -24.295  -2.926  29.022  0.00  0.00    -0.021 A 
ATOM     18  C   UNL A   1     -26.085  -4.914  29.447  0.00  0.00    +0.007 A 
ATOM     19  C   UNL A   1     -24.851  -5.249  28.933  0.00  0.00    -0.000 A 
ATOM     20  C   UNL A   1     -23.923  -4.274  28.671  0.00  0.00    -0.004 A 
BRANCH  16  21
ATOM     21  C   UNL A   1     -27.731  -3.258  30.408  0.00  0.00    +0.388 C 
ATOM     22  O   UNL A   1     -28.135  -2.207  30.710  0.00  0.00    -0.241 OA
ATOM     23  O   UNL A   1     -28.503  -4.241  30.086  0.00  0.00    -0.241 OA
ENDBRANCH  16  21
ENDBRANCH  14  17
ENDBRANCH   7  14
ENDBRANCH   1   7
BRANCH   4  24
ATOM     24  C   UNL A   1     -25.623  -0.176  27.005  0.00  0.00    +0.031 C 
BRANCH  24  25
ATOM     25  C   UNL A   1     -26.835   0.651  27.098  0.00  0.00    +0.031 C 
BRANCH  25  26
ATOM     26  C   UNL A   1     -27.535   0.754  26.099  0.00  0.00    -0.022 A 
ATOM     27  C   UNL A   1     -27.177  -0.043  24.899  0.00  0.00    -0.004 A 
ATOM     28  C   UNL A   1     -28.154  -0.274  23.899  0.00  0.00    -0.000 A 
ATOM     29  C   UNL A   1     -29.029   0.391  26.360  0.00  0.00    -0.004 A 
ATOM     30  C   UNL A   1     -29.984   0.290  25.241  0.00  0.00    -0.000 A 
ATOM     31  C   UNL A   1     -29.463  -0.622  24.211  0.00  0.00    -0.000 A 
ENDBRANCH  25  26
BRANCH  25  32
ATOM     32  C   UNL A   1     -27.145   1.054  28.455  0.00  0.00    +0.030 C 
BRANCH  32  33
ATOM     33  C   UNL A   1     -27.024   2.247  28.895  0.00  0.00    -0.030 C 
ATOM     34  C   UNL A   1     -26.173   3.073  28.826  0.00  0.00    -0.030 C 
ATOM     35  C   UNL A   1     -26.227   4.440  29.433  0.00  0.00    +0.030 C 
ENDBRANCH  32  33
ENDBRANCH  25  32
ENDBRANCH  24  25
ENDBRANCH   4  24
TORSDOF 10
ENDMDL
ENDMDL
