REMARK  Name = No_4941-gen_results/8p0m/2024-11-27-11-27-31/
REMARK  10 active torsions:
REMARK  status: ('A' for Active; 'I' for Inactive)
REMARK    1  A    between atoms: C_2  and  C_29
REMARK    2  A    between atoms: C_3  and  C_4
REMARK    3  A    between atoms: C_4  and  C_8
REMARK    4  A    between atoms: C_8  and  C_9
REMARK    5  A    between atoms: C_8  and  C_15
REMARK    6  A    between atoms: C_18  and  C_21
REMARK    7  A    between atoms: C_21  and  C_22
REMARK    8  A    between atoms: C_22  and  C_23
REMARK    9  A    between atoms: C_22  and  C_32
REMARK   10  A    between atoms: C_32  and  C_33
REMARK                            x       y       z     vdW  Elec       q    Type
REMARK                         _______ _______ _______ _____ _____    ______ ____
ROOT
ATOM      1  C   UNL A   1     -26.009   1.548  26.687  0.00  0.00    -0.022 A 
ATOM      2  C   UNL A   1     -26.515   1.105  25.468  0.00  0.00    -0.004 A 
ATOM      3  C   UNL A   1     -27.759   1.635  25.061  0.00  0.00    -0.000 A 
ATOM      4  C   UNL A   1     -26.308   2.808  27.221  0.00  0.00    -0.025 A 
ATOM      5  C   UNL A   1     -27.455   3.532  26.653  0.00  0.00    -0.005 A 
ATOM      6  C   UNL A   1     -28.084   2.961  25.504  0.00  0.00    -0.000 A 
ENDROOT
BRANCH   1   7
ATOM      7  C   UNL A   1     -25.213   0.692  27.383  0.00  0.00    +0.049 C 
BRANCH   7   8
ATOM      8  C   UNL A   1     -23.920   0.921  27.770  0.00  0.00    -0.018 A 
ATOM      9  C   UNL A   1     -23.156   0.410  28.761  0.00  0.00    -0.004 A 
ATOM     10  C   UNL A   1     -21.772   0.660  28.956  0.00  0.00    -0.000 A 
ATOM     11  C   UNL A   1     -21.103   1.471  28.070  0.00  0.00    -0.000 A 
ATOM     12  C   UNL A   1     -23.151   1.854  26.818  0.00  0.00    -0.004 A 
ATOM     13  C   UNL A   1     -21.787   2.048  27.001  0.00  0.00    -0.000 A 
ENDBRANCH   7   8
BRANCH   7  14
ATOM     14  C   UNL A   1     -25.654  -0.660  27.719  0.00  0.00    +0.035 C 
BRANCH  14  17
ATOM     15  C   UNL A   1     -28.016  -0.814  28.878  0.00  0.00    +0.002 A 
ATOM     16  C   UNL A   1     -28.469  -0.785  29.829  0.00  0.00    +0.080 A 
ATOM     17  C   UNL A   1     -26.504  -0.778  28.877  0.00  0.00    -0.021 A 
ATOM     18  C   UNL A   1     -27.918  -0.937  31.182  0.00  0.00    +0.007 A 
ATOM     19  C   UNL A   1     -26.542  -0.940  31.261  0.00  0.00    -0.000 A 
ATOM     20  C   UNL A   1     -25.783  -0.893  30.120  0.00  0.00    -0.004 A 
BRANCH  16  21
ATOM     21  C   UNL A   1     -30.082  -0.744  29.895  0.00  0.00    +0.388 C 
ATOM     22  O   UNL A   1     -30.681  -0.750  30.895  0.00  0.00    -0.241 OA
ATOM     23  O   UNL A   1     -30.543  -0.233  28.803  0.00  0.00    -0.241 OA
ENDBRANCH  16  21
ENDBRANCH  14  17
ENDBRANCH   7  14
ENDBRANCH   1   7
BRANCH   4  24
ATOM     24  C   UNL A   1     -25.741   3.428  28.385  0.00  0.00    +0.031 C 
BRANCH  24  25
ATOM     25  C   UNL A   1     -26.724   3.896  29.373  0.00  0.00    +0.031 C 
BRANCH  25  26
ATOM     26  C   UNL A   1     -27.071   3.114  30.249  0.00  0.00    -0.022 A 
ATOM     27  C   UNL A   1     -26.235   3.003  31.470  0.00  0.00    -0.004 A 
ATOM     28  C   UNL A   1     -26.793   2.448  32.649  0.00  0.00    -0.000 A 
ATOM     29  C   UNL A   1     -28.501   3.407  30.797  0.00  0.00    -0.004 A 
ATOM     30  C   UNL A   1     -29.019   2.680  31.971  0.00  0.00    -0.000 A 
ATOM     31  C   UNL A   1     -28.068   2.781  33.090  0.00  0.00    -0.000 A 
ENDBRANCH  25  26
BRANCH  25  32
ATOM     32  C   UNL A   1     -26.978   5.320  29.291  0.00  0.00    +0.030 C 
BRANCH  32  33
ATOM     33  C   UNL A   1     -26.153   6.170  28.814  0.00  0.00    -0.030 C 
ATOM     34  C   UNL A   1     -24.978   6.323  28.901  0.00  0.00    -0.030 C 
ATOM     35  C   UNL A   1     -24.186   7.415  28.252  0.00  0.00    +0.030 C 
ENDBRANCH  32  33
ENDBRANCH  25  32
ENDBRANCH  24  25
ENDBRANCH   4  24
TORSDOF 10
