MODEL 4942
MODEL 1
REMARK VINA RESULT:    -6.454      0.000      0.000
REMARK INTER + INTRA:          -9.272
REMARK INTER:                  -8.341
REMARK INTRA:                  -0.931
REMARK UNBOUND:                -0.931
REMARK  Name = No_4942-gen_results/8p0m/2024-11-27-11-27-31/
REMARK  5 active torsions:
REMARK  status: ('A' for Active; 'I' for Inactive)
REMARK    1  A    between atoms: C_1  and  C_2
REMARK    2  A    between atoms: C_1  and  C_8
REMARK    3  A    between atoms: C_3  and  C_15
REMARK    4  A    between atoms: C_5  and  C_10
REMARK    5  A    between atoms: C_8  and  N_9
REMARK                            x       y       z     vdW  Elec       q    Type
REMARK                         _______ _______ _______ _____ _____    ______ ____
ROOT
ATOM      1  C   UNL A   1     -23.978   0.901  29.591  0.00  0.00    -0.016 A 
ATOM      2  C   UNL A   1     -24.934   1.381  28.712  0.00  0.00    +0.050 A 
ATOM      3  C   UNL A   1     -24.696   1.879  27.378  0.00  0.00    +0.008 A 
ATOM      4  C   UNL A   1     -23.367   1.900  26.892  0.00  0.00    +0.071 A 
ATOM      5  C   UNL A   1     -22.337   1.425  27.746  0.00  0.00    +0.004 A 
ATOM      6  C   UNL A   1     -22.667   0.947  28.977  0.00  0.00    -0.004 A 
ENDROOT
BRANCH   2   7
ATOM      7  C   UNL A   1     -26.344   1.379  29.122  0.00  0.00    +0.249 C 
ATOM      8  O   UNL A   1     -27.098   0.645  28.845  0.00  0.00    -0.270 OA
ATOM      9  N   UNL A   1     -26.792   2.696  29.596  0.00  0.00    -0.273 N 
ATOM     10  C   UNL A   1     -25.987   3.701  29.905  0.00  0.00    +0.115 C 
ATOM     11  C   UNL A   1     -28.161   2.852  29.875  0.00  0.00    +0.115 C 
ENDBRANCH   2   7
BRANCH   4  12
ATOM     12  C   UNL A   1     -23.048   2.402  25.566  0.00  0.00    +0.419 C 
ATOM     13  F   UNL A   1     -23.409   3.417  25.257  0.00  0.00    -0.166 F 
ATOM     14  F   UNL A   1     -21.738   2.243  25.238  0.00  0.00    -0.166 F 
ATOM     15  F   UNL A   1     -23.518   1.400  24.627  0.00  0.00    -0.166 F 
ENDBRANCH   4  12
BRANCH   1  16
ATOM     16  C   UNL A   1     -24.209   0.424  30.678  0.00  0.00    +0.044 C 
BRANCH  16  17
ATOM     17  C   UNL A   1     -23.762  -0.985  30.849  0.00  0.00    +0.077 C 
BRANCH  17  18
ATOM     18  N   UNL A   1     -24.459  -2.000  30.214  0.00  0.00    -0.272 NA
ATOM     19  C   UNL A   1     -25.618  -2.251  30.327  0.00  0.00    +0.072 C 
ATOM     20  C   UNL A   1     -23.788  -2.753  29.187  0.00  0.00    +0.072 C 
ATOM     21  C   UNL A   1     -24.239  -4.004  28.901  0.00  0.00    +0.017 C 
ATOM     22  C   UNL A   1     -26.280  -3.497  30.069  0.00  0.00    +0.017 C 
ATOM     23  C   UNL A   1     -25.611  -4.303  29.136  0.00  0.00    +0.003 C 
ENDBRANCH  17  18
ENDBRANCH  16  17
ENDBRANCH   1  16
TORSDOF 5
ENDMDL
ENDMDL
