REMARK  Name = outputs/IAG933/test6/raw/output_4942_IAG933_linker_design_.xyz
REMARK  11 active torsions:
REMARK  status: ('A' for Active; 'I' for Inactive)
REMARK    1  A    between atoms: C_1  and  C_2
REMARK    2  A    between atoms: C_1  and  C_8
REMARK    3  A    between atoms: C_1  and  N_38
REMARK    4  A    between atoms: C_13  and  C_32
REMARK    5  A    between atoms: C_14  and  C_15
REMARK    6  A    between atoms: C_21  and  O_22
REMARK    7  A    between atoms: O_22  and  C_23
REMARK    8  A    between atoms: C_23  and  C_24
REMARK    9  A    between atoms: C_30  and  C_43
REMARK   10  A    between atoms: C_39  and  N_40
REMARK   11  A    between atoms: C_39  and  C_46
REMARK                            x       y       z     vdW  Elec       q    Type
REMARK                         _______ _______ _______ _____ _____    ______ ____
ROOT
ATOM      1  C   UNL A   1     -25.001   1.136  27.556  0.00  0.00    +0.009 C 
ATOM      2  N   UNL A   1     -23.279  -0.004  28.994  0.00  0.00    -0.143 NA
ATOM      3  C   UNL A   1     -23.700   1.453  27.364  0.00  0.00    +0.055 C 
ATOM      4  C   UNL A   1     -22.975   2.299  26.378  0.00  0.00    +0.181 C 
ATOM      5  C   UNL A   1     -21.372   1.100  27.698  0.00  0.00    +0.198 C 
ATOM      6  N   UNL A   1     -24.753  -0.110  29.170  0.00  0.00    -0.212 N 
ATOM      7  C   UNL A   1     -22.823   0.800  28.079  0.00  0.00    +0.128 C 
ATOM      8  C   UNL A   1     -25.706   0.516  28.543  0.00  0.00    +0.119 C 
ATOM      9  O   UNL A   1     -21.552   2.029  26.611  0.00  0.00    -0.446 OA
ENDROOT
BRANCH   1  10
ATOM     10  C   UNL A   1     -25.688   1.614  26.461  0.00  0.00    +0.094 C 
ATOM     11  C   UNL A   1     -26.250   2.920  26.395  0.00  0.00    +0.059 C 
ATOM     12  C   UNL A   1     -27.438   3.091  25.645  0.00  0.00    +0.102 C 
ATOM     13  N   UNL A   1     -28.075   2.089  25.003  0.00  0.00    -0.212 NA
ATOM     14  C   UNL A   1     -27.543   0.849  25.079  0.00  0.00    +0.234 C 
ATOM     15  C   UNL A   1     -26.354   0.576  25.777  0.00  0.00    +0.244 C 
ATOM     16  F   UNL A   1     -25.860  -0.681  25.795  0.00  0.00    -0.227 F 
BRANCH  11  17
ATOM     17  C   UNL A   1     -25.642   4.093  27.123  0.00  0.00    +0.263 C 
ATOM     18  N   UNL A   1     -25.614   5.252  26.449  0.00  0.00    -0.200 NA
ATOM     19  C   UNL A   1     -25.026   6.479  26.963  0.00  0.00    +0.139 C 
ATOM     20  O   UNL A   1     -25.143   3.966  28.243  0.00  0.00    -0.269 OA
ENDBRANCH  11  17
BRANCH  14  21
ATOM     21  O   UNL A   1     -28.193  -0.208  24.477  0.00  0.00    -0.459 OA
BRANCH  21  22
ATOM     22  C   UNL A   1     -29.460   0.005  23.866  0.00  0.00    +0.242 C 
BRANCH  22  23
ATOM     23  C   UNL A   1     -30.065  -1.377  23.573  0.00  0.00    +0.229 C 
ATOM     24  O   UNL A   1     -30.729  -1.878  24.721  0.00  0.00    -0.216 OA
ENDBRANCH  22  23
ENDBRANCH  21  22
ENDBRANCH  14  21
ENDBRANCH   1  10
BRANCH   8  25
ATOM     25  C   UNL A   1     -27.226   0.354  28.786  0.00  0.00    +0.280 C 
ATOM     26  N   UNL A   1     -28.214   1.218  28.506  0.00  0.00    -0.196 NA
ATOM     27  O   UNL A   1     -27.576  -0.695  29.195  0.00  0.00    -0.267 OA
BRANCH  26  28
ATOM     28  C   UNL A   1     -29.231   1.722  29.150  0.00  0.00    +0.142 C 
BRANCH  28  34
ATOM     29  C   UNL A   1     -29.141   4.484  31.526  0.00  0.00    -0.000 C 
ATOM     30  C   UNL A   1     -29.507   5.561  30.688  0.00  0.00    -0.000 C 
ATOM     31  C   UNL A   1     -29.491   5.383  29.298  0.00  0.00    -0.000 C 
ATOM     32  C   UNL A   1     -28.861   3.231  30.976  0.00  0.00    -0.003 C 
ATOM     33  C   UNL A   1     -29.259   4.125  28.756  0.00  0.00    -0.003 C 
ATOM     34  C   UNL A   1     -29.064   3.049  29.626  0.00  0.00    -0.001 C 
ENDBRANCH  28  34
ENDBRANCH  26  28
ENDBRANCH   8  25
BRANCH   6  35
ATOM     35  C   UNL A   1     -24.855  -1.012  30.143  0.00  0.00    +0.132 C 
BRANCH  35  36
ATOM     36  C   UNL A   1     -24.973  -2.505  29.788  0.00  0.00    -0.001 C 
ATOM     37  C   UNL A   1     -23.906  -3.173  29.146  0.00  0.00    -0.003 C 
ATOM     38  C   UNL A   1     -23.989  -4.549  28.853  0.00  0.00    -0.000 C 
ATOM     39  C   UNL A   1     -25.137  -5.280  29.205  0.00  0.00    -0.000 C 
ATOM     40  C   UNL A   1     -26.232  -4.611  29.784  0.00  0.00    -0.000 C 
ATOM     41  C   UNL A   1     -26.155  -3.232  30.065  0.00  0.00    -0.003 C 
ENDBRANCH  35  36
BRANCH  35  42
ATOM     42  C   UNL A   1     -25.387  -0.679  31.571  0.00  0.00    +0.097 C 
ATOM     43  C   UNL A   1     -25.189   0.773  32.028  0.00  0.00    +0.021 C 
ATOM     44  C   UNL A   1     -25.336   0.684  33.544  0.00  0.00    +0.020 C 
ATOM     45  C   UNL A   1     -24.829  -0.715  33.905  0.00  0.00    +0.089 C 
ATOM     46  N   UNL A   1     -24.758  -1.481  32.646  0.00  0.00    -0.217 NA
ENDBRANCH  35  42
ENDBRANCH   6  35
TORSDOF 11
