MODEL 4944
MODEL 1
REMARK VINA RESULT:    -5.748      0.000      0.000
REMARK INTER + INTRA:          -6.733
REMARK INTER:                  -6.420
REMARK INTRA:                  -0.314
REMARK UNBOUND:                -0.314
REMARK  Name = No_4944-gen_results/8p0m/2024-11-27-11-27-31/
REMARK  2 active torsions:
REMARK  status: ('A' for Active; 'I' for Inactive)
REMARK    1  A    between atoms: C_2  and  C_11
REMARK    2  A    between atoms: C_3  and  C_4
REMARK                            x       y       z     vdW  Elec       q    Type
REMARK                         _______ _______ _______ _____ _____    ______ ____
ROOT
ATOM      1  C   UNL A   1     -23.675  -2.689  28.991  0.00  0.00    +0.009 A 
ATOM      2  C   UNL A   1     -24.535  -3.233  29.264  0.00  0.00    +0.068 A 
ATOM      3  C   UNL A   1     -23.673  -1.311  29.485  0.00  0.00    +0.072 A 
ATOM      4  C   UNL A   1     -25.741  -2.939  30.027  0.00  0.00    +0.006 A 
ATOM      5  C   UNL A   1     -25.782  -1.644  30.498  0.00  0.00    +0.000 A 
ATOM      6  C   UNL A   1     -24.738  -0.823  30.287  0.00  0.00    +0.004 A 
ENDROOT
BRANCH   3   7
ATOM      7  C   UNL A   1     -22.533  -0.383  29.322  0.00  0.00    +0.419 C 
ATOM      8  F   UNL A   1     -22.341   0.324  30.044  0.00  0.00    -0.166 F 
ATOM      9  F   UNL A   1     -21.382  -1.148  29.008  0.00  0.00    -0.166 F 
ATOM     10  F   UNL A   1     -22.654   0.370  28.051  0.00  0.00    -0.166 F 
ENDBRANCH   3   7
BRANCH   2  11
ATOM     11  C   UNL A   1     -24.589  -4.800  28.823  0.00  0.00    +0.333 C 
ATOM     12  O   UNL A   1     -23.742  -5.322  28.071  0.00  0.00    -0.254 OA
ATOM     13  F   UNL A   1     -25.493  -5.492  29.239  0.00  0.00    -0.159 F 
ENDBRANCH   2  11
TORSDOF 2
ENDMDL
ENDMDL
