REMARK  Name = No_4945-gen_results/8p0m/2024-11-27-11-27-31/
REMARK  4 active torsions:
REMARK  status: ('A' for Active; 'I' for Inactive)
REMARK    1  A    between atoms: C_2  and  C_14
REMARK    2  A    between atoms: C_3  and  C_17
REMARK    3  A    between atoms: C_4  and  C_6
REMARK    4  A    between atoms: C_6  and  C_8
REMARK                            x       y       z     vdW  Elec       q    Type
REMARK                         _______ _______ _______ _____ _____    ______ ____
ROOT
ATOM      1  C   UNL A   1     -28.016  -0.814  28.878  0.00  0.00    +0.009 A 
ATOM      2  C   UNL A   1     -28.469  -0.785  29.829  0.00  0.00    +0.080 A 
ATOM      3  C   UNL A   1     -26.546  -0.876  28.850  0.00  0.00    +0.032 A 
ATOM      4  C   UNL A   1     -25.804  -1.032  30.057  0.00  0.00    -0.016 A 
ATOM      5  C   UNL A   1     -27.944  -0.987  31.207  0.00  0.00    +0.006 A 
ATOM      6  C   UNL A   1     -26.561  -1.075  31.227  0.00  0.00    -0.004 A 
ENDROOT
BRANCH   3   7
ATOM      7  C   UNL A   1     -25.745  -0.763  27.586  0.00  0.00    +0.162 A 
ATOM      8  N   UNL A   1     -24.797  -0.893  27.253  0.00  0.00    -0.224 NA
ATOM      9  N   UNL A   1     -26.535  -0.082  26.607  0.00  0.00    -0.224 NA
ATOM     10  C   UNL A   1     -25.783   0.005  25.463  0.00  0.00    +0.121 A 
ATOM     11  C   UNL A   1     -24.535  -0.315  25.985  0.00  0.00    +0.121 A 
ENDBRANCH   3   7
BRANCH   4  12
ATOM     12  C   UNL A   1     -24.401  -1.097  30.096  0.00  0.00    +0.038 C 
ATOM     13  C   UNL A   1     -23.963  -1.611  31.483  0.00  0.00    +0.009 C 
ATOM     14  C   UNL A   1     -23.938  -2.333  29.228  0.00  0.00    +0.009 C 
BRANCH  12  15
ATOM     15  C   UNL A   1     -23.719   0.112  29.858  0.00  0.00    -0.019 A 
ATOM     16  C   UNL A   1     -22.435   0.141  29.241  0.00  0.00    -0.004 A 
ATOM     17  C   UNL A   1     -21.824   1.319  28.901  0.00  0.00    -0.000 A 
ATOM     18  C   UNL A   1     -24.215   1.387  30.282  0.00  0.00    -0.004 A 
ATOM     19  C   UNL A   1     -23.692   2.591  29.857  0.00  0.00    -0.000 A 
ATOM     20  C   UNL A   1     -22.448   2.551  29.186  0.00  0.00    -0.000 A 
ENDBRANCH  12  15
ENDBRANCH   4  12
BRANCH   2  21
ATOM     21  C   UNL A   1     -30.088  -0.702  29.872  0.00  0.00    +0.388 C 
ATOM     22  O   UNL A   1     -30.616   0.256  30.501  0.00  0.00    -0.241 OA
ATOM     23  O   UNL A   1     -30.711  -1.508  29.207  0.00  0.00    -0.241 OA
ENDBRANCH   2  21
TORSDOF 4
