MODEL 4945
MODEL 1
REMARK VINA RESULT:    -7.007      0.000      0.000
REMARK INTER + INTRA:          -7.914
REMARK INTER:                  -8.645
REMARK INTRA:                   0.731
REMARK UNBOUND:                 0.731
REMARK  Name = No_4945-gen_results/8p0m/2024-11-27-11-27-31/
REMARK  4 active torsions:
REMARK  status: ('A' for Active; 'I' for Inactive)
REMARK    1  A    between atoms: C_2  and  C_14
REMARK    2  A    between atoms: C_3  and  C_17
REMARK    3  A    between atoms: C_4  and  C_6
REMARK    4  A    between atoms: C_6  and  C_8
REMARK                            x       y       z     vdW  Elec       q    Type
REMARK                         _______ _______ _______ _____ _____    ______ ____
ROOT
ATOM      1  C   UNL A   1     -24.752   1.601  27.170  0.00  0.00    +0.009 A 
ATOM      2  C   UNL A   1     -23.731   1.708  26.935  0.00  0.00    +0.080 A 
ATOM      3  C   UNL A   1     -25.084   0.674  28.264  0.00  0.00    +0.032 A 
ATOM      4  C   UNL A   1     -24.052   0.074  29.042  0.00  0.00    -0.016 A 
ATOM      5  C   UNL A   1     -22.484   1.254  27.609  0.00  0.00    +0.006 A 
ATOM      6  C   UNL A   1     -22.749   0.395  28.664  0.00  0.00    -0.004 A 
ENDROOT
BRANCH   3   7
ATOM      7  C   UNL A   1     -26.491   0.291  28.615  0.00  0.00    +0.162 A 
ATOM      8  N   UNL A   1     -27.173  -0.431  28.412  0.00  0.00    -0.224 NA
ATOM      9  N   UNL A   1     -27.106   1.390  29.293  0.00  0.00    -0.224 NA
ATOM     10  C   UNL A   1     -28.388   1.013  29.605  0.00  0.00    +0.121 A 
ATOM     11  C   UNL A   1     -28.501  -0.108  28.791  0.00  0.00    +0.121 A 
ENDBRANCH   3   7
BRANCH   4  12
ATOM     12  C   UNL A   1     -24.303  -0.819  30.098  0.00  0.00    +0.038 C 
ATOM     13  C   UNL A   1     -23.043  -0.914  30.983  0.00  0.00    +0.009 C 
ATOM     14  C   UNL A   1     -25.265  -0.108  31.130  0.00  0.00    +0.009 C 
BRANCH  12  15
ATOM     15  C   UNL A   1     -24.660  -2.130  29.727  0.00  0.00    -0.019 A 
ATOM     16  C   UNL A   1     -23.818  -2.933  28.904  0.00  0.00    -0.004 A 
ATOM     17  C   UNL A   1     -24.106  -4.246  28.642  0.00  0.00    -0.000 A 
ATOM     18  C   UNL A   1     -25.914  -2.727  30.074  0.00  0.00    -0.004 A 
ATOM     19  C   UNL A   1     -26.187  -4.073  29.931  0.00  0.00    -0.000 A 
ATOM     20  C   UNL A   1     -25.277  -4.835  29.163  0.00  0.00    -0.000 A 
ENDBRANCH  12  15
ENDBRANCH   4  12
BRANCH   2  21
ATOM     21  C   UNL A   1     -23.355   2.716  25.721  0.00  0.00    +0.388 C 
ATOM     22  O   UNL A   1     -22.450   2.363  24.916  0.00  0.00    -0.241 OA
ATOM     23  O   UNL A   1     -24.038   3.714  25.587  0.00  0.00    -0.241 OA
ENDBRANCH   2  21
TORSDOF 4
ENDMDL
ENDMDL
