MODEL 4946
MODEL 1
REMARK VINA RESULT:    -6.475      0.000      0.000
REMARK INTER + INTRA:          -7.214
REMARK INTER:                  -6.853
REMARK INTRA:                  -0.361
REMARK UNBOUND:                -0.361
REMARK  Name = No_4946-gen_results/8p0m/2024-11-27-11-27-31/
REMARK  1 active torsions:
REMARK  status: ('A' for Active; 'I' for Inactive)
REMARK    1  A    between atoms: C_2  and  C_7
REMARK                            x       y       z     vdW  Elec       q    Type
REMARK                         _______ _______ _______ _____ _____    ______ ____
ROOT
ATOM      1  C   UNL A   1     -25.710  -2.538  29.604  0.00  0.00    +0.000 A 
ATOM      2  C   UNL A   1     -24.567  -2.435  29.225  0.00  0.00    +0.000 A 
ATOM      3  C   UNL A   1     -23.839  -3.550  28.824  0.00  0.00    +0.000 A 
ATOM      4  C   UNL A   1     -24.410  -4.870  28.891  0.00  0.00    +0.000 A 
ATOM      5  C   UNL A   1     -25.729  -4.901  29.363  0.00  0.00    +0.000 A 
ATOM      6  C   UNL A   1     -26.367  -3.819  29.746  0.00  0.00    +0.000 A 
ENDROOT
BRANCH   2   7
ATOM      7  C   UNL A   1     -23.811  -1.158  29.116  0.00  0.00    +0.000 A 
ATOM      8  C   UNL A   1     -22.624  -0.931  29.293  0.00  0.00    +0.000 A 
ATOM      9  C   UNL A   1     -21.762  -0.318  29.048  0.00  0.00    +0.000 A 
ATOM     10  C   UNL A   1     -21.889   0.767  28.070  0.00  0.00    +0.000 A 
ATOM     11  C   UNL A   1     -23.241   0.863  27.658  0.00  0.00    +0.000 A 
ATOM     12  C   UNL A   1     -24.248  -0.175  27.977  0.00  0.00    +0.000 A 
ENDBRANCH   2   7
TORSDOF 1
ENDMDL
ENDMDL
