REMARK  Name = No_4947-gen_results/8p0m/2024-11-27-11-27-31/
REMARK  8 active torsions:
REMARK  status: ('A' for Active; 'I' for Inactive)
REMARK    1  A    between atoms: C_2  and  C_18
REMARK    2  A    between atoms: C_3  and  C_11
REMARK    3  A    between atoms: C_11  and  C_12
REMARK    4  A    between atoms: C_23  and  C_26
REMARK    5  A    between atoms: N_27  and  C_29
REMARK    6  A    between atoms: C_29  and  C_30
REMARK    7  A    between atoms: C_31  and  C_32
REMARK    8  A    between atoms: C_32  and  C_33
REMARK                            x       y       z     vdW  Elec       q    Type
REMARK                         _______ _______ _______ _____ _____    ______ ____
ROOT
ATOM      1  C   UNL A   1     -30.053  -0.939  30.043  0.00  0.00    +0.249 C 
ATOM      2  O   UNL A   1     -30.575  -1.956  30.056  0.00  0.00    -0.270 OA
ATOM      3  N   UNL A   1     -30.774   0.240  29.564  0.00  0.00    -0.276 N 
ATOM      4  C   UNL A   1     -32.176   0.193  29.432  0.00  0.00    +0.094 C 
ATOM      5  C   UNL A   1     -30.146   1.564  29.462  0.00  0.00    +0.103 C 
ATOM      6  C   UNL A   1     -30.910   2.468  28.612  0.00  0.00    +0.098 C 
ATOM      7  C   UNL A   1     -32.748   1.088  28.500  0.00  0.00    +0.022 C 
ATOM      8  C   UNL A   1     -32.244   2.385  28.427  0.00  0.00    +0.013 C 
ENDROOT
BRANCH   1  10
ATOM      9  C   UNL A   1     -28.016  -0.814  28.878  0.00  0.00    +0.001 A 
ATOM     10  C   UNL A   1     -28.469  -0.785  29.829  0.00  0.00    +0.053 A 
ATOM     11  C   UNL A   1     -26.504  -0.778  28.877  0.00  0.00    -0.018 A 
ATOM     12  C   UNL A   1     -25.810  -0.853  30.103  0.00  0.00    -0.004 A 
ATOM     13  C   UNL A   1     -27.991  -0.892  31.226  0.00  0.00    +0.004 A 
ATOM     14  C   UNL A   1     -26.604  -0.868  31.265  0.00  0.00    -0.000 A 
ATOM     15  C   UNL A   1     -24.389  -0.805  30.164  0.00  0.00    -0.000 A 
ATOM     16  C   UNL A   1     -23.766  -0.950  31.068  0.00  0.00    -0.000 A 
ATOM     17  C   UNL A   1     -24.487  -1.029  32.385  0.00  0.00    -0.000 A 
ATOM     18  C   UNL A   1     -25.837  -0.926  32.468  0.00  0.00    -0.000 A 
BRANCH  11  19
ATOM     19  C   UNL A   1     -25.718  -0.697  27.615  0.00  0.00    +0.053 C 
BRANCH  19  20
ATOM     20  C   UNL A   1     -26.128   0.279  26.662  0.00  0.00    -0.018 A 
ATOM     21  C   UNL A   1     -25.276   0.636  25.770  0.00  0.00    -0.004 A 
ATOM     22  C   UNL A   1     -25.599   1.345  24.672  0.00  0.00    -0.000 A 
ATOM     23  C   UNL A   1     -27.037   1.688  24.560  0.00  0.00    -0.000 A 
ATOM     24  C   UNL A   1     -27.918   1.376  25.518  0.00  0.00    -0.000 A 
ATOM     25  C   UNL A   1     -27.507   0.588  26.563  0.00  0.00    -0.004 A 
ENDBRANCH  19  20
ENDBRANCH  11  19
ENDBRANCH   1  10
BRANCH   6  26
ATOM     26  C   UNL A   1     -30.135   3.725  28.246  0.00  0.00    +0.243 C 
ATOM     27  N   UNL A   1     -28.936   3.898  28.661  0.00  0.00    -0.201 NA
ATOM     28  O   UNL A   1     -30.753   4.663  27.755  0.00  0.00    -0.273 OA
BRANCH  27  29
ATOM     29  C   UNL A   1     -28.087   4.995  28.206  0.00  0.00    +0.141 C 
BRANCH  29  30
ATOM     30  C   UNL A   1     -27.210   5.425  29.143  0.00  0.00    -0.007 C 
ATOM     31  C   UNL A   1     -26.249   4.972  29.542  0.00  0.00    -0.021 C 
BRANCH  31  32
ATOM     32  C   UNL A   1     -25.822   3.645  29.069  0.00  0.00    +0.087 C 
ATOM     33  C   UNL A   1     -26.020   2.493  29.933  0.00  0.00    +0.013 C 
BRANCH  32  34
ATOM     34  C   UNL A   1     -25.116   3.533  27.920  0.00  0.00    +0.211 C 
ATOM     35  O   UNL A   1     -24.117   2.695  27.823  0.00  0.00    -0.288 OA
ENDBRANCH  32  34
ENDBRANCH  31  32
ENDBRANCH  29  30
ENDBRANCH  27  29
ENDBRANCH   6  26
TORSDOF 8
