MODEL 4947
MODEL 1
REMARK VINA RESULT:    -8.566      0.000      0.000
REMARK INTER + INTRA:         -13.756
REMARK INTER:                 -12.571
REMARK INTRA:                  -1.184
REMARK UNBOUND:                -1.184
REMARK  Name = No_4947-gen_results/8p0m/2024-11-27-11-27-31/
REMARK  8 active torsions:
REMARK  status: ('A' for Active; 'I' for Inactive)
REMARK    1  A    between atoms: C_2  and  C_18
REMARK    2  A    between atoms: C_3  and  C_11
REMARK    3  A    between atoms: C_11  and  C_12
REMARK    4  A    between atoms: C_23  and  C_26
REMARK    5  A    between atoms: N_27  and  C_29
REMARK    6  A    between atoms: C_29  and  C_30
REMARK    7  A    between atoms: C_31  and  C_32
REMARK    8  A    between atoms: C_32  and  C_33
REMARK                            x       y       z     vdW  Elec       q    Type
REMARK                         _______ _______ _______ _____ _____    ______ ____
ROOT
ATOM      1  C   UNL A   1     -27.391  -0.096  31.425  0.00  0.00    +0.249 C 
ATOM      2  O   UNL A   1     -27.769  -0.330  32.478  0.00  0.00    -0.270 OA
ATOM      3  N   UNL A   1     -28.315   0.440  30.425  0.00  0.00    -0.276 N 
ATOM      4  C   UNL A   1     -29.557   0.964  30.835  0.00  0.00    +0.094 C 
ATOM      5  C   UNL A   1     -27.912   0.705  29.038  0.00  0.00    +0.103 C 
ATOM      6  C   UNL A   1     -29.061   0.851  28.153  0.00  0.00    +0.098 C 
ATOM      7  C   UNL A   1     -30.589   0.957  29.870  0.00  0.00    +0.022 C 
ATOM      8  C   UNL A   1     -30.273   1.288  28.554  0.00  0.00    +0.013 C 
ENDROOT
BRANCH   1  10
ATOM      9  C   UNL A   1     -25.342  -0.443  30.329  0.00  0.00    +0.001 A 
ATOM     10  C   UNL A   1     -26.192  -0.913  30.737  0.00  0.00    +0.053 A 
ATOM     11  C   UNL A   1     -24.374  -1.358  29.612  0.00  0.00    -0.018 A 
ATOM     12  C   UNL A   1     -24.722  -2.711  29.412  0.00  0.00    -0.004 A 
ATOM     13  C   UNL A   1     -26.795  -2.261  30.645  0.00  0.00    +0.004 A 
ATOM     14  C   UNL A   1     -25.936  -3.130  29.987  0.00  0.00    -0.000 A 
ATOM     15  C   UNL A   1     -23.844  -3.622  28.761  0.00  0.00    -0.000 A 
ATOM     16  C   UNL A   1     -24.074  -4.668  28.481  0.00  0.00    -0.000 A 
ATOM     17  C   UNL A   1     -25.368  -5.240  28.992  0.00  0.00    -0.000 A 
ATOM     18  C   UNL A   1     -26.216  -4.512  29.761  0.00  0.00    -0.000 A 
BRANCH  11  19
ATOM     19  C   UNL A   1     -23.072  -0.869  29.081  0.00  0.00    +0.053 C 
BRANCH  19  20
ATOM     20  C   UNL A   1     -23.116   0.247  28.196  0.00  0.00    -0.018 A 
ATOM     21  C   UNL A   1     -22.067   0.983  28.114  0.00  0.00    -0.004 A 
ATOM     22  C   UNL A   1     -21.876   1.903  27.149  0.00  0.00    -0.000 A 
ATOM     23  C   UNL A   1     -22.981   2.005  26.166  0.00  0.00    -0.000 A 
ATOM     24  C   UNL A   1     -24.105   1.287  26.284  0.00  0.00    -0.000 A 
ATOM     25  C   UNL A   1     -24.174   0.323  27.258  0.00  0.00    -0.004 A 
ENDBRANCH  19  20
ENDBRANCH  11  19
ENDBRANCH   1  10
BRANCH   6  26
ATOM     26  C   UNL A   1     -28.676   0.819  26.681  0.00  0.00    +0.243 C 
ATOM     27  N   UNL A   1     -29.476   1.265  25.786  0.00  0.00    -0.201 NA
ATOM     28  O   UNL A   1     -27.703   0.149  26.352  0.00  0.00    -0.273 OA
BRANCH  27  29
ATOM     29  C   UNL A   1     -29.096   1.417  24.385  0.00  0.00    +0.141 C 
BRANCH  29  30
ATOM     30  C   UNL A   1     -30.138   1.312  23.528  0.00  0.00    -0.007 C 
ATOM     31  C   UNL A   1     -30.747   0.417  23.185  0.00  0.00    -0.021 C 
BRANCH  31  32
ATOM     32  C   UNL A   1     -30.375  -0.931  23.645  0.00  0.00    +0.087 C 
ATOM     33  C   UNL A   1     -29.072  -1.464  23.284  0.00  0.00    +0.013 C 
BRANCH  32  34
ATOM     34  C   UNL A   1     -31.296  -1.713  24.256  0.00  0.00    +0.211 C 
ATOM     35  O   UNL A   1     -30.934  -2.645  25.098  0.00  0.00    -0.288 OA
ENDBRANCH  32  34
ENDBRANCH  31  32
ENDBRANCH  29  30
ENDBRANCH  27  29
ENDBRANCH   6  26
TORSDOF 8
ENDMDL
ENDMDL
