MODEL 4948
MODEL 1
REMARK VINA RESULT:    -6.852      0.000      0.000
REMARK INTER + INTRA:         -12.084
REMARK INTER:                  -8.854
REMARK INTRA:                  -3.229
REMARK UNBOUND:                -3.229
REMARK  Name = No_4948-gen_results/8p0m/2024-11-27-11-27-31/
REMARK  5 active torsions:
REMARK  status: ('A' for Active; 'I' for Inactive)
REMARK    1  A    between atoms: C_13  and  C_14
REMARK    2  A    between atoms: N_16  and  C_17
REMARK    3  A    between atoms: C_18  and  C_23
REMARK    4  A    between atoms: C_23  and  C_24
REMARK    5  A    between atoms: C_24  and  C_26
REMARK                            x       y       z     vdW  Elec       q    Type
REMARK                         _______ _______ _______ _____ _____    ______ ____
ROOT
ATOM      1  C   UNL A   1     -27.606  -0.241  29.671  0.00  0.00    +0.253 C 
ATOM      2  O   UNL A   1     -27.839  -0.174  30.836  0.00  0.00    -0.272 OA
ATOM      3  N   UNL A   1     -26.787  -1.349  29.259  0.00  0.00    -0.179 NA
ENDROOT
BRANCH   1  16
ATOM      4  C   UNL A   1     -25.647   3.938  28.316  0.00  0.00    +0.030 A 
ATOM      5  C   UNL A   1     -26.457   3.915  27.642  0.00  0.00    +0.007 A 
ATOM      6  C   UNL A   1     -25.557   2.903  29.273  0.00  0.00    +0.140 A 
ATOM      7  C   UNL A   1     -26.496   1.893  29.347  0.00  0.00    +0.026 A 
ATOM      8  C   UNL A   1     -27.577   2.963  27.505  0.00  0.00    +0.052 A 
ATOM      9  C   UNL A   1     -27.530   1.956  28.404  0.00  0.00    -0.003 A 
ATOM     10  F   UNL A   1     -24.535   2.827  30.142  0.00  0.00    -0.204 F 
ATOM     11  C   UNL A   1     -28.658   3.063  26.485  0.00  0.00    +0.269 C 
ATOM     12  N   UNL A   1     -29.206   2.063  26.179  0.00  0.00    -0.174 NA
ATOM     13  O   UNL A   1     -29.101   4.206  26.257  0.00  0.00    -0.268 OA
ATOM     14  C   UNL A   1     -28.926   0.685  26.486  0.00  0.00    +0.085 C 
ATOM     15  C   UNL A   1     -28.654   0.150  27.685  0.00  0.00    +0.005 C 
ATOM     16  C   UNL A   1     -28.049   0.569  28.421  0.00  0.00    +0.124 C 
ENDBRANCH   1  16
BRANCH   3  17
ATOM     17  C   UNL A   1     -26.264  -2.278  30.198  0.00  0.00    +0.070 A 
ATOM     18  C   UNL A   1     -24.786  -2.338  29.976  0.00  0.00    +0.004 A 
ATOM     19  C   UNL A   1     -24.251  -3.423  29.658  0.00  0.00    -0.002 A 
ATOM     20  C   UNL A   1     -24.941  -4.390  29.079  0.00  0.00    -0.000 A 
ATOM     21  C   UNL A   1     -26.343  -4.485  29.367  0.00  0.00    +0.001 A 
ATOM     22  C   UNL A   1     -26.880  -3.551  30.101  0.00  0.00    +0.016 A 
BRANCH  18  23
ATOM     23  C   UNL A   1     -24.056  -1.093  30.080  0.00  0.00    +0.085 C 
ATOM     24 BR   UNL A   1     -23.478  -0.781  31.877  0.00  0.00    -0.076 Br
BRANCH  23  25
ATOM     25  C   UNL A   1     -23.058  -0.903  29.156  0.00  0.00    +0.042 C 
BRANCH  25  26
ATOM     26  C   UNL A   1     -23.294  -0.092  28.182  0.00  0.00    -0.021 A 
ATOM     27  C   UNL A   1     -22.393   1.024  28.034  0.00  0.00    -0.004 A 
ATOM     28  C   UNL A   1     -22.625   2.056  27.030  0.00  0.00    -0.000 A 
ATOM     29  C   UNL A   1     -23.720   1.840  26.181  0.00  0.00    -0.000 A 
ATOM     30  C   UNL A   1     -24.599   0.778  26.312  0.00  0.00    -0.000 A 
ATOM     31  C   UNL A   1     -24.355  -0.096  27.274  0.00  0.00    -0.004 A 
ENDBRANCH  25  26
ENDBRANCH  23  25
ENDBRANCH  18  23
ENDBRANCH   3  17
TORSDOF 5
ENDMDL
ENDMDL
