MODEL 4949
MODEL 1
REMARK VINA RESULT:    -5.349      0.000      0.000
REMARK INTER + INTRA:          -5.692
REMARK INTER:                  -5.662
REMARK INTRA:                  -0.030
REMARK UNBOUND:                -0.030
REMARK  Name = No_4949-gen_results/8p0m/2024-11-27-11-27-31/
REMARK  1 active torsions:
REMARK  status: ('A' for Active; 'I' for Inactive)
REMARK    1  A    between atoms: C_5  and  C_11
REMARK                            x       y       z     vdW  Elec       q    Type
REMARK                         _______ _______ _______ _____ _____    ______ ____
ROOT
ATOM      1  C   UNL A   1     -30.640  -9.755  29.606  0.00  0.00    +0.016 A 
ATOM      2  C   UNL A   1     -29.943 -10.318  30.418  0.00  0.00    -0.023 A 
ATOM      3  C   UNL A   1     -28.991 -11.279  30.082  0.00  0.00    -0.006 A 
ATOM      4  C   UNL A   1     -28.109 -12.022  31.003  0.00  0.00    +0.035 C 
ATOM      5  C   UNL A   1     -28.095 -11.562  32.355  0.00  0.00    +0.070 C 
ATOM      6  C   UNL A   1     -29.004 -10.566  32.727  0.00  0.00    +0.013 C 
ATOM      7  C   UNL A   1     -29.850  -9.974  31.855  0.00  0.00    +0.027 C 
ATOM      8  C   UNL A   1     -30.975 -10.472  28.339  0.00  0.00    +0.099 A 
ATOM      9  N   UNL A   1     -29.961 -11.237  27.799  0.00  0.00    -0.243 NA
ATOM     10  C   UNL A   1     -29.089 -11.913  28.714  0.00  0.00    +0.094 A 
ENDROOT
BRANCH   5  11
ATOM     11  C   UNL A   1     -27.162 -12.239  33.293  0.00  0.00    +0.207 C 
ATOM     12  O   UNL A   1     -27.395 -12.402  34.509  0.00  0.00    -0.288 OA
ENDBRANCH   5  11
TORSDOF 1
ENDMDL
ENDMDL
