REMARK  Name = outputs/IAG933/test6/raw/output_495_IAG933_linker_design_.xyz
REMARK  11 active torsions:
REMARK  status: ('A' for Active; 'I' for Inactive)
REMARK    1  A    between atoms: C_1  and  C_2
REMARK    2  A    between atoms: C_1  and  C_8
REMARK    3  A    between atoms: C_1  and  N_41
REMARK    4  A    between atoms: C_13  and  C_28
REMARK    5  A    between atoms: C_14  and  C_15
REMARK    6  A    between atoms: C_21  and  O_22
REMARK    7  A    between atoms: O_22  and  C_23
REMARK    8  A    between atoms: C_23  and  C_24
REMARK    9  A    between atoms: C_29  and  N_41
REMARK   10  A    between atoms: N_35  and  N_41
REMARK   11  A    between atoms: C_37  and  C_40
REMARK                            x       y       z     vdW  Elec       q    Type
REMARK                         _______ _______ _______ _____ _____    ______ ____
ROOT
ATOM      1  C   UNL A   1     -24.500   1.300  27.092  0.00  0.00    +0.050 A 
ATOM      2  C   UNL A   1     -24.223   0.546  28.291  0.00  0.00    +0.099 A 
ATOM      3  C   UNL A   1     -23.484   1.792  26.317  0.00  0.00    +0.171 A 
ATOM      4  F   UNL A   1     -21.314   2.332  25.849  0.00  0.00    -0.199 F 
ATOM      5  F   UNL A   1     -22.356  -0.154  29.749  0.00  0.00    -0.200 F 
ATOM      6  C   UNL A   1     -21.856   1.076  27.776  0.00  0.00    +0.198 A 
ATOM      7  F   UNL A   1     -23.622   2.251  24.999  0.00  0.00    -0.202 F 
ATOM      8  C   UNL A   1     -22.260   1.743  26.592  0.00  0.00    +0.197 A 
ATOM      9  C   UNL A   1     -22.799   0.484  28.638  0.00  0.00    +0.184 A 
ATOM     10  F   UNL A   1     -20.529   1.017  28.008  0.00  0.00    -0.199 F 
ENDROOT
BRANCH   1  11
ATOM     11  C   UNL A   1     -25.688   1.614  26.461  0.00  0.00    +0.042 C 
ATOM     12  C   UNL A   1     -26.250   2.920  26.395  0.00  0.00    +0.077 C 
ATOM     13  C   UNL A   1     -27.438   3.091  25.645  0.00  0.00    +0.107 C 
ATOM     14  N   UNL A   1     -28.075   2.089  25.003  0.00  0.00    -0.208 NA
ATOM     15  C   UNL A   1     -27.543   0.849  25.079  0.00  0.00    +0.253 C 
ATOM     16  C   UNL A   1     -26.354   0.576  25.777  0.00  0.00    +0.193 C 
ATOM     17  F   UNL A   1     -25.860  -0.681  25.795  0.00  0.00    -0.199 F 
BRANCH  12  18
ATOM     18  C   UNL A   1     -25.642   4.093  27.123  0.00  0.00    +0.266 C 
ATOM     19  N   UNL A   1     -25.614   5.252  26.449  0.00  0.00    -0.200 NA
ATOM     20  C   UNL A   1     -25.026   6.479  26.963  0.00  0.00    +0.139 C 
ATOM     21  O   UNL A   1     -25.143   3.966  28.243  0.00  0.00    -0.268 OA
ENDBRANCH  12  18
BRANCH  15  22
ATOM     22  O   UNL A   1     -28.193  -0.208  24.477  0.00  0.00    -0.456 OA
BRANCH  22  23
ATOM     23  C   UNL A   1     -29.460   0.005  23.866  0.00  0.00    +0.243 C 
BRANCH  23  24
ATOM     24  C   UNL A   1     -30.065  -1.377  23.573  0.00  0.00    +0.229 C 
ATOM     25  O   UNL A   1     -30.729  -1.878  24.721  0.00  0.00    -0.216 OA
ENDBRANCH  23  24
ENDBRANCH  22  23
ENDBRANCH  15  22
ENDBRANCH   1  11
BRANCH   2  26
ATOM     26  N   UNL A   1     -25.222  -0.149  29.015  0.00  0.00    -0.212 N 
BRANCH  26  27
ATOM     27  N   UNL A   1     -26.603  -0.200  28.614  0.00  0.00    -0.109 NA
ATOM     28  O   UNL A   1     -28.879  -0.345  28.726  0.00  0.00    -0.272 OA
ATOM     29  C   UNL A   1     -27.902   0.320  28.903  0.00  0.00    +0.259 C 
BRANCH  29  31
ATOM     30  C   UNL A   1     -29.182   1.950  30.299  0.00  0.00    +0.010 C 
ATOM     31  C   UNL A   1     -27.971   1.648  29.561  0.00  0.00    +0.088 C 
ENDBRANCH  29  31
ENDBRANCH  26  27
BRANCH  26  32
ATOM     32  C   UNL A   1     -24.855  -1.012  30.143  0.00  0.00    +0.132 C 
BRANCH  32  33
ATOM     33  C   UNL A   1     -24.973  -2.505  29.788  0.00  0.00    -0.001 C 
ATOM     34  C   UNL A   1     -23.906  -3.173  29.146  0.00  0.00    -0.003 C 
ATOM     35  C   UNL A   1     -23.989  -4.549  28.853  0.00  0.00    -0.000 C 
ATOM     36  C   UNL A   1     -25.137  -5.280  29.205  0.00  0.00    -0.000 C 
ATOM     37  C   UNL A   1     -26.232  -4.611  29.784  0.00  0.00    -0.000 C 
ATOM     38  C   UNL A   1     -26.155  -3.232  30.065  0.00  0.00    -0.003 C 
ENDBRANCH  32  33
BRANCH  32  39
ATOM     39  C   UNL A   1     -25.387  -0.679  31.571  0.00  0.00    +0.097 C 
ATOM     40  C   UNL A   1     -25.189   0.773  32.028  0.00  0.00    +0.021 C 
ATOM     41  C   UNL A   1     -25.336   0.684  33.544  0.00  0.00    +0.020 C 
ATOM     42  C   UNL A   1     -24.829  -0.715  33.905  0.00  0.00    +0.089 C 
ATOM     43  N   UNL A   1     -24.758  -1.481  32.646  0.00  0.00    -0.217 NA
ENDBRANCH  32  39
ENDBRANCH  26  32
ENDBRANCH   2  26
TORSDOF 11
