MODEL 4950
MODEL 1
REMARK VINA RESULT:    -6.517      0.000      0.000
REMARK INTER + INTRA:          -7.275
REMARK INTER:                  -6.898
REMARK INTRA:                  -0.377
REMARK UNBOUND:                -0.377
REMARK  Name = No_4950-gen_results/8p0m/2024-11-27-11-27-31/
REMARK  1 active torsions:
REMARK  status: ('A' for Active; 'I' for Inactive)
REMARK    1  A    between atoms: C_4  and  C_7
REMARK                            x       y       z     vdW  Elec       q    Type
REMARK                         _______ _______ _______ _____ _____    ______ ____
ROOT
ATOM      1  C   UNL A   1     -21.749   0.015  28.757  0.00  0.00    +0.000 A 
ATOM      2  C   UNL A   1     -22.228   0.778  28.210  0.00  0.00    +0.000 A 
ATOM      3  C   UNL A   1     -22.557  -1.171  29.081  0.00  0.00    +0.000 A 
ATOM      4  C   UNL A   1     -23.871  -1.320  28.549  0.00  0.00    +0.000 A 
ATOM      5  C   UNL A   1     -24.341  -0.269  27.803  0.00  0.00    +0.000 A 
ATOM      6  C   UNL A   1     -23.564   0.809  27.558  0.00  0.00    +0.000 A 
ENDROOT
BRANCH   4   7
ATOM      7  C   UNL A   1     -24.671  -2.482  28.840  0.00  0.00    +0.000 A 
ATOM      8  C   UNL A   1     -25.577  -2.524  29.301  0.00  0.00    +0.000 A 
ATOM      9  C   UNL A   1     -26.326  -3.779  29.797  0.00  0.00    +0.000 A 
ATOM     10  C   UNL A   1     -25.662  -4.943  29.461  0.00  0.00    +0.000 A 
ATOM     11  C   UNL A   1     -23.983  -3.785  28.542  0.00  0.00    +0.000 A 
ATOM     12  C   UNL A   1     -24.496  -4.945  28.891  0.00  0.00    +0.000 A 
ENDBRANCH   4   7
TORSDOF 1
ENDMDL
ENDMDL
