MODEL 4952
MODEL 1
REMARK VINA RESULT:    -5.142      0.000      0.000
REMARK INTER + INTRA:          -5.525
REMARK INTER:                  -5.442
REMARK INTRA:                  -0.083
REMARK UNBOUND:                -0.083
REMARK  Name = No_4952-gen_results/8p0m/2024-11-27-11-27-31/
REMARK  1 active torsions:
REMARK  status: ('A' for Active; 'I' for Inactive)
REMARK    1  A    between atoms: C_5  and  C_8
REMARK                            x       y       z     vdW  Elec       q    Type
REMARK                         _______ _______ _______ _____ _____    ______ ____
ROOT
ATOM      1  C   UNL A   1     -24.889  -4.002  29.284  0.00  0.00    +0.206 A 
ATOM      2  C   UNL A   1     -25.923  -3.510  29.674  0.00  0.00    +0.097 A 
ATOM      3  C   UNL A   1     -26.084  -2.160  29.918  0.00  0.00    +0.015 A 
ATOM      4  C   UNL A   1     -24.981  -1.300  29.658  0.00  0.00    +0.006 A 
ATOM      5  C   UNL A   1     -23.907  -1.871  29.064  0.00  0.00    +0.058 A 
ATOM      6  C   UNL A   1     -23.856  -3.168  28.830  0.00  0.00    +0.048 A 
ATOM      7  O   UNL A   1     -24.807  -5.363  29.017  0.00  0.00    -0.286 OA
ATOM      8 CL   UNL A   1     -27.347  -4.540  30.164  0.00  0.00    -0.079 Cl
ENDROOT
BRANCH   5   9
ATOM      9  C   UNL A   1     -22.781  -0.962  28.772  0.00  0.00    +0.265 C 
ATOM     10  O   UNL A   1     -21.758  -1.198  29.110  0.00  0.00    -0.268 OA
ATOM     11  N   UNL A   1     -23.051   0.288  28.176  0.00  0.00    -0.200 NA
ATOM     12  C   UNL A   1     -21.993   1.240  27.846  0.00  0.00    +0.139 C 
ENDBRANCH   5   9
TORSDOF 1
ENDMDL
ENDMDL
