MODEL 4953
MODEL 1
REMARK VINA RESULT:    -4.692      0.000      0.000
REMARK INTER + INTRA:          -4.777
REMARK INTER:                  -4.967
REMARK INTRA:                   0.190
REMARK UNBOUND:                 0.190
REMARK  Name = No_4953-gen_results/8p0m/2024-11-27-11-27-31/
REMARK  1 active torsions:
REMARK  status: ('A' for Active; 'I' for Inactive)
REMARK    1  A    between atoms: C_2  and  N_7
REMARK                            x       y       z     vdW  Elec       q    Type
REMARK                         _______ _______ _______ _____ _____    ______ ____
ROOT
ATOM      1  C   UNL A   1     -23.923  -3.392  28.736  0.00  0.00    +0.019 A 
ATOM      2  C   UNL A   1     -24.786  -2.653  29.151  0.00  0.00    +0.081 A 
ATOM      3  C   UNL A   1     -25.982  -3.155  29.653  0.00  0.00    +0.019 A 
ATOM      4  C   UNL A   1     -26.249  -4.570  29.652  0.00  0.00    +0.002 A 
ATOM      5  C   UNL A   1     -25.208  -5.350  29.132  0.00  0.00    +0.000 A 
ATOM      6  C   UNL A   1     -24.103  -4.825  28.654  0.00  0.00    +0.002 A 
ENDROOT
BRANCH   2   7
ATOM      7  N   UNL A   1     -24.523  -1.297  29.052  0.00  0.00    -0.248 NA
ATOM      8  C   UNL A   1     -23.968  -0.693  30.092  0.00  0.00    +0.073 C 
ATOM      9  C   UNL A   1     -23.750  -1.388  31.346  0.00  0.00    +0.053 C 
ENDBRANCH   2   7
TORSDOF 1
ENDMDL
ENDMDL
