REMARK  Name = outputs/IAG933/test6/raw/output_4954_IAG933_linker_design_.xyz
REMARK  11 active torsions:
REMARK  status: ('A' for Active; 'I' for Inactive)
REMARK    1  A    between atoms: C_1  and  C_2
REMARK    2  A    between atoms: C_1  and  C_8
REMARK    3  A    between atoms: C_1  and  C_46
REMARK    4  A    between atoms: C_13  and  C_33
REMARK    5  A    between atoms: C_14  and  C_15
REMARK    6  A    between atoms: C_21  and  O_22
REMARK    7  A    between atoms: O_22  and  C_23
REMARK    8  A    between atoms: C_23  and  C_24
REMARK    9  A    between atoms: C_30  and  C_45
REMARK   10  A    between atoms: C_35  and  C_45
REMARK   11  A    between atoms: C_36  and  C_41
REMARK                            x       y       z     vdW  Elec       q    Type
REMARK                         _______ _______ _______ _____ _____    ______ ____
ROOT
ATOM      1  O   UNL A   1     -21.469   2.039  26.227  0.00  0.00    -0.439 OA
ATOM      2  C   UNL A   1     -21.265   1.427  27.552  0.00  0.00    +0.254 C 
ATOM      3  C   UNL A   1     -24.869   1.306  27.499  0.00  0.00    -0.002 A 
ATOM      4  C   UNL A   1     -22.869   1.950  25.922  0.00  0.00    +0.343 C 
ATOM      5  C   UNL A   1     -25.289   0.914  28.692  0.00  0.00    +0.063 A 
ATOM      6  O   UNL A   1     -23.369   2.096  24.711  0.00  0.00    -0.245 OA
ATOM      7  C   UNL A   1     -23.505   1.488  27.115  0.00  0.00    +0.089 A 
ATOM      8  C   UNL A   1     -22.621   1.005  27.987  0.00  0.00    +0.108 A 
ATOM      9  N   UNL A   1     -23.083   0.100  28.966  0.00  0.00    -0.250 NA
ATOM     10  C   UNL A   1     -24.437   0.003  29.187  0.00  0.00    +0.068 A 
ENDROOT
BRANCH   3  11
ATOM     11  C   UNL A   1     -25.688   1.614  26.461  0.00  0.00    +0.093 C 
ATOM     12  C   UNL A   1     -26.250   2.920  26.395  0.00  0.00    +0.059 C 
ATOM     13  C   UNL A   1     -27.438   3.091  25.645  0.00  0.00    +0.102 C 
ATOM     14  N   UNL A   1     -28.075   2.089  25.003  0.00  0.00    -0.212 NA
ATOM     15  C   UNL A   1     -27.543   0.849  25.079  0.00  0.00    +0.234 C 
ATOM     16  C   UNL A   1     -26.354   0.576  25.777  0.00  0.00    +0.244 C 
ATOM     17  F   UNL A   1     -25.860  -0.681  25.795  0.00  0.00    -0.227 F 
BRANCH  12  18
ATOM     18  C   UNL A   1     -25.642   4.093  27.123  0.00  0.00    +0.263 C 
ATOM     19  N   UNL A   1     -25.614   5.252  26.449  0.00  0.00    -0.200 NA
ATOM     20  C   UNL A   1     -25.026   6.479  26.963  0.00  0.00    +0.139 C 
ATOM     21  O   UNL A   1     -25.143   3.966  28.243  0.00  0.00    -0.269 OA
ENDBRANCH  12  18
BRANCH  15  22
ATOM     22  O   UNL A   1     -28.193  -0.208  24.477  0.00  0.00    -0.459 OA
BRANCH  22  23
ATOM     23  C   UNL A   1     -29.460   0.005  23.866  0.00  0.00    +0.242 C 
BRANCH  23  24
ATOM     24  C   UNL A   1     -30.065  -1.377  23.573  0.00  0.00    +0.229 C 
ATOM     25  O   UNL A   1     -30.729  -1.878  24.721  0.00  0.00    -0.216 OA
ENDBRANCH  23  24
ENDBRANCH  22  23
ENDBRANCH  15  22
ENDBRANCH   3  11
BRANCH   5  29
ATOM     26  C   UNL A   1     -27.552   3.643  30.626  0.00  0.00    +0.232 C 
ATOM     27  C   UNL A   1     -28.601   2.885  29.619  0.00  0.00    +0.161 C 
ATOM     28  O   UNL A   1     -26.347   2.934  30.586  0.00  0.00    -0.458 OA
ATOM     29  C   UNL A   1     -26.513   1.535  29.434  0.00  0.00    +0.221 C 
ATOM     30  N   UNL A   1     -27.644   2.029  29.121  0.00  0.00    -0.235 NA
BRANCH  27  31
ATOM     31  C   UNL A   1     -29.621   2.578  28.271  0.00  0.00    +0.142 C 
BRANCH  31  33
ATOM     32  O   UNL A   1     -31.132   0.717  28.527  0.00  0.00    -0.246 OA
ATOM     33  C   UNL A   1     -30.063   1.186  27.754  0.00  0.00    +0.367 C 
ATOM     34  O   UNL A   1     -29.427  -0.008  27.460  0.00  0.00    -0.246 OA
ENDBRANCH  31  33
ENDBRANCH  27  31
ENDBRANCH   5  29
BRANCH  10  35
ATOM     35  C   UNL A   1     -24.855  -1.012  30.143  0.00  0.00    +0.079 C 
BRANCH  35  36
ATOM     36  C   UNL A   1     -24.973  -2.505  29.788  0.00  0.00    -0.015 C 
ATOM     37  C   UNL A   1     -23.906  -3.173  29.146  0.00  0.00    -0.004 C 
ATOM     38  C   UNL A   1     -23.989  -4.549  28.853  0.00  0.00    -0.000 C 
ATOM     39  C   UNL A   1     -25.137  -5.280  29.205  0.00  0.00    -0.000 C 
ATOM     40  C   UNL A   1     -26.232  -4.611  29.784  0.00  0.00    -0.000 C 
ATOM     41  C   UNL A   1     -26.155  -3.232  30.065  0.00  0.00    -0.004 C 
ENDBRANCH  35  36
BRANCH  35  42
ATOM     42  C   UNL A   1     -25.387  -0.679  31.571  0.00  0.00    +0.082 C 
ATOM     43  C   UNL A   1     -25.189   0.773  32.028  0.00  0.00    +0.020 C 
ATOM     44  C   UNL A   1     -25.336   0.684  33.544  0.00  0.00    +0.020 C 
ATOM     45  C   UNL A   1     -24.829  -0.715  33.905  0.00  0.00    +0.089 C 
ATOM     46  N   UNL A   1     -24.758  -1.481  32.646  0.00  0.00    -0.219 NA
ENDBRANCH  35  42
ENDBRANCH  10  35
TORSDOF 11
