MODEL 4954
MODEL 1
REMARK VINA RESULT:    -4.307      0.000      0.000
REMARK INTER + INTRA:          -4.307
REMARK INTER:                  -4.307
REMARK INTRA:                   0.000
REMARK UNBOUND:                 0.000
REMARK  Name = No_4954-gen_results/8p0m/2024-11-27-11-27-31/
REMARK  0 active torsions:
REMARK  status: ('A' for Active; 'I' for Inactive)
REMARK                            x       y       z     vdW  Elec       q    Type
REMARK                         _______ _______ _______ _____ _____    ______ ____
ROOT
ATOM      1  C   UNL A   1     -24.942  -5.424  28.975  0.00  0.00    +0.000 A 
ATOM      2  C   UNL A   1     -24.180  -4.749  28.703  0.00  0.00    +0.000 A 
ATOM      3  C   UNL A   1     -26.094  -4.783  29.607  0.00  0.00    +0.000 A 
ATOM      4  C   UNL A   1     -26.160  -3.425  29.798  0.00  0.00    +0.000 A 
ATOM      5  C   UNL A   1     -23.981  -3.302  28.775  0.00  0.00    +0.000 A 
ATOM      6  C   UNL A   1     -25.091  -2.671  29.385  0.00  0.00    +0.000 A 
ENDROOT
TORSDOF 0
ENDMDL
ENDMDL
