MODEL 4955
MODEL 1
REMARK VINA RESULT:    -6.753      0.000      0.000
REMARK INTER + INTRA:         -10.223
REMARK INTER:                  -9.517
REMARK INTRA:                  -0.706
REMARK UNBOUND:                -0.706
REMARK  Name = No_4955-gen_results/8p0m/2024-11-27-11-27-31/
REMARK  7 active torsions:
REMARK  status: ('A' for Active; 'I' for Inactive)
REMARK    1  A    between atoms: C_2  and  O_14
REMARK    2  A    between atoms: C_9  and  C_11
REMARK    3  A    between atoms: O_14  and  C_15
REMARK    4  A    between atoms: C_15  and  C_16
REMARK    5  A    between atoms: C_17  and  C_18
REMARK    6  A    between atoms: C_19  and  C_20
REMARK    7  A    between atoms: C_21  and  C_22
REMARK                            x       y       z     vdW  Elec       q    Type
REMARK                         _______ _______ _______ _____ _____    ______ ____
ROOT
ATOM      1  C   UNL A   1     -25.953   2.467  25.889  0.00  0.00    +0.037 A 
ATOM      2  C   UNL A   1     -25.039   1.953  25.995  0.00  0.00    +0.139 A 
ATOM      3  C   UNL A   1     -26.914   1.781  25.026  0.00  0.00    +0.003 A 
ATOM      4  C   UNL A   1     -26.635   0.571  24.439  0.00  0.00    +0.000 A 
ATOM      5  C   UNL A   1     -24.479   0.691  25.511  0.00  0.00    +0.037 A 
ATOM      6  C   UNL A   1     -25.402   0.019  24.675  0.00  0.00    +0.003 A 
ATOM      7  C   UNL A   1     -28.297   2.206  24.619  0.00  0.00    +0.000 A 
ATOM      8  C   UNL A   1     -29.296   1.563  24.735  0.00  0.00    +0.007 A 
ATOM      9  C   UNL A   1     -29.169   0.102  24.538  0.00  0.00    +0.080 A 
ATOM     10  C   UNL A   1     -27.809  -0.391  24.395  0.00  0.00    +0.007 A 
ENDROOT
BRANCH   9  11
ATOM     11  C   UNL A   1     -30.338  -0.687  24.224  0.00  0.00    +0.388 C 
ATOM     12  O   UNL A   1     -31.215  -0.217  23.615  0.00  0.00    -0.241 OA
ATOM     13  O   UNL A   1     -30.323  -2.011  24.350  0.00  0.00    -0.241 OA
ENDBRANCH   9  11
BRANCH   2  14
ATOM     14  O   UNL A   1     -23.968   2.677  26.750  0.00  0.00    -0.471 OA
BRANCH  14  15
ATOM     15  C   UNL A   1     -23.013   2.153  27.229  0.00  0.00    +0.232 C 
BRANCH  15  16
ATOM     16  C   UNL A   1     -22.959   1.449  28.154  0.00  0.00    +0.021 C 
ATOM     17  C   UNL A   1     -22.427   0.362  28.314  0.00  0.00    -0.001 C 
BRANCH  17  18
ATOM     18  C   UNL A   1     -22.285  -0.587  29.270  0.00  0.00    -0.000 C 
ATOM     19  C   UNL A   1     -23.180  -1.633  29.653  0.00  0.00    -0.000 C 
BRANCH  19  20
ATOM     20  C   UNL A   1     -24.408  -1.645  29.031  0.00  0.00    -0.000 C 
ATOM     21  C   UNL A   1     -24.931  -2.868  28.596  0.00  0.00    -0.000 C 
BRANCH  21  22
ATOM     22  C   UNL A   1     -24.172  -3.953  28.659  0.00  0.00    +0.000 C 
ATOM     23  C   UNL A   1     -24.613  -5.230  28.963  0.00  0.00    +0.000 C 
ENDBRANCH  21  22
ENDBRANCH  19  20
ENDBRANCH  17  18
ENDBRANCH  15  16
ENDBRANCH  14  15
ENDBRANCH   2  14
TORSDOF 7
ENDMDL
ENDMDL
