REMARK  Name = No_4957-gen_results/8p0m/2024-11-27-11-27-31/
REMARK  1 active torsions:
REMARK  status: ('A' for Active; 'I' for Inactive)
REMARK    1  A    between atoms: C_3  and  C_9
REMARK                            x       y       z     vdW  Elec       q    Type
REMARK                         _______ _______ _______ _____ _____    ______ ____
ROOT
ATOM      1  C   UNL A   1     -28.016  -0.814  28.878  0.00  0.00    +0.053 A 
ATOM      2  C   UNL A   1     -27.064  -0.119  28.608  0.00  0.00    +0.061 A 
ATOM      3  C   UNL A   1     -25.792  -0.430  29.076  0.00  0.00    +0.011 A 
ATOM      4  C   UNL A   1     -25.576  -1.565  29.936  0.00  0.00    +0.004 A 
ATOM      5  C   UNL A   1     -26.735  -2.300  30.217  0.00  0.00    +0.042 A 
ATOM      6  C   UNL A   1     -27.918  -1.954  29.763  0.00  0.00    +0.197 A 
ATOM      7 CL   UNL A   1     -27.146   1.292  27.641  0.00  0.00    -0.082 Cl
ATOM      8  O   UNL A   1     -29.001  -2.714  30.114  0.00  0.00    -0.286 OA
ENDROOT
BRANCH   3   9
ATOM      9  C   UNL A   1     -24.517   0.358  28.766  0.00  0.00    +0.001 A 
ATOM     10  C   UNL A   1     -23.400  -0.004  28.861  0.00  0.00    +0.000 A 
ATOM     11  C   UNL A   1     -22.222   0.779  28.515  0.00  0.00    +0.000 A 
ATOM     12  C   UNL A   1     -22.475   1.837  27.613  0.00  0.00    +0.000 A 
ATOM     13  C   UNL A   1     -23.771   2.268  27.375  0.00  0.00    +0.000 A 
ATOM     14  C   UNL A   1     -24.784   1.535  27.884  0.00  0.00    +0.000 A 
ENDBRANCH   3   9
TORSDOF 1
