MODEL 4957
MODEL 1
REMARK VINA RESULT:    -6.621      0.000      0.000
REMARK INTER + INTRA:          -7.494
REMARK INTER:                  -7.008
REMARK INTRA:                  -0.486
REMARK UNBOUND:                -0.486
REMARK  Name = No_4957-gen_results/8p0m/2024-11-27-11-27-31/
REMARK  1 active torsions:
REMARK  status: ('A' for Active; 'I' for Inactive)
REMARK    1  A    between atoms: C_3  and  C_9
REMARK                            x       y       z     vdW  Elec       q    Type
REMARK                         _______ _______ _______ _____ _____    ______ ____
ROOT
ATOM      1  C   UNL A   1     -22.673   0.561  29.536  0.00  0.00    +0.053 A 
ATOM      2  C   UNL A   1     -23.194  -0.474  29.882  0.00  0.00    +0.061 A 
ATOM      3  C   UNL A   1     -24.077  -1.149  29.045  0.00  0.00    +0.011 A 
ATOM      4  C   UNL A   1     -24.434  -0.611  27.757  0.00  0.00    +0.004 A 
ATOM      5  C   UNL A   1     -23.803   0.601  27.447  0.00  0.00    +0.042 A 
ATOM      6  C   UNL A   1     -22.989   1.207  28.281  0.00  0.00    +0.197 A 
ATOM      7 CL   UNL A   1     -22.923  -1.229  31.395  0.00  0.00    -0.082 Cl
ATOM      8  O   UNL A   1     -22.443   2.405  27.907  0.00  0.00    -0.286 OA
ENDROOT
BRANCH   3   9
ATOM      9  C   UNL A   1     -24.761  -2.479  29.368  0.00  0.00    +0.001 A 
ATOM     10  C   UNL A   1     -25.887  -2.662  29.662  0.00  0.00    +0.000 A 
ATOM     11  C   UNL A   1     -26.496  -3.959  29.923  0.00  0.00    +0.000 A 
ATOM     12  C   UNL A   1     -25.800  -5.049  29.354  0.00  0.00    +0.000 A 
ATOM     13  C   UNL A   1     -24.499  -4.898  28.900  0.00  0.00    +0.000 A 
ATOM     14  C   UNL A   1     -23.989  -3.649  28.850  0.00  0.00    +0.000 A 
ENDBRANCH   3   9
TORSDOF 1
ENDMDL
ENDMDL
