MODEL 4959
MODEL 1
REMARK VINA RESULT:    -5.408      0.000      0.000
REMARK INTER + INTRA:          -6.083
REMARK INTER:                  -5.724
REMARK INTRA:                  -0.359
REMARK UNBOUND:                -0.359
REMARK  Name = No_4959-gen_results/8p0m/2024-11-27-11-27-31/
REMARK  1 active torsions:
REMARK  status: ('A' for Active; 'I' for Inactive)
REMARK    1  A    between atoms: C_3  and  C_4
REMARK                            x       y       z     vdW  Elec       q    Type
REMARK                         _______ _______ _______ _____ _____    ______ ____
ROOT
ATOM      1  C   UNL A   1     -24.937  -2.816  29.278  0.00  0.00    +0.032 A 
ATOM      2  C   UNL A   1     -26.071  -3.350  29.769  0.00  0.00    +0.002 A 
ATOM      3  C   UNL A   1     -26.088  -4.732  29.661  0.00  0.00    +0.000 A 
ATOM      4  C   UNL A   1     -25.096  -5.437  28.980  0.00  0.00    +0.000 A 
ATOM      5  C   UNL A   1     -24.012  -4.809  28.485  0.00  0.00    +0.000 A 
ATOM      6  C   UNL A   1     -23.878  -3.429  28.686  0.00  0.00    +0.002 A 
ENDROOT
BRANCH   1   9
ATOM      7  F   UNL A   1     -23.645  -1.773  31.405  0.00  0.00    -0.170 F 
ATOM      8  C   UNL A   1     -24.293  -1.064  30.782  0.00  0.00    +0.306 C 
ATOM      9  C   UNL A   1     -24.641  -1.483  29.568  0.00  0.00    +0.196 C 
ATOM     10  F   UNL A   1     -25.415  -0.627  31.362  0.00  0.00    -0.170 F 
ATOM     11  F   UNL A   1     -23.628  -0.964  28.664  0.00  0.00    -0.199 F 
ENDBRANCH   1   9
TORSDOF 1
ENDMDL
ENDMDL
