MODEL 495
MODEL 1
REMARK VINA RESULT:    -6.043      0.000      0.000
REMARK INTER + INTRA:          -6.998
REMARK INTER:                  -6.750
REMARK INTRA:                  -0.248
REMARK UNBOUND:                -0.248
REMARK  Name = No_495-gen_results/8p0m/2024-11-27-11-27-31/
REMARK  2 active torsions:
REMARK  status: ('A' for Active; 'I' for Inactive)
REMARK    1  A    between atoms: C_2  and  C_7
REMARK    2  A    between atoms: N_9  and  C_10
REMARK                            x       y       z     vdW  Elec       q    Type
REMARK                         _______ _______ _______ _____ _____    ______ ____
ROOT
ATOM      1  C   UNL A   1     -29.839 -14.638  12.432  0.00  0.00    +0.269 C 
ATOM      2  O   UNL A   1     -29.502 -15.362  13.169  0.00  0.00    -0.268 OA
ATOM      3  N   UNL A   1     -29.498 -13.283  12.507  0.00  0.00    -0.175 NA
ENDROOT
BRANCH   1   5
ATOM      4  C   UNL A   1     -31.552 -14.828  10.938  0.00  0.00    +0.005 A 
ATOM      5  C   UNL A   1     -30.510 -14.962  11.009  0.00  0.00    +0.055 A 
ATOM      6  C   UNL A   1     -32.160 -15.153   9.592  0.00  0.00    +0.000 A 
ATOM      7  C   UNL A   1     -31.352 -15.733   8.591  0.00  0.00    +0.000 A 
ATOM      8  C   UNL A   1     -29.466 -15.569  10.152  0.00  0.00    +0.005 A 
ATOM      9  C   UNL A   1     -29.989 -15.887   8.906  0.00  0.00    +0.000 A 
ENDBRANCH   1   5
BRANCH   3  10
ATOM     10  C   UNL A   1     -29.764 -12.280  11.573  0.00  0.00    +0.074 A 
ATOM     11  C   UNL A   1     -29.134 -11.945  10.635  0.00  0.00    +0.017 A 
ATOM     12  C   UNL A   1     -29.475 -10.875   9.668  0.00  0.00    +0.001 A 
ATOM     13  C   UNL A   1     -30.636 -10.109   9.964  0.00  0.00    +0.000 A 
ATOM     14  C   UNL A   1     -30.941 -11.445  11.911  0.00  0.00    +0.017 A 
ATOM     15  C   UNL A   1     -31.396 -10.456  11.043  0.00  0.00    +0.001 A 
ENDBRANCH   3  10
TORSDOF 2
ENDMDL
ENDMDL
