REMARK  Name = outputs/IAG933/test6/raw/output_496_IAG933_linker_design_.xyz
REMARK  11 active torsions:
REMARK  status: ('A' for Active; 'I' for Inactive)
REMARK    1  A    between atoms: C_1  and  C_2
REMARK    2  A    between atoms: C_1  and  C_8
REMARK    3  A    between atoms: C_1  and  N_34
REMARK    4  A    between atoms: C_13  and  C_36
REMARK    5  A    between atoms: C_14  and  C_15
REMARK    6  A    between atoms: C_21  and  O_22
REMARK    7  A    between atoms: O_22  and  C_23
REMARK    8  A    between atoms: C_23  and  C_24
REMARK    9  A    between atoms: C_28  and  C_35
REMARK   10  A    between atoms: N_31  and  C_32
REMARK   11  A    between atoms: N_31  and  C_40
REMARK                            x       y       z     vdW  Elec       q    Type
REMARK                         _______ _______ _______ _____ _____    ______ ____
ROOT
ATOM      1  C   UNL A   1     -24.788   1.121  28.725  0.00  0.00    +0.193 C 
ATOM      2  C   UNL A   1     -22.474   0.759  27.910  0.00  0.00    +0.051 C 
ATOM      3  N   UNL A   1     -24.233   0.037  29.343  0.00  0.00    -0.263 N 
ATOM      4  C   UNL A   1     -23.241   1.342  26.908  0.00  0.00    +0.071 C 
ATOM      5  C   UNL A   1     -24.567   1.407  27.202  0.00  0.00    +0.024 C 
ATOM      6  C   UNL A   1     -23.057   0.174  29.020  0.00  0.00    +0.194 C 
ATOM      7  F   UNL A   1     -22.224  -0.437  29.955  0.00  0.00    -0.188 F 
ENDROOT
BRANCH   5   8
ATOM      8  C   UNL A   1     -25.688   1.614  26.461  0.00  0.00    +0.037 C 
ATOM      9  C   UNL A   1     -26.250   2.920  26.395  0.00  0.00    +0.076 C 
ATOM     10  C   UNL A   1     -27.438   3.091  25.645  0.00  0.00    +0.107 C 
ATOM     11  N   UNL A   1     -28.075   2.089  25.003  0.00  0.00    -0.208 NA
ATOM     12  C   UNL A   1     -27.543   0.849  25.079  0.00  0.00    +0.253 C 
ATOM     13  C   UNL A   1     -26.354   0.576  25.777  0.00  0.00    +0.193 C 
ATOM     14  F   UNL A   1     -25.860  -0.681  25.795  0.00  0.00    -0.199 F 
BRANCH   9  15
ATOM     15  C   UNL A   1     -25.642   4.093  27.123  0.00  0.00    +0.266 C 
ATOM     16  N   UNL A   1     -25.614   5.252  26.449  0.00  0.00    -0.200 NA
ATOM     17  C   UNL A   1     -25.026   6.479  26.963  0.00  0.00    +0.139 C 
ATOM     18  O   UNL A   1     -25.143   3.966  28.243  0.00  0.00    -0.268 OA
ENDBRANCH   9  15
BRANCH  12  19
ATOM     19  O   UNL A   1     -28.193  -0.208  24.477  0.00  0.00    -0.456 OA
BRANCH  19  20
ATOM     20  C   UNL A   1     -29.460   0.005  23.866  0.00  0.00    +0.243 C 
BRANCH  20  21
ATOM     21  C   UNL A   1     -30.065  -1.377  23.573  0.00  0.00    +0.229 C 
ATOM     22  O   UNL A   1     -30.729  -1.878  24.721  0.00  0.00    -0.216 OA
ENDBRANCH  20  21
ENDBRANCH  19  20
ENDBRANCH  12  19
ENDBRANCH   5   8
BRANCH   4  23
ATOM     23  C   UNL A   1     -22.732   1.832  25.638  0.00  0.00    +0.333 C 
ATOM     24  O   UNL A   1     -23.348   1.861  24.612  0.00  0.00    -0.254 OA
ATOM     25  F   UNL A   1     -21.478   2.245  25.605  0.00  0.00    -0.159 F 
ENDBRANCH   4  23
BRANCH   3  26
ATOM     26  C   UNL A   1     -24.855  -1.012  30.143  0.00  0.00    +0.115 C 
BRANCH  26  27
ATOM     27  C   UNL A   1     -24.973  -2.505  29.788  0.00  0.00    -0.003 C 
ATOM     28  C   UNL A   1     -23.906  -3.173  29.146  0.00  0.00    -0.003 C 
ATOM     29  C   UNL A   1     -23.989  -4.549  28.853  0.00  0.00    -0.000 C 
ATOM     30  C   UNL A   1     -25.137  -5.280  29.205  0.00  0.00    -0.000 C 
ATOM     31  C   UNL A   1     -26.232  -4.611  29.784  0.00  0.00    -0.000 C 
ATOM     32  C   UNL A   1     -26.155  -3.232  30.065  0.00  0.00    -0.003 C 
ENDBRANCH  26  27
BRANCH  26  33
ATOM     33  C   UNL A   1     -25.387  -0.679  31.571  0.00  0.00    +0.095 C 
ATOM     34  C   UNL A   1     -25.189   0.773  32.028  0.00  0.00    +0.021 C 
ATOM     35  C   UNL A   1     -25.336   0.684  33.544  0.00  0.00    +0.020 C 
ATOM     36  C   UNL A   1     -24.829  -0.715  33.905  0.00  0.00    +0.089 C 
ATOM     37  N   UNL A   1     -24.758  -1.481  32.646  0.00  0.00    -0.217 NA
ENDBRANCH  26  33
ENDBRANCH   3  26
BRANCH   1  38
ATOM     38  N   UNL A   1     -24.610   2.177  29.750  0.00  0.00    -0.215 NA
BRANCH  38  42
ATOM     39  C   UNL A   1     -23.968   3.667  31.661  0.00  0.00    +0.016 C 
ATOM     40  C   UNL A   1     -26.248   3.718  30.876  0.00  0.00    +0.016 C 
ATOM     41  C   UNL A   1     -26.552   4.749  31.762  0.00  0.00    +0.001 C 
ATOM     42  C   UNL A   1     -24.943   3.213  30.761  0.00  0.00    +0.068 C 
ATOM     43  C   UNL A   1     -24.324   4.619  32.636  0.00  0.00    +0.001 C 
ATOM     44  C   UNL A   1     -25.584   5.210  32.635  0.00  0.00    +0.000 C 
ENDBRANCH  38  42
ENDBRANCH   1  38
TORSDOF 11
