MODEL 4960
MODEL 1
REMARK VINA RESULT:    -4.509      0.000      0.000
REMARK INTER + INTRA:          -4.509
REMARK INTER:                  -4.509
REMARK INTRA:                   0.000
REMARK UNBOUND:                 0.000
REMARK  Name = No_4960-gen_results/8p0m/2024-11-27-11-27-31/
REMARK  0 active torsions:
REMARK  status: ('A' for Active; 'I' for Inactive)
REMARK                            x       y       z     vdW  Elec       q    Type
REMARK                         _______ _______ _______ _____ _____    ______ ____
ROOT
ATOM      1  F   UNL A   1     -24.932  -6.312  28.631  0.00  0.00    -0.204 F 
ATOM      2  C   UNL A   1     -25.092  -5.231  28.974  0.00  0.00    +0.140 A 
ATOM      3  C   UNL A   1     -26.102  -4.808  29.589  0.00  0.00    +0.030 A 
ATOM      4  C   UNL A   1     -23.944  -4.277  28.617  0.00  0.00    +0.030 A 
ATOM      5  C   UNL A   1     -24.092  -2.879  28.968  0.00  0.00    +0.002 A 
ATOM      6  C   UNL A   1     -26.251  -3.347  29.929  0.00  0.00    +0.002 A 
ATOM      7  C   UNL A   1     -25.236  -2.450  29.602  0.00  0.00    +0.000 A 
ENDROOT
TORSDOF 0
ENDMDL
ENDMDL
