REMARK  Name = outputs/IAG933/test6/raw/output_4961_IAG933_linker_design_.xyz
REMARK  15 active torsions:
REMARK  status: ('A' for Active; 'I' for Inactive)
REMARK    1  A    between atoms: C_1  and  C_2
REMARK    2  A    between atoms: C_1  and  C_8
REMARK    3  A    between atoms: C_1  and  C_28
REMARK    4  A    between atoms: C_13  and  N_40
REMARK    5  A    between atoms: C_14  and  C_15
REMARK    6  A    between atoms: C_21  and  O_22
REMARK    7  A    between atoms: O_22  and  C_23
REMARK    8  A    between atoms: C_23  and  C_24
REMARK    9  A    between atoms: C_28  and  C_35
REMARK   10  A    between atoms: C_28  and  C_39
REMARK   11  A    between atoms: N_34  and  C_39
REMARK   12  A    between atoms: N_34  and  O_43
REMARK   13  A    between atoms: C_35  and  C_44
REMARK   14  A    between atoms: N_40  and  C_42
REMARK   15  A    between atoms: C_41  and  O_43
REMARK                            x       y       z     vdW  Elec       q    Type
REMARK                         _______ _______ _______ _____ _____    ______ ____
ROOT
ATOM      1  C   UNL A   1     -21.096   2.597  25.651  0.00  0.00    +0.003 C 
ATOM      2  C   UNL A   1     -20.986   2.068  26.930  0.00  0.00    +0.041 C 
ATOM      3  C   UNL A   1     -22.240   2.414  24.871  0.00  0.00    +0.002 C 
ATOM      4  C   UNL A   1     -23.365   1.847  25.446  0.00  0.00    +0.020 C 
ATOM      5  C   UNL A   1     -22.083   1.399  27.485  0.00  0.00    +0.182 C 
ATOM      6  C   UNL A   1     -23.338   1.496  26.794  0.00  0.00    +0.107 C 
ENDROOT
BRANCH   6   7
ATOM      7  N   UNL A   1     -24.596   1.258  27.252  0.00  0.00    -0.207 NA
BRANCH   7   8
ATOM      8  C   UNL A   1     -25.688   1.614  26.461  0.00  0.00    +0.108 C 
ATOM      9  C   UNL A   1     -26.250   2.920  26.395  0.00  0.00    +0.092 C 
ATOM     10  C   UNL A   1     -27.438   3.091  25.645  0.00  0.00    +0.108 C 
ATOM     11  N   UNL A   1     -28.075   2.089  25.003  0.00  0.00    -0.208 NA
ATOM     12  C   UNL A   1     -27.543   0.849  25.079  0.00  0.00    +0.255 C 
ATOM     13  C   UNL A   1     -26.354   0.576  25.777  0.00  0.00    +0.208 C 
ATOM     14  F   UNL A   1     -25.860  -0.681  25.795  0.00  0.00    -0.198 F 
BRANCH   9  15
ATOM     15  C   UNL A   1     -25.642   4.093  27.123  0.00  0.00    +0.268 C 
ATOM     16  N   UNL A   1     -25.614   5.252  26.449  0.00  0.00    -0.200 NA
ATOM     17  C   UNL A   1     -25.026   6.479  26.963  0.00  0.00    +0.139 C 
ATOM     18  O   UNL A   1     -25.143   3.966  28.243  0.00  0.00    -0.268 OA
ENDBRANCH   9  15
BRANCH  12  19
ATOM     19  O   UNL A   1     -28.193  -0.208  24.477  0.00  0.00    -0.456 OA
BRANCH  19  20
ATOM     20  C   UNL A   1     -29.460   0.005  23.866  0.00  0.00    +0.243 C 
BRANCH  20  21
ATOM     21  C   UNL A   1     -30.065  -1.377  23.573  0.00  0.00    +0.229 C 
ATOM     22  O   UNL A   1     -30.729  -1.878  24.721  0.00  0.00    -0.216 OA
ENDBRANCH  20  21
ENDBRANCH  19  20
ENDBRANCH  12  19
ENDBRANCH   7   8
ENDBRANCH   6   7
BRANCH   5  23
ATOM     23  O   UNL A   1     -21.746   0.634  28.567  0.00  0.00    -0.383 OA
BRANCH  23  24
ATOM     24  N   UNL A   1     -22.505   0.487  29.672  0.00  0.00    -0.028 NA
BRANCH  24  25
ATOM     25  C   UNL A   1     -23.700   0.684  29.793  0.00  0.00    +0.136 C 
BRANCH  25  26
ATOM     26  C   UNL A   1     -25.116   0.427  29.554  0.00  0.00    +0.032 C 
BRANCH  26  27
ATOM     27  C   UNL A   1     -24.855  -1.012  30.143  0.00  0.00    +0.040 C 
BRANCH  27  28
ATOM     28  C   UNL A   1     -24.973  -2.505  29.788  0.00  0.00    -0.021 C 
ATOM     29  C   UNL A   1     -23.906  -3.173  29.146  0.00  0.00    -0.004 C 
ATOM     30  C   UNL A   1     -23.989  -4.549  28.853  0.00  0.00    -0.000 C 
ATOM     31  C   UNL A   1     -25.137  -5.280  29.205  0.00  0.00    -0.000 C 
ATOM     32  C   UNL A   1     -26.232  -4.611  29.784  0.00  0.00    -0.000 C 
ATOM     33  C   UNL A   1     -26.155  -3.232  30.065  0.00  0.00    -0.004 C 
ENDBRANCH  27  28
BRANCH  27  34
ATOM     34  C   UNL A   1     -25.387  -0.679  31.571  0.00  0.00    +0.077 C 
ATOM     35  C   UNL A   1     -25.189   0.773  32.028  0.00  0.00    +0.019 C 
ATOM     36  C   UNL A   1     -25.336   0.684  33.544  0.00  0.00    +0.020 C 
ATOM     37  C   UNL A   1     -24.829  -0.715  33.905  0.00  0.00    +0.089 C 
ATOM     38  N   UNL A   1     -24.758  -1.481  32.646  0.00  0.00    -0.219 NA
ENDBRANCH  27  34
ENDBRANCH  26  27
BRANCH  26  39
ATOM     39  C   UNL A   1     -25.813   1.918  30.005  0.00  0.00    +0.063 C 
BRANCH  39  44
ATOM     40  C   UNL A   1     -25.683   5.261  31.874  0.00  0.00    +0.177 C 
ATOM     41  O   UNL A   1     -25.514   4.260  30.841  0.00  0.00    -0.328 OA
ATOM     42  O   UNL A   1     -24.788   3.416  32.862  0.00  0.00    -0.328 OA
ATOM     43  C   UNL A   1     -25.467   4.656  33.299  0.00  0.00    +0.177 C 
ATOM     44  C   UNL A   1     -25.380   3.011  31.315  0.00  0.00    +0.235 C 
ENDBRANCH  39  44
ENDBRANCH  26  39
ENDBRANCH  25  26
ENDBRANCH  24  25
ENDBRANCH  23  24
ENDBRANCH   5  23
TORSDOF 15
