MODEL 4963
MODEL 1
REMARK VINA RESULT:    -6.437      0.000      0.000
REMARK INTER + INTRA:          -7.696
REMARK INTER:                  -7.190
REMARK INTRA:                  -0.507
REMARK UNBOUND:                -0.507
REMARK  Name = No_4963-gen_results/8p0m/2024-11-27-11-27-31/
REMARK  2 active torsions:
REMARK  status: ('A' for Active; 'I' for Inactive)
REMARK    1  A    between atoms: C_4  and  C_7
REMARK    2  A    between atoms: C_7  and  C_8
REMARK                            x       y       z     vdW  Elec       q    Type
REMARK                         _______ _______ _______ _____ _____    ______ ____
ROOT
ATOM      1  C   UNL A   1     -25.785  -4.819  29.482  0.00  0.00    +0.029 A 
ATOM      2  C   UNL A   1     -25.099  -5.470  29.018  0.00  0.00    +0.002 A 
ATOM      3  C   UNL A   1     -26.099  -3.457  29.716  0.00  0.00    +0.137 A 
ATOM      4  C   UNL A   1     -24.998  -2.637  29.303  0.00  0.00    +0.010 A 
ATOM      5  C   UNL A   1     -23.887  -3.230  28.692  0.00  0.00    -0.002 A 
ATOM      6  C   UNL A   1     -23.915  -4.657  28.501  0.00  0.00    -0.000 A 
ATOM      7  F   UNL A   1     -27.087  -2.871  30.193  0.00  0.00    -0.204 F 
ENDROOT
BRANCH   4   8
ATOM      8  C   UNL A   1     -25.028  -1.181  29.456  0.00  0.00    +0.055 C 
BRANCH   8   9
ATOM      9  C   UNL A   1     -24.519  -0.499  28.332  0.00  0.00    -0.018 A 
ATOM     10  C   UNL A   1     -23.488   0.423  28.466  0.00  0.00    -0.004 A 
ATOM     11  C   UNL A   1     -22.997   1.160  27.272  0.00  0.00    -0.000 A 
ATOM     12  C   UNL A   1     -23.859   1.331  26.259  0.00  0.00    -0.000 A 
ATOM     13  C   UNL A   1     -24.945   0.496  26.119  0.00  0.00    -0.000 A 
ATOM     14  C   UNL A   1     -25.317  -0.401  27.133  0.00  0.00    -0.004 A 
ENDBRANCH   8   9
ENDBRANCH   4   8
TORSDOF 2
ENDMDL
ENDMDL
