MODEL 4964
MODEL 1
REMARK VINA RESULT:    -7.204      0.000      0.000
REMARK INTER + INTRA:          -9.525
REMARK INTER:                  -8.467
REMARK INTRA:                  -1.058
REMARK UNBOUND:                -1.058
REMARK  Name = No_4964-gen_results/8p0m/2024-11-27-11-27-31/
REMARK  3 active torsions:
REMARK  status: ('A' for Active; 'I' for Inactive)
REMARK    1  A    between atoms: C_3  and  C_4
REMARK    2  A    between atoms: C_4  and  C_5
REMARK    3  A    between atoms: C_4  and  C_9
REMARK                            x       y       z     vdW  Elec       q    Type
REMARK                         _______ _______ _______ _____ _____    ______ ____
ROOT
ATOM      1  C   UNL A   1     -24.150  -1.047  30.066  0.00  0.00    +0.066 C 
ENDROOT
BRANCH   1   2
ATOM      2  C   UNL A   1     -23.904  -0.149  28.822  0.00  0.00    -0.014 A 
ATOM      3  C   UNL A   1     -22.708   0.470  28.713  0.00  0.00    -0.004 A 
ATOM      4  C   UNL A   1     -22.386   1.361  27.678  0.00  0.00    -0.005 A 
ATOM      5  C   UNL A   1     -23.264   1.466  26.616  0.00  0.00    -0.022 A 
ATOM      6  C   UNL A   1     -24.455   0.691  26.587  0.00  0.00    -0.005 A 
ATOM      7  C   UNL A   1     -24.767  -0.122  27.736  0.00  0.00    -0.004 A 
ATOM      8  C   UNL A   1     -23.018   2.347  25.464  0.00  0.00    +0.031 C 
ENDBRANCH   1   2
BRANCH   1  11
ATOM      9  C   UNL A   1     -23.856  -3.322  28.989  0.00  0.00    -0.004 A 
ATOM     10  C   UNL A   1     -24.232  -4.303  28.915  0.00  0.00    -0.000 A 
ATOM     11  C   UNL A   1     -24.665  -2.387  29.718  0.00  0.00    -0.014 A 
ATOM     12  C   UNL A   1     -25.573  -4.809  29.170  0.00  0.00    -0.000 A 
ATOM     13  C   UNL A   1     -26.378  -3.937  29.809  0.00  0.00    -0.000 A 
ATOM     14  C   UNL A   1     -25.929  -2.663  30.144  0.00  0.00    -0.004 A 
ENDBRANCH   1  11
BRANCH   1  15
ATOM     15  C   UNL A   1     -23.082  -0.861  30.867  0.00  0.00    -0.018 C 
ATOM     16  C   UNL A   1     -23.177  -1.127  32.172  0.00  0.00    -0.004 C 
ENDBRANCH   1  15
TORSDOF 3
ENDMDL
ENDMDL
