MODEL 4965
MODEL 1
REMARK VINA RESULT:    -6.521      0.000      0.000
REMARK INTER + INTRA:          -7.994
REMARK INTER:                  -7.283
REMARK INTRA:                  -0.710
REMARK UNBOUND:                -0.710
REMARK  Name = No_4965-gen_results/8p0m/2024-11-27-11-27-31/
REMARK  2 active torsions:
REMARK  status: ('A' for Active; 'I' for Inactive)
REMARK    1  A    between atoms: C_2  and  C_7
REMARK    2  A    between atoms: C_10  and  C_11
REMARK                            x       y       z     vdW  Elec       q    Type
REMARK                         _______ _______ _______ _____ _____    ______ ____
ROOT
ATOM      1  C   UNL A   1     -22.537  -0.305  29.623  0.00  0.00    +0.272 C 
ATOM      2  O   UNL A   1     -21.469  -0.108  29.616  0.00  0.00    -0.268 OA
ATOM      3  N   UNL A   1     -23.251  -0.624  28.464  0.00  0.00    -0.137 NA
ATOM      4  C   UNL A   1     -24.616  -0.931  28.351  0.00  0.00    +0.272 C 
ATOM      5  O   UNL A   1     -25.346  -0.081  27.843  0.00  0.00    -0.268 OA
ENDROOT
BRANCH   1   7
ATOM      6  C   UNL A   1     -24.072   0.770  30.923  0.00  0.00    +0.005 A 
ATOM      7  C   UNL A   1     -23.534  -0.135  30.871  0.00  0.00    +0.056 A 
ATOM      8  C   UNL A   1     -24.993   0.910  32.114  0.00  0.00    +0.000 A 
ATOM      9  C   UNL A   1     -24.972  -0.075  33.124  0.00  0.00    +0.000 A 
ATOM     10  C   UNL A   1     -23.310  -1.280  31.781  0.00  0.00    +0.005 A 
ATOM     11  C   UNL A   1     -24.136  -1.183  32.892  0.00  0.00    +0.000 A 
ENDBRANCH   1   7
BRANCH   4  12
ATOM     12  C   UNL A   1     -24.896  -2.196  28.616  0.00  0.00    +0.056 A 
ATOM     13  C   UNL A   1     -26.123  -2.476  29.381  0.00  0.00    +0.005 A 
ATOM     14  C   UNL A   1     -26.485  -3.765  29.935  0.00  0.00    +0.000 A 
ATOM     15  C   UNL A   1     -25.595  -4.846  29.619  0.00  0.00    +0.000 A 
ATOM     16  C   UNL A   1     -24.415  -4.572  28.903  0.00  0.00    +0.000 A 
ATOM     17  C   UNL A   1     -24.057  -3.317  28.495  0.00  0.00    +0.005 A 
ENDBRANCH   4  12
TORSDOF 2
ENDMDL
ENDMDL
