REMARK  Name = outputs/IAG933/test6/raw/output_4965_IAG933_linker_design_.xyz
REMARK  11 active torsions:
REMARK  status: ('A' for Active; 'I' for Inactive)
REMARK    1  A    between atoms: C_1  and  C_2
REMARK    2  A    between atoms: C_1  and  C_8
REMARK    3  A    between atoms: C_1  and  N_34
REMARK    4  A    between atoms: C_13  and  N_39
REMARK    5  A    between atoms: C_14  and  C_15
REMARK    6  A    between atoms: C_21  and  O_22
REMARK    7  A    between atoms: O_22  and  C_23
REMARK    8  A    between atoms: C_23  and  C_24
REMARK    9  A    between atoms: C_28  and  O_33
REMARK   10  A    between atoms: C_31  and  N_39
REMARK   11  A    between atoms: N_34  and  C_36
REMARK                            x       y       z     vdW  Elec       q    Type
REMARK                         _______ _______ _______ _____ _____    ______ ____
ROOT
ATOM      1  C   UNL A   1     -22.342   1.917  27.044  0.00  0.00    +0.292 C 
ATOM      2  C   UNL A   1     -23.544   1.125  27.246  0.00  0.00    +0.156 C 
ATOM      3  O   UNL A   1     -21.238   1.269  27.807  0.00  0.00    -0.299 OA
ATOM      4  O   UNL A   1     -21.859   0.715  30.004  0.00  0.00    -0.188 OA
ATOM      5  C   UNL A   1     -23.461   0.123  28.245  0.00  0.00    +0.156 C 
ATOM      6  C   UNL A   1     -21.981   0.425  28.745  0.00  0.00    +0.291 C 
ENDROOT
BRANCH   5   8
ATOM      7  C   UNL A   1     -25.893  -0.116  28.510  0.00  0.00    +0.303 C 
ATOM      8  N   UNL A   1     -24.751  -0.210  28.993  0.00  0.00    -0.264 N 
ATOM      9  O   UNL A   1     -26.913  -0.417  28.373  0.00  0.00    -0.265 OA
BRANCH   8  10
ATOM     10  C   UNL A   1     -24.855  -1.012  30.143  0.00  0.00    +0.114 C 
BRANCH  10  11
ATOM     11  C   UNL A   1     -24.973  -2.505  29.788  0.00  0.00    -0.003 C 
ATOM     12  C   UNL A   1     -23.906  -3.173  29.146  0.00  0.00    -0.003 C 
ATOM     13  C   UNL A   1     -23.989  -4.549  28.853  0.00  0.00    -0.000 C 
ATOM     14  C   UNL A   1     -25.137  -5.280  29.205  0.00  0.00    -0.000 C 
ATOM     15  C   UNL A   1     -26.232  -4.611  29.784  0.00  0.00    -0.000 C 
ATOM     16  C   UNL A   1     -26.155  -3.232  30.065  0.00  0.00    -0.003 C 
ENDBRANCH  10  11
BRANCH  10  17
ATOM     17  C   UNL A   1     -25.387  -0.679  31.571  0.00  0.00    +0.095 C 
ATOM     18  C   UNL A   1     -25.189   0.773  32.028  0.00  0.00    +0.021 C 
ATOM     19  C   UNL A   1     -25.336   0.684  33.544  0.00  0.00    +0.020 C 
ATOM     20  C   UNL A   1     -24.829  -0.715  33.905  0.00  0.00    +0.089 C 
ATOM     21  N   UNL A   1     -24.758  -1.481  32.646  0.00  0.00    -0.217 NA
ENDBRANCH  10  17
ENDBRANCH   8  10
ENDBRANCH   5   8
BRANCH   1  23
ATOM     22  O   UNL A   1     -23.028   2.539  25.206  0.00  0.00    -0.032 OA
ATOM     23  O   UNL A   1     -21.911   2.008  25.804  0.00  0.00    -0.159 OA
ENDBRANCH   1  23
BRANCH   2  24
ATOM     24  N   UNL A   1     -24.559   1.455  26.785  0.00  0.00    -0.206 NA
BRANCH  24  25
ATOM     25  C   UNL A   1     -25.688   1.614  26.461  0.00  0.00    +0.143 C 
ATOM     26  C   UNL A   1     -26.250   2.920  26.395  0.00  0.00    +0.071 C 
ATOM     27  C   UNL A   1     -27.438   3.091  25.645  0.00  0.00    +0.103 C 
ATOM     28  N   UNL A   1     -28.075   2.089  25.003  0.00  0.00    -0.212 NA
ATOM     29  C   UNL A   1     -27.543   0.849  25.079  0.00  0.00    +0.236 C 
ATOM     30  C   UNL A   1     -26.354   0.576  25.777  0.00  0.00    +0.256 C 
ATOM     31  F   UNL A   1     -25.860  -0.681  25.795  0.00  0.00    -0.225 F 
BRANCH  26  32
ATOM     32  C   UNL A   1     -25.642   4.093  27.123  0.00  0.00    +0.264 C 
ATOM     33  N   UNL A   1     -25.614   5.252  26.449  0.00  0.00    -0.200 NA
ATOM     34  C   UNL A   1     -25.026   6.479  26.963  0.00  0.00    +0.139 C 
ATOM     35  O   UNL A   1     -25.143   3.966  28.243  0.00  0.00    -0.269 OA
ENDBRANCH  26  32
BRANCH  29  36
ATOM     36  O   UNL A   1     -28.193  -0.208  24.477  0.00  0.00    -0.459 OA
BRANCH  36  37
ATOM     37  C   UNL A   1     -29.460   0.005  23.866  0.00  0.00    +0.242 C 
BRANCH  37  38
ATOM     38  C   UNL A   1     -30.065  -1.377  23.573  0.00  0.00    +0.229 C 
ATOM     39  O   UNL A   1     -30.729  -1.878  24.721  0.00  0.00    -0.216 OA
ENDBRANCH  37  38
ENDBRANCH  36  37
ENDBRANCH  29  36
ENDBRANCH  24  25
ENDBRANCH   2  24
TORSDOF 11
