REMARK  Name = No_4966-gen_results/8p0m/2024-11-27-11-27-31/
REMARK  2 active torsions:
REMARK  status: ('A' for Active; 'I' for Inactive)
REMARK    1  A    between atoms: C_3  and  C_4
REMARK    2  A    between atoms: C_18  and  C_23
REMARK                            x       y       z     vdW  Elec       q    Type
REMARK                         _______ _______ _______ _____ _____    ______ ____
ROOT
ATOM      1  C   UNL A   1     -28.016  -0.814  28.878  0.00  0.00    +0.008 A 
ATOM      2  C   UNL A   1     -27.064  -0.119  28.608  0.00  0.00    +0.000 A 
ATOM      3  C   UNL A   1     -25.792  -0.430  29.076  0.00  0.00    +0.003 A 
ATOM      4  C   UNL A   1     -28.191  -1.258  30.088  0.00  0.00    +0.088 A 
ATOM      5  C   UNL A   1     -27.015  -1.710  30.828  0.00  0.00    +0.145 A 
ATOM      6  C   UNL A   1     -25.784  -1.102  30.410  0.00  0.00    +0.037 A 
ATOM      7  C   UNL A   1     -29.437  -1.977  30.571  0.00  0.00    +0.260 C 
ATOM      8  O   UNL A   1     -30.389  -1.436  30.095  0.00  0.00    -0.269 OA
ATOM      9  N   UNL A   1     -29.425  -3.262  31.066  0.00  0.00    -0.192 N 
ATOM     10  C   UNL A   1     -30.664  -3.957  31.326  0.00  0.00    +0.238 C 
ATOM     11  C   UNL A   1     -30.456  -5.277  31.460  0.00  0.00    +0.100 C 
ATOM     12  C   UNL A   1     -29.235  -5.673  31.798  0.00  0.00    +0.019 C 
ATOM     13  C   UNL A   1     -28.078  -5.126  31.259  0.00  0.00    +0.067 C 
ATOM     14  C   UNL A   1     -28.132  -3.827  30.820  0.00  0.00    +0.252 C 
ATOM     15  O   UNL A   1     -27.129  -3.336  30.516  0.00  0.00    -0.460 OA
ATOM     16  O   UNL A   1     -31.698  -3.338  31.235  0.00  0.00    -0.274 OA
ENDROOT
BRANCH   3  17
ATOM     17  C   UNL A   1     -24.546   0.349  28.823  0.00  0.00    +0.001 A 
ATOM     18  C   UNL A   1     -23.241   0.022  29.332  0.00  0.00    +0.000 A 
ATOM     19  C   UNL A   1     -22.114   0.656  28.822  0.00  0.00    +0.001 A 
ATOM     20  C   UNL A   1     -22.145   1.515  27.743  0.00  0.00    +0.018 A 
ATOM     21  C   UNL A   1     -24.513   1.215  27.644  0.00  0.00    +0.018 A 
ATOM     22  C   UNL A   1     -23.353   1.807  27.198  0.00  0.00    +0.089 A 
ATOM     23  N   UNL A   1     -23.436   2.668  26.129  0.00  0.00    -0.128 NA
ENDBRANCH   3  17
BRANCH  11  24
ATOM     24  C   UNL A   1     -31.575  -5.867  32.400  0.00  0.00    -0.014 A 
ATOM     25  C   UNL A   1     -32.383  -5.519  32.900  0.00  0.00    -0.004 A 
ATOM     26  C   UNL A   1     -33.549  -6.217  33.508  0.00  0.00    -0.000 A 
ATOM     27  C   UNL A   1     -33.494  -7.588  33.404  0.00  0.00    -0.000 A 
ATOM     28  C   UNL A   1     -32.487  -8.205  32.761  0.00  0.00    -0.000 A 
ATOM     29  C   UNL A   1     -31.479  -7.470  32.165  0.00  0.00    -0.004 A 
ENDBRANCH  11  24
TORSDOF 2
