MODEL 4966
MODEL 1
REMARK VINA RESULT:    -8.796      0.000      0.000
REMARK INTER + INTRA:         -10.435
REMARK INTER:                  -9.824
REMARK INTRA:                  -0.611
REMARK UNBOUND:                -0.611
REMARK  Name = No_4966-gen_results/8p0m/2024-11-27-11-27-31/
REMARK  2 active torsions:
REMARK  status: ('A' for Active; 'I' for Inactive)
REMARK    1  A    between atoms: C_3  and  C_4
REMARK    2  A    between atoms: C_18  and  C_23
REMARK                            x       y       z     vdW  Elec       q    Type
REMARK                         _______ _______ _______ _____ _____    ______ ____
ROOT
ATOM      1  C   UNL A   1      -8.270   1.112  37.031  0.00  0.00    +0.008 A 
ATOM      2  C   UNL A   1      -9.414   1.495  36.957  0.00  0.00    +0.000 A 
ATOM      3  C   UNL A   1     -10.239   1.097  35.911  0.00  0.00    +0.003 A 
ATOM      4  C   UNL A   1      -7.508   1.093  35.977  0.00  0.00    +0.088 A 
ATOM      5  C   UNL A   1      -8.099   0.664  34.712  0.00  0.00    +0.145 A 
ATOM      6  C   UNL A   1      -9.517   0.868  34.623  0.00  0.00    +0.037 A 
ATOM      7  C   UNL A   1      -6.017   0.809  35.996  0.00  0.00    +0.260 C 
ATOM      8  O   UNL A   1      -5.544   1.356  36.945  0.00  0.00    -0.269 OA
ATOM      9  N   UNL A   1      -5.440  -0.246  35.324  0.00  0.00    -0.192 N 
ATOM     10  C   UNL A   1      -4.051  -0.576  35.537  0.00  0.00    +0.238 C 
ATOM     11  C   UNL A   1      -3.774  -1.810  35.083  0.00  0.00    +0.100 C 
ATOM     12  C   UNL A   1      -4.580  -2.316  34.158  0.00  0.00    +0.019 C 
ATOM     13  C   UNL A   1      -5.962  -2.191  34.197  0.00  0.00    +0.067 C 
ATOM     14  C   UNL A   1      -6.485  -1.099  34.842  0.00  0.00    +0.252 C 
ATOM     15  O   UNL A   1      -7.625  -0.926  34.737  0.00  0.00    -0.460 OA
ATOM     16  O   UNL A   1      -3.379   0.176  36.204  0.00  0.00    -0.274 OA
ENDROOT
BRANCH   3  17
ATOM     17  C   UNL A   1     -11.658   1.507  35.703  0.00  0.00    +0.001 A 
ATOM     18  C   UNL A   1     -12.481   2.179  36.672  0.00  0.00    +0.000 A 
ATOM     19  C   UNL A   1     -13.690   2.748  36.287  0.00  0.00    +0.001 A 
ATOM     20  C   UNL A   1     -14.113   2.824  34.976  0.00  0.00    +0.018 A 
ATOM     21  C   UNL A   1     -12.123   1.673  34.326  0.00  0.00    +0.018 A 
ATOM     22  C   UNL A   1     -13.336   2.250  34.023  0.00  0.00    +0.089 A 
ATOM     23  N   UNL A   1     -13.722   2.289  32.704  0.00  0.00    -0.128 NA
ENDBRANCH   3  17
BRANCH  11  24
ATOM     24  C   UNL A   1      -2.254  -1.862  34.670  0.00  0.00    -0.014 A 
ATOM     25  C   UNL A   1      -1.359  -1.913  35.140  0.00  0.00    -0.004 A 
ATOM     26  C   UNL A   1      -0.000  -2.268  34.647  0.00  0.00    -0.000 A 
ATOM     27  C   UNL A   1       0.051  -2.537  33.298  0.00  0.00    -0.000 A 
ATOM     28  C   UNL A   1      -1.056  -2.518  32.535  0.00  0.00    -0.000 A 
ATOM     29  C   UNL A   1      -2.290  -2.244  33.093  0.00  0.00    -0.004 A 
ENDBRANCH  11  24
TORSDOF 2
ENDMDL
ENDMDL
