MODEL 4967
MODEL 1
REMARK VINA RESULT:    -7.660      0.000      0.000
REMARK INTER + INTRA:         -13.659
REMARK INTER:                 -11.690
REMARK INTRA:                  -1.969
REMARK UNBOUND:                -1.969
REMARK  Name = No_4967-gen_results/8p0m/2024-11-27-11-27-31/
REMARK  9 active torsions:
REMARK  status: ('A' for Active; 'I' for Inactive)
REMARK    1  A    between atoms: C_3  and  C_15
REMARK    2  A    between atoms: C_5  and  N_8
REMARK    3  A    between atoms: C_9  and  C_10
REMARK    4  A    between atoms: C_10  and  C_12
REMARK    5  A    between atoms: N_16  and  C_17
REMARK    6  A    between atoms: C_22  and  C_33
REMARK    7  A    between atoms: N_23  and  C_24
REMARK    8  A    between atoms: C_28  and  C_30
REMARK    9  A    between atoms: C_33  and  C_34
REMARK                            x       y       z     vdW  Elec       q    Type
REMARK                         _______ _______ _______ _____ _____    ______ ____
ROOT
ATOM      1  C   UNL A   1     -25.822   0.199  28.700  0.00  0.00    +0.367 C 
ATOM      2  N   UNL A   1     -24.907  -0.195  28.070  0.00  0.00    -0.006 NA
ATOM      3  N   UNL A   1     -26.354  -0.460  29.740  0.00  0.00    -0.036 NA
ENDROOT
BRANCH   1   6
ATOM      4 CL   UNL A   1     -24.966   2.406  30.421  0.00  0.00    -0.082 Cl
ATOM      5  C   UNL A   1     -25.975   2.478  29.393  0.00  0.00    +0.065 A 
ATOM      6  C   UNL A   1     -26.332   1.631  28.654  0.00  0.00    +0.098 A 
ATOM      7  C   UNL A   1     -27.378   1.789  27.647  0.00  0.00    +0.025 A 
ATOM      8  C   UNL A   1     -28.002   3.064  27.490  0.00  0.00    +0.074 A 
ATOM      9  C   UNL A   1     -27.585   4.037  28.340  0.00  0.00    +0.018 A 
ATOM     10  C   UNL A   1     -26.636   3.819  29.264  0.00  0.00    +0.013 A 
BRANCH   8  11
ATOM     11  N   UNL A   1     -28.950   3.275  26.521  0.00  0.00    -0.179 NA
ATOM     12  C   UNL A   1     -28.596   3.830  25.315  0.00  0.00    +0.251 C 
ATOM     13  O   UNL A   1     -29.177   4.960  25.091  0.00  0.00    -0.273 OA
BRANCH  12  14
ATOM     14  C   UNL A   1     -28.034   3.170  24.467  0.00  0.00    +0.159 C 
BRANCH  14  15
ATOM     15  C   UNL A   1     -28.616   2.160  23.686  0.00  0.00    +0.328 C 
ATOM     16  F   UNL A   1     -28.189   1.211  23.628  0.00  0.00    -0.198 F 
ATOM     17  F   UNL A   1     -29.564   2.570  22.867  0.00  0.00    -0.198 F 
ENDBRANCH  14  15
ENDBRANCH  12  14
ENDBRANCH   8  11
ENDBRANCH   1   6
BRANCH   2  18
ATOM     18  C   UNL A   1     -23.928   0.358  27.729  0.00  0.00    +0.180 A 
ATOM     19  C   UNL A   1     -22.871   0.417  28.510  0.00  0.00    +0.044 A 
ATOM     20  C   UNL A   1     -21.636   1.188  28.226  0.00  0.00    +0.004 A 
ATOM     21  C   UNL A   1     -21.597   1.907  27.038  0.00  0.00    -0.000 A 
ATOM     22  C   UNL A   1     -22.695   1.851  26.189  0.00  0.00    -0.000 A 
ATOM     23  C   UNL A   1     -23.799   1.159  26.509  0.00  0.00    +0.023 A 
BRANCH  23  24
ATOM     24  C   UNL A   1     -24.949   1.175  25.587  0.00  0.00    +0.056 C 
BRANCH  24  25
ATOM     25  C   UNL A   1     -25.012   0.290  24.603  0.00  0.00    -0.021 C 
ATOM     26  C   UNL A   1     -25.869  -0.826  24.741  0.00  0.00    -0.005 C 
ENDBRANCH  24  25
ENDBRANCH  23  24
ENDBRANCH   2  18
BRANCH   3  27
ATOM     27  C   UNL A   1     -26.455  -1.821  29.740  0.00  0.00    +0.194 A 
ATOM     28  C   UNL A   1     -27.621  -2.300  30.228  0.00  0.00    +0.047 A 
ATOM     29  C   UNL A   1     -27.903  -3.631  30.445  0.00  0.00    +0.004 A 
ATOM     30  C   UNL A   1     -26.942  -4.571  29.993  0.00  0.00    +0.007 A 
ATOM     31  C   UNL A   1     -25.756  -4.083  29.483  0.00  0.00    +0.084 A 
ATOM     32  C   UNL A   1     -25.441  -2.677  29.442  0.00  0.00    +0.053 A 
BRANCH  31  33
ATOM     33  C   UNL A   1     -24.680  -5.061  29.118  0.00  0.00    +0.388 C 
ATOM     34  O   UNL A   1     -24.631  -6.124  29.489  0.00  0.00    -0.241 OA
ATOM     35  O   UNL A   1     -23.771  -4.604  28.191  0.00  0.00    -0.241 OA
ENDBRANCH  31  33
ENDBRANCH   3  27
TORSDOF 9
ENDMDL
ENDMDL
