MODEL 4968
MODEL 1
REMARK VINA RESULT:    -4.345      0.000      0.000
REMARK INTER + INTRA:          -4.345
REMARK INTER:                  -4.345
REMARK INTRA:                   0.000
REMARK UNBOUND:                 0.000
REMARK  Name = No_4968-gen_results/8p0m/2024-11-27-11-27-31/
REMARK  0 active torsions:
REMARK  status: ('A' for Active; 'I' for Inactive)
REMARK                            x       y       z     vdW  Elec       q    Type
REMARK                         _______ _______ _______ _____ _____    ______ ____
ROOT
ATOM      1  C   UNL A   1     -24.099  -4.844  28.576  0.00  0.00    +0.000 A 
ATOM      2  C   UNL A   1     -24.936  -5.305  29.019  0.00  0.00    +0.000 A 
ATOM      3  C   UNL A   1     -24.061  -3.389  28.772  0.00  0.00    +0.000 A 
ATOM      4  C   UNL A   1     -25.082  -2.711  29.298  0.00  0.00    +0.000 A 
ATOM      5  C   UNL A   1     -26.149  -4.793  29.608  0.00  0.00    +0.000 A 
ATOM      6  C   UNL A   1     -26.106  -3.439  29.760  0.00  0.00    +0.000 A 
ENDROOT
TORSDOF 0
ENDMDL
ENDMDL
