MODEL 4969
MODEL 1
REMARK VINA RESULT:    -8.206      0.000      0.000
REMARK INTER + INTRA:         -10.297
REMARK INTER:                  -9.645
REMARK INTRA:                  -0.652
REMARK UNBOUND:                -0.652
REMARK  Name = No_4969-gen_results/8p0m/2024-11-27-11-27-31/
REMARK  3 active torsions:
REMARK  status: ('A' for Active; 'I' for Inactive)
REMARK    1  A    between atoms: C_3  and  C_8
REMARK    2  A    between atoms: C_8  and  C_9
REMARK    3  A    between atoms: C_13  and  C_15
REMARK                            x       y       z     vdW  Elec       q    Type
REMARK                         _______ _______ _______ _____ _____    ______ ____
ROOT
ATOM      1  C   UNL A   1     -23.449   0.756  27.636  0.00  0.00    -0.018 A 
ATOM      2  C   UNL A   1     -22.422   0.859  28.183  0.00  0.00    -0.004 A 
ATOM      3  C   UNL A   1     -21.854  -0.047  29.189  0.00  0.00    -0.000 A 
ATOM      4  C   UNL A   1     -22.616  -1.271  29.313  0.00  0.00    -0.000 A 
ATOM      5  C   UNL A   1     -23.859  -1.424  28.720  0.00  0.00    -0.000 A 
ATOM      6  C   UNL A   1     -24.290  -0.434  27.805  0.00  0.00    -0.004 A 
ENDROOT
BRANCH   5   7
ATOM      7  C   UNL A   1     -24.634  -2.650  28.990  0.00  0.00    -0.000 A 
ATOM      8  C   UNL A   1     -25.822  -2.542  29.581  0.00  0.00    -0.000 A 
ATOM      9  C   UNL A   1     -26.585  -3.626  29.952  0.00  0.00    -0.000 A 
ATOM     10  C   UNL A   1     -24.050  -3.897  28.660  0.00  0.00    -0.000 A 
ATOM     11  C   UNL A   1     -24.763  -5.081  28.956  0.00  0.00    -0.000 A 
ATOM     12  C   UNL A   1     -26.009  -4.937  29.625  0.00  0.00    +0.000 A 
ENDBRANCH   5   7
BRANCH   1  13
ATOM     13  C   UNL A   1     -23.703   1.579  26.457  0.00  0.00    +0.053 C 
BRANCH  13  16
ATOM     14  C   UNL A   1     -26.138  -0.057  24.237  0.00  0.00    +0.003 A 
ATOM     15  C   UNL A   1     -25.166   0.168  24.920  0.00  0.00    -0.004 A 
ATOM     16  C   UNL A   1     -25.006   1.270  25.742  0.00  0.00    -0.015 A 
ATOM     17  C   UNL A   1     -26.091   2.194  25.806  0.00  0.00    +0.038 A 
ATOM     18  C   UNL A   1     -27.217   1.842  25.165  0.00  0.00    +0.195 A 
ATOM     19  C   UNL A   1     -27.291   0.758  24.447  0.00  0.00    +0.042 A 
ATOM     20  O   UNL A   1     -28.260   2.720  25.285  0.00  0.00    -0.287 OA
ENDBRANCH  13  16
ENDBRANCH   1  13
TORSDOF 3
ENDMDL
ENDMDL
