MODEL 496
MODEL 1
REMARK VINA RESULT:    -5.205      0.000      0.000
REMARK INTER + INTRA:          -6.345
REMARK INTER:                  -6.118
REMARK INTRA:                  -0.227
REMARK UNBOUND:                -0.227
REMARK  Name = No_496-gen_results/8p0m/2024-11-27-11-27-31/
REMARK  3 active torsions:
REMARK  status: ('A' for Active; 'I' for Inactive)
REMARK    1  A    between atoms: C_1  and  C_2
REMARK    2  A    between atoms: C_1  and  C_8
REMARK    3  A    between atoms: C_5  and  C_10
REMARK                            x       y       z     vdW  Elec       q    Type
REMARK                         _______ _______ _______ _____ _____    ______ ____
ROOT
ATOM      1  C   UNL A   1     -23.907  -1.837  29.121  0.00  0.00    -0.022 A 
ATOM      2  C   UNL A   1     -22.666  -1.219  29.263  0.00  0.00    -0.004 A 
ATOM      3  C   UNL A   1     -22.242   0.074  28.691  0.00  0.00    +0.001 A 
ATOM      4  C   UNL A   1     -23.129   0.649  27.730  0.00  0.00    +0.021 A 
ATOM      5  C   UNL A   1     -24.369   0.036  27.522  0.00  0.00    +0.001 A 
ATOM      6  C   UNL A   1     -24.741  -1.109  28.138  0.00  0.00    -0.004 A 
ENDROOT
BRANCH   4   7
ATOM      7  C   UNL A   1     -22.681   1.889  27.119  0.00  0.00    +0.122 C 
ATOM      8  N   UNL A   1     -23.134   2.259  25.931  0.00  0.00    -0.146 NA
ENDBRANCH   4   7
BRANCH   1   9
ATOM      9  C   UNL A   1     -24.189  -2.897  29.629  0.00  0.00    +0.026 C 
BRANCH   9  10
ATOM     10  C   UNL A   1     -24.169  -4.036  28.635  0.00  0.00    +0.005 C 
ATOM     11  C   UNL A   1     -24.859  -5.279  28.976  0.00  0.00    +0.000 C 
ENDBRANCH   9  10
ENDBRANCH   1   9
TORSDOF 3
ENDMDL
ENDMDL
