REMARK  Name = outputs/IAG933/test6/raw/output_497_IAG933_linker_design_.xyz
REMARK  13 active torsions:
REMARK  status: ('A' for Active; 'I' for Inactive)
REMARK    1  A    between atoms: C_1  and  C_2
REMARK    2  A    between atoms: C_1  and  C_8
REMARK    3  A    between atoms: C_1  and  N_32
REMARK    4  A    between atoms: C_13  and  C_31
REMARK    5  A    between atoms: C_14  and  C_15
REMARK    6  A    between atoms: C_21  and  O_22
REMARK    7  A    between atoms: O_22  and  C_23
REMARK    8  A    between atoms: C_23  and  C_24
REMARK    9  A    between atoms: C_31  and  C_35
REMARK   10  A    between atoms: N_32  and  C_35
REMARK   11  A    between atoms: N_32  and  C_39
REMARK   12  A    between atoms: O_33  and  C_35
REMARK   13  A    between atoms: C_39  and  C_40
REMARK                            x       y       z     vdW  Elec       q    Type
REMARK                         _______ _______ _______ _____ _____    ______ ____
ROOT
ATOM      1  N   UNL A   1     -25.387  -0.144  28.951  0.00  0.00    -0.239 NA
ENDROOT
BRANCH   1   2
ATOM      2  C   UNL A   1     -24.855  -1.012  30.143  0.00  0.00    +0.098 C 
BRANCH   2   3
ATOM      3  C   UNL A   1     -24.973  -2.505  29.788  0.00  0.00    -0.006 C 
ATOM      4  C   UNL A   1     -23.906  -3.173  29.146  0.00  0.00    -0.003 C 
ATOM      5  C   UNL A   1     -23.989  -4.549  28.853  0.00  0.00    -0.000 C 
ATOM      6  C   UNL A   1     -25.137  -5.280  29.205  0.00  0.00    -0.000 C 
ATOM      7  C   UNL A   1     -26.232  -4.611  29.784  0.00  0.00    -0.000 C 
ATOM      8  C   UNL A   1     -26.155  -3.232  30.065  0.00  0.00    -0.003 C 
ENDBRANCH   2   3
BRANCH   2   9
ATOM      9  C   UNL A   1     -25.387  -0.679  31.571  0.00  0.00    +0.092 C 
ATOM     10  C   UNL A   1     -25.189   0.773  32.028  0.00  0.00    +0.021 C 
ATOM     11  C   UNL A   1     -25.336   0.684  33.544  0.00  0.00    +0.020 C 
ATOM     12  C   UNL A   1     -24.829  -0.715  33.905  0.00  0.00    +0.089 C 
ATOM     13  N   UNL A   1     -24.758  -1.481  32.646  0.00  0.00    -0.218 NA
ENDBRANCH   2   9
ENDBRANCH   1   2
BRANCH   1  14
ATOM     14  C   UNL A   1     -24.280   0.667  28.209  0.00  0.00    +0.177 C 
BRANCH  14  15
ATOM     15  O   UNL A   1     -22.801   0.276  28.080  0.00  0.00    -0.338 OA
ATOM     16  C   UNL A   1     -21.858   1.318  27.685  0.00  0.00    +0.176 C 
ENDBRANCH  14  15
BRANCH  14  17
ATOM     17  C   UNL A   1     -24.346   1.440  26.866  0.00  0.00    +0.055 C 
BRANCH  17  18
ATOM     18  C   UNL A   1     -25.688   1.614  26.461  0.00  0.00    +0.074 C 
ATOM     19  C   UNL A   1     -26.250   2.920  26.395  0.00  0.00    +0.055 C 
ATOM     20  C   UNL A   1     -27.438   3.091  25.645  0.00  0.00    +0.102 C 
ATOM     21  N   UNL A   1     -28.075   2.089  25.003  0.00  0.00    -0.212 NA
ATOM     22  C   UNL A   1     -27.543   0.849  25.079  0.00  0.00    +0.234 C 
ATOM     23  C   UNL A   1     -26.354   0.576  25.777  0.00  0.00    +0.240 C 
ATOM     24  F   UNL A   1     -25.860  -0.681  25.795  0.00  0.00    -0.227 F 
BRANCH  19  25
ATOM     25  C   UNL A   1     -25.642   4.093  27.123  0.00  0.00    +0.262 C 
ATOM     26  N   UNL A   1     -25.614   5.252  26.449  0.00  0.00    -0.200 NA
ATOM     27  C   UNL A   1     -25.026   6.479  26.963  0.00  0.00    +0.139 C 
ATOM     28  O   UNL A   1     -25.143   3.966  28.243  0.00  0.00    -0.269 OA
ENDBRANCH  19  25
BRANCH  22  29
ATOM     29  O   UNL A   1     -28.193  -0.208  24.477  0.00  0.00    -0.459 OA
BRANCH  29  30
ATOM     30  C   UNL A   1     -29.460   0.005  23.866  0.00  0.00    +0.242 C 
BRANCH  30  31
ATOM     31  C   UNL A   1     -30.065  -1.377  23.573  0.00  0.00    +0.229 C 
ATOM     32  O   UNL A   1     -30.729  -1.878  24.721  0.00  0.00    -0.216 OA
ENDBRANCH  30  31
ENDBRANCH  29  30
ENDBRANCH  22  29
ENDBRANCH  17  18
ENDBRANCH  14  17
ENDBRANCH   1  14
BRANCH   1  33
ATOM     33  C   UNL A   1     -26.975  -0.036  29.186  0.00  0.00    +0.161 C 
BRANCH  33  40
ATOM     34  C   UNL A   1     -29.062   2.646  29.183  0.00  0.00    +0.112 C 
ATOM     35  N   UNL A   1     -28.631   1.607  30.218  0.00  0.00    -0.263 N 
ATOM     36  O   UNL A   1     -28.680  -0.582  29.551  0.00  0.00    -0.273 OA
ATOM     37  C   UNL A   1     -31.072   3.586  32.324  0.00  0.00    +0.091 C 
ATOM     38  N   UNL A   1     -30.088   3.042  31.359  0.00  0.00    -0.253 NA
ATOM     39  C   UNL A   1     -30.176   3.401  29.908  0.00  0.00    +0.095 C 
ATOM     40  C   UNL A   1     -28.181   0.394  29.687  0.00  0.00    +0.243 C 
ATOM     41  C   UNL A   1     -28.975   2.103  31.562  0.00  0.00    +0.171 C 
ENDBRANCH  33  40
ENDBRANCH   1  33
TORSDOF 13
