MODEL 4970
MODEL 1
REMARK VINA RESULT:    -6.773      0.000      0.000
REMARK INTER + INTRA:          -7.435
REMARK INTER:                  -7.169
REMARK INTRA:                  -0.266
REMARK UNBOUND:                -0.266
REMARK  Name = No_4970-gen_results/8p0m/2024-11-27-11-27-31/
REMARK  1 active torsions:
REMARK  status: ('A' for Active; 'I' for Inactive)
REMARK    1  A    between atoms: C_3  and  C_7
REMARK                            x       y       z     vdW  Elec       q    Type
REMARK                         _______ _______ _______ _____ _____    ______ ____
ROOT
ATOM      1  C   UNL A   1     -23.768  -1.298  28.731  0.00  0.00    -0.004 A 
ATOM      2  C   UNL A   1     -22.610  -1.170  29.246  0.00  0.00    -0.000 A 
ATOM      3  C   UNL A   1     -21.905   0.092  29.052  0.00  0.00    -0.000 A 
ATOM      4  C   UNL A   1     -22.426   1.020  28.124  0.00  0.00    -0.000 A 
ATOM      5  C   UNL A   1     -23.562   0.645  27.442  0.00  0.00    -0.004 A 
ATOM      6  C   UNL A   1     -24.334  -0.363  27.755  0.00  0.00    -0.022 A 
ATOM      7  C   UNL A   1     -25.574  -0.617  27.075  0.00  0.00    +0.031 C 
ENDROOT
BRANCH   1  10
ATOM      8  C   UNL A   1     -23.970  -3.829  28.595  0.00  0.00    -0.000 A 
ATOM      9  C   UNL A   1     -24.512  -4.716  28.770  0.00  0.00    -0.000 A 
ATOM     10  C   UNL A   1     -24.564  -2.607  28.981  0.00  0.00    -0.000 A 
ATOM     11  C   UNL A   1     -25.548  -2.542  29.572  0.00  0.00    -0.000 A 
ATOM     12  C   UNL A   1     -25.783  -4.894  29.472  0.00  0.00    -0.000 A 
ATOM     13  C   UNL A   1     -26.319  -3.719  29.883  0.00  0.00    -0.000 A 
ENDBRANCH   1  10
TORSDOF 1
ENDMDL
ENDMDL
