REMARK  Name = outputs/IAG933/test6/raw/output_4970_IAG933_linker_design_.xyz
REMARK  10 active torsions:
REMARK  status: ('A' for Active; 'I' for Inactive)
REMARK    1  A    between atoms: C_1  and  C_2
REMARK    2  A    between atoms: C_1  and  C_8
REMARK    3  A    between atoms: C_1  and  C_36
REMARK    4  A    between atoms: C_14  and  C_15
REMARK    5  A    between atoms: C_21  and  O_22
REMARK    6  A    between atoms: O_22  and  C_23
REMARK    7  A    between atoms: C_23  and  C_24
REMARK    8  A    between atoms: C_32  and  C_36
REMARK    9  A    between atoms: C_35  and  C_36
REMARK   10  A    between atoms: C_41  and  O_46
REMARK                            x       y       z     vdW  Elec       q    Type
REMARK                         _______ _______ _______ _____ _____    ______ ____
ROOT
ATOM      1  C   UNL A   1     -25.688   1.614  26.461  0.00  0.00    +0.126 C 
ATOM      2  C   UNL A   1     -26.250   2.920  26.395  0.00  0.00    +0.069 C 
ATOM      3  C   UNL A   1     -27.438   3.091  25.645  0.00  0.00    +0.103 C 
ATOM      4  N   UNL A   1     -28.075   2.089  25.003  0.00  0.00    -0.212 NA
ATOM      5  C   UNL A   1     -27.543   0.849  25.079  0.00  0.00    +0.235 C 
ATOM      6  C   UNL A   1     -26.354   0.576  25.777  0.00  0.00    +0.254 C 
ATOM      7  F   UNL A   1     -25.860  -0.681  25.795  0.00  0.00    -0.225 F 
ATOM      8  C   UNL A   1     -22.231  -0.083  29.616  0.00  0.00    +0.012 C 
ATOM      9  C   UNL A   1     -22.729   0.903  28.636  0.00  0.00    +0.101 C 
ATOM     10  C   UNL A   1     -24.225   0.801  28.274  0.00  0.00    +0.033 C 
ATOM     11  C   UNL A   1     -24.489   1.291  27.152  0.00  0.00    +0.082 C 
ATOM     12  O   UNL A   1     -20.964   2.491  28.317  0.00  0.00    -0.250 OA
ATOM     13  C   UNL A   1     -21.874   1.651  27.802  0.00  0.00    +0.318 C 
ATOM     14  N   UNL A   1     -23.952   1.470  25.806  0.00  0.00    -0.230 NA
ATOM     15  O   UNL A   1     -21.691   1.510  26.409  0.00  0.00    -0.430 OA
ATOM     16  C   UNL A   1     -22.590   1.946  25.396  0.00  0.00    +0.288 C 
ENDROOT
BRANCH   2  17
ATOM     17  C   UNL A   1     -25.642   4.093  27.123  0.00  0.00    +0.264 C 
ATOM     18  N   UNL A   1     -25.614   5.252  26.449  0.00  0.00    -0.200 NA
ATOM     19  C   UNL A   1     -25.026   6.479  26.963  0.00  0.00    +0.139 C 
ATOM     20  O   UNL A   1     -25.143   3.966  28.243  0.00  0.00    -0.269 OA
ENDBRANCH   2  17
BRANCH   5  21
ATOM     21  O   UNL A   1     -28.193  -0.208  24.477  0.00  0.00    -0.459 OA
BRANCH  21  22
ATOM     22  C   UNL A   1     -29.460   0.005  23.866  0.00  0.00    +0.242 C 
BRANCH  22  23
ATOM     23  C   UNL A   1     -30.065  -1.377  23.573  0.00  0.00    +0.229 C 
ATOM     24  O   UNL A   1     -30.729  -1.878  24.721  0.00  0.00    -0.216 OA
ENDBRANCH  22  23
ENDBRANCH  21  22
ENDBRANCH   5  21
BRANCH  10  25
ATOM     25  C   UNL A   1     -25.237   0.159  29.150  0.00  0.00    +0.059 C 
BRANCH  25  29
ATOM     26  O   UNL A   1     -26.774   2.834  30.071  0.00  0.00    -0.736 OA
ATOM     27  C   UNL A   1     -29.163  -0.069  28.768  0.00  0.00    +0.106 C 
ATOM     28  N   UNL A   1     -27.405   1.739  29.822  0.00  0.00    +0.343 NA
ATOM     29  C   UNL A   1     -26.774   0.545  29.321  0.00  0.00    +0.088 C 
ATOM     30  C   UNL A   1     -27.701  -0.497  28.954  0.00  0.00    +0.076 C 
ATOM     31  C   UNL A   1     -28.774   1.862  29.844  0.00  0.00    +0.210 C 
ATOM     32  C   UNL A   1     -29.421   1.401  28.721  0.00  0.00    +0.110 C 
ATOM     33  N   UNL A   1     -29.965  -0.546  29.934  0.00  0.00    -0.132 NA
BRANCH  31  35
ATOM     34  C   UNL A   1     -29.057   2.999  31.961  0.00  0.00    +0.180 C 
ATOM     35  O   UNL A   1     -29.554   2.298  30.860  0.00  0.00    -0.309 OA
ENDBRANCH  31  35
ENDBRANCH  25  29
BRANCH  25  36
ATOM     36  C   UNL A   1     -24.855  -1.012  30.143  0.00  0.00    +0.044 C 
BRANCH  36  37
ATOM     37  C   UNL A   1     -24.973  -2.505  29.788  0.00  0.00    -0.021 C 
ATOM     38  C   UNL A   1     -23.906  -3.173  29.146  0.00  0.00    -0.004 C 
ATOM     39  C   UNL A   1     -23.989  -4.549  28.853  0.00  0.00    -0.000 C 
ATOM     40  C   UNL A   1     -25.137  -5.280  29.205  0.00  0.00    -0.000 C 
ATOM     41  C   UNL A   1     -26.232  -4.611  29.784  0.00  0.00    -0.000 C 
ATOM     42  C   UNL A   1     -26.155  -3.232  30.065  0.00  0.00    -0.004 C 
ENDBRANCH  36  37
BRANCH  36  43
ATOM     43  C   UNL A   1     -25.387  -0.679  31.571  0.00  0.00    +0.077 C 
ATOM     44  C   UNL A   1     -25.189   0.773  32.028  0.00  0.00    +0.019 C 
ATOM     45  C   UNL A   1     -25.336   0.684  33.544  0.00  0.00    +0.020 C 
ATOM     46  C   UNL A   1     -24.829  -0.715  33.905  0.00  0.00    +0.089 C 
ATOM     47  N   UNL A   1     -24.758  -1.481  32.646  0.00  0.00    -0.219 NA
ENDBRANCH  36  43
ENDBRANCH  25  36
ENDBRANCH  10  25
TORSDOF 10
