MODEL 4971
MODEL 1
REMARK VINA RESULT:    -8.597      0.000      0.000
REMARK INTER + INTRA:         -11.708
REMARK INTER:                 -10.607
REMARK INTRA:                  -1.102
REMARK UNBOUND:                -1.102
REMARK  Name = No_4971-gen_results/8p0m/2024-11-27-11-27-31/
REMARK  4 active torsions:
REMARK  status: ('A' for Active; 'I' for Inactive)
REMARK    1  A    between atoms: C_1  and  O_18
REMARK    2  A    between atoms: C_3  and  C_7
REMARK    3  A    between atoms: O_18  and  C_19
REMARK    4  A    between atoms: C_19  and  C_20
REMARK                            x       y       z     vdW  Elec       q    Type
REMARK                         _______ _______ _______ _____ _____    ______ ____
ROOT
ATOM      1  C   UNL A   1     -22.962  -0.208  28.309  0.00  0.00    +0.176 A 
ATOM      2  C   UNL A   1     -24.025   0.259  27.970  0.00  0.00    +0.040 A 
ATOM      3  C   UNL A   1     -24.156   1.479  27.308  0.00  0.00    +0.003 A 
ATOM      4  C   UNL A   1     -22.970   2.275  27.055  0.00  0.00    +0.003 A 
ATOM      5  C   UNL A   1     -21.768   1.672  27.487  0.00  0.00    +0.033 A 
ATOM      6  C   UNL A   1     -21.745   0.520  28.108  0.00  0.00    +0.174 A 
ATOM      7  F   UNL A   1     -20.562   0.014  28.501  0.00  0.00    -0.201 F 
ENDROOT
BRANCH   3   8
ATOM      8  C   UNL A   1     -25.424   2.106  26.851  0.00  0.00    +0.000 A 
ATOM      9  C   UNL A   1     -26.004   1.752  25.734  0.00  0.00    +0.000 A 
ATOM     10  C   UNL A   1     -27.189   2.418  25.277  0.00  0.00    +0.000 A 
ATOM     11  C   UNL A   1     -27.853   2.031  24.101  0.00  0.00    +0.000 A 
ATOM     12  C   UNL A   1     -26.012   3.255  27.570  0.00  0.00    +0.000 A 
ATOM     13  C   UNL A   1     -27.719   3.573  25.957  0.00  0.00    +0.000 A 
ATOM     14  C   UNL A   1     -27.064   3.924  27.166  0.00  0.00    +0.000 A 
ATOM     15  C   UNL A   1     -27.841   0.951  23.613  0.00  0.00    +0.000 A 
ATOM     16  C   UNL A   1     -27.277  -0.232  24.327  0.00  0.00    +0.000 A 
ATOM     17  C   UNL A   1     -26.161   0.307  25.201  0.00  0.00    +0.000 A 
ENDBRANCH   3   8
BRANCH   1  18
ATOM     18  O   UNL A   1     -22.721  -1.338  29.007  0.00  0.00    -0.419 OA
BRANCH  18  19
ATOM     19  C   UNL A   1     -23.546  -1.576  30.107  0.00  0.00    +0.346 C 
ATOM     20  O   UNL A   1     -23.444  -0.796  31.056  0.00  0.00    -0.244 OA
BRANCH  19  21
ATOM     21  C   UNL A   1     -24.505  -2.524  29.944  0.00  0.00    +0.076 A 
ATOM     22  C   UNL A   1     -25.694  -2.392  30.292  0.00  0.00    +0.006 A 
ATOM     23  C   UNL A   1     -26.775  -3.395  30.089  0.00  0.00    +0.000 A 
ATOM     24  C   UNL A   1     -26.327  -4.598  29.531  0.00  0.00    +0.000 A 
ATOM     25  C   UNL A   1     -24.127  -3.792  29.281  0.00  0.00    +0.006 A 
ATOM     26  C   UNL A   1     -25.061  -4.783  29.098  0.00  0.00    +0.000 A 
ENDBRANCH  19  21
ENDBRANCH  18  19
ENDBRANCH   1  18
TORSDOF 4
ENDMDL
ENDMDL
