MODEL 4972
MODEL 1
REMARK VINA RESULT:    -7.635      0.000      0.000
REMARK INTER + INTRA:          -8.849
REMARK INTER:                  -8.528
REMARK INTRA:                  -0.321
REMARK UNBOUND:                -0.321
REMARK  Name = No_4972-gen_results/8p0m/2024-11-27-11-27-31/
REMARK  2 active torsions:
REMARK  status: ('A' for Active; 'I' for Inactive)
REMARK    1  A    between atoms: C_3  and  C_12
REMARK    2  A    between atoms: C_12  and  C_13
REMARK                            x       y       z     vdW  Elec       q    Type
REMARK                         _______ _______ _______ _____ _____    ______ ____
ROOT
ATOM      1  O   UNL A   1     -26.291   0.829  29.833  0.00  0.00    -0.273 OA
ATOM      2  C   UNL A   1     -25.745  -0.247  29.561  0.00  0.00    +0.246 C 
ATOM      3  C   UNL A   1     -24.534  -0.387  29.167  0.00  0.00    +0.087 C 
ATOM      4  N   UNL A   1     -26.448  -1.490  29.812  0.00  0.00    -0.179 NA
ATOM      5  C   UNL A   1     -23.874  -1.628  28.822  0.00  0.00    +0.037 C 
ATOM      6  C   UNL A   1     -25.905  -2.739  29.565  0.00  0.00    +0.069 A 
ATOM      7  C   UNL A   1     -26.663  -3.945  29.787  0.00  0.00    +0.016 A 
ATOM      8  C   UNL A   1     -24.576  -2.850  29.068  0.00  0.00    -0.006 A 
ATOM      9  C   UNL A   1     -25.834  -5.092  29.485  0.00  0.00    +0.001 A 
ATOM     10  C   UNL A   1     -24.642  -5.209  28.956  0.00  0.00    -0.000 A 
ATOM     11  C   UNL A   1     -23.985  -4.099  28.755  0.00  0.00    -0.003 A 
ENDROOT
BRANCH   3  12
ATOM     12  C   UNL A   1     -23.741   0.865  29.014  0.00  0.00    +0.031 C 
ATOM     13  C   UNL A   1     -23.465   1.488  30.355  0.00  0.00    +0.005 C 
BRANCH  12  14
ATOM     14  C   UNL A   1     -23.378   1.361  27.954  0.00  0.00    -0.022 A 
ATOM     15  C   UNL A   1     -22.112   1.516  27.653  0.00  0.00    -0.004 A 
ATOM     16  C   UNL A   1     -21.682   1.942  26.316  0.00  0.00    -0.000 A 
ATOM     17  C   UNL A   1     -22.649   2.286  25.427  0.00  0.00    -0.000 A 
ATOM     18  C   UNL A   1     -24.381   1.953  27.020  0.00  0.00    -0.004 A 
ATOM     19  C   UNL A   1     -23.967   2.297  25.738  0.00  0.00    -0.000 A 
ENDBRANCH  12  14
ENDBRANCH   3  12
TORSDOF 2
ENDMDL
ENDMDL
