REMARK  Name = outputs/IAG933/test6/raw/output_4973_IAG933_linker_design_.xyz
REMARK  14 active torsions:
REMARK  status: ('A' for Active; 'I' for Inactive)
REMARK    1  A    between atoms: C_1  and  C_2
REMARK    2  A    between atoms: C_1  and  C_8
REMARK    3  A    between atoms: C_1  and  C_37
REMARK    4  A    between atoms: C_13  and  N_42
REMARK    5  A    between atoms: C_14  and  C_15
REMARK    6  A    between atoms: C_21  and  O_22
REMARK    7  A    between atoms: O_22  and  C_23
REMARK    8  A    between atoms: C_23  and  C_24
REMARK    9  A    between atoms: C_29  and  C_30
REMARK   10  A    between atoms: C_30  and  C_35
REMARK   11  A    between atoms: C_30  and  O_38
REMARK   12  A    between atoms: C_32  and  C_35
REMARK   13  A    between atoms: C_32  and  C_37
REMARK   14  A    between atoms: C_37  and  C_40
REMARK                            x       y       z     vdW  Elec       q    Type
REMARK                         _______ _______ _______ _____ _____    ______ ____
ROOT
ATOM      1  C   UNL A   1     -21.689   1.270  27.922  0.00  0.00    +0.083 C 
ATOM      2  O   UNL A   1     -22.388   0.149  30.046  0.00  0.00    -0.221 OA
ATOM      3  C   UNL A   1     -22.757   1.022  28.912  0.00  0.00    +0.178 C 
ATOM      4  C   UNL A   1     -24.198   0.725  28.304  0.00  0.00    +0.127 C 
ATOM      5  C   UNL A   1     -22.181   1.591  26.567  0.00  0.00    +0.094 C 
ATOM      6  N   UNL A   1     -24.436   1.290  27.075  0.00  0.00    -0.208 N 
ATOM      7  N   UNL A   1     -23.474   1.520  26.175  0.00  0.00    -0.181 NA
ENDROOT
BRANCH   6   8
ATOM      8  C   UNL A   1     -25.688   1.614  26.461  0.00  0.00    +0.107 C 
ATOM      9  C   UNL A   1     -26.250   2.920  26.395  0.00  0.00    +0.092 C 
ATOM     10  C   UNL A   1     -27.438   3.091  25.645  0.00  0.00    +0.108 C 
ATOM     11  N   UNL A   1     -28.075   2.089  25.003  0.00  0.00    -0.208 NA
ATOM     12  C   UNL A   1     -27.543   0.849  25.079  0.00  0.00    +0.255 C 
ATOM     13  C   UNL A   1     -26.354   0.576  25.777  0.00  0.00    +0.208 C 
ATOM     14  F   UNL A   1     -25.860  -0.681  25.795  0.00  0.00    -0.198 F 
BRANCH   9  15
ATOM     15  C   UNL A   1     -25.642   4.093  27.123  0.00  0.00    +0.268 C 
ATOM     16  N   UNL A   1     -25.614   5.252  26.449  0.00  0.00    -0.200 NA
ATOM     17  C   UNL A   1     -25.026   6.479  26.963  0.00  0.00    +0.139 C 
ATOM     18  O   UNL A   1     -25.143   3.966  28.243  0.00  0.00    -0.268 OA
ENDBRANCH   9  15
BRANCH  12  19
ATOM     19  O   UNL A   1     -28.193  -0.208  24.477  0.00  0.00    -0.456 OA
BRANCH  19  20
ATOM     20  C   UNL A   1     -29.460   0.005  23.866  0.00  0.00    +0.243 C 
BRANCH  20  21
ATOM     21  C   UNL A   1     -30.065  -1.377  23.573  0.00  0.00    +0.229 C 
ATOM     22  O   UNL A   1     -30.729  -1.878  24.721  0.00  0.00    -0.216 OA
ENDBRANCH  20  21
ENDBRANCH  19  20
ENDBRANCH  12  19
ENDBRANCH   6   8
BRANCH   4  23
ATOM     23  C   UNL A   1     -25.007  -0.172  28.879  0.00  0.00    +0.028 C 
BRANCH  23  24
ATOM     24  C   UNL A   1     -24.855  -1.012  30.143  0.00  0.00    +0.040 C 
BRANCH  24  25
ATOM     25  C   UNL A   1     -24.973  -2.505  29.788  0.00  0.00    -0.021 C 
ATOM     26  C   UNL A   1     -23.906  -3.173  29.146  0.00  0.00    -0.004 C 
ATOM     27  C   UNL A   1     -23.989  -4.549  28.853  0.00  0.00    -0.000 C 
ATOM     28  C   UNL A   1     -25.137  -5.280  29.205  0.00  0.00    -0.000 C 
ATOM     29  C   UNL A   1     -26.232  -4.611  29.784  0.00  0.00    -0.000 C 
ATOM     30  C   UNL A   1     -26.155  -3.232  30.065  0.00  0.00    -0.004 C 
ENDBRANCH  24  25
BRANCH  24  31
ATOM     31  C   UNL A   1     -25.387  -0.679  31.571  0.00  0.00    +0.077 C 
ATOM     32  C   UNL A   1     -25.189   0.773  32.028  0.00  0.00    +0.019 C 
ATOM     33  C   UNL A   1     -25.336   0.684  33.544  0.00  0.00    +0.020 C 
ATOM     34  C   UNL A   1     -24.829  -0.715  33.905  0.00  0.00    +0.089 C 
ATOM     35  N   UNL A   1     -24.758  -1.481  32.646  0.00  0.00    -0.219 NA
ENDBRANCH  24  31
ENDBRANCH  23  24
BRANCH  23  36
ATOM     36  C   UNL A   1     -26.112   0.216  28.498  0.00  0.00    +0.005 C 
BRANCH  36  37
ATOM     37  C   UNL A   1     -27.574  -0.189  28.190  0.00  0.00    +0.030 C 
BRANCH  37  38
ATOM     38  C   UNL A   1     -28.176   0.137  29.541  0.00  0.00    +0.123 C 
ATOM     39  C   UNL A   1     -28.021   1.635  29.701  0.00  0.00    +0.032 C 
BRANCH  38  41
ATOM     40  C   UNL A   1     -29.190   0.096  31.525  0.00  0.00    +0.174 C 
ATOM     41  O   UNL A   1     -28.199  -0.567  30.805  0.00  0.00    -0.353 OA
ENDBRANCH  38  41
BRANCH  38  42
ATOM     42  C   UNL A   1     -29.528   0.168  29.101  0.00  0.00    +0.209 C 
ATOM     43  O   UNL A   1     -30.072  -0.014  27.780  0.00  0.00    -0.218 OA
ENDBRANCH  38  42
ENDBRANCH  37  38
ENDBRANCH  36  37
ENDBRANCH  23  36
ENDBRANCH   4  23
TORSDOF 14
