MODEL 4973
MODEL 1
REMARK VINA RESULT:    -5.956      0.000      0.000
REMARK INTER + INTRA:          -7.430
REMARK INTER:                  -7.000
REMARK INTRA:                  -0.430
REMARK UNBOUND:                -0.430
REMARK  Name = No_4973-gen_results/8p0m/2024-11-27-11-27-31/
REMARK  3 active torsions:
REMARK  status: ('A' for Active; 'I' for Inactive)
REMARK    1  A    between atoms: C_1  and  N_8
REMARK    2  A    between atoms: C_5  and  C_10
REMARK    3  A    between atoms: N_8  and  C_9
REMARK                            x       y       z     vdW  Elec       q    Type
REMARK                         _______ _______ _______ _____ _____    ______ ____
ROOT
ATOM      1  C   UNL A   1     -23.013  -1.455  29.197  0.00  0.00    +0.077 C 
ATOM      2  C   UNL A   1     -23.252  -0.473  28.533  0.00  0.00    -0.028 C 
ATOM      3  C   UNL A   1     -22.337   0.557  28.321  0.00  0.00    +0.024 C 
ATOM      4  C   UNL A   1     -22.547   1.791  27.540  0.00  0.00    +0.013 C 
ATOM      5  C   UNL A   1     -23.741   1.834  26.757  0.00  0.00    +0.096 C 
ATOM      6  C   UNL A   1     -24.668   0.797  26.904  0.00  0.00    +0.013 C 
ATOM      7  C   UNL A   1     -24.460  -0.275  27.700  0.00  0.00    +0.024 C 
ENDROOT
BRANCH   5   8
ATOM      8  C   UNL A   1     -23.930   3.028  25.956  0.00  0.00    +0.398 C 
ATOM      9  F   UNL A   1     -24.959   2.988  25.260  0.00  0.00    -0.170 F 
ATOM     10  F   UNL A   1     -22.919   3.187  24.997  0.00  0.00    -0.170 F 
ATOM     11  F   UNL A   1     -23.997   4.154  26.651  0.00  0.00    -0.170 F 
ENDBRANCH   5   8
BRANCH   1  12
ATOM     12  N   UNL A   1     -24.051  -1.927  29.947  0.00  0.00    -0.211 NA
BRANCH  12  13
ATOM     13  C   UNL A   1     -24.300  -3.251  29.972  0.00  0.00    +0.081 C 
ATOM     14  C   UNL A   1     -24.555  -3.992  28.913  0.00  0.00    -0.008 C 
ATOM     15  C   UNL A   1     -24.859  -5.365  28.907  0.00  0.00    +0.032 C 
ENDBRANCH  12  13
ENDBRANCH   1  12
TORSDOF 3
ENDMDL
ENDMDL
