MODEL 4974
MODEL 1
REMARK VINA RESULT:    -5.298      0.000      0.000
REMARK INTER + INTRA:          -5.748
REMARK INTER:                  -5.608
REMARK INTRA:                  -0.140
REMARK UNBOUND:                -0.140
REMARK  Name = No_4974-gen_results/8p0m/2024-11-27-11-27-31/
REMARK  1 active torsions:
REMARK  status: ('A' for Active; 'I' for Inactive)
REMARK    1  A    between atoms: C_4  and  C_6
REMARK                            x       y       z     vdW  Elec       q    Type
REMARK                         _______ _______ _______ _____ _____    ______ ____
ROOT
ATOM      1  C   UNL A   1     -24.641  -5.265  28.914  0.00  0.00    -0.000 A 
ATOM      2  C   UNL A   1     -25.624  -5.175  29.283  0.00  0.00    -0.000 A 
ATOM      3  C   UNL A   1     -23.923  -3.960  28.651  0.00  0.00    +0.004 A 
ATOM      4  C   UNL A   1     -24.531  -2.747  29.038  0.00  0.00    +0.071 A 
ATOM      5  C   UNL A   1     -26.459  -4.064  29.791  0.00  0.00    -0.000 A 
ATOM      6  C   UNL A   1     -25.808  -2.822  29.589  0.00  0.00    +0.004 A 
ENDROOT
BRANCH   4   7
ATOM      7  C   UNL A   1     -23.914  -1.491  28.834  0.00  0.00    +0.419 C 
ATOM      8  F   UNL A   1     -24.258  -0.939  27.804  0.00  0.00    -0.166 F 
ATOM      9  F   UNL A   1     -22.506  -1.587  28.851  0.00  0.00    -0.166 F 
ATOM     10  F   UNL A   1     -24.186  -0.643  29.868  0.00  0.00    -0.166 F 
ENDBRANCH   4   7
TORSDOF 1
ENDMDL
ENDMDL
