MODEL 4975
MODEL 1
REMARK VINA RESULT:    -7.703      0.000      0.000
REMARK INTER + INTRA:         -10.270
REMARK INTER:                  -9.054
REMARK INTRA:                  -1.216
REMARK UNBOUND:                -1.216
REMARK  Name = No_4975-gen_results/8p0m/2024-11-27-11-27-31/
REMARK  3 active torsions:
REMARK  status: ('A' for Active; 'I' for Inactive)
REMARK    1  A    between atoms: C_2  and  C_17
REMARK    2  A    between atoms: C_3  and  C_7
REMARK    3  A    between atoms: C_11  and  C_13
REMARK                            x       y       z     vdW  Elec       q    Type
REMARK                         _______ _______ _______ _____ _____    ______ ____
ROOT
ATOM      1  C   UNL A   1     -24.139  -0.123  27.871  0.00  0.00    +0.018 A 
ATOM      2  C   UNL A   1     -24.605   0.345  26.778  0.00  0.00    +0.058 A 
ATOM      3  C   UNL A   1     -23.809   1.383  26.104  0.00  0.00    +0.011 A 
ATOM      4  C   UNL A   1     -22.722   1.964  26.822  0.00  0.00    +0.002 A 
ATOM      5  C   UNL A   1     -22.978   0.392  28.482  0.00  0.00    +0.042 A 
ATOM      6  C   UNL A   1     -22.344   1.408  27.976  0.00  0.00    +0.008 A 
ATOM      7 CL   UNL A   1     -25.992  -0.077  25.838  0.00  0.00    -0.082 Cl
ENDROOT
BRANCH   1  10
ATOM      8  C   UNL A   1     -24.414  -2.636  28.379  0.00  0.00    +0.007 A 
ATOM      9  C   UNL A   1     -25.005  -3.329  28.910  0.00  0.00    +0.080 A 
ATOM     10  C   UNL A   1     -24.870  -1.253  28.515  0.00  0.00    +0.002 A 
ATOM     11  C   UNL A   1     -25.955  -0.914  29.286  0.00  0.00    +0.000 A 
ATOM     12  C   UNL A   1     -26.174  -3.262  29.786  0.00  0.00    +0.007 A 
ATOM     13  C   UNL A   1     -26.623  -1.927  29.925  0.00  0.00    +0.000 A 
BRANCH   9  14
ATOM     14  C   UNL A   1     -24.579  -4.906  28.858  0.00  0.00    +0.388 C 
ATOM     15  O   UNL A   1     -23.761  -5.261  28.111  0.00  0.00    -0.241 OA
ATOM     16  O   UNL A   1     -25.231  -5.647  29.595  0.00  0.00    -0.241 OA
ENDBRANCH   9  14
ENDBRANCH   1  10
BRANCH   5  17
ATOM     17  C   UNL A   1     -22.520  -0.181  29.797  0.00  0.00    -0.064 C 
ATOM     18  C   UNL A   1     -22.696  -0.406  30.826  0.00  0.00    -0.085 C 
ATOM     19  C   UNL A   1     -23.037  -1.037  32.040  0.00  0.00    +0.090 C 
ENDBRANCH   5  17
TORSDOF 3
ENDMDL
ENDMDL
