REMARK  Name = No_4975-gen_results/8p0m/2024-11-27-11-27-31/
REMARK  3 active torsions:
REMARK  status: ('A' for Active; 'I' for Inactive)
REMARK    1  A    between atoms: C_2  and  C_17
REMARK    2  A    between atoms: C_3  and  C_7
REMARK    3  A    between atoms: C_11  and  C_13
REMARK                            x       y       z     vdW  Elec       q    Type
REMARK                         _______ _______ _______ _____ _____    ______ ____
ROOT
ATOM      1  C   UNL A   1     -26.317   0.399  27.365  0.00  0.00    +0.018 A 
ATOM      2  C   UNL A   1     -26.881   0.971  26.372  0.00  0.00    +0.058 A 
ATOM      3  C   UNL A   1     -26.146   0.970  25.097  0.00  0.00    +0.011 A 
ATOM      4  C   UNL A   1     -24.779   0.561  25.112  0.00  0.00    +0.002 A 
ATOM      5  C   UNL A   1     -25.007  -0.116  27.299  0.00  0.00    +0.042 A 
ATOM      6  C   UNL A   1     -24.288   0.006  26.223  0.00  0.00    +0.008 A 
ATOM      7 CL   UNL A   1     -28.439   1.694  26.186  0.00  0.00    -0.082 Cl
ENDROOT
BRANCH   1  10
ATOM      8  C   UNL A   1     -28.016  -0.814  28.878  0.00  0.00    +0.007 A 
ATOM      9  C   UNL A   1     -28.469  -0.785  29.829  0.00  0.00    +0.080 A 
ATOM     10  C   UNL A   1     -27.087   0.290  28.638  0.00  0.00    +0.002 A 
ATOM     11  C   UNL A   1     -26.832   1.249  29.587  0.00  0.00    +0.000 A 
ATOM     12  C   UNL A   1     -28.391   0.080  31.006  0.00  0.00    +0.007 A 
ATOM     13  C   UNL A   1     -27.494   1.152  30.784  0.00  0.00    +0.000 A 
BRANCH   9  14
ATOM     14  C   UNL A   1     -29.507  -1.983  30.227  0.00  0.00    +0.388 C 
ATOM     15  O   UNL A   1     -30.136  -1.904  31.202  0.00  0.00    -0.241 OA
ATOM     16  O   UNL A   1     -29.496  -2.955  29.471  0.00  0.00    -0.241 OA
ENDBRANCH   9  14
ENDBRANCH   1  10
BRANCH   5  17
ATOM     17  C   UNL A   1     -24.393  -0.731  28.529  0.00  0.00    -0.064 C 
ATOM     18  C   UNL A   1     -23.573  -1.206  29.022  0.00  0.00    -0.085 C 
ATOM     19  C   UNL A   1     -22.410  -1.474  29.772  0.00  0.00    +0.090 C 
ENDBRANCH   5  17
TORSDOF 3
