REMARK  Name = outputs/IAG933/test6/raw/output_4976_IAG933_linker_design_.xyz
REMARK  11 active torsions:
REMARK  status: ('A' for Active; 'I' for Inactive)
REMARK    1  A    between atoms: C_1  and  C_2
REMARK    2  A    between atoms: C_1  and  C_8
REMARK    3  A    between atoms: C_1  and  N_35
REMARK    4  A    between atoms: C_13  and  N_41
REMARK    5  A    between atoms: C_14  and  C_15
REMARK    6  A    between atoms: C_21  and  O_22
REMARK    7  A    between atoms: O_22  and  C_23
REMARK    8  A    between atoms: C_23  and  C_24
REMARK    9  A    between atoms: O_30  and  C_37
REMARK   10  A    between atoms: C_31  and  C_32
REMARK   11  A    between atoms: C_33  and  N_35
REMARK                            x       y       z     vdW  Elec       q    Type
REMARK                         _______ _______ _______ _____ _____    ______ ____
ROOT
ATOM      1  C   UNL A   1     -23.101   0.518  28.855  0.00  0.00    +0.203 A 
ATOM      2  C   UNL A   1     -24.423   0.563  28.371  0.00  0.00    +0.155 A 
ATOM      3  F   UNL A   1     -22.546  -0.021  29.976  0.00  0.00    -0.199 F 
ATOM      4  C   UNL A   1     -23.201   1.645  26.919  0.00  0.00    +0.289 A 
ATOM      5  C   UNL A   1     -22.317   1.188  27.831  0.00  0.00    +0.225 A 
ATOM      6  F   UNL A   1     -21.033   1.429  28.120  0.00  0.00    -0.197 F 
ATOM      7  N   UNL A   1     -24.507   1.293  27.195  0.00  0.00    -0.257 N 
ENDROOT
BRANCH   7   8
ATOM      8  C   UNL A   1     -25.688   1.614  26.461  0.00  0.00    +0.106 C 
ATOM      9  C   UNL A   1     -26.250   2.920  26.395  0.00  0.00    +0.093 C 
ATOM     10  C   UNL A   1     -27.438   3.091  25.645  0.00  0.00    +0.108 C 
ATOM     11  N   UNL A   1     -28.075   2.089  25.003  0.00  0.00    -0.208 NA
ATOM     12  C   UNL A   1     -27.543   0.849  25.079  0.00  0.00    +0.255 C 
ATOM     13  C   UNL A   1     -26.354   0.576  25.777  0.00  0.00    +0.209 C 
ATOM     14  F   UNL A   1     -25.860  -0.681  25.795  0.00  0.00    -0.198 F 
BRANCH   9  15
ATOM     15  C   UNL A   1     -25.642   4.093  27.123  0.00  0.00    +0.268 C 
ATOM     16  N   UNL A   1     -25.614   5.252  26.449  0.00  0.00    -0.200 NA
ATOM     17  C   UNL A   1     -25.026   6.479  26.963  0.00  0.00    +0.139 C 
ATOM     18  O   UNL A   1     -25.143   3.966  28.243  0.00  0.00    -0.268 OA
ENDBRANCH   9  15
BRANCH  12  19
ATOM     19  O   UNL A   1     -28.193  -0.208  24.477  0.00  0.00    -0.456 OA
BRANCH  19  20
ATOM     20  C   UNL A   1     -29.460   0.005  23.866  0.00  0.00    +0.243 C 
BRANCH  20  21
ATOM     21  C   UNL A   1     -30.065  -1.377  23.573  0.00  0.00    +0.229 C 
ATOM     22  O   UNL A   1     -30.729  -1.878  24.721  0.00  0.00    -0.216 OA
ENDBRANCH  20  21
ENDBRANCH  19  20
ENDBRANCH  12  19
ENDBRANCH   7   8
BRANCH   2  24
ATOM     23  C   UNL A   1     -26.711   0.320  29.190  0.00  0.00    +0.231 C 
ATOM     24  N   UNL A   1     -25.430  -0.022  29.193  0.00  0.00    -0.239 N 
ATOM     25  O   UNL A   1     -27.455  -0.568  28.870  0.00  0.00    -0.275 OA
BRANCH  23  27
ATOM     26  C   UNL A   1     -28.634   2.133  29.793  0.00  0.00    +0.010 C 
ATOM     27  C   UNL A   1     -27.216   1.645  29.615  0.00  0.00    +0.086 C 
ENDBRANCH  23  27
BRANCH  24  28
ATOM     28  C   UNL A   1     -24.855  -1.012  30.143  0.00  0.00    +0.119 C 
BRANCH  28  29
ATOM     29  C   UNL A   1     -24.973  -2.505  29.788  0.00  0.00    -0.003 C 
ATOM     30  C   UNL A   1     -23.906  -3.173  29.146  0.00  0.00    -0.003 C 
ATOM     31  C   UNL A   1     -23.989  -4.549  28.853  0.00  0.00    -0.000 C 
ATOM     32  C   UNL A   1     -25.137  -5.280  29.205  0.00  0.00    -0.000 C 
ATOM     33  C   UNL A   1     -26.232  -4.611  29.784  0.00  0.00    -0.000 C 
ATOM     34  C   UNL A   1     -26.155  -3.232  30.065  0.00  0.00    -0.003 C 
ENDBRANCH  28  29
BRANCH  28  35
ATOM     35  C   UNL A   1     -25.387  -0.679  31.571  0.00  0.00    +0.096 C 
ATOM     36  C   UNL A   1     -25.189   0.773  32.028  0.00  0.00    +0.021 C 
ATOM     37  C   UNL A   1     -25.336   0.684  33.544  0.00  0.00    +0.020 C 
ATOM     38  C   UNL A   1     -24.829  -0.715  33.905  0.00  0.00    +0.089 C 
ATOM     39  N   UNL A   1     -24.758  -1.481  32.646  0.00  0.00    -0.217 NA
ENDBRANCH  28  35
ENDBRANCH  24  28
ENDBRANCH   2  24
BRANCH   4  40
ATOM     40  O   UNL A   1     -22.645   2.425  25.945  0.00  0.00    -0.271 OA
ATOM     41  F   UNL A   1     -21.448   1.957  25.700  0.00  0.00    +0.015 F 
ENDBRANCH   4  40
TORSDOF 11
