MODEL 4976
MODEL 1
REMARK VINA RESULT:    -6.030      0.000      0.000
REMARK INTER + INTRA:          -6.030
REMARK INTER:                  -6.030
REMARK INTRA:                   0.000
REMARK UNBOUND:                 0.000
REMARK  Name = No_4976-gen_results/8p0m/2024-11-27-11-27-31/
REMARK  0 active torsions:
REMARK  status: ('A' for Active; 'I' for Inactive)
REMARK                            x       y       z     vdW  Elec       q    Type
REMARK                         _______ _______ _______ _____ _____    ______ ____
ROOT
ATOM      1  C   UNL A   1     -22.703  -1.426  28.925  0.00  0.00    +0.043 A 
ATOM      2  C   UNL A   1     -22.389  -0.465  29.221  0.00  0.00    +0.180 A 
ATOM      3  C   UNL A   1     -23.844  -2.013  29.725  0.00  0.00    +0.033 A 
ATOM      4  C   UNL A   1     -24.495  -1.214  30.689  0.00  0.00    +0.143 A 
ATOM      5  C   UNL A   1     -22.903   0.572  30.144  0.00  0.00    +0.182 A 
ATOM      6  C   UNL A   1     -23.958   0.071  30.894  0.00  0.00    +0.070 A 
ATOM      7  O   UNL A   1     -21.279   0.110  28.447  0.00  0.00    -0.447 OA
ATOM      8  C   UNL A   1     -21.254   1.151  27.774  0.00  0.00    +0.183 C 
ATOM      9  F   UNL A   1     -25.447  -1.701  31.408  0.00  0.00    -0.204 F 
ATOM     10  C   UNL A   1     -21.996   1.850  27.460  0.00  0.00    +0.077 C 
ATOM     11  C   UNL A   1     -23.425   1.566  27.762  0.00  0.00    +0.141 C 
ATOM     12  C   UNL A   1     -24.323   1.227  27.178  0.00  0.00    -0.009 C 
ATOM     13  C   UNL A   1     -24.307   1.113  25.715  0.00  0.00    +0.029 C 
ATOM     14  C   UNL A   1     -25.708   0.891  27.632  0.00  0.00    +0.029 C 
ATOM     15  O   UNL A   1     -23.647   1.854  29.128  0.00  0.00    -0.451 OA
ENDROOT
TORSDOF 0
ENDMDL
ENDMDL
