MODEL 4978
MODEL 1
REMARK VINA RESULT:    -5.473      0.000      0.000
REMARK INTER + INTRA:          -6.796
REMARK INTER:                  -6.433
REMARK INTRA:                  -0.363
REMARK UNBOUND:                -0.363
REMARK  Name = No_4978-gen_results/8p0m/2024-11-27-11-27-31/
REMARK  3 active torsions:
REMARK  status: ('A' for Active; 'I' for Inactive)
REMARK    1  A    between atoms: C_3  and  C_4
REMARK    2  A    between atoms: C_4  and  C_8
REMARK    3  A    between atoms: C_9  and  C_10
REMARK                            x       y       z     vdW  Elec       q    Type
REMARK                         _______ _______ _______ _____ _____    ______ ____
ROOT
ATOM      1  C   UNL A   1     -26.348  -4.464  29.702  0.00  0.00    -0.000 A 
ATOM      2  C   UNL A   1     -26.226  -3.262  29.659  0.00  0.00    -0.004 A 
ATOM      3  C   UNL A   1     -25.123  -2.673  29.050  0.00  0.00    -0.018 A 
ATOM      4  C   UNL A   1     -25.227  -5.329  29.327  0.00  0.00    -0.000 A 
ATOM      5  C   UNL A   1     -24.145  -4.846  28.633  0.00  0.00    -0.000 A 
ATOM      6  C   UNL A   1     -24.051  -3.460  28.484  0.00  0.00    -0.004 A 
ENDROOT
BRANCH   3   7
ATOM      7  C   UNL A   1     -24.969  -1.269  28.909  0.00  0.00    +0.052 C 
BRANCH   7   8
ATOM      8  C   UNL A   1     -24.982  -0.624  27.718  0.00  0.00    -0.021 C 
ATOM      9  C   UNL A   1     -24.204   0.343  27.285  0.00  0.00    -0.004 C 
BRANCH   9  10
ATOM     10  C   UNL A   1     -24.438   0.823  26.036  0.00  0.00    -0.000 C 
ATOM     11  C   UNL A   1     -25.283   0.104  25.155  0.00  0.00    -0.000 C 
ENDBRANCH   9  10
ENDBRANCH   7   8
ENDBRANCH   3   7
TORSDOF 3
ENDMDL
ENDMDL
