MODEL 4979
MODEL 1
REMARK VINA RESULT:    -6.876      0.000      0.000
REMARK INTER + INTRA:         -11.820
REMARK INTER:                 -10.091
REMARK INTRA:                  -1.728
REMARK UNBOUND:                -1.728
REMARK  Name = No_4979-gen_results/8p0m/2024-11-27-11-27-31/
REMARK  8 active torsions:
REMARK  status: ('A' for Active; 'I' for Inactive)
REMARK    1  A    between atoms: C_6  and  C_11
REMARK    2  A    between atoms: C_10  and  C_14
REMARK    3  A    between atoms: C_14  and  C_15
REMARK    4  A    between atoms: C_15  and  C_17
REMARK    5  A    between atoms: C_17  and  C_18
REMARK    6  A    between atoms: C_18  and  C_19
REMARK    7  A    between atoms: C_19  and  N_24
REMARK    8  A    between atoms: C_20  and  C_21
REMARK                            x       y       z     vdW  Elec       q    Type
REMARK                         _______ _______ _______ _____ _____    ______ ____
ROOT
ATOM      1  C   UNL A   1     -26.456  -0.008  24.950  0.00  0.00    +0.007 A 
ATOM      2  C   UNL A   1     -25.553   0.760  25.186  0.00  0.00    -0.000 A 
ATOM      3  C   UNL A   1     -25.745   2.037  25.714  0.00  0.00    -0.004 A 
ATOM      4  C   UNL A   1     -26.684   2.506  25.862  0.00  0.00    -0.000 A 
ATOM      5  C   UNL A   1     -26.988   3.881  26.393  0.00  0.00    -0.000 A 
ATOM      6  C   UNL A   1     -27.823   0.552  25.084  0.00  0.00    +0.080 A 
ATOM      7  C   UNL A   1     -27.998   1.843  25.571  0.00  0.00    +0.007 A 
ATOM      8  C   UNL A   1     -26.006   4.378  27.274  0.00  0.00    -0.000 A 
ATOM      9  C   UNL A   1     -24.636   3.858  27.090  0.00  0.00    -0.004 A 
ATOM     10  C   UNL A   1     -24.503   2.682  26.388  0.00  0.00    -0.022 A 
ENDROOT
BRANCH   6  11
ATOM     11  C   UNL A   1     -28.884  -0.284  24.495  0.00  0.00    +0.388 C 
ATOM     12  O   UNL A   1     -29.782  -0.713  25.218  0.00  0.00    -0.241 OA
ATOM     13  O   UNL A   1     -28.780  -0.832  23.357  0.00  0.00    -0.241 OA
ENDBRANCH   6  11
BRANCH  10  14
ATOM     14  C   UNL A   1     -23.112   2.138  26.332  0.00  0.00    +0.022 C 
ATOM     15  C   UNL A   1     -22.376   2.287  25.157  0.00  0.00    +0.005 C 
BRANCH  14  16
ATOM     16  C   UNL A   1     -22.599   1.607  27.548  0.00  0.00    +0.005 C 
BRANCH  16  17
ATOM     17  C   UNL A   1     -23.272   0.799  28.229  0.00  0.00    +0.007 C 
BRANCH  17  18
ATOM     18  C   UNL A   1     -23.376  -0.407  28.174  0.00  0.00    +0.046 C 
BRANCH  18  19
ATOM     19  C   UNL A   1     -23.446  -1.149  29.285  0.00  0.00    +0.065 C 
ATOM     20  C   UNL A   1     -24.084  -0.912  30.217  0.00  0.00    +0.101 C 
BRANCH  20  21
ATOM     21  C   UNL A   1     -23.540  -0.615  31.395  0.00  0.00    +0.389 C 
ATOM     22  O   UNL A   1     -24.264  -0.160  32.306  0.00  0.00    -0.240 OA
ATOM     23  O   UNL A   1     -22.308  -0.884  31.770  0.00  0.00    -0.240 OA
ENDBRANCH  20  21
BRANCH  19  24
ATOM     24  N   UNL A   1     -23.524  -2.614  28.915  0.00  0.00    -0.253 NA
ATOM     25  C   UNL A   1     -24.252  -3.394  29.082  0.00  0.00    +0.072 C 
ATOM     26  C   UNL A   1     -24.121  -4.818  28.582  0.00  0.00    +0.053 C 
ENDBRANCH  19  24
ENDBRANCH  18  19
ENDBRANCH  17  18
ENDBRANCH  16  17
ENDBRANCH  14  16
ENDBRANCH  10  14
TORSDOF 8
ENDMDL
ENDMDL
