MODEL 497
MODEL 1
REMARK VINA RESULT:    -5.349      0.000      0.000
REMARK INTER + INTRA:          -5.791
REMARK INTER:                  -5.661
REMARK INTRA:                  -0.130
REMARK UNBOUND:                -0.130
REMARK  Name = No_497-gen_results/8p0m/2024-11-27-11-27-31/
REMARK  1 active torsions:
REMARK  status: ('A' for Active; 'I' for Inactive)
REMARK    1  A    between atoms: C_6  and  C_8
REMARK                            x       y       z     vdW  Elec       q    Type
REMARK                         _______ _______ _______ _____ _____    ______ ____
ROOT
ATOM      1  C   UNL A   1     -23.862  -2.981  28.935  0.00  0.00    +0.016 A 
ATOM      2  C   UNL A   1     -24.757  -3.756  29.178  0.00  0.00    +0.064 A 
ATOM      3  C   UNL A   1     -25.964  -3.316  29.709  0.00  0.00    +0.045 A 
ATOM      4  C   UNL A   1     -26.169  -1.927  30.031  0.00  0.00    +0.007 A 
ATOM      5  C   UNL A   1     -25.074  -1.104  29.741  0.00  0.00    +0.004 A 
ATOM      6  C   UNL A   1     -23.948  -1.572  29.254  0.00  0.00    +0.072 A 
ATOM      7 CL   UNL A   1     -24.668  -5.445  28.905  0.00  0.00    -0.082 Cl
ATOM      8 BR   UNL A   1     -27.485  -4.450  30.078  0.00  0.00    -0.048 Br
ENDROOT
BRANCH   6   9
ATOM      9  C   UNL A   1     -22.744  -0.758  29.057  0.00  0.00    +0.419 C 
ATOM     10  F   UNL A   1     -21.704  -1.455  28.948  0.00  0.00    -0.166 F 
ATOM     11  F   UNL A   1     -22.930   0.072  28.004  0.00  0.00    -0.166 F 
ATOM     12  F   UNL A   1     -22.584   0.066  30.149  0.00  0.00    -0.166 F 
ENDBRANCH   6   9
TORSDOF 1
ENDMDL
ENDMDL
