REMARK  Name = outputs/IAG933/test6/raw/output_4980_IAG933_linker_design_.xyz
REMARK  21 active torsions:
REMARK  status: ('A' for Active; 'I' for Inactive)
REMARK    1  A    between atoms: C_1  and  C_2
REMARK    2  A    between atoms: C_1  and  C_8
REMARK    3  A    between atoms: C_9  and  C_42
REMARK    4  A    between atoms: C_14  and  C_15
REMARK    5  A    between atoms: C_15  and  O_18
REMARK    6  A    between atoms: O_18  and  C_34
REMARK    7  A    between atoms: C_21  and  O_22
REMARK    8  A    between atoms: O_22  and  C_23
REMARK    9  A    between atoms: C_23  and  C_24
REMARK   10  A    between atoms: O_30  and  C_38
REMARK   11  A    between atoms: O_30  and  C_42
REMARK   12  A    between atoms: O_31  and  C_35
REMARK   13  A    between atoms: O_31  and  C_40
REMARK   14  A    between atoms: C_32  and  C_38
REMARK   15  A    between atoms: C_33  and  C_36
REMARK   16  A    between atoms: C_33  and  C_42
REMARK   17  A    between atoms: C_34  and  C_36
REMARK   18  A    between atoms: C_35  and  C_37
REMARK   19  A    between atoms: C_36  and  C_37
REMARK   20  A    between atoms: N_41  and  C_44
REMARK   21  A    between atoms: C_43  and  C_44
REMARK                            x       y       z     vdW  Elec       q    Type
REMARK                         _______ _______ _______ _____ _____    ______ ____
ROOT
ATOM      1  C   UNL A   1     -26.052   3.977  30.318  0.00  0.00    +0.080 C 
ENDROOT
BRANCH   1   3
ATOM      2  O   UNL A   1     -24.619   3.970  32.341  0.00  0.00    -0.219 OA
ATOM      3  C   UNL A   1     -25.643   4.612  31.636  0.00  0.00    +0.199 C 
BRANCH   3   4
ATOM      4  C   UNL A   1     -25.199   6.010  31.291  0.00  0.00    +0.243 C 
BRANCH   4   5
ATOM      5  O   UNL A   1     -26.299   6.832  30.951  0.00  0.00    -0.431 OA
BRANCH   5   7
ATOM      6  O   UNL A   1     -25.615   8.596  29.704  0.00  0.00    -0.225 OA
ATOM      7  C   UNL A   1     -25.992   8.188  30.794  0.00  0.00    +0.422 C 
ATOM      8  N   UNL A   1     -26.169   8.931  31.890  0.00  0.00    -0.163 NA
BRANCH   8   9
ATOM      9  C   UNL A   1     -26.531  10.325  32.106  0.00  0.00    +0.161 C 
BRANCH   9  11
ATOM     10  N   UNL A   1     -24.294  10.795  32.777  0.00  0.00    -0.155 NA
ATOM     11  C   UNL A   1     -25.334  11.262  32.291  0.00  0.00    +0.081 C 
ATOM     12  C   UNL A   1     -25.483  12.703  31.927  0.00  0.00    +0.051 C 
ENDBRANCH   9  11
ENDBRANCH   8   9
ENDBRANCH   5   7
ENDBRANCH   4   5
ENDBRANCH   3   4
ENDBRANCH   1   3
BRANCH   1  13
ATOM     13  C   UNL A   1     -26.282   4.437  29.086  0.00  0.00    +0.210 C 
BRANCH  13  14
ATOM     14  O   UNL A   1     -25.143   3.966  28.243  0.00  0.00    -0.460 OA
BRANCH  14  15
ATOM     15  C   UNL A   1     -25.642   4.093  27.123  0.00  0.00    +0.222 C 
ATOM     16  N   UNL A   1     -25.614   5.252  26.449  0.00  0.00    -0.236 NA
ATOM     17  C   UNL A   1     -25.026   6.479  26.963  0.00  0.00    +0.155 C 
BRANCH  15  19
ATOM     18  C   UNL A   1     -25.688   1.614  26.461  0.00  0.00    +0.041 C 
ATOM     19  C   UNL A   1     -26.250   2.920  26.395  0.00  0.00    +0.074 C 
ATOM     20  C   UNL A   1     -27.438   3.091  25.645  0.00  0.00    +0.107 C 
ATOM     21  N   UNL A   1     -28.075   2.089  25.003  0.00  0.00    -0.208 NA
ATOM     22  C   UNL A   1     -27.543   0.849  25.079  0.00  0.00    +0.253 C 
ATOM     23  C   UNL A   1     -26.354   0.576  25.777  0.00  0.00    +0.193 C 
ATOM     24  F   UNL A   1     -25.860  -0.681  25.795  0.00  0.00    -0.199 F 
BRANCH  22  25
ATOM     25  O   UNL A   1     -28.193  -0.208  24.477  0.00  0.00    -0.456 OA
BRANCH  25  26
ATOM     26  C   UNL A   1     -29.460   0.005  23.866  0.00  0.00    +0.243 C 
BRANCH  26  27
ATOM     27  C   UNL A   1     -30.065  -1.377  23.573  0.00  0.00    +0.229 C 
ATOM     28  O   UNL A   1     -30.729  -1.878  24.721  0.00  0.00    -0.216 OA
ENDBRANCH  26  27
ENDBRANCH  25  26
ENDBRANCH  22  25
ENDBRANCH  15  19
ENDBRANCH  14  15
ENDBRANCH  13  14
ENDBRANCH   1  13
BRANCH   1  29
ATOM     29  C   UNL A   1     -25.891   2.552  30.508  0.00  0.00    +0.036 C 
BRANCH  29  30
ATOM     30  C   UNL A   1     -24.991   1.770  30.903  0.00  0.00    +0.117 C 
BRANCH  30  32
ATOM     31  C   UNL A   1     -25.387  -0.679  31.571  0.00  0.00    +0.080 C 
ATOM     32  C   UNL A   1     -25.189   0.773  32.028  0.00  0.00    +0.045 C 
ATOM     33  C   UNL A   1     -25.336   0.684  33.544  0.00  0.00    +0.023 C 
ATOM     34  C   UNL A   1     -24.829  -0.715  33.905  0.00  0.00    +0.089 C 
ATOM     35  N   UNL A   1     -24.758  -1.481  32.646  0.00  0.00    -0.219 NA
BRANCH  31  36
ATOM     36  C   UNL A   1     -24.855  -1.012  30.143  0.00  0.00    +0.044 C 
BRANCH  36  37
ATOM     37  C   UNL A   1     -24.973  -2.505  29.788  0.00  0.00    -0.021 C 
ATOM     38  C   UNL A   1     -23.906  -3.173  29.146  0.00  0.00    -0.004 C 
ATOM     39  C   UNL A   1     -23.989  -4.549  28.853  0.00  0.00    -0.000 C 
ATOM     40  C   UNL A   1     -25.137  -5.280  29.205  0.00  0.00    -0.000 C 
ATOM     41  C   UNL A   1     -26.232  -4.611  29.784  0.00  0.00    -0.000 C 
ATOM     42  C   UNL A   1     -26.155  -3.232  30.065  0.00  0.00    -0.004 C 
ENDBRANCH  36  37
ENDBRANCH  31  36
ENDBRANCH  30  32
BRANCH  30  43
ATOM     43  O   UNL A   1     -23.755   1.452  30.168  0.00  0.00    -0.356 OA
BRANCH  43  44
ATOM     44  C   UNL A   1     -23.346   1.655  28.778  0.00  0.00    +0.142 C 
BRANCH  44  45
ATOM     45  C   UNL A   1     -21.982   0.992  28.452  0.00  0.00    +0.032 C 
ATOM     46  C   UNL A   1     -21.327   1.691  27.259  0.00  0.00    +0.003 C 
ENDBRANCH  44  45
ENDBRANCH  43  44
ENDBRANCH  30  43
ENDBRANCH  29  30
ENDBRANCH   1  29
TORSDOF 21
