MODEL 4981
MODEL 1
REMARK VINA RESULT:    -5.176      0.000      0.000
REMARK INTER + INTRA:          -5.914
REMARK INTER:                  -5.782
REMARK INTRA:                  -0.133
REMARK UNBOUND:                -0.133
REMARK  Name = No_4981-gen_results/8p0m/2024-11-27-11-27-31/
REMARK  2 active torsions:
REMARK  status: ('A' for Active; 'I' for Inactive)
REMARK    1  A    between atoms: C_2  and  C_3
REMARK    2  A    between atoms: C_8  and  C_9
REMARK                            x       y       z     vdW  Elec       q    Type
REMARK                         _______ _______ _______ _____ _____    ______ ____
ROOT
ATOM      1  C   UNL A   1     -22.500  -0.257  29.051  0.00  0.00    +0.050 A 
ATOM      2  C   UNL A   1     -22.919   0.277  30.394  0.00  0.00    +0.004 A 
ATOM      3  C   UNL A   1     -23.292  -0.555  31.346  0.00  0.00    +0.000 A 
ATOM      4  C   UNL A   1     -23.986  -1.828  31.003  0.00  0.00    +0.005 A 
ATOM      5  C   UNL A   1     -23.879  -2.246  29.662  0.00  0.00    +0.059 A 
ATOM      6  C   UNL A   1     -23.102  -1.585  28.789  0.00  0.00    +0.009 A 
ENDROOT
BRANCH   1   8
ATOM      7  O   UNL A   1     -20.493   0.157  28.415  0.00  0.00    -0.274 OA
ATOM      8  C   UNL A   1     -21.715   0.239  28.582  0.00  0.00    +0.254 C 
ATOM      9 CL   UNL A   1     -22.419   1.591  27.347  0.00  0.00    -0.038 Cl
ENDBRANCH   1   8
BRANCH   5  10
ATOM     10  C   UNL A   1     -24.504  -3.495  29.197  0.00  0.00    +0.297 C 
ATOM     11  N   UNL A   1     -23.755  -4.428  28.697  0.00  0.00    -0.102 NA
ATOM     12  O   UNL A   1     -25.695  -3.834  29.639  0.00  0.00    -0.264 OA
ENDBRANCH   5  10
TORSDOF 2
ENDMDL
ENDMDL
