REMARK  Name = No_4981-gen_results/8p0m/2024-11-27-11-27-31/
REMARK  2 active torsions:
REMARK  status: ('A' for Active; 'I' for Inactive)
REMARK    1  A    between atoms: C_2  and  C_3
REMARK    2  A    between atoms: C_8  and  C_9
REMARK                            x       y       z     vdW  Elec       q    Type
REMARK                         _______ _______ _______ _____ _____    ______ ____
ROOT
ATOM      1  C   UNL A   1     -26.402  -0.062  28.622  0.00  0.00    +0.050 A 
ATOM      2  C   UNL A   1     -26.900   0.961  27.637  0.00  0.00    +0.004 A 
ATOM      3  C   UNL A   1     -26.078   1.466  26.739  0.00  0.00    +0.000 A 
ATOM      4  C   UNL A   1     -24.634   1.647  27.059  0.00  0.00    +0.005 A 
ATOM      5  C   UNL A   1     -24.156   0.930  28.173  0.00  0.00    +0.059 A 
ATOM      6  C   UNL A   1     -24.940   0.056  28.825  0.00  0.00    +0.009 A 
ENDROOT
BRANCH   1   8
ATOM      7  O   UNL A   1     -28.123  -1.335  28.487  0.00  0.00    -0.274 OA
ATOM      8  C   UNL A   1     -27.064  -0.824  28.869  0.00  0.00    +0.254 C 
ATOM      9 CL   UNL A   1     -26.256  -2.006  30.211  0.00  0.00    -0.038 Cl
ENDBRANCH   1   8
BRANCH   5  10
ATOM     10  C   UNL A   1     -22.744   1.008  28.586  0.00  0.00    +0.297 C 
ATOM     11  N   UNL A   1     -22.250   0.065  29.325  0.00  0.00    -0.102 NA
ATOM     12  O   UNL A   1     -21.906   1.761  27.909  0.00  0.00    -0.264 OA
ENDBRANCH   5  10
TORSDOF 2
