MODEL 4983
MODEL 1
REMARK VINA RESULT:    -6.479      0.000      0.000
REMARK INTER + INTRA:          -7.817
REMARK INTER:                  -7.236
REMARK INTRA:                  -0.581
REMARK UNBOUND:                -0.581
REMARK  Name = No_4983-gen_results/8p0m/2024-11-27-11-27-31/
REMARK  2 active torsions:
REMARK  status: ('A' for Active; 'I' for Inactive)
REMARK    1  A    between atoms: C_4  and  C_7
REMARK    2  A    between atoms: C_7  and  C_8
REMARK                            x       y       z     vdW  Elec       q    Type
REMARK                         _______ _______ _______ _____ _____    ______ ____
ROOT
ATOM      1  C   UNL A   1     -26.319  -4.360  29.678  0.00  0.00    +0.006 A 
ATOM      2  C   UNL A   1     -25.577  -4.996  29.285  0.00  0.00    +0.001 A 
ATOM      3  C   UNL A   1     -25.934  -2.957  29.898  0.00  0.00    +0.031 A 
ATOM      4  C   UNL A   1     -24.665  -2.476  29.463  0.00  0.00    -0.012 A 
ATOM      5  C   UNL A   1     -23.824  -3.411  28.912  0.00  0.00    -0.003 A 
ATOM      6  C   UNL A   1     -24.220  -4.692  28.757  0.00  0.00    -0.000 A 
ATOM      7 BR   UNL A   1     -27.057  -1.676  30.740  0.00  0.00    -0.049 Br
ENDROOT
BRANCH   4   8
ATOM      8  C   UNL A   1     -24.286  -1.089  29.661  0.00  0.00    +0.053 C 
BRANCH   8   9
ATOM      9  C   UNL A   1     -24.038  -0.332  28.495  0.00  0.00    -0.018 A 
ATOM     10  C   UNL A   1     -24.899  -0.365  27.389  0.00  0.00    -0.004 A 
ATOM     11  C   UNL A   1     -24.757   0.490  26.334  0.00  0.00    -0.000 A 
ATOM     12  C   UNL A   1     -22.855   0.455  28.333  0.00  0.00    -0.004 A 
ATOM     13  C   UNL A   1     -22.722   1.435  27.359  0.00  0.00    -0.000 A 
ATOM     14  C   UNL A   1     -23.684   1.436  26.279  0.00  0.00    -0.000 A 
ENDBRANCH   8   9
ENDBRANCH   4   8
TORSDOF 2
ENDMDL
ENDMDL
