REMARK  Name = outputs/IAG933/test6/raw/output_4984_IAG933_linker_design_.xyz
REMARK  13 active torsions:
REMARK  status: ('A' for Active; 'I' for Inactive)
REMARK    1  A    between atoms: C_1  and  C_2
REMARK    2  A    between atoms: C_1  and  C_8
REMARK    3  A    between atoms: C_9  and  S_31
REMARK    4  A    between atoms: C_13  and  C_34
REMARK    5  A    between atoms: C_14  and  C_15
REMARK    6  A    between atoms: C_21  and  O_22
REMARK    7  A    between atoms: O_22  and  C_23
REMARK    8  A    between atoms: C_23  and  C_24
REMARK    9  A    between atoms: S_31  and  C_33
REMARK   10  A    between atoms: S_31  and  C_35
REMARK   11  A    between atoms: C_33  and  C_40
REMARK   12  A    between atoms: C_35  and  C_41
REMARK   13  A    between atoms: C_39  and  C_41
REMARK                            x       y       z     vdW  Elec       q    Type
REMARK                         _______ _______ _______ _____ _____    ______ ____
ROOT
ATOM      1  C   UNL A   1     -21.969   1.391  27.828  0.00  0.00    +0.137 C 
ATOM      2  F   UNL A   1     -20.721   1.424  28.350  0.00  0.00    -0.204 F 
ATOM      3  C   UNL A   1     -24.540   1.487  26.882  0.00  0.00    +0.002 C 
ATOM      4  C   UNL A   1     -23.466   1.856  26.103  0.00  0.00    +0.002 C 
ATOM      5  C   UNL A   1     -22.137   1.698  26.504  0.00  0.00    +0.029 C 
ATOM      6  C   UNL A   1     -24.327   1.036  28.120  0.00  0.00    -0.001 C 
ATOM      7  C   UNL A   1     -23.081   1.194  28.706  0.00  0.00    +0.015 C 
ENDROOT
BRANCH   3   8
ATOM      8  C   UNL A   1     -25.688   1.614  26.461  0.00  0.00    +0.038 C 
ATOM      9  C   UNL A   1     -26.250   2.920  26.395  0.00  0.00    +0.076 C 
ATOM     10  C   UNL A   1     -27.438   3.091  25.645  0.00  0.00    +0.107 C 
ATOM     11  N   UNL A   1     -28.075   2.089  25.003  0.00  0.00    -0.208 NA
ATOM     12  C   UNL A   1     -27.543   0.849  25.079  0.00  0.00    +0.253 C 
ATOM     13  C   UNL A   1     -26.354   0.576  25.777  0.00  0.00    +0.193 C 
ATOM     14  F   UNL A   1     -25.860  -0.681  25.795  0.00  0.00    -0.199 F 
BRANCH   9  15
ATOM     15  C   UNL A   1     -25.642   4.093  27.123  0.00  0.00    +0.266 C 
ATOM     16  N   UNL A   1     -25.614   5.252  26.449  0.00  0.00    -0.200 NA
ATOM     17  C   UNL A   1     -25.026   6.479  26.963  0.00  0.00    +0.139 C 
ATOM     18  O   UNL A   1     -25.143   3.966  28.243  0.00  0.00    -0.268 OA
ENDBRANCH   9  15
BRANCH  12  19
ATOM     19  O   UNL A   1     -28.193  -0.208  24.477  0.00  0.00    -0.456 OA
BRANCH  19  20
ATOM     20  C   UNL A   1     -29.460   0.005  23.866  0.00  0.00    +0.243 C 
BRANCH  20  21
ATOM     21  C   UNL A   1     -30.065  -1.377  23.573  0.00  0.00    +0.229 C 
ATOM     22  O   UNL A   1     -30.729  -1.878  24.721  0.00  0.00    -0.216 OA
ENDBRANCH  20  21
ENDBRANCH  19  20
ENDBRANCH  12  19
ENDBRANCH   3   8
BRANCH   7  23
ATOM     23  C   UNL A   1     -23.037   1.474  30.286  0.00  0.00    +0.077 C 
BRANCH  23  24
ATOM     24  S   UNL A   1     -24.197   1.796  31.205  0.00  0.00    -0.169 S 
BRANCH  24  26
ATOM     25  C   UNL A   1     -25.387  -0.679  31.571  0.00  0.00    +0.086 C 
ATOM     26  C   UNL A   1     -25.189   0.773  32.028  0.00  0.00    +0.057 C 
ATOM     27  C   UNL A   1     -25.336   0.684  33.544  0.00  0.00    +0.030 C 
ATOM     28  C   UNL A   1     -24.829  -0.715  33.905  0.00  0.00    +0.090 C 
ATOM     29  N   UNL A   1     -24.758  -1.481  32.646  0.00  0.00    -0.218 NA
BRANCH  25  30
ATOM     30  C   UNL A   1     -24.855  -1.012  30.143  0.00  0.00    +0.044 C 
BRANCH  30  31
ATOM     31  C   UNL A   1     -24.973  -2.505  29.788  0.00  0.00    -0.021 C 
ATOM     32  C   UNL A   1     -23.906  -3.173  29.146  0.00  0.00    -0.004 C 
ATOM     33  C   UNL A   1     -23.989  -4.549  28.853  0.00  0.00    -0.000 C 
ATOM     34  C   UNL A   1     -25.137  -5.280  29.205  0.00  0.00    -0.000 C 
ATOM     35  C   UNL A   1     -26.232  -4.611  29.784  0.00  0.00    -0.000 C 
ATOM     36  C   UNL A   1     -26.155  -3.232  30.065  0.00  0.00    -0.004 C 
ENDBRANCH  30  31
ENDBRANCH  25  30
ENDBRANCH  24  26
BRANCH  24  37
ATOM     37  C   UNL A   1     -24.334   3.393  31.814  0.00  0.00    +0.091 C 
BRANCH  37  39
ATOM     38  N   UNL A   1     -26.264   3.517  33.240  0.00  0.00    -0.157 NA
ATOM     39  C   UNL A   1     -25.547   4.087  32.430  0.00  0.00    +0.068 C 
BRANCH  39  41
ATOM     40  C   UNL A   1     -27.237   5.929  31.961  0.00  0.00    +0.006 C 
ATOM     41  C   UNL A   1     -25.856   5.417  32.207  0.00  0.00    +0.044 C 
ENDBRANCH  39  41
ENDBRANCH  37  39
ENDBRANCH  24  37
ENDBRANCH  23  24
ENDBRANCH   7  23
TORSDOF 13
