MODEL 4984
MODEL 1
REMARK VINA RESULT:    -4.345      0.000      0.000
REMARK INTER + INTRA:          -4.345
REMARK INTER:                  -4.345
REMARK INTRA:                   0.000
REMARK UNBOUND:                 0.000
REMARK  Name = No_4984-gen_results/8p0m/2024-11-27-11-27-31/
REMARK  0 active torsions:
REMARK  status: ('A' for Active; 'I' for Inactive)
REMARK                            x       y       z     vdW  Elec       q    Type
REMARK                         _______ _______ _______ _____ _____    ______ ____
ROOT
ATOM      1  C   UNL A   1     -24.123  -4.840  28.579  0.00  0.00    +0.000 A 
ATOM      2  C   UNL A   1     -24.959  -5.296  29.030  0.00  0.00    +0.000 A 
ATOM      3  C   UNL A   1     -24.072  -3.386  28.777  0.00  0.00    +0.000 A 
ATOM      4  C   UNL A   1     -25.083  -2.700  29.313  0.00  0.00    +0.000 A 
ATOM      5  C   UNL A   1     -26.163  -4.776  29.631  0.00  0.00    +0.000 A 
ATOM      6  C   UNL A   1     -26.108  -3.422  29.784  0.00  0.00    +0.000 A 
ENDROOT
TORSDOF 0
ENDMDL
ENDMDL
