REMARK  Name = No_4985-gen_results/8p0m/2024-11-27-11-27-31/
REMARK  6 active torsions:
REMARK  status: ('A' for Active; 'I' for Inactive)
REMARK    1  A    between atoms: C_2  and  C_14
REMARK    2  A    between atoms: C_3  and  C_4
REMARK    3  A    between atoms: C_4  and  C_8
REMARK    4  A    between atoms: C_14  and  N_15
REMARK    5  A    between atoms: N_15  and  C_16
REMARK    6  A    between atoms: C_17  and  C_18
REMARK                            x       y       z     vdW  Elec       q    Type
REMARK                         _______ _______ _______ _____ _____    ______ ____
ROOT
ATOM      1  C   UNL A   1     -28.016  -0.814  28.878  0.00  0.00    -0.006 A 
ATOM      2  C   UNL A   1     -28.469  -0.785  29.829  0.00  0.00    -0.001 A 
ATOM      3  C   UNL A   1     -26.546  -0.876  28.850  0.00  0.00    -0.018 A 
ATOM      4  C   UNL A   1     -27.918  -1.003  31.188  0.00  0.00    -0.003 A 
ATOM      5  C   UNL A   1     -26.531  -1.079  31.246  0.00  0.00    -0.001 A 
ATOM      6  C   UNL A   1     -25.780  -1.046  30.090  0.00  0.00    -0.004 A 
ENDROOT
BRANCH   3   7
ATOM      7  C   UNL A   1     -25.683  -0.777  27.683  0.00  0.00    +0.053 C 
BRANCH   7   8
ATOM      8  C   UNL A   1     -25.232   0.579  27.329  0.00  0.00    -0.018 A 
ATOM      9  C   UNL A   1     -23.982   0.870  27.768  0.00  0.00    -0.004 A 
ATOM     10  C   UNL A   1     -23.412   2.148  27.388  0.00  0.00    -0.000 A 
ATOM     11  C   UNL A   1     -24.064   2.985  26.544  0.00  0.00    -0.000 A 
ATOM     12  C   UNL A   1     -25.882   1.393  26.416  0.00  0.00    -0.004 A 
ATOM     13  C   UNL A   1     -25.327   2.577  26.029  0.00  0.00    -0.000 A 
ENDBRANCH   7   8
ENDBRANCH   3   7
BRANCH   2  14
ATOM     14  C   UNL A   1     -30.053  -0.705  29.890  0.00  0.00    +0.139 C 
BRANCH  14  15
ATOM     15  N   UNL A   1     -30.558  -0.027  28.925  0.00  0.00    -0.232 NA
BRANCH  15  16
ATOM     16  C   UNL A   1     -31.523   0.683  28.946  0.00  0.00    +0.081 C 
ATOM     17  C   UNL A   1     -31.882   1.637  28.734  0.00  0.00    +0.017 C 
BRANCH  17  18
ATOM     18  C   UNL A   1     -30.836   2.631  28.415  0.00  0.00    +0.001 C 
ATOM     19  C   UNL A   1     -30.775   3.936  28.726  0.00  0.00    +0.000 C 
ENDBRANCH  17  18
ENDBRANCH  15  16
ENDBRANCH  14  15
ENDBRANCH   2  14
TORSDOF 6
