MODEL 4985
MODEL 1
REMARK VINA RESULT:    -7.227      0.000      0.000
REMARK INTER + INTRA:         -10.711
REMARK INTER:                  -9.762
REMARK INTRA:                  -0.949
REMARK UNBOUND:                -0.949
REMARK  Name = No_4985-gen_results/8p0m/2024-11-27-11-27-31/
REMARK  6 active torsions:
REMARK  status: ('A' for Active; 'I' for Inactive)
REMARK    1  A    between atoms: C_2  and  C_14
REMARK    2  A    between atoms: C_3  and  C_4
REMARK    3  A    between atoms: C_4  and  C_8
REMARK    4  A    between atoms: C_14  and  N_15
REMARK    5  A    between atoms: N_15  and  C_16
REMARK    6  A    between atoms: C_17  and  C_18
REMARK                            x       y       z     vdW  Elec       q    Type
REMARK                         _______ _______ _______ _____ _____    ______ ____
ROOT
ATOM      1  C   UNL A   1     -25.200  -0.412  26.998  0.00  0.00    -0.006 A 
ATOM      2  C   UNL A   1     -24.852   0.167  26.189  0.00  0.00    -0.001 A 
ATOM      3  C   UNL A   1     -24.472  -0.273  28.269  0.00  0.00    -0.018 A 
ATOM      4  C   UNL A   1     -23.872   1.278  26.124  0.00  0.00    -0.003 A 
ATOM      5  C   UNL A   1     -23.144   1.478  27.291  0.00  0.00    -0.001 A 
ATOM      6  C   UNL A   1     -23.420   0.739  28.422  0.00  0.00    -0.004 A 
ENDROOT
BRANCH   3   7
ATOM      7  C   UNL A   1     -24.655  -1.060  29.478  0.00  0.00    +0.053 C 
BRANCH   7   8
ATOM      8  C   UNL A   1     -24.943  -2.490  29.279  0.00  0.00    -0.018 A 
ATOM      9  C   UNL A   1     -23.881  -3.203  28.827  0.00  0.00    -0.004 A 
ATOM     10  C   UNL A   1     -24.039  -4.637  28.689  0.00  0.00    -0.000 A 
ATOM     11  C   UNL A   1     -25.175  -5.261  29.088  0.00  0.00    -0.000 A 
ATOM     12  C   UNL A   1     -26.084  -3.119  29.751  0.00  0.00    -0.004 A 
ATOM     13  C   UNL A   1     -26.215  -4.473  29.656  0.00  0.00    -0.000 A 
ENDBRANCH   7   8
ENDBRANCH   3   7
BRANCH   2  14
ATOM     14  C   UNL A   1     -25.611   0.028  24.801  0.00  0.00    +0.139 C 
BRANCH  14  15
ATOM     15  N   UNL A   1     -26.886   0.106  24.918  0.00  0.00    -0.232 NA
BRANCH  15  16
ATOM     16  C   UNL A   1     -27.671   0.582  24.148  0.00  0.00    +0.081 C 
ATOM     17  C   UNL A   1     -28.532   0.403  23.591  0.00  0.00    +0.017 C 
BRANCH  17  18
ATOM     18  C   UNL A   1     -28.950  -1.014  23.543  0.00  0.00    +0.001 C 
ATOM     19  C   UNL A   1     -30.159  -1.555  23.760  0.00  0.00    +0.000 C 
ENDBRANCH  17  18
ENDBRANCH  15  16
ENDBRANCH  14  15
ENDBRANCH   2  14
TORSDOF 6
ENDMDL
ENDMDL
