REMARK  Name = outputs/IAG933/test6/raw/output_4986_IAG933_linker_design_.xyz
REMARK  11 active torsions:
REMARK  status: ('A' for Active; 'I' for Inactive)
REMARK    1  A    between atoms: C_1  and  C_2
REMARK    2  A    between atoms: C_1  and  C_8
REMARK    3  A    between atoms: C_1  and  C_42
REMARK    4  A    between atoms: C_13  and  C_38
REMARK    5  A    between atoms: C_14  and  C_15
REMARK    6  A    between atoms: C_21  and  O_22
REMARK    7  A    between atoms: O_22  and  C_23
REMARK    8  A    between atoms: C_23  and  C_24
REMARK    9  A    between atoms: C_29  and  C_30
REMARK   10  A    between atoms: C_34  and  C_40
REMARK   11  A    between atoms: C_42  and  C_43
REMARK                            x       y       z     vdW  Elec       q    Type
REMARK                         _______ _______ _______ _____ _____    ______ ____
ROOT
ATOM      1  C   UNL A   1     -26.797   0.143  28.683  0.00  0.00    -0.013 C 
ATOM      2  C   UNL A   1     -25.368  -0.107  29.032  0.00  0.00    -0.042 C 
ENDROOT
BRANCH   1   4
ATOM      3  N   UNL A   1     -28.410  -1.299  29.717  0.00  0.00    -0.203 NA
ATOM      4  C   UNL A   1     -28.169  -0.187  29.064  0.00  0.00    +0.119 C 
ATOM      5  O   UNL A   1     -29.668  -2.501  31.119  0.00  0.00    -0.273 OA
ATOM      6  C   UNL A   1     -29.135   0.884  29.368  0.00  0.00    +0.058 C 
ATOM      7  C   UNL A   1     -29.244  -1.395  30.785  0.00  0.00    +0.242 C 
ATOM      8  C   UNL A   1     -29.146   1.128  30.907  0.00  0.00    +0.014 C 
ATOM      9  C   UNL A   1     -29.561  -0.148  31.590  0.00  0.00    +0.087 C 
BRANCH   6  11
ATOM     10  O   UNL A   1     -30.478  -0.765  27.933  0.00  0.00    -0.220 OA
ATOM     11  C   UNL A   1     -30.200   0.567  28.235  0.00  0.00    +0.184 C 
ENDBRANCH   6  11
ENDBRANCH   1   4
BRANCH   2  16
ATOM     12  C   UNL A   1     -22.115   1.408  27.520  0.00  0.00    +0.001 C 
ATOM     13  C   UNL A   1     -23.226   1.878  26.505  0.00  0.00    +0.005 C 
ATOM     14  C   UNL A   1     -22.778   0.540  28.585  0.00  0.00    +0.004 C 
ATOM     15  C   UNL A   1     -24.554   1.313  27.124  0.00  0.00    +0.029 C 
ATOM     16  C   UNL A   1     -24.276   0.889  28.405  0.00  0.00    +0.022 C 
BRANCH  15  17
ATOM     17  C   UNL A   1     -25.688   1.614  26.461  0.00  0.00    +0.016 C 
ATOM     18  C   UNL A   1     -26.250   2.920  26.395  0.00  0.00    +0.073 C 
ATOM     19  C   UNL A   1     -27.438   3.091  25.645  0.00  0.00    +0.106 C 
ATOM     20  N   UNL A   1     -28.075   2.089  25.003  0.00  0.00    -0.208 NA
ATOM     21  C   UNL A   1     -27.543   0.849  25.079  0.00  0.00    +0.253 C 
ATOM     22  C   UNL A   1     -26.354   0.576  25.777  0.00  0.00    +0.189 C 
ATOM     23  F   UNL A   1     -25.860  -0.681  25.795  0.00  0.00    -0.200 F 
BRANCH  18  24
ATOM     24  C   UNL A   1     -25.642   4.093  27.123  0.00  0.00    +0.266 C 
ATOM     25  N   UNL A   1     -25.614   5.252  26.449  0.00  0.00    -0.200 NA
ATOM     26  C   UNL A   1     -25.026   6.479  26.963  0.00  0.00    +0.139 C 
ATOM     27  O   UNL A   1     -25.143   3.966  28.243  0.00  0.00    -0.268 OA
ENDBRANCH  18  24
BRANCH  21  28
ATOM     28  O   UNL A   1     -28.193  -0.208  24.477  0.00  0.00    -0.456 OA
BRANCH  28  29
ATOM     29  C   UNL A   1     -29.460   0.005  23.866  0.00  0.00    +0.243 C 
BRANCH  29  30
ATOM     30  C   UNL A   1     -30.065  -1.377  23.573  0.00  0.00    +0.229 C 
ATOM     31  O   UNL A   1     -30.729  -1.878  24.721  0.00  0.00    -0.216 OA
ENDBRANCH  29  30
ENDBRANCH  28  29
ENDBRANCH  21  28
ENDBRANCH  15  17
ENDBRANCH   2  16
BRANCH   2  32
ATOM     32  C   UNL A   1     -24.855  -1.012  30.143  0.00  0.00    +0.056 C 
BRANCH  32  33
ATOM     33  C   UNL A   1     -24.973  -2.505  29.788  0.00  0.00    -0.017 C 
ATOM     34  C   UNL A   1     -23.906  -3.173  29.146  0.00  0.00    -0.004 C 
ATOM     35  C   UNL A   1     -23.989  -4.549  28.853  0.00  0.00    -0.000 C 
ATOM     36  C   UNL A   1     -25.137  -5.280  29.205  0.00  0.00    -0.000 C 
ATOM     37  C   UNL A   1     -26.232  -4.611  29.784  0.00  0.00    -0.000 C 
ATOM     38  C   UNL A   1     -26.155  -3.232  30.065  0.00  0.00    -0.004 C 
ENDBRANCH  32  33
BRANCH  32  39
ATOM     39  C   UNL A   1     -25.387  -0.679  31.571  0.00  0.00    +0.081 C 
ATOM     40  C   UNL A   1     -25.189   0.773  32.028  0.00  0.00    +0.019 C 
ATOM     41  C   UNL A   1     -25.336   0.684  33.544  0.00  0.00    +0.020 C 
ATOM     42  C   UNL A   1     -24.829  -0.715  33.905  0.00  0.00    +0.089 C 
ATOM     43  N   UNL A   1     -24.758  -1.481  32.646  0.00  0.00    -0.219 NA
ENDBRANCH  32  39
ENDBRANCH   2  32
TORSDOF 11
