MODEL 4986
MODEL 1
REMARK VINA RESULT:    -5.958      0.000      0.000
REMARK INTER + INTRA:          -8.237
REMARK INTER:                  -7.699
REMARK INTRA:                  -0.538
REMARK UNBOUND:                -0.538
REMARK  Name = No_4986-gen_results/8p0m/2024-11-27-11-27-31/
REMARK  5 active torsions:
REMARK  status: ('A' for Active; 'I' for Inactive)
REMARK    1  A    between atoms: C_1  and  C_10
REMARK    2  A    between atoms: C_2  and  C_3
REMARK    3  A    between atoms: C_3  and  C_4
REMARK    4  A    between atoms: C_10  and  N_12
REMARK    5  A    between atoms: N_12  and  C_14
REMARK                            x       y       z     vdW  Elec       q    Type
REMARK                         _______ _______ _______ _____ _____    ______ ____
ROOT
ATOM      1  C   UNL A   1     -24.401  -1.180  29.696  0.00  0.00    +0.044 C 
ATOM      2  C   UNL A   1     -24.565  -0.859  31.095  0.00  0.00    +0.009 C 
ENDROOT
BRANCH   1   3
ATOM      3  C   UNL A   1     -24.692  -2.590  29.373  0.00  0.00    -0.018 A 
ATOM      4  C   UNL A   1     -25.900  -3.117  29.923  0.00  0.00    -0.004 A 
ATOM      5  C   UNL A   1     -26.221  -4.454  29.692  0.00  0.00    -0.000 A 
ATOM      6  C   UNL A   1     -25.277  -5.274  29.062  0.00  0.00    -0.000 A 
ATOM      7  C   UNL A   1     -24.103  -4.777  28.547  0.00  0.00    -0.000 A 
ATOM      8  C   UNL A   1     -23.800  -3.413  28.751  0.00  0.00    -0.004 A 
ENDBRANCH   1   3
BRANCH   1  10
ATOM      9  C   UNL A   1     -23.265   0.656  28.915  0.00  0.00    -0.009 C 
ATOM     10  C   UNL A   1     -24.168  -0.139  28.798  0.00  0.00    -0.025 C 
BRANCH   9  11
ATOM     11  C   UNL A   1     -22.861   1.433  27.788  0.00  0.00    +0.114 C 
ATOM     12  C   UNL A   1     -21.534   1.544  27.416  0.00  0.00    +0.028 C 
BRANCH  11  13
ATOM     13  N   UNL A   1     -23.562   2.733  27.837  0.00  0.00    -0.234 NA
BRANCH  13  14
ATOM     14  C   UNL A   1     -24.569   3.000  27.106  0.00  0.00    +0.080 C 
ATOM     15  C   UNL A   1     -24.227   3.544  25.877  0.00  0.00    +0.019 C 
ENDBRANCH  13  14
ENDBRANCH  11  13
ENDBRANCH   9  11
ENDBRANCH   1  10
TORSDOF 5
ENDMDL
ENDMDL
