MODEL 4987
MODEL 1
REMARK VINA RESULT:    -5.384      0.000      0.000
REMARK INTER + INTRA:          -6.141
REMARK INTER:                  -6.014
REMARK INTRA:                  -0.127
REMARK UNBOUND:                -0.127
REMARK  Name = No_4987-gen_results/8p0m/2024-11-27-11-27-31/
REMARK  2 active torsions:
REMARK  status: ('A' for Active; 'I' for Inactive)
REMARK    1  A    between atoms: C_1  and  C_2
REMARK    2  A    between atoms: C_8  and  C_9
REMARK                            x       y       z     vdW  Elec       q    Type
REMARK                         _______ _______ _______ _____ _____    ______ ____
ROOT
ATOM      1  C   UNL A   1     -24.358  -2.529  29.198  0.00  0.00    +0.000 A 
ATOM      2  C   UNL A   1     -23.975  -3.821  28.856  0.00  0.00    +0.000 A 
ATOM      3  C   UNL A   1     -24.827  -5.042  28.938  0.00  0.00    +0.000 A 
ATOM      4  C   UNL A   1     -26.095  -4.877  29.570  0.00  0.00    +0.000 A 
ATOM      5  C   UNL A   1     -26.439  -3.569  29.964  0.00  0.00    +0.000 A 
ATOM      6  C   UNL A   1     -25.647  -2.497  29.815  0.00  0.00    +0.000 A 
ENDROOT
BRANCH   1   7
ATOM      7  C   UNL A   1     -23.591  -1.600  29.086  0.00  0.00    +0.000 C 
ATOM      8  C   UNL A   1     -23.974  -0.385  28.294  0.00  0.00    +0.001 C 
BRANCH   8   9
ATOM      9  C   UNL A   1     -24.896  -0.622  27.212  0.00  0.00    +0.012 C 
ATOM     10  C   UNL A   1     -24.904   0.247  26.123  0.00  0.00    +0.068 C 
ATOM     11 CL   UNL A   1     -25.823  -0.059  24.784  0.00  0.00    -0.081 Cl
ENDBRANCH   8   9
ENDBRANCH   1   7
TORSDOF 2
ENDMDL
ENDMDL
