REMARK  Name = No_4987-gen_results/8p0m/2024-11-27-11-27-31/
REMARK  2 active torsions:
REMARK  status: ('A' for Active; 'I' for Inactive)
REMARK    1  A    between atoms: C_1  and  C_2
REMARK    2  A    between atoms: C_8  and  C_9
REMARK                            x       y       z     vdW  Elec       q    Type
REMARK                         _______ _______ _______ _____ _____    ______ ____
ROOT
ATOM      1  C   UNL A   1     -27.064  -0.119  28.608  0.00  0.00    +0.000 A 
ATOM      2  C   UNL A   1     -25.792  -0.430  29.076  0.00  0.00    +0.000 A 
ATOM      3  C   UNL A   1     -24.546   0.349  28.823  0.00  0.00    +0.000 A 
ATOM      4  C   UNL A   1     -24.659   1.420  27.888  0.00  0.00    +0.000 A 
ATOM      5  C   UNL A   1     -25.947   1.681  27.379  0.00  0.00    +0.000 A 
ATOM      6  C   UNL A   1     -27.044   0.974  27.687  0.00  0.00    +0.000 A 
ENDROOT
BRANCH   1   7
ATOM      7  C   UNL A   1     -28.016  -0.814  28.878  0.00  0.00    +0.000 C 
ATOM      8  C   UNL A   1     -28.024  -1.647  30.126  0.00  0.00    +0.001 C 
BRANCH   8   9
ATOM      9  C   UNL A   1     -26.728  -2.085  30.581  0.00  0.00    +0.012 C 
ATOM     10  C   UNL A   1     -25.591  -1.406  30.149  0.00  0.00    +0.068 C 
ATOM     11 CL   UNL A   1     -24.095  -1.759  30.757  0.00  0.00    -0.081 Cl
ENDBRANCH   8   9
ENDBRANCH   1   7
TORSDOF 2
