MODEL 4988
MODEL 1
REMARK VINA RESULT:    -7.945      0.000      0.000
REMARK INTER + INTRA:         -11.249
REMARK INTER:                 -10.267
REMARK INTRA:                  -0.983
REMARK UNBOUND:                -0.983
REMARK  Name = No_4988-gen_results/8p0m/2024-11-27-11-27-31/
REMARK  5 active torsions:
REMARK  status: ('A' for Active; 'I' for Inactive)
REMARK    1  A    between atoms: N_16  and  C_17
REMARK    2  A    between atoms: C_17  and  C_19
REMARK    3  A    between atoms: C_19  and  C_21
REMARK    4  A    between atoms: C_23  and  C_27
REMARK    5  A    between atoms: C_28  and  C_29
REMARK                            x       y       z     vdW  Elec       q    Type
REMARK                         _______ _______ _______ _____ _____    ______ ____
ROOT
ATOM      1  C   UNL A   1     -25.110   0.917  30.722  0.00  0.00    +0.018 A 
ATOM      2  C   UNL A   1     -25.503  -0.194  30.448  0.00  0.00    +0.063 A 
ATOM      3  C   UNL A   1     -26.667  -0.769  30.929  0.00  0.00    +0.056 A 
ATOM      4  C   UNL A   1     -27.476   0.029  31.792  0.00  0.00    +0.016 A 
ATOM      5  C   UNL A   1     -27.100   1.308  31.953  0.00  0.00    +0.058 A 
ATOM      6  C   UNL A   1     -26.008   1.777  31.423  0.00  0.00    +0.013 A 
ATOM      7 CL   UNL A   1     -28.113   2.256  32.950  0.00  0.00    -0.082 Cl
ATOM      8  C   UNL A   1     -27.040  -2.218  30.684  0.00  0.00    +0.202 A 
ATOM      9  C   UNL A   1     -26.013  -2.887  30.122  0.00  0.00    +0.101 A 
ATOM     10  C   UNL A   1     -26.320  -4.299  29.674  0.00  0.00    +0.227 A 
ATOM     11  N   UNL A   1     -25.345  -4.965  28.975  0.00  0.00    -0.216 NA
ATOM     12  F   UNL A   1     -27.334  -4.877  29.988  0.00  0.00    -0.183 F 
ATOM     13  C   UNL A   1     -24.127  -4.488  28.730  0.00  0.00    +0.103 A 
ATOM     14  C   UNL A   1     -23.825  -3.125  29.009  0.00  0.00    +0.038 A 
ATOM     15  C   UNL A   1     -24.799  -2.428  29.730  0.00  0.00    +0.068 A 
ATOM     16  N   UNL A   1     -24.569  -1.121  29.834  0.00  0.00    -0.328 N 
ATOM     17  O   UNL A   1     -28.139  -2.615  31.090  0.00  0.00    -0.286 OA
ENDROOT
BRANCH  16  18
ATOM     18  C   UNL A   1     -23.346  -0.516  29.347  0.00  0.00    +0.090 C 
ATOM     19  C   UNL A   1     -22.332  -0.360  30.273  0.00  0.00    +0.025 C 
BRANCH  18  20
ATOM     20  C   UNL A   1     -23.321  -0.103  28.010  0.00  0.00    +0.049 C 
BRANCH  20  21
ATOM     21  C   UNL A   1     -24.215   0.500  27.261  0.00  0.00    -0.020 A 
ATOM     22  C   UNL A   1     -24.949   0.115  26.572  0.00  0.00    -0.004 A 
ATOM     23  C   UNL A   1     -25.938   0.734  25.663  0.00  0.00    -0.001 A 
ATOM     24  C   UNL A   1     -25.888   2.106  25.691  0.00  0.00    -0.000 A 
ATOM     25  C   UNL A   1     -24.950   2.761  26.501  0.00  0.00    -0.000 A 
ATOM     26  C   UNL A   1     -24.083   2.022  27.266  0.00  0.00    -0.004 A 
BRANCH  23  27
ATOM     27  C   UNL A   1     -26.895   0.025  24.818  0.00  0.00    -0.005 C 
ATOM     28  C   UNL A   1     -27.894   0.606  24.351  0.00  0.00    -0.026 C 
BRANCH  28  29
ATOM     29  C   UNL A   1     -28.866  -0.128  23.525  0.00  0.00    +0.026 C 
ATOM     30  C   UNL A   1     -28.934  -1.562  23.396  0.00  0.00    +0.005 C 
ENDBRANCH  28  29
ENDBRANCH  23  27
ENDBRANCH  20  21
ENDBRANCH  18  20
ENDBRANCH  16  18
TORSDOF 5
ENDMDL
ENDMDL
