MODEL 4989
MODEL 1
REMARK VINA RESULT:    -4.986      0.000      0.000
REMARK INTER + INTRA:          -5.380
REMARK INTER:                  -5.278
REMARK INTRA:                  -0.102
REMARK UNBOUND:                -0.102
REMARK  Name = No_4989-gen_results/8p0m/2024-11-27-11-27-31/
REMARK  1 active torsions:
REMARK  status: ('A' for Active; 'I' for Inactive)
REMARK    1  A    between atoms: C_3  and  C_4
REMARK                            x       y       z     vdW  Elec       q    Type
REMARK                         _______ _______ _______ _____ _____    ______ ____
ROOT
ATOM      1  C   UNL A   1     -25.823  -2.565  29.740  0.00  0.00    -0.000 A 
ATOM      2  C   UNL A   1     -26.445  -3.406  29.866  0.00  0.00    -0.000 A 
ATOM      3  C   UNL A   1     -24.524  -2.777  29.226  0.00  0.00    -0.000 A 
ATOM      4  C   UNL A   1     -26.208  -4.838  29.610  0.00  0.00    -0.000 A 
ATOM      5  C   UNL A   1     -24.940  -5.123  29.103  0.00  0.00    -0.000 A 
ATOM      6  C   UNL A   1     -24.081  -4.102  28.853  0.00  0.00    -0.000 A 
ENDROOT
BRANCH   3   7
ATOM      7  C   UNL A   1     -23.565  -1.693  28.887  0.00  0.00    -0.005 C 
ATOM      8  C   UNL A   1     -22.875  -1.010  29.472  0.00  0.00    -0.026 C 
ATOM      9  C   UNL A   1     -23.121  -1.088  30.989  0.00  0.00    +0.031 C 
ENDBRANCH   3   7
TORSDOF 1
ENDMDL
ENDMDL
