MODEL 498
MODEL 1
REMARK VINA RESULT:    -5.735      0.000      0.000
REMARK INTER + INTRA:          -7.842
REMARK INTER:                  -7.076
REMARK INTRA:                  -0.766
REMARK UNBOUND:                -0.766
REMARK  Name = No_498-gen_results/8p0m/2024-11-27-11-27-31/
REMARK  4 active torsions:
REMARK  status: ('A' for Active; 'I' for Inactive)
REMARK    1  A    between atoms: C_3  and  C_4
REMARK    2  A    between atoms: C_4  and  C_5
REMARK    3  A    between atoms: C_5  and  C_6
REMARK    4  A    between atoms: C_5  and  C_10
REMARK                            x       y       z     vdW  Elec       q    Type
REMARK                         _______ _______ _______ _____ _____    ______ ____
ROOT
ATOM      1  C   UNL A   1     -24.198  -0.131  28.959  0.00  0.00    +0.031 C 
ENDROOT
BRANCH   1   4
ATOM      2  C   UNL A   1     -22.322   1.134  27.758  0.00  0.00    -0.004 A 
ATOM      3  C   UNL A   1     -22.293   2.019  27.186  0.00  0.00    -0.000 A 
ATOM      4  C   UNL A   1     -23.656   0.422  27.787  0.00  0.00    -0.022 A 
ATOM      5  C   UNL A   1     -22.905   2.164  25.875  0.00  0.00    -0.000 A 
ATOM      6  C   UNL A   1     -24.116   1.468  25.693  0.00  0.00    -0.000 A 
ATOM      7  C   UNL A   1     -24.538   0.573  26.667  0.00  0.00    -0.004 A 
ENDBRANCH   1   4
BRANCH   1   8
ATOM      8  C   UNL A   1     -23.438  -1.170  29.535  0.00  0.00    +0.026 C 
BRANCH   8   9
ATOM      9  C   UNL A   1     -23.405  -2.304  29.148  0.00  0.00    -0.031 C 
ATOM     10  C   UNL A   1     -24.431  -3.203  28.756  0.00  0.00    -0.030 C 
ATOM     11  C   UNL A   1     -24.166  -4.549  28.511  0.00  0.00    +0.030 C 
ENDBRANCH   8   9
BRANCH   8  12
ATOM     12  C   UNL A   1     -22.945  -0.841  30.918  0.00  0.00    +0.005 C 
ATOM     13  C   UNL A   1     -23.630  -1.105  32.142  0.00  0.00    +0.000 C 
ENDBRANCH   8  12
ENDBRANCH   1   8
TORSDOF 4
ENDMDL
ENDMDL
