REMARK  Name = No_499-gen_results/8p0m/2024-11-27-11-27-31/
REMARK  7 active torsions:
REMARK  status: ('A' for Active; 'I' for Inactive)
REMARK    1  A    between atoms: C_3  and  C_7
REMARK    2  A    between atoms: C_6  and  O_13
REMARK    3  A    between atoms: O_13  and  C_14
REMARK    4  A    between atoms: C_14  and  C_15
REMARK    5  A    between atoms: C_14  and  C_22
REMARK    6  A    between atoms: N_24  and  C_25
REMARK    7  A    between atoms: C_25  and  C_26
REMARK                            x       y       z     vdW  Elec       q    Type
REMARK                         _______ _______ _______ _____ _____    ______ ____
ROOT
ATOM      1  C   UNL A   1     -30.069  -2.150  30.591  0.00  0.00    +0.267 C 
ENDROOT
BRANCH   1   2
ATOM      2  C   UNL A   1     -30.158  -1.145  31.078  0.00  0.00    +0.054 A 
ATOM      3  C   UNL A   1     -30.799  -0.419  31.649  0.00  0.00    +0.002 A 
ATOM      4  C   UNL A   1     -30.645   0.965  32.210  0.00  0.00    -0.000 A 
ATOM      5  C   UNL A   1     -29.433   1.570  31.896  0.00  0.00    +0.002 A 
ATOM      6  C   UNL A   1     -28.485   0.860  31.236  0.00  0.00    +0.029 A 
ATOM      7  C   UNL A   1     -28.724  -0.408  30.835  0.00  0.00    +0.140 A 
ATOM      8  F   UNL A   1     -27.853  -0.946  31.350  0.00  0.00    -0.204 F 
ENDBRANCH   1   2
BRANCH   1   9
ATOM      9  C   UNL A   1     -31.291  -3.028  30.399  0.00  0.00    +0.286 C 
ATOM     10  O   UNL A   1     -32.234  -2.611  29.784  0.00  0.00    -0.269 OA
ATOM     11  N   UNL A   1     -31.261  -4.289  30.901  0.00  0.00    -0.197 NA
BRANCH  11  12
ATOM     12  C   UNL A   1     -32.332  -5.218  30.701  0.00  0.00    +0.142 C 
BRANCH  12  13
ATOM     13  C   UNL A   1     -32.889  -5.528  31.778  0.00  0.00    +0.002 A 
ATOM     14  C   UNL A   1     -33.354  -4.565  32.588  0.00  0.00    +0.015 A 
ATOM     15  C   UNL A   1     -33.266  -3.281  32.245  0.00  0.00    +0.001 A 
ATOM     16  C   UNL A   1     -33.368  -2.283  33.364  0.00  0.00    +0.000 A 
ATOM     17  C   UNL A   1     -33.665  -2.719  34.614  0.00  0.00    +0.002 A 
ATOM     18  C   UNL A   1     -33.827  -4.045  34.917  0.00  0.00    +0.019 A 
ATOM     19  C   UNL A   1     -33.574  -4.926  33.971  0.00  0.00    +0.081 A 
ATOM     20  N   UNL A   1     -33.633  -6.255  34.217  0.00  0.00    -0.244 NA
ATOM     21  C   UNL A   1     -33.365  -7.190  33.366  0.00  0.00    +0.099 A 
ATOM     22  C   UNL A   1     -32.896  -6.892  32.167  0.00  0.00    +0.018 A 
ENDBRANCH  12  13
ENDBRANCH  11  12
ENDBRANCH   1   9
BRANCH   1  23
ATOM     23  O   UNL A   1     -28.959  -2.714  30.101  0.00  0.00    -0.465 OA
BRANCH  23  29
ATOM     24  C   UNL A   1     -28.016  -0.814  28.878  0.00  0.00    +0.037 A 
ATOM     25  C   UNL A   1     -27.064  -0.119  28.608  0.00  0.00    +0.003 A 
ATOM     26  C   UNL A   1     -25.765  -0.390  29.036  0.00  0.00    +0.000 A 
ATOM     27  C   UNL A   1     -25.530  -1.530  29.901  0.00  0.00    +0.003 A 
ATOM     28  C   UNL A   1     -26.689  -2.289  30.181  0.00  0.00    +0.037 A 
ATOM     29  C   UNL A   1     -27.873  -1.951  29.737  0.00  0.00    +0.140 A 
BRANCH  26  30
ATOM     30  C   UNL A   1     -24.549   0.410  28.734  0.00  0.00    +0.000 A 
ATOM     31  C   UNL A   1     -24.479   1.187  27.684  0.00  0.00    +0.000 A 
ATOM     32  C   UNL A   1     -23.283   1.836  27.352  0.00  0.00    +0.000 A 
ATOM     33  C   UNL A   1     -22.103   1.662  28.035  0.00  0.00    +0.000 A 
ATOM     34  C   UNL A   1     -23.324   0.153  29.473  0.00  0.00    +0.000 A 
ATOM     35  C   UNL A   1     -22.117   0.813  29.107  0.00  0.00    +0.000 A 
ENDBRANCH  26  30
ENDBRANCH  23  29
ENDBRANCH   1  23
TORSDOF 7
