REMARK  Name = No_4990-gen_results/8p0m/2024-11-27-11-27-31/
REMARK  3 active torsions:
REMARK  status: ('A' for Active; 'I' for Inactive)
REMARK    1  A    between atoms: C_2  and  C_7
REMARK    2  A    between atoms: C_13  and  C_16
REMARK    3  A    between atoms: C_16  and  C_17
REMARK                            x       y       z     vdW  Elec       q    Type
REMARK                         _______ _______ _______ _____ _____    ______ ____
ROOT
ATOM      1  C   UNL A   1     -30.074  -0.836  29.861  0.00  0.00    +0.249 C 
ATOM      2  O   UNL A   1     -30.689  -1.655  30.223  0.00  0.00    -0.270 OA
ATOM      3  N   UNL A   1     -30.587   0.094  28.868  0.00  0.00    -0.276 N 
ATOM      4  C   UNL A   1     -31.959   0.050  28.592  0.00  0.00    +0.094 C 
ATOM      5  C   UNL A   1     -32.231   0.350  27.331  0.00  0.00    +0.022 C 
ATOM      6  C   UNL A   1     -31.285   0.986  26.444  0.00  0.00    +0.004 C 
ATOM      7  C   UNL A   1     -29.942   1.026  26.838  0.00  0.00    +0.024 C 
ATOM      8  C   UNL A   1     -29.660   0.850  28.064  0.00  0.00    +0.094 C 
ENDROOT
BRANCH   1  10
ATOM      9  C   UNL A   1     -28.016  -0.814  28.878  0.00  0.00    +0.034 A 
ATOM     10  C   UNL A   1     -28.469  -0.785  29.829  0.00  0.00    +0.056 A 
ATOM     11  C   UNL A   1     -26.504  -0.778  28.877  0.00  0.00    +0.140 A 
ATOM     12  C   UNL A   1     -25.810  -0.853  30.103  0.00  0.00    +0.030 A 
ATOM     13  C   UNL A   1     -27.991  -0.892  31.226  0.00  0.00    +0.005 A 
ATOM     14  C   UNL A   1     -26.604  -0.868  31.265  0.00  0.00    +0.003 A 
ATOM     15  F   UNL A   1     -25.763  -0.748  27.779  0.00  0.00    -0.204 F 
ENDBRANCH   1  10
BRANCH   7  16
ATOM     16  C   UNL A   1     -29.178   1.933  25.970  0.00  0.00    +0.028 C 
BRANCH  16  17
ATOM     17  C   UNL A   1     -27.728   1.656  26.030  0.00  0.00    -0.022 A 
ATOM     18  C   UNL A   1     -27.084   0.960  25.112  0.00  0.00    -0.004 A 
ATOM     19  C   UNL A   1     -25.699   0.639  25.203  0.00  0.00    -0.000 A 
ATOM     20  C   UNL A   1     -24.847   1.283  26.123  0.00  0.00    -0.000 A 
ATOM     21  C   UNL A   1     -26.761   2.239  27.046  0.00  0.00    -0.004 A 
ATOM     22  C   UNL A   1     -25.445   2.112  27.017  0.00  0.00    -0.000 A 
ENDBRANCH  16  17
ENDBRANCH   7  16
TORSDOF 3
