MODEL 4990
MODEL 1
REMARK VINA RESULT:    -8.336      0.000      0.000
REMARK INTER + INTRA:          -9.841
REMARK INTER:                  -9.798
REMARK INTRA:                  -0.043
REMARK UNBOUND:                -0.043
REMARK  Name = No_4990-gen_results/8p0m/2024-11-27-11-27-31/
REMARK  3 active torsions:
REMARK  status: ('A' for Active; 'I' for Inactive)
REMARK    1  A    between atoms: C_2  and  C_7
REMARK    2  A    between atoms: C_13  and  C_16
REMARK    3  A    between atoms: C_16  and  C_17
REMARK                            x       y       z     vdW  Elec       q    Type
REMARK                         _______ _______ _______ _____ _____    ______ ____
ROOT
ATOM      1  C   UNL A   1     -23.231   1.791  26.087  0.00  0.00    +0.249 C 
ATOM      2  O   UNL A   1     -22.469   1.990  25.339  0.00  0.00    -0.270 OA
ATOM      3  N   UNL A   1     -22.868   1.274  27.396  0.00  0.00    -0.276 N 
ATOM      4  C   UNL A   1     -21.510   1.286  27.740  0.00  0.00    +0.094 C 
ATOM      5  C   UNL A   1     -21.179   0.270  28.523  0.00  0.00    +0.022 C 
ATOM      6  C   UNL A   1     -22.146  -0.541  29.225  0.00  0.00    +0.004 C 
ATOM      7  C   UNL A   1     -23.488  -0.439  28.841  0.00  0.00    +0.024 C 
ATOM      8  C   UNL A   1     -23.859   0.582  28.181  0.00  0.00    +0.094 C 
ENDROOT
BRANCH   1  10
ATOM      9  C   UNL A   1     -24.973   0.571  25.264  0.00  0.00    +0.034 A 
ATOM     10  C   UNL A   1     -24.776   1.449  25.812  0.00  0.00    +0.056 A 
ATOM     11  C   UNL A   1     -26.435   0.279  25.008  0.00  0.00    +0.140 A 
ATOM     12  C   UNL A   1     -27.405   1.236  25.375  0.00  0.00    +0.030 A 
ATOM     13  C   UNL A   1     -25.578   2.606  26.270  0.00  0.00    +0.005 A 
ATOM     14  C   UNL A   1     -26.928   2.377  26.046  0.00  0.00    +0.003 A 
ATOM     15  F   UNL A   1     -26.879  -0.805  24.389  0.00  0.00    -0.204 F 
ENDBRANCH   1  10
BRANCH   7  16
ATOM     16  C   UNL A   1     -24.356  -1.108  29.820  0.00  0.00    +0.028 C 
BRANCH  16  17
ATOM     17  C   UNL A   1     -24.621  -2.513  29.446  0.00  0.00    -0.022 A 
ATOM     18  C   UNL A   1     -23.730  -3.286  28.854  0.00  0.00    -0.004 A 
ATOM     19  C   UNL A   1     -24.007  -4.620  28.436  0.00  0.00    -0.000 A 
ATOM     20  C   UNL A   1     -25.150  -5.315  28.882  0.00  0.00    -0.000 A 
ATOM     21  C   UNL A   1     -25.867  -3.301  29.810  0.00  0.00    -0.004 A 
ATOM     22  C   UNL A   1     -26.046  -4.596  29.606  0.00  0.00    -0.000 A 
ENDBRANCH  16  17
ENDBRANCH   7  16
TORSDOF 3
ENDMDL
ENDMDL
