MODEL 4992
MODEL 1
REMARK VINA RESULT:    -3.531      0.000      0.000
REMARK INTER + INTRA:          -3.786
REMARK INTER:                  -3.737
REMARK INTRA:                  -0.049
REMARK UNBOUND:                -0.049
REMARK  Name = No_4992-gen_results/8p0m/2024-11-27-11-27-31/
REMARK  1 active torsions:
REMARK  status: ('A' for Active; 'I' for Inactive)
REMARK    1  A    between atoms: C_2  and  C_4
REMARK                            x       y       z     vdW  Elec       q    Type
REMARK                         _______ _______ _______ _____ _____    ______ ____
ROOT
ATOM      1  C   UNL A   1      -8.792  -9.257  20.208  0.00  0.00    +0.167 C 
ATOM      2  C   UNL A   1      -8.704  -9.453  19.177  0.00  0.00    +0.032 C 
ATOM      3  F   UNL A   1      -9.970  -9.286  20.755  0.00  0.00    -0.202 F 
ENDROOT
BRANCH   2   4
ATOM      4  C   UNL A   1      -9.850  -9.789  18.165  0.00  0.00    +0.002 C 
ATOM      5  C   UNL A   1      -9.288 -10.634  17.154  0.00  0.00    +0.000 C 
ENDBRANCH   2   4
TORSDOF 1
ENDMDL
ENDMDL
