REMARK  Name = No_4993-gen_results/8p0m/2024-11-27-11-27-31/
REMARK  3 active torsions:
REMARK  status: ('A' for Active; 'I' for Inactive)
REMARK    1  A    between atoms: C_2  and  C_3
REMARK    2  A    between atoms: C_4  and  C_9
REMARK    3  A    between atoms: C_5  and  C_15
REMARK                            x       y       z     vdW  Elec       q    Type
REMARK                         _______ _______ _______ _____ _____    ______ ____
ROOT
ATOM      1  C   UNL A   1     -27.001   0.691  27.491  0.00  0.00    +0.000 A 
ATOM      2  C   UNL A   1     -27.178   1.904  27.563  0.00  0.00    +0.000 A 
ATOM      3  C   UNL A   1     -26.778  -0.018  26.212  0.00  0.00    +0.000 A 
ATOM      4  C   UNL A   1     -26.970   0.627  24.942  0.00  0.00    +0.000 A 
ATOM      5  C   UNL A   1     -27.091   2.026  25.038  0.00  0.00    +0.000 A 
ATOM      6  C   UNL A   1     -27.218   2.755  26.281  0.00  0.00    +0.000 A 
ENDROOT
BRANCH   1   8
ATOM      7  C   UNL A   1     -28.016  -0.814  28.878  0.00  0.00    +0.007 A 
ATOM      8  C   UNL A   1     -27.064  -0.119  28.608  0.00  0.00    +0.000 A 
ATOM      9  C   UNL A   1     -28.059  -1.396  30.214  0.00  0.00    +0.080 A 
ATOM     10  C   UNL A   1     -26.895  -1.608  30.918  0.00  0.00    +0.007 A 
ATOM     11  C   UNL A   1     -25.784  -0.225  29.376  0.00  0.00    +0.000 A 
ATOM     12  C   UNL A   1     -25.752  -0.958  30.532  0.00  0.00    +0.000 A 
BRANCH   9  13
ATOM     13  C   UNL A   1     -29.337  -2.170  30.623  0.00  0.00    +0.388 C 
ATOM     14  O   UNL A   1     -29.457  -3.360  30.565  0.00  0.00    -0.241 OA
ATOM     15  O   UNL A   1     -30.325  -1.434  30.959  0.00  0.00    -0.241 OA
ENDBRANCH   9  13
ENDBRANCH   1   8
BRANCH   2  16
ATOM     16  C   UNL A   1     -27.340   2.531  28.885  0.00  0.00    +0.000 A 
ATOM     17  C   UNL A   1     -27.072   2.034  29.951  0.00  0.00    +0.000 A 
ATOM     18  C   UNL A   1     -27.829   2.530  31.077  0.00  0.00    +0.000 A 
ATOM     19  C   UNL A   1     -28.384   3.824  31.047  0.00  0.00    +0.000 A 
ATOM     20  C   UNL A   1     -28.563   4.425  29.817  0.00  0.00    +0.000 A 
ATOM     21  C   UNL A   1     -28.102   3.821  28.668  0.00  0.00    +0.000 A 
ENDBRANCH   2  16
TORSDOF 3
