MODEL 4994
MODEL 1
REMARK VINA RESULT:    -6.167      0.000      0.000
REMARK INTER + INTRA:          -7.997
REMARK INTER:                  -7.249
REMARK INTRA:                  -0.748
REMARK UNBOUND:                -0.748
REMARK  Name = No_4994-gen_results/8p0m/2024-11-27-11-27-31/
REMARK  3 active torsions:
REMARK  status: ('A' for Active; 'I' for Inactive)
REMARK    1  A    between atoms: C_2  and  C_4
REMARK    2  A    between atoms: C_4  and  C_6
REMARK    3  A    between atoms: C_11  and  C_12
REMARK                            x       y       z     vdW  Elec       q    Type
REMARK                         _______ _______ _______ _____ _____    ______ ____
ROOT
ATOM      1  C   UNL A   1     -25.824  -2.211  29.544  0.00  0.00    -0.015 A 
ATOM      2  C   UNL A   1     -26.165  -3.468  30.045  0.00  0.00    -0.004 A 
ATOM      3  C   UNL A   1     -25.607  -4.641  29.372  0.00  0.00    -0.000 A 
ATOM      4  C   UNL A   1     -24.371  -4.484  28.728  0.00  0.00    -0.000 A 
ATOM      5  C   UNL A   1     -23.845  -3.182  28.556  0.00  0.00    -0.000 A 
ATOM      6  C   UNL A   1     -24.586  -2.050  28.916  0.00  0.00    +0.002 A 
ENDROOT
BRANCH   6   7
ATOM      7  C   UNL A   1     -24.055  -0.753  28.567  0.00  0.00    +0.074 A 
ATOM      8  C   UNL A   1     -24.354  -0.096  27.340  0.00  0.00    +0.095 A 
ATOM      9  C   UNL A   1     -22.932  -0.182  29.328  0.00  0.00    +0.281 A 
ATOM     10  O   UNL A   1     -22.355  -0.758  30.309  0.00  0.00    -0.265 OA
ATOM     11  N   UNL A   1     -22.469   1.030  28.954  0.00  0.00    -0.206 NA
ATOM     12  C   UNL A   1     -22.941   1.806  27.885  0.00  0.00    +0.104 A 
ATOM     13  N   UNL A   1     -25.332  -0.591  26.592  0.00  0.00    -0.128 NA
ATOM     14  C   UNL A   1     -23.891   1.233  27.042  0.00  0.00    +0.039 A 
ENDBRANCH   6   7
BRANCH   1  15
ATOM     15  C   UNL A   1     -26.445  -1.149  30.137  0.00  0.00    +0.110 C 
BRANCH  15  17
ATOM     16 CL   UNL A   1     -25.706   0.590  31.617  0.00  0.00    -0.047 Cl
ATOM     17  C   UNL A   1     -25.981  -0.742  31.551  0.00  0.00    +0.334 C 
ATOM     18  F   UNL A   1     -25.066  -1.477  31.819  0.00  0.00    -0.186 F 
ATOM     19  F   UNL A   1     -27.016  -1.089  32.347  0.00  0.00    -0.186 F 
ENDBRANCH  15  17
ENDBRANCH   1  15
TORSDOF 3
ENDMDL
ENDMDL
