REMARK  Name = No_4994-gen_results/8p0m/2024-11-27-11-27-31/
REMARK  3 active torsions:
REMARK  status: ('A' for Active; 'I' for Inactive)
REMARK    1  A    between atoms: C_2  and  C_4
REMARK    2  A    between atoms: C_4  and  C_6
REMARK    3  A    between atoms: C_11  and  C_12
REMARK                            x       y       z     vdW  Elec       q    Type
REMARK                         _______ _______ _______ _____ _____    ______ ____
ROOT
ATOM      1  C   UNL A   1     -25.392   0.014  29.173  0.00  0.00    -0.015 A 
ATOM      2  C   UNL A   1     -25.035  -1.187  29.786  0.00  0.00    -0.004 A 
ATOM      3  C   UNL A   1     -23.972  -1.977  29.165  0.00  0.00    -0.000 A 
ATOM      4  C   UNL A   1     -23.001  -1.281  28.430  0.00  0.00    -0.000 A 
ATOM      5  C   UNL A   1     -23.215   0.084  28.128  0.00  0.00    -0.000 A 
ATOM      6  C   UNL A   1     -24.421   0.716  28.453  0.00  0.00    +0.002 A 
ENDROOT
BRANCH   6   7
ATOM      7  C   UNL A   1     -24.632   2.063  27.975  0.00  0.00    +0.074 A 
ATOM      8  C   UNL A   1     -24.220   2.503  26.685  0.00  0.00    +0.095 A 
ATOM      9  C   UNL A   1     -25.006   3.133  28.914  0.00  0.00    +0.281 A 
ATOM     10  O   UNL A   1     -25.162   2.972  30.170  0.00  0.00    -0.265 OA
ATOM     11  N   UNL A   1     -25.182   4.375  28.416  0.00  0.00    -0.206 NA
ATOM     12  C   UNL A   1     -25.023   4.764  27.077  0.00  0.00    +0.104 A 
ATOM     13  N   UNL A   1     -23.834   1.584  25.809  0.00  0.00    -0.128 NA
ATOM     14  C   UNL A   1     -24.514   3.820  26.188  0.00  0.00    +0.039 A 
ENDBRANCH   6   7
BRANCH   1  15
ATOM     15  C   UNL A   1     -26.454   0.669  29.727  0.00  0.00    +0.110 C 
BRANCH  15  17
ATOM     16 CL   UNL A   1     -28.149  -0.820  28.908  0.00  0.00    -0.047 Cl
ATOM     17  C   UNL A   1     -27.834   0.496  29.060  0.00  0.00    +0.334 C 
ATOM     18  F   UNL A   1     -27.790   1.142  28.045  0.00  0.00    -0.186 F 
ATOM     19  F   UNL A   1     -28.684   1.130  29.898  0.00  0.00    -0.186 F 
ENDBRANCH  15  17
ENDBRANCH   1  15
TORSDOF 3
