MODEL 4995
MODEL 1
REMARK VINA RESULT:    -6.799      0.000      0.000
REMARK INTER + INTRA:          -8.119
REMARK INTER:                  -7.594
REMARK INTRA:                  -0.525
REMARK UNBOUND:                -0.525
REMARK  Name = No_4995-gen_results/8p0m/2024-11-27-11-27-31/
REMARK  2 active torsions:
REMARK  status: ('A' for Active; 'I' for Inactive)
REMARK    1  A    between atoms: C_3  and  C_7
REMARK    2  A    between atoms: C_7  and  C_8
REMARK                            x       y       z     vdW  Elec       q    Type
REMARK                         _______ _______ _______ _____ _____    ______ ____
ROOT
ATOM      1  C   UNL A   1     -24.275  -1.305  29.550  0.00  0.00    +0.196 C 
ATOM      2  O   UNL A   1     -25.272  -0.561  29.895  0.00  0.00    -0.287 OA
ENDROOT
BRANCH   1   5
ATOM      3  C   UNL A   1     -23.820  -3.678  28.690  0.00  0.00    +0.003 A 
ATOM      4  C   UNL A   1     -24.156  -4.675  28.623  0.00  0.00    +0.000 A 
ATOM      5  C   UNL A   1     -24.655  -2.744  29.343  0.00  0.00    +0.039 A 
ATOM      6  C   UNL A   1     -25.879  -3.102  29.871  0.00  0.00    +0.003 A 
ATOM      7  C   UNL A   1     -25.400  -5.312  29.098  0.00  0.00    +0.000 A 
ATOM      8  C   UNL A   1     -26.229  -4.451  29.728  0.00  0.00    +0.000 A 
ENDBRANCH   1   5
BRANCH   1   9
ATOM      9  C   UNL A   1     -23.373  -0.821  28.856  0.00  0.00    +0.039 A 
ATOM     10  C   UNL A   1     -21.992  -0.681  29.158  0.00  0.00    +0.003 A 
ATOM     11  C   UNL A   1     -21.184   0.309  28.550  0.00  0.00    +0.000 A 
ATOM     12  C   UNL A   1     -21.753   1.211  27.629  0.00  0.00    +0.000 A 
ATOM     13  C   UNL A   1     -23.115   1.207  27.403  0.00  0.00    +0.000 A 
ATOM     14  C   UNL A   1     -23.941   0.287  28.017  0.00  0.00    +0.003 A 
ENDBRANCH   1   9
TORSDOF 2
ENDMDL
ENDMDL
