REMARK  Name = No_4995-gen_results/8p0m/2024-11-27-11-27-31/
REMARK  2 active torsions:
REMARK  status: ('A' for Active; 'I' for Inactive)
REMARK    1  A    between atoms: C_3  and  C_7
REMARK    2  A    between atoms: C_7  and  C_8
REMARK                            x       y       z     vdW  Elec       q    Type
REMARK                         _______ _______ _______ _____ _____    ______ ____
ROOT
ATOM      1  C   UNL A   1     -26.388   0.291  27.233  0.00  0.00    +0.196 C 
ATOM      2  O   UNL A   1     -26.993  -0.323  26.272  0.00  0.00    -0.287 OA
ENDROOT
BRANCH   1   5
ATOM      3  C   UNL A   1     -28.016  -0.814  28.878  0.00  0.00    +0.003 A 
ATOM      4  C   UNL A   1     -28.469  -0.785  29.829  0.00  0.00    +0.000 A 
ATOM      5  C   UNL A   1     -27.136   0.236  28.535  0.00  0.00    +0.039 A 
ATOM      6  C   UNL A   1     -26.875   1.282  29.398  0.00  0.00    +0.003 A 
ATOM      7  C   UNL A   1     -28.361   0.199  30.924  0.00  0.00    +0.000 A 
ATOM      8  C   UNL A   1     -27.528   1.223  30.636  0.00  0.00    +0.000 A 
ENDBRANCH   1   5
BRANCH   1   9
ATOM      9  C   UNL A   1     -25.151   0.303  27.256  0.00  0.00    +0.039 A 
ATOM     10  C   UNL A   1     -24.276   0.044  28.345  0.00  0.00    +0.003 A 
ATOM     11  C   UNL A   1     -22.964   0.571  28.399  0.00  0.00    +0.000 A 
ATOM     12  C   UNL A   1     -22.498   1.401  27.360  0.00  0.00    +0.000 A 
ATOM     13  C   UNL A   1     -23.351   1.794  26.348  0.00  0.00    +0.000 A 
ATOM     14  C   UNL A   1     -24.653   1.339  26.291  0.00  0.00    +0.003 A 
ENDBRANCH   1   9
TORSDOF 2
