MODEL 4996
MODEL 1
REMARK VINA RESULT:    -4.284      0.000      0.000
REMARK INTER + INTRA:          -4.284
REMARK INTER:                  -4.284
REMARK INTRA:                   0.000
REMARK UNBOUND:                 0.000
REMARK  Name = No_4996-gen_results/8p0m/2024-11-27-11-27-31/
REMARK  0 active torsions:
REMARK  status: ('A' for Active; 'I' for Inactive)
REMARK                            x       y       z     vdW  Elec       q    Type
REMARK                         _______ _______ _______ _____ _____    ______ ____
ROOT
ATOM      1  C   UNL A   1     -23.983  -3.348  28.787  0.00  0.00    +0.000 A 
ATOM      2  C   UNL A   1     -23.991  -4.536  28.564  0.00  0.00    +0.000 A 
ATOM      3  C   UNL A   1     -25.002  -5.384  28.972  0.00  0.00    +0.000 A 
ATOM      4  C   UNL A   1     -26.112  -4.816  29.658  0.00  0.00    +0.000 A 
ATOM      5  C   UNL A   1     -26.138  -3.465  29.732  0.00  0.00    +0.000 A 
ATOM      6  C   UNL A   1     -25.143  -2.729  29.277  0.00  0.00    +0.000 A 
ENDROOT
TORSDOF 0
ENDMDL
ENDMDL
