MODEL 4997
MODEL 1
REMARK VINA RESULT:    -5.387      0.000      0.000
REMARK INTER + INTRA:          -6.133
REMARK INTER:                  -6.017
REMARK INTRA:                  -0.117
REMARK UNBOUND:                -0.117
REMARK  Name = No_4997-gen_results/8p0m/2024-11-27-11-27-31/
REMARK  2 active torsions:
REMARK  status: ('A' for Active; 'I' for Inactive)
REMARK    1  A    between atoms: C_2  and  C_3
REMARK    2  A    between atoms: N_4  and  C_8
REMARK                            x       y       z     vdW  Elec       q    Type
REMARK                         _______ _______ _______ _____ _____    ______ ____
ROOT
ATOM      1  O   UNL A   1     -25.461   0.799  29.817  0.00  0.00    -0.263 OA
ATOM      2  C   UNL A   1     -25.322  -0.331  30.000  0.00  0.00    +0.323 C 
ATOM      3  N   UNL A   1     -25.441  -1.348  28.939  0.00  0.00    -0.172 NA
ENDROOT
BRANCH   3   4
ATOM      4  C   UNL A   1     -25.206  -2.642  28.954  0.00  0.00    +0.074 A 
ATOM      5  C   UNL A   1     -24.257  -3.119  28.523  0.00  0.00    +0.017 A 
ATOM      6  C   UNL A   1     -23.997  -4.602  28.566  0.00  0.00    +0.001 A 
ATOM      7  C   UNL A   1     -25.023  -5.419  29.130  0.00  0.00    +0.000 A 
ATOM      8  C   UNL A   1     -26.154  -4.784  29.684  0.00  0.00    +0.001 A 
ATOM      9  C   UNL A   1     -26.265  -3.441  29.626  0.00  0.00    +0.017 A 
ENDBRANCH   3   4
BRANCH   2  10
ATOM     10  C   UNL A   1     -24.888  -0.815  31.218  0.00  0.00    +0.305 C 
ATOM     11  N   UNL A   1     -23.630  -0.836  31.648  0.00  0.00    -0.269 N 
ATOM     12  O   UNL A   1     -25.737  -0.912  32.289  0.00  0.00    -0.265 OA
ATOM     13  C   UNL A   1     -22.584  -0.619  30.740  0.00  0.00    +0.115 C 
ATOM     14  C   UNL A   1     -23.172  -1.226  32.974  0.00  0.00    +0.115 C 
ENDBRANCH   2  10
TORSDOF 2
ENDMDL
ENDMDL
