MODEL 4998
MODEL 1
REMARK VINA RESULT:    -7.163      0.000      0.000
REMARK INTER + INTRA:          -7.163
REMARK INTER:                  -7.163
REMARK INTRA:                   0.000
REMARK UNBOUND:                 0.000
REMARK  Name = No_4998-gen_results/8p0m/2024-11-27-11-27-31/
REMARK  0 active torsions:
REMARK  status: ('A' for Active; 'I' for Inactive)
REMARK                            x       y       z     vdW  Elec       q    Type
REMARK                         _______ _______ _______ _____ _____    ______ ____
ROOT
ATOM      1  C   UNL A   1     -24.433   2.370  28.048  0.00  0.00    +0.048 A 
ATOM      2  C   UNL A   1     -23.848   2.666  27.032  0.00  0.00    +0.061 A 
ATOM      3  C   UNL A   1     -22.621   2.141  26.676  0.00  0.00    +0.012 A 
ATOM      4  C   UNL A   1     -22.037   1.169  27.536  0.00  0.00    +0.008 A 
ATOM      5  C   UNL A   1     -22.805   0.747  28.566  0.00  0.00    +0.088 A 
ATOM      6  C   UNL A   1     -23.989   1.278  28.808  0.00  0.00    +0.144 A 
ATOM      7  C   UNL A   1     -22.194  -0.284  29.430  0.00  0.00    +0.254 C 
ATOM      8  N   UNL A   1     -22.807  -0.603  30.417  0.00  0.00    -0.244 N 
ATOM      9  O   UNL A   1     -21.275  -1.010  28.993  0.00  0.00    -0.270 OA
ATOM     10  C   UNL A   1     -22.485  -1.153  31.375  0.00  0.00    +0.097 C 
ATOM     11 CL   UNL A   1     -24.455   4.000  25.967  0.00  0.00    -0.082 Cl
ATOM     12  C   UNL A   1     -23.164  -1.065  32.583  0.00  0.00    +0.022 C 
ATOM     13  C   UNL A   1     -24.333  -0.393  32.606  0.00  0.00    +0.007 C 
ATOM     14  C   UNL A   1     -24.846   0.230  31.571  0.00  0.00    +0.066 C 
ATOM     15  C   UNL A   1     -24.071   0.252  30.466  0.00  0.00    +0.246 C 
ATOM     16  O   UNL A   1     -25.314   0.851  28.446  0.00  0.00    -0.475 OA
ATOM     17  O   UNL A   1     -24.804   0.133  29.746  0.00  0.00    -0.465 OA
ATOM     18  C   UNL A   1     -26.041  -0.673  29.749  0.00  0.00    +0.122 C 
ATOM     19  C   UNL A   1     -26.186   0.776  27.870  0.00  0.00    +0.213 C 
ATOM     20  C   UNL A   1     -26.348  -1.453  30.480  0.00  0.00    +0.035 C 
ATOM     21  C   UNL A   1     -26.920  -0.391  28.538  0.00  0.00    +0.111 C 
ENDROOT
TORSDOF 0
ENDMDL
ENDMDL
