MODEL 499
MODEL 1
REMARK VINA RESULT:    -7.627      0.000      0.000
REMARK INTER + INTRA:         -13.352
REMARK INTER:                 -10.747
REMARK INTRA:                  -2.604
REMARK UNBOUND:                -2.604
REMARK  Name = No_499-gen_results/8p0m/2024-11-27-11-27-31/
REMARK  7 active torsions:
REMARK  status: ('A' for Active; 'I' for Inactive)
REMARK    1  A    between atoms: C_3  and  C_7
REMARK    2  A    between atoms: C_6  and  O_13
REMARK    3  A    between atoms: O_13  and  C_14
REMARK    4  A    between atoms: C_14  and  C_15
REMARK    5  A    between atoms: C_14  and  C_22
REMARK    6  A    between atoms: N_24  and  C_25
REMARK    7  A    between atoms: C_25  and  C_26
REMARK                            x       y       z     vdW  Elec       q    Type
REMARK                         _______ _______ _______ _____ _____    ______ ____
ROOT
ATOM      1  C   UNL A   1     -30.026 -12.664   9.402  0.00  0.00    +0.267 C 
ENDROOT
BRANCH   1   2
ATOM      2  C   UNL A   1     -29.901 -13.595  10.013  0.00  0.00    +0.054 A 
ATOM      3  C   UNL A   1     -29.707 -14.702  10.029  0.00  0.00    +0.002 A 
ATOM      4  C   UNL A   1     -29.589 -15.774  11.073  0.00  0.00    -0.000 A 
ATOM      5  C   UNL A   1     -29.860 -15.336  12.365  0.00  0.00    +0.002 A 
ATOM      6  C   UNL A   1     -30.088 -14.019  12.587  0.00  0.00    +0.029 A 
ATOM      7  C   UNL A   1     -30.108 -13.137  11.564  0.00  0.00    +0.140 A 
ATOM      8  F   UNL A   1     -29.307 -12.400  11.922  0.00  0.00    -0.204 F 
ENDBRANCH   1   2
BRANCH   1   9
ATOM      9  C   UNL A   1     -28.834 -12.023   8.716  0.00  0.00    +0.286 C 
ATOM     10  O   UNL A   1     -28.618 -12.254   7.558  0.00  0.00    -0.269 OA
ATOM     11  N   UNL A   1     -28.065 -11.165   9.433  0.00  0.00    -0.197 NA
BRANCH  11  12
ATOM     12  C   UNL A   1     -26.969 -10.451   8.852  0.00  0.00    +0.142 C 
BRANCH  12  13
ATOM     13  C   UNL A   1     -27.273  -9.266   8.585  0.00  0.00    +0.002 A 
ATOM     14  C   UNL A   1     -27.139  -8.811   7.330  0.00  0.00    +0.015 A 
ATOM     15  C   UNL A   1     -26.723  -9.614   6.352  0.00  0.00    +0.001 A 
ATOM     16  C   UNL A   1     -26.165  -8.942   5.129  0.00  0.00    +0.000 A 
ATOM     17  C   UNL A   1     -26.229  -7.590   5.030  0.00  0.00    +0.002 A 
ATOM     18  C   UNL A   1     -26.737  -6.798   6.025  0.00  0.00    +0.019 A 
ATOM     19  C   UNL A   1     -27.071  -7.377   7.160  0.00  0.00    +0.081 A 
ATOM     20  N   UNL A   1     -27.503  -6.650   8.217  0.00  0.00    -0.244 NA
ATOM     21  C   UNL A   1     -27.816  -7.124   9.378  0.00  0.00    +0.099 A 
ATOM     22  C   UNL A   1     -27.629  -8.403   9.653  0.00  0.00    +0.018 A 
ENDBRANCH  12  13
ENDBRANCH  11  12
ENDBRANCH   1   9
BRANCH   1  23
ATOM     23  O   UNL A   1     -31.164 -12.005   9.159  0.00  0.00    -0.465 OA
BRANCH  23  29
ATOM     24  C   UNL A   1     -31.476 -10.123  10.695  0.00  0.00    +0.037 A 
ATOM     25  C   UNL A   1     -31.508  -8.929  10.885  0.00  0.00    +0.003 A 
ATOM     26  C   UNL A   1     -31.416  -7.983   9.865  0.00  0.00    +0.000 A 
ATOM     27  C   UNL A   1     -31.212  -8.432   8.501  0.00  0.00    +0.003 A 
ATOM     28  C   UNL A   1     -31.175  -9.838   8.357  0.00  0.00    +0.037 A 
ATOM     29  C   UNL A   1     -31.264 -10.650   9.380  0.00  0.00    +0.140 A 
BRANCH  26  30
ATOM     30  C   UNL A   1     -31.460  -6.505  10.023  0.00  0.00    +0.000 A 
ATOM     31  C   UNL A   1     -32.090  -5.938  11.019  0.00  0.00    +0.000 A 
ATOM     32  C   UNL A   1     -32.223  -4.545  11.081  0.00  0.00    +0.000 A 
ATOM     33  C   UNL A   1     -31.782  -3.689  10.100  0.00  0.00    +0.000 A 
ATOM     34  C   UNL A   1     -31.007  -5.658   8.932  0.00  0.00    +0.000 A 
ATOM     35  C   UNL A   1     -31.167  -4.245   9.012  0.00  0.00    +0.000 A 
ENDBRANCH  26  30
ENDBRANCH  23  29
ENDBRANCH   1  23
TORSDOF 7
ENDMDL
ENDMDL
