MODEL 49
MODEL 1
REMARK VINA RESULT:    -4.905      0.000      0.000
REMARK INTER + INTRA:          -4.905
REMARK INTER:                  -4.905
REMARK INTRA:                   0.000
REMARK UNBOUND:                 0.000
REMARK  Name = No_49-gen_results/8p0m/2024-11-27-11-27-31/
REMARK  0 active torsions:
REMARK  status: ('A' for Active; 'I' for Inactive)
REMARK                            x       y       z     vdW  Elec       q    Type
REMARK                         _______ _______ _______ _____ _____    ______ ____
ROOT
ATOM      1  C   UNL A   1     -10.391  -9.402  18.916  0.00  0.00    +0.042 A 
ATOM      2  C   UNL A   1     -10.126 -10.097  18.170  0.00  0.00    +0.196 A 
ATOM      3  C   UNL A   1      -9.384  -9.137  19.956  0.00  0.00    +0.003 A 
ATOM      4  C   UNL A   1      -8.324  -9.752  19.973  0.00  0.00    +0.000 A 
ATOM      5  C   UNL A   1      -8.888 -10.857  17.917  0.00  0.00    +0.042 A 
ATOM      6  C   UNL A   1      -7.976 -10.666  18.909  0.00  0.00    +0.003 A 
ATOM      7  O   UNL A   1     -11.076 -10.351  17.079  0.00  0.00    -0.287 OA
ENDROOT
TORSDOF 0
ENDMDL
ENDMDL
