MODEL 4
MODEL 1
REMARK VINA RESULT:    -8.353      0.000      0.000
REMARK INTER + INTRA:          -8.353
REMARK INTER:                  -8.353
REMARK INTRA:                   0.000
REMARK UNBOUND:                 0.000
REMARK  Name = No_4-gen_results/8p0m/2024-11-27-11-27-31/
REMARK  0 active torsions:
REMARK  status: ('A' for Active; 'I' for Inactive)
REMARK                            x       y       z     vdW  Elec       q    Type
REMARK                         _______ _______ _______ _____ _____    ______ ____
ROOT
ATOM      1  C   UNL A   1      -5.963   0.018   8.403  0.00  0.00    +0.104 C 
ATOM      2  C   UNL A   1      -6.566   0.557   9.302  0.00  0.00    +0.098 C 
ATOM      3  C   UNL A   1      -6.622   0.061  10.590  0.00  0.00    +0.088 C 
ATOM      4  C   UNL A   1      -7.706   0.342  11.420  0.00  0.00    +0.044 C 
ATOM      5  C   UNL A   1      -8.596   1.160  11.037  0.00  0.00    -0.022 A 
ATOM      6  C   UNL A   1      -8.645   1.771   9.777  0.00  0.00    +0.031 A 
ATOM      7  C   UNL A   1      -7.648   1.340   8.930  0.00  0.00    +0.175 C 
ATOM      8  N   UNL A   1      -4.600  -0.105   8.601  0.00  0.00    -0.263 N 
ATOM      9  C   UNL A   1      -3.743  -0.502   7.615  0.00  0.00    +0.250 C 
ATOM     10  C   UNL A   1      -9.684   1.675  12.049  0.00  0.00    -0.026 A 
ATOM     11  C   UNL A   1      -9.655   1.381  13.395  0.00  0.00    +0.031 C 
ATOM     12  C   UNL A   1     -10.498   2.817  11.701  0.00  0.00    -0.005 A 
ATOM     13  C   UNL A   1     -10.573   3.407  10.467  0.00  0.00    -0.000 A 
ATOM     14  C   UNL A   1      -9.569   2.867   9.445  0.00  0.00    +0.003 A 
ATOM     15  C   UNL A   1      -2.758  -1.470   7.959  0.00  0.00    +0.050 A 
ATOM     16  C   UNL A   1      -2.052  -2.123   7.321  0.00  0.00    +0.004 A 
ATOM     17  C   UNL A   1      -2.745  -1.732   9.481  0.00  0.00    -0.015 A 
ATOM     18  C   UNL A   1      -3.616  -1.149  10.364  0.00  0.00    +0.065 C 
ATOM     19  C   UNL A   1      -4.720  -0.710   9.899  0.00  0.00    +0.154 C 
ATOM     20  N   UNL A   1      -5.654  -1.083  10.593  0.00  0.00    -0.200 NA
ATOM     21  O   UNL A   1      -3.873  -0.134   6.453  0.00  0.00    -0.270 OA
ATOM     22  C   UNL A   1      -1.151  -2.970   7.580  0.00  0.00    +0.000 A 
ATOM     23  C   UNL A   1      -1.025  -3.268   9.007  0.00  0.00    -0.000 A 
ATOM     24  C   UNL A   1      -1.754  -2.647   9.914  0.00  0.00    -0.004 A 
ATOM     25  O   UNL A   1      -7.701   1.967   7.719  0.00  0.00    -0.291 OA
ENDROOT
TORSDOF 0
ENDMDL
ENDMDL
