REMARK  Name = outputs/IAG933/test6/raw/output_50_IAG933_linker_design_.xyz
REMARK  10 active torsions:
REMARK  status: ('A' for Active; 'I' for Inactive)
REMARK    1  A    between atoms: C_1  and  C_2
REMARK    2  A    between atoms: C_1  and  C_8
REMARK    3  A    between atoms: C_1  and  N_38
REMARK    4  A    between atoms: C_13  and  C_46
REMARK    5  A    between atoms: C_14  and  C_15
REMARK    6  A    between atoms: C_21  and  O_22
REMARK    7  A    between atoms: O_22  and  C_23
REMARK    8  A    between atoms: C_23  and  C_24
REMARK    9  A    between atoms: O_30  and  C_35
REMARK   10  A    between atoms: C_34  and  C_48
REMARK                            x       y       z     vdW  Elec       q    Type
REMARK                         _______ _______ _______ _____ _____    ______ ____
ROOT
ATOM      1  O   UNL A   1     -22.177  -0.322  29.666  0.00  0.00    -0.272 OA
ATOM      2  C   UNL A   1     -25.245   1.133  28.853  0.00  0.00    +0.085 C 
ATOM      3  C   UNL A   1     -23.167   1.115  27.846  0.00  0.00    +0.197 C 
ATOM      4  C   UNL A   1     -23.103   0.156  29.058  0.00  0.00    +0.253 C 
ATOM      5  N   UNL A   1     -24.470  -0.103  29.247  0.00  0.00    -0.275 N 
ATOM      6  C   UNL A   1     -24.516   1.323  27.449  0.00  0.00    +0.079 C 
ENDROOT
BRANCH   2  19
ATOM      7  C   UNL A   1     -27.616   3.006  30.206  0.00  0.00    +0.003 C 
ATOM      8  C   UNL A   1     -30.699   2.604  28.838  0.00  0.00    +0.002 C 
ATOM      9  C   UNL A   1     -27.582  -0.397  28.684  0.00  0.00    +0.144 C 
ATOM     10  C   UNL A   1     -28.997   3.455  30.553  0.00  0.00    +0.000 C 
ATOM     11  C   UNL A   1     -30.325   5.084  29.478  0.00  0.00    +0.000 C 
ATOM     12  O   UNL A   1     -28.819  -0.398  29.417  0.00  0.00    -0.356 OA
ATOM     13  C   UNL A   1     -30.944   0.289  27.858  0.00  0.00    +0.003 C 
ATOM     14  C   UNL A   1     -29.251   5.883  30.214  0.00  0.00    +0.000 C 
ATOM     15  C   UNL A   1     -29.729   3.699  29.304  0.00  0.00    +0.000 C 
ATOM     16  C   UNL A   1     -29.122   0.890  29.640  0.00  0.00    +0.115 C 
ATOM     17  C   UNL A   1     -27.756   1.573  29.892  0.00  0.00    +0.031 C 
ATOM     18  C   UNL A   1     -28.750   4.892  31.250  0.00  0.00    +0.000 C 
ATOM     19  C   UNL A   1     -26.785   0.851  29.146  0.00  0.00    +0.051 C 
ATOM     20  C   UNL A   1     -29.958   1.323  28.373  0.00  0.00    +0.027 C 
ENDBRANCH   2  19
BRANCH   6  21
ATOM     21  C   UNL A   1     -25.688   1.614  26.461  0.00  0.00    +0.020 C 
ATOM     22  C   UNL A   1     -26.250   2.920  26.395  0.00  0.00    +0.073 C 
ATOM     23  C   UNL A   1     -27.438   3.091  25.645  0.00  0.00    +0.106 C 
ATOM     24  N   UNL A   1     -28.075   2.089  25.003  0.00  0.00    -0.208 NA
ATOM     25  C   UNL A   1     -27.543   0.849  25.079  0.00  0.00    +0.253 C 
ATOM     26  C   UNL A   1     -26.354   0.576  25.777  0.00  0.00    +0.189 C 
ATOM     27  F   UNL A   1     -25.860  -0.681  25.795  0.00  0.00    -0.200 F 
BRANCH  22  28
ATOM     28  C   UNL A   1     -25.642   4.093  27.123  0.00  0.00    +0.266 C 
ATOM     29  N   UNL A   1     -25.614   5.252  26.449  0.00  0.00    -0.200 NA
ATOM     30  C   UNL A   1     -25.026   6.479  26.963  0.00  0.00    +0.139 C 
ATOM     31  O   UNL A   1     -25.143   3.966  28.243  0.00  0.00    -0.268 OA
ENDBRANCH  22  28
BRANCH  25  32
ATOM     32  O   UNL A   1     -28.193  -0.208  24.477  0.00  0.00    -0.456 OA
BRANCH  32  33
ATOM     33  C   UNL A   1     -29.460   0.005  23.866  0.00  0.00    +0.243 C 
BRANCH  33  34
ATOM     34  C   UNL A   1     -30.065  -1.377  23.573  0.00  0.00    +0.229 C 
ATOM     35  O   UNL A   1     -30.729  -1.878  24.721  0.00  0.00    -0.216 OA
ENDBRANCH  33  34
ENDBRANCH  32  33
ENDBRANCH  25  32
ENDBRANCH   6  21
BRANCH   3  36
ATOM     36  O   UNL A   1     -21.709   1.625  27.420  0.00  0.00    -0.344 OA
ATOM     37  C   UNL A   1     -22.066   2.119  26.152  0.00  0.00    +0.175 C 
ENDBRANCH   3  36
BRANCH   5  38
ATOM     38  C   UNL A   1     -24.855  -1.012  30.143  0.00  0.00    +0.114 C 
BRANCH  38  39
ATOM     39  C   UNL A   1     -24.973  -2.505  29.788  0.00  0.00    -0.003 C 
ATOM     40  C   UNL A   1     -23.906  -3.173  29.146  0.00  0.00    -0.003 C 
ATOM     41  C   UNL A   1     -23.989  -4.549  28.853  0.00  0.00    -0.000 C 
ATOM     42  C   UNL A   1     -25.137  -5.280  29.205  0.00  0.00    -0.000 C 
ATOM     43  C   UNL A   1     -26.232  -4.611  29.784  0.00  0.00    -0.000 C 
ATOM     44  C   UNL A   1     -26.155  -3.232  30.065  0.00  0.00    -0.003 C 
ENDBRANCH  38  39
BRANCH  38  45
ATOM     45  C   UNL A   1     -25.387  -0.679  31.571  0.00  0.00    +0.095 C 
ATOM     46  C   UNL A   1     -25.189   0.773  32.028  0.00  0.00    +0.021 C 
ATOM     47  C   UNL A   1     -25.336   0.684  33.544  0.00  0.00    +0.020 C 
ATOM     48  C   UNL A   1     -24.829  -0.715  33.905  0.00  0.00    +0.089 C 
ATOM     49  N   UNL A   1     -24.758  -1.481  32.646  0.00  0.00    -0.217 NA
ENDBRANCH  38  45
ENDBRANCH   5  38
TORSDOF 10
