REMARK  Name = outputs/IAG933/test6/raw/output_5007_IAG933_linker_design_.xyz
REMARK  11 active torsions:
REMARK  status: ('A' for Active; 'I' for Inactive)
REMARK    1  A    between atoms: C_1  and  C_2
REMARK    2  A    between atoms: C_1  and  C_8
REMARK    3  A    between atoms: C_1  and  N_33
REMARK    4  A    between atoms: C_13  and  C_30
REMARK    5  A    between atoms: C_14  and  C_15
REMARK    6  A    between atoms: C_21  and  O_22
REMARK    7  A    between atoms: O_22  and  C_23
REMARK    8  A    between atoms: C_23  and  C_24
REMARK    9  A    between atoms: C_29  and  C_38
REMARK   10  A    between atoms: C_32  and  C_35
REMARK   11  A    between atoms: C_37  and  C_41
REMARK                            x       y       z     vdW  Elec       q    Type
REMARK                         _______ _______ _______ _____ _____    ______ ____
ROOT
ATOM      1  F   UNL A   1     -21.036   2.101  27.377  0.00  0.00    -0.237 F 
ATOM      2  C   UNL A   1     -24.436   1.458  26.934  0.00  0.00    +0.042 C 
ATOM      3  C   UNL A   1     -23.342   1.811  26.433  0.00  0.00    +0.104 C 
ATOM      4  C   UNL A   1     -22.212   1.386  27.271  0.00  0.00    +0.167 C 
ATOM      5  C   UNL A   1     -22.951   1.504  28.789  0.00  0.00    +0.042 C 
ATOM      6  C   UNL A   1     -24.219   0.940  28.210  0.00  0.00    +0.085 C 
ENDROOT
BRANCH   2   7
ATOM      7  C   UNL A   1     -25.688   1.614  26.461  0.00  0.00    +0.016 C 
ATOM      8  C   UNL A   1     -26.250   2.920  26.395  0.00  0.00    +0.073 C 
ATOM      9  C   UNL A   1     -27.438   3.091  25.645  0.00  0.00    +0.106 C 
ATOM     10  N   UNL A   1     -28.075   2.089  25.003  0.00  0.00    -0.208 NA
ATOM     11  C   UNL A   1     -27.543   0.849  25.079  0.00  0.00    +0.253 C 
ATOM     12  C   UNL A   1     -26.354   0.576  25.777  0.00  0.00    +0.189 C 
ATOM     13  F   UNL A   1     -25.860  -0.681  25.795  0.00  0.00    -0.200 F 
BRANCH   8  14
ATOM     14  C   UNL A   1     -25.642   4.093  27.123  0.00  0.00    +0.266 C 
ATOM     15  N   UNL A   1     -25.614   5.252  26.449  0.00  0.00    -0.200 NA
ATOM     16  C   UNL A   1     -25.026   6.479  26.963  0.00  0.00    +0.139 C 
ATOM     17  O   UNL A   1     -25.143   3.966  28.243  0.00  0.00    -0.268 OA
ENDBRANCH   8  14
BRANCH  11  18
ATOM     18  O   UNL A   1     -28.193  -0.208  24.477  0.00  0.00    -0.456 OA
BRANCH  18  19
ATOM     19  C   UNL A   1     -29.460   0.005  23.866  0.00  0.00    +0.243 C 
BRANCH  19  20
ATOM     20  C   UNL A   1     -30.065  -1.377  23.573  0.00  0.00    +0.229 C 
ATOM     21  O   UNL A   1     -30.729  -1.878  24.721  0.00  0.00    -0.216 OA
ENDBRANCH  19  20
ENDBRANCH  18  19
ENDBRANCH  11  18
ENDBRANCH   2   7
BRANCH   3  23
ATOM     22  F   UNL A   1     -21.529   1.717  24.879  0.00  0.00    -0.198 F 
ATOM     23  C   UNL A   1     -22.730   1.136  25.280  0.00  0.00    +0.321 C 
ATOM     24  F   UNL A   1     -23.422   1.273  24.012  0.00  0.00    -0.198 F 
ENDBRANCH   3  23
BRANCH   6  26
ATOM     25  N   UNL A   1     -25.730  -0.320  29.228  0.00  0.00    -0.201 NA
ATOM     26  C   UNL A   1     -25.398   0.817  28.977  0.00  0.00    +0.242 C 
ATOM     27  O   UNL A   1     -26.032   1.870  29.343  0.00  0.00    -0.273 OA
BRANCH  25  28
ATOM     28  C   UNL A   1     -24.855  -1.012  30.143  0.00  0.00    +0.133 C 
BRANCH  28  29
ATOM     29  C   UNL A   1     -24.973  -2.505  29.788  0.00  0.00    -0.001 C 
ATOM     30  C   UNL A   1     -23.906  -3.173  29.146  0.00  0.00    -0.003 C 
ATOM     31  C   UNL A   1     -23.989  -4.549  28.853  0.00  0.00    -0.000 C 
ATOM     32  C   UNL A   1     -25.137  -5.280  29.205  0.00  0.00    -0.000 C 
ATOM     33  C   UNL A   1     -26.232  -4.611  29.784  0.00  0.00    -0.000 C 
ATOM     34  C   UNL A   1     -26.155  -3.232  30.065  0.00  0.00    -0.003 C 
ENDBRANCH  28  29
BRANCH  28  35
ATOM     35  C   UNL A   1     -25.387  -0.679  31.571  0.00  0.00    +0.097 C 
ATOM     36  C   UNL A   1     -25.189   0.773  32.028  0.00  0.00    +0.021 C 
ATOM     37  C   UNL A   1     -25.336   0.684  33.544  0.00  0.00    +0.020 C 
ATOM     38  C   UNL A   1     -24.829  -0.715  33.905  0.00  0.00    +0.089 C 
ATOM     39  N   UNL A   1     -24.758  -1.481  32.646  0.00  0.00    -0.217 NA
ENDBRANCH  28  35
ENDBRANCH  25  28
ENDBRANCH   6  26
BRANCH   5  40
ATOM     40  C   UNL A   1     -22.400   0.398  29.669  0.00  0.00    +0.003 C 
ATOM     41  C   UNL A   1     -21.030  -0.199  29.139  0.00  0.00    +0.000 C 
ENDBRANCH   5  40
TORSDOF 11
