REMARK  Name = outputs/IAG933/test6/raw/output_5008_IAG933_linker_design_.xyz
REMARK  13 active torsions:
REMARK  status: ('A' for Active; 'I' for Inactive)
REMARK    1  A    between atoms: C_1  and  C_2
REMARK    2  A    between atoms: C_1  and  C_8
REMARK    3  A    between atoms: C_1  and  C_35
REMARK    4  A    between atoms: C_13  and  C_41
REMARK    5  A    between atoms: C_14  and  C_15
REMARK    6  A    between atoms: C_21  and  O_22
REMARK    7  A    between atoms: O_22  and  C_23
REMARK    8  A    between atoms: C_23  and  C_24
REMARK    9  A    between atoms: C_29  and  C_37
REMARK   10  A    between atoms: O_32  and  C_36
REMARK   11  A    between atoms: C_33  and  C_41
REMARK   12  A    between atoms: C_35  and  C_36
REMARK   13  A    between atoms: C_35  and  C_37
REMARK                            x       y       z     vdW  Elec       q    Type
REMARK                         _______ _______ _______ _____ _____    ______ ____
ROOT
ATOM      1  O   UNL A   1     -21.167   1.019  28.190  0.00  0.00    -0.311 OA
ATOM      2  C   UNL A   1     -22.454   0.725  28.159  0.00  0.00    +0.173 C 
ATOM      3  C   UNL A   1     -23.026   1.651  26.233  0.00  0.00    +0.280 C 
ATOM      4  C   UNL A   1     -20.803   1.777  27.170  0.00  0.00    +0.363 C 
ATOM      5  C   UNL A   1     -23.396   1.102  27.275  0.00  0.00    +0.053 C 
ATOM      6  F   UNL A   1     -23.672   1.808  25.146  0.00  0.00    -0.164 F 
ATOM      7  O   UNL A   1     -21.600   2.118  26.198  0.00  0.00    -0.424 OA
ENDROOT
BRANCH   2   8
ATOM      8  C   UNL A   1     -22.936   0.064  29.345  0.00  0.00    +0.186 C 
ATOM      9  O   UNL A   1     -22.338  -0.552  30.317  0.00  0.00    -0.220 OA
BRANCH   8  10
ATOM     10  C   UNL A   1     -24.197   0.106  29.464  0.00  0.00    +0.068 C 
BRANCH  10  11
ATOM     11  C   UNL A   1     -24.855  -1.012  30.143  0.00  0.00    +0.043 C 
BRANCH  11  12
ATOM     12  C   UNL A   1     -24.973  -2.505  29.788  0.00  0.00    -0.021 C 
ATOM     13  C   UNL A   1     -23.906  -3.173  29.146  0.00  0.00    -0.004 C 
ATOM     14  C   UNL A   1     -23.989  -4.549  28.853  0.00  0.00    -0.000 C 
ATOM     15  C   UNL A   1     -25.137  -5.280  29.205  0.00  0.00    -0.000 C 
ATOM     16  C   UNL A   1     -26.232  -4.611  29.784  0.00  0.00    -0.000 C 
ATOM     17  C   UNL A   1     -26.155  -3.232  30.065  0.00  0.00    -0.004 C 
ENDBRANCH  11  12
BRANCH  11  18
ATOM     18  C   UNL A   1     -25.387  -0.679  31.571  0.00  0.00    +0.077 C 
ATOM     19  C   UNL A   1     -25.189   0.773  32.028  0.00  0.00    +0.019 C 
ATOM     20  C   UNL A   1     -25.336   0.684  33.544  0.00  0.00    +0.020 C 
ATOM     21  C   UNL A   1     -24.829  -0.715  33.905  0.00  0.00    +0.089 C 
ATOM     22  N   UNL A   1     -24.758  -1.481  32.646  0.00  0.00    -0.219 NA
ENDBRANCH  11  18
ENDBRANCH  10  11
BRANCH  10  23
ATOM     23  C   UNL A   1     -24.904   1.421  29.417  0.00  0.00    +0.145 C 
BRANCH  23  24
ATOM     24  O   UNL A   1     -24.773   2.738  30.076  0.00  0.00    -0.351 OA
ATOM     25  C   UNL A   1     -25.866   3.253  30.660  0.00  0.00    +0.174 C 
ENDBRANCH  23  24
ENDBRANCH  10  23
ENDBRANCH   8  10
ENDBRANCH   2   8
BRANCH   5  26
ATOM     26  C   UNL A   1     -24.549   1.076  27.261  0.00  0.00    +0.059 C 
BRANCH  26  27
ATOM     27  C   UNL A   1     -25.688   1.614  26.461  0.00  0.00    +0.020 C 
ATOM     28  C   UNL A   1     -26.250   2.920  26.395  0.00  0.00    +0.073 C 
ATOM     29  C   UNL A   1     -27.438   3.091  25.645  0.00  0.00    +0.106 C 
ATOM     30  N   UNL A   1     -28.075   2.089  25.003  0.00  0.00    -0.208 NA
ATOM     31  C   UNL A   1     -27.543   0.849  25.079  0.00  0.00    +0.253 C 
ATOM     32  C   UNL A   1     -26.354   0.576  25.777  0.00  0.00    +0.189 C 
ATOM     33  F   UNL A   1     -25.860  -0.681  25.795  0.00  0.00    -0.200 F 
BRANCH  28  34
ATOM     34  C   UNL A   1     -25.642   4.093  27.123  0.00  0.00    +0.266 C 
ATOM     35  N   UNL A   1     -25.614   5.252  26.449  0.00  0.00    -0.200 NA
ATOM     36  C   UNL A   1     -25.026   6.479  26.963  0.00  0.00    +0.139 C 
ATOM     37  O   UNL A   1     -25.143   3.966  28.243  0.00  0.00    -0.268 OA
ENDBRANCH  28  34
BRANCH  31  38
ATOM     38  O   UNL A   1     -28.193  -0.208  24.477  0.00  0.00    -0.456 OA
BRANCH  38  39
ATOM     39  C   UNL A   1     -29.460   0.005  23.866  0.00  0.00    +0.243 C 
BRANCH  39  40
ATOM     40  C   UNL A   1     -30.065  -1.377  23.573  0.00  0.00    +0.229 C 
ATOM     41  O   UNL A   1     -30.729  -1.878  24.721  0.00  0.00    -0.216 OA
ENDBRANCH  39  40
ENDBRANCH  38  39
ENDBRANCH  31  38
ENDBRANCH  26  27
ENDBRANCH   5  26
TORSDOF 13
