MODEL 500
MODEL 1
REMARK VINA RESULT:    -3.861      0.000      0.000
REMARK INTER + INTRA:          -4.636
REMARK INTER:                  -4.312
REMARK INTRA:                  -0.324
REMARK UNBOUND:                -0.324
REMARK  Name = No_500-gen_results/8p0m/2024-11-27-11-27-31/
REMARK  2 active torsions:
REMARK  status: ('A' for Active; 'I' for Inactive)
REMARK    1  A    between atoms: C_3  and  C_4
REMARK    2  A    between atoms: C_4  and  C_5
REMARK                            x       y       z     vdW  Elec       q    Type
REMARK                         _______ _______ _______ _____ _____    ______ ____
ROOT
ATOM      1  C   UNL A   1     -24.355  -3.040  28.602  0.00  0.00    +0.054 C 
ENDROOT
BRANCH   1   4
ATOM      2  F   UNL A   1     -24.718  -2.090  31.052  0.00  0.00    -0.202 F 
ATOM      3  C   UNL A   1     -23.838  -1.571  30.534  0.00  0.00    +0.163 C 
ATOM      4  C   UNL A   1     -23.577  -1.973  29.339  0.00  0.00    +0.011 C 
ENDBRANCH   1   4
BRANCH   1   5
ATOM      5  C   UNL A   1     -24.144  -4.354  28.721  0.00  0.00    -0.026 C 
ATOM      6  C   UNL A   1     -25.202  -5.123  29.259  0.00  0.00    -0.030 C 
ATOM      7  C   UNL A   1     -26.396  -4.659  29.714  0.00  0.00    +0.030 C 
ENDBRANCH   1   5
TORSDOF 2
ENDMDL
ENDMDL
