REMARK  Name = No_501-gen_results/8p0m/2024-11-27-11-27-31/
REMARK  0 active torsions:
REMARK  status: ('A' for Active; 'I' for Inactive)
REMARK                            x       y       z     vdW  Elec       q    Type
REMARK                         _______ _______ _______ _____ _____    ______ ____
ROOT
ATOM      1  C   UNL A   1     -28.016  -0.814  28.878  0.00  0.00    +0.010 A 
ATOM      2  C   UNL A   1     -27.064  -0.119  28.608  0.00  0.00    +0.040 A 
ATOM      3  C   UNL A   1     -27.001   0.691  27.491  0.00  0.00    +0.008 A 
ATOM      4  C   UNL A   1     -28.137   0.736  26.635  0.00  0.00    +0.001 A 
ATOM      5  C   UNL A   1     -29.236   0.076  27.069  0.00  0.00    -0.000 A 
ATOM      6  C   UNL A   1     -29.218  -0.643  28.175  0.00  0.00    -0.002 A 
ATOM      7  C   UNL A   1     -28.003  -1.660  30.127  0.00  0.00    +0.153 C 
ATOM      8  N   UNL A   1     -27.044  -2.495  30.269  0.00  0.00    -0.255 NA
ATOM      9  C   UNL A   1     -25.765  -2.066  30.274  0.00  0.00    +0.143 C 
ATOM     10  C   UNL A   1     -25.029  -1.456  29.156  0.00  0.00    -0.039 C 
ATOM     11  C   UNL A   1     -25.553  -0.514  28.738  0.00  0.00    -0.059 C 
ENDROOT
TORSDOF 0
