REMARK  Name = outputs/IAG933/test6/raw/output_5010_IAG933_linker_design_.xyz
REMARK  10 active torsions:
REMARK  status: ('A' for Active; 'I' for Inactive)
REMARK    1  A    between atoms: C_1  and  C_2
REMARK    2  A    between atoms: C_13  and  N_43
REMARK    3  A    between atoms: C_14  and  C_15
REMARK    4  A    between atoms: C_21  and  O_22
REMARK    5  A    between atoms: O_22  and  C_23
REMARK    6  A    between atoms: C_23  and  C_24
REMARK    7  A    between atoms: N_28  and  C_38
REMARK    8  A    between atoms: C_29  and  N_44
REMARK    9  A    between atoms: C_30  and  C_33
REMARK   10  A    between atoms: C_30  and  C_36
REMARK                            x       y       z     vdW  Elec       q    Type
REMARK                         _______ _______ _______ _____ _____    ______ ____
ROOT
ATOM      1  C   UNL A   1     -23.374   0.941  27.578  0.00  0.00    +0.160 C 
ATOM      2  O   UNL A   1     -22.542   0.547  29.912  0.00  0.00    -0.218 OA
ATOM      3  C   UNL A   1     -24.472   0.173  28.158  0.00  0.00    +0.172 C 
ATOM      4  N   UNL A   1     -24.460   1.080  27.237  0.00  0.00    -0.287 N 
ATOM      5  C   UNL A   1     -22.791   0.788  28.902  0.00  0.00    +0.208 C 
ENDROOT
BRANCH   3  12
ATOM      6  C   UNL A   1     -24.855  -1.012  30.143  0.00  0.00    +0.116 C 
ATOM      7  C   UNL A   1     -25.387  -0.679  31.571  0.00  0.00    +0.102 C 
ATOM      8  C   UNL A   1     -25.189   0.773  32.028  0.00  0.00    +0.097 C 
ATOM      9  C   UNL A   1     -25.336   0.684  33.544  0.00  0.00    +0.029 C 
ATOM     10  C   UNL A   1     -24.829  -0.715  33.905  0.00  0.00    +0.089 C 
ATOM     11  N   UNL A   1     -24.758  -1.481  32.646  0.00  0.00    -0.217 NA
ATOM     12  N   UNL A   1     -25.082   0.302  29.496  0.00  0.00    -0.164 NA
ATOM     13  C   UNL A   1     -25.428   2.493  31.871  0.00  0.00    +0.242 C 
ATOM     14  O   UNL A   1     -25.471   3.247  32.844  0.00  0.00    -0.274 OA
ATOM     15  N   UNL A   1     -25.073   1.834  29.609  0.00  0.00    -0.048 NA
ATOM     16  N   UNL A   1     -25.350   3.021  30.617  0.00  0.00    -0.192 N 
BRANCH   6  17
ATOM     17  C   UNL A   1     -24.973  -2.505  29.788  0.00  0.00    -0.005 C 
ATOM     18  C   UNL A   1     -23.906  -3.173  29.146  0.00  0.00    -0.003 C 
ATOM     19  C   UNL A   1     -23.989  -4.549  28.853  0.00  0.00    -0.000 C 
ATOM     20  C   UNL A   1     -25.137  -5.280  29.205  0.00  0.00    -0.000 C 
ATOM     21  C   UNL A   1     -26.232  -4.611  29.784  0.00  0.00    -0.000 C 
ATOM     22  C   UNL A   1     -26.155  -3.232  30.065  0.00  0.00    -0.003 C 
ENDBRANCH   6  17
BRANCH  16  23
ATOM     23  C   UNL A   1     -25.397   4.503  30.673  0.00  0.00    +0.114 C 
ATOM     24  C   UNL A   1     -26.789   5.063  30.983  0.00  0.00    +0.025 C 
ENDBRANCH  16  23
ENDBRANCH   3  12
BRANCH   4  25
ATOM     25  C   UNL A   1     -25.688   1.614  26.461  0.00  0.00    +0.087 C 
ATOM     26  C   UNL A   1     -26.250   2.920  26.395  0.00  0.00    +0.090 C 
ATOM     27  C   UNL A   1     -27.438   3.091  25.645  0.00  0.00    +0.108 C 
ATOM     28  N   UNL A   1     -28.075   2.089  25.003  0.00  0.00    -0.208 NA
ATOM     29  C   UNL A   1     -27.543   0.849  25.079  0.00  0.00    +0.255 C 
ATOM     30  C   UNL A   1     -26.354   0.576  25.777  0.00  0.00    +0.206 C 
ATOM     31  F   UNL A   1     -25.860  -0.681  25.795  0.00  0.00    -0.198 F 
BRANCH  26  32
ATOM     32  C   UNL A   1     -25.642   4.093  27.123  0.00  0.00    +0.268 C 
ATOM     33  N   UNL A   1     -25.614   5.252  26.449  0.00  0.00    -0.200 NA
ATOM     34  C   UNL A   1     -25.026   6.479  26.963  0.00  0.00    +0.139 C 
ATOM     35  O   UNL A   1     -25.143   3.966  28.243  0.00  0.00    -0.268 OA
ENDBRANCH  26  32
BRANCH  29  36
ATOM     36  O   UNL A   1     -28.193  -0.208  24.477  0.00  0.00    -0.456 OA
BRANCH  36  37
ATOM     37  C   UNL A   1     -29.460   0.005  23.866  0.00  0.00    +0.243 C 
BRANCH  37  38
ATOM     38  C   UNL A   1     -30.065  -1.377  23.573  0.00  0.00    +0.229 C 
ATOM     39  O   UNL A   1     -30.729  -1.878  24.721  0.00  0.00    -0.216 OA
ENDBRANCH  37  38
ENDBRANCH  36  37
ENDBRANCH  29  36
ENDBRANCH   4  25
BRANCH   1  40
ATOM     40  C   UNL A   1     -22.435   0.811  26.712  0.00  0.00    +0.277 C 
ATOM     41  F   UNL A   1     -21.239   1.282  27.290  0.00  0.00    -0.226 F 
BRANCH  40  44
ATOM     42  F   UNL A   1     -21.614   2.243  24.971  0.00  0.00    -0.167 F 
ATOM     43  F   UNL A   1     -23.334   2.939  26.126  0.00  0.00    -0.167 F 
ATOM     44  C   UNL A   1     -22.731   1.820  25.579  0.00  0.00    +0.429 C 
ATOM     45  F   UNL A   1     -23.490   1.138  24.669  0.00  0.00    -0.167 F 
ENDBRANCH  40  44
ENDBRANCH   1  40
TORSDOF 10
