REMARK  Name = outputs/IAG933/test6/raw/output_5011_IAG933_linker_design_.xyz
REMARK  12 active torsions:
REMARK  status: ('A' for Active; 'I' for Inactive)
REMARK    1  A    between atoms: C_1  and  C_2
REMARK    2  A    between atoms: C_1  and  C_8
REMARK    3  A    between atoms: C_1  and  C_39
REMARK    4  A    between atoms: C_13  and  C_30
REMARK    5  A    between atoms: C_14  and  C_15
REMARK    6  A    between atoms: C_21  and  O_22
REMARK    7  A    between atoms: O_22  and  C_23
REMARK    8  A    between atoms: C_23  and  C_24
REMARK    9  A    between atoms: C_33  and  C_46
REMARK   10  A    between atoms: N_38  and  C_39
REMARK   11  A    between atoms: C_39  and  C_46
REMARK   12  A    between atoms: C_41  and  C_44
REMARK                            x       y       z     vdW  Elec       q    Type
REMARK                         _______ _______ _______ _____ _____    ______ ____
ROOT
ATOM      1  C   UNL A   1     -25.419  -0.140  28.956  0.00  0.00    +0.104 C 
ENDROOT
BRANCH   1   9
ATOM      2  O   UNL A   1     -31.084   3.699  29.831  0.00  0.00    -0.155 OA
ATOM      3  C   UNL A   1     -27.099   1.578  29.108  0.00  0.00    +0.154 C 
ATOM      4  C   UNL A   1     -28.425  -0.317  29.401  0.00  0.00    +0.247 C 
ATOM      5  S   UNL A   1     -29.970   3.393  29.167  0.00  0.00    +0.068 S 
ATOM      6  O   UNL A   1     -28.648  -1.456  29.725  0.00  0.00    -0.273 OA
ATOM      7  N   UNL A   1     -29.646   1.911  28.805  0.00  0.00    -0.071 NA
ATOM      8  O   UNL A   1     -29.920   3.890  27.870  0.00  0.00    -0.155 OA
ATOM      9  N   UNL A   1     -26.975   0.302  29.352  0.00  0.00    -0.266 N 
ATOM     10  C   UNL A   1     -28.661   3.900  30.178  0.00  0.00    +0.230 C 
ATOM     11  C   UNL A   1     -29.586   0.594  29.229  0.00  0.00    +0.206 C 
ATOM     12  S   UNL A   1     -27.344   2.747  30.460  0.00  0.00    -0.092 S 
BRANCH  11  13
ATOM     13  C   UNL A   1     -30.806  -0.129  28.621  0.00  0.00    +0.211 C 
ATOM     14  O   UNL A   1     -30.628  -1.040  27.699  0.00  0.00    -0.218 OA
ENDBRANCH  11  13
ENDBRANCH   1   9
BRANCH   1  16
ATOM     15  C   UNL A   1     -24.348   1.155  27.004  0.00  0.00    -0.000 C 
ATOM     16  C   UNL A   1     -24.126   0.367  27.994  0.00  0.00    -0.004 C 
BRANCH  15  17
ATOM     17  C   UNL A   1     -25.688   1.614  26.461  0.00  0.00    +0.038 C 
ATOM     18  C   UNL A   1     -26.250   2.920  26.395  0.00  0.00    +0.076 C 
ATOM     19  C   UNL A   1     -27.438   3.091  25.645  0.00  0.00    +0.107 C 
ATOM     20  N   UNL A   1     -28.075   2.089  25.003  0.00  0.00    -0.208 NA
ATOM     21  C   UNL A   1     -27.543   0.849  25.079  0.00  0.00    +0.253 C 
ATOM     22  C   UNL A   1     -26.354   0.576  25.777  0.00  0.00    +0.193 C 
ATOM     23  F   UNL A   1     -25.860  -0.681  25.795  0.00  0.00    -0.199 F 
BRANCH  18  24
ATOM     24  C   UNL A   1     -25.642   4.093  27.123  0.00  0.00    +0.266 C 
ATOM     25  N   UNL A   1     -25.614   5.252  26.449  0.00  0.00    -0.200 NA
ATOM     26  C   UNL A   1     -25.026   6.479  26.963  0.00  0.00    +0.139 C 
ATOM     27  O   UNL A   1     -25.143   3.966  28.243  0.00  0.00    -0.268 OA
ENDBRANCH  18  24
BRANCH  21  28
ATOM     28  O   UNL A   1     -28.193  -0.208  24.477  0.00  0.00    -0.456 OA
BRANCH  28  29
ATOM     29  C   UNL A   1     -29.460   0.005  23.866  0.00  0.00    +0.243 C 
BRANCH  29  30
ATOM     30  C   UNL A   1     -30.065  -1.377  23.573  0.00  0.00    +0.229 C 
ATOM     31  O   UNL A   1     -30.729  -1.878  24.721  0.00  0.00    -0.216 OA
ENDBRANCH  29  30
ENDBRANCH  28  29
ENDBRANCH  21  28
ENDBRANCH  15  17
BRANCH  16  32
ATOM     32  C   UNL A   1     -22.794   0.337  28.684  0.00  0.00    -0.007 C 
ATOM     33  C   UNL A   1     -21.655   1.034  27.975  0.00  0.00    -0.026 C 
ATOM     34  C   UNL A   1     -21.685   1.904  26.688  0.00  0.00    +0.031 C 
ENDBRANCH  16  32
ENDBRANCH   1  16
BRANCH   1  35
ATOM     35  C   UNL A   1     -24.855  -1.012  30.143  0.00  0.00    +0.061 C 
BRANCH  35  36
ATOM     36  C   UNL A   1     -24.973  -2.505  29.788  0.00  0.00    -0.019 C 
ATOM     37  C   UNL A   1     -23.906  -3.173  29.146  0.00  0.00    -0.004 C 
ATOM     38  C   UNL A   1     -23.989  -4.549  28.853  0.00  0.00    -0.000 C 
ATOM     39  C   UNL A   1     -25.137  -5.280  29.205  0.00  0.00    -0.000 C 
ATOM     40  C   UNL A   1     -26.232  -4.611  29.784  0.00  0.00    -0.000 C 
ATOM     41  C   UNL A   1     -26.155  -3.232  30.065  0.00  0.00    -0.004 C 
ENDBRANCH  35  36
BRANCH  35  42
ATOM     42  C   UNL A   1     -25.387  -0.679  31.571  0.00  0.00    +0.079 C 
ATOM     43  C   UNL A   1     -25.189   0.773  32.028  0.00  0.00    +0.019 C 
ATOM     44  C   UNL A   1     -25.336   0.684  33.544  0.00  0.00    +0.020 C 
ATOM     45  C   UNL A   1     -24.829  -0.715  33.905  0.00  0.00    +0.089 C 
ATOM     46  N   UNL A   1     -24.758  -1.481  32.646  0.00  0.00    -0.219 NA
ENDBRANCH  35  42
ENDBRANCH   1  35
TORSDOF 12
