REMARK  Name = outputs/IAG933/test6/raw/output_5013_IAG933_linker_design_.xyz
REMARK  13 active torsions:
REMARK  status: ('A' for Active; 'I' for Inactive)
REMARK    1  A    between atoms: C_1  and  C_2
REMARK    2  A    between atoms: C_1  and  C_8
REMARK    3  A    between atoms: C_1  and  C_40
REMARK    4  A    between atoms: C_13  and  C_33
REMARK    5  A    between atoms: C_14  and  C_15
REMARK    6  A    between atoms: C_21  and  O_22
REMARK    7  A    between atoms: O_22  and  C_23
REMARK    8  A    between atoms: C_23  and  C_24
REMARK    9  A    between atoms: C_28  and  C_40
REMARK   10  A    between atoms: C_31  and  C_32
REMARK   11  A    between atoms: C_31  and  C_36
REMARK   12  A    between atoms: C_31  and  C_38
REMARK   13  A    between atoms: C_37  and  C_40
REMARK                            x       y       z     vdW  Elec       q    Type
REMARK                         _______ _______ _______ _____ _____    ______ ____
ROOT
ATOM      1  C   UNL A   1     -24.511   1.171  27.230  0.00  0.00    +0.009 C 
ATOM      2  F   UNL A   1     -22.487  -0.177  28.656  0.00  0.00    -0.231 F 
ATOM      3  C   UNL A   1     -23.419   0.849  27.751  0.00  0.00    +0.176 C 
ATOM      4  C   UNL A   1     -24.468   0.552  28.387  0.00  0.00    -0.003 C 
ENDROOT
BRANCH   1   5
ATOM      5  C   UNL A   1     -25.688   1.614  26.461  0.00  0.00    +0.036 C 
ATOM      6  C   UNL A   1     -26.250   2.920  26.395  0.00  0.00    +0.076 C 
ATOM      7  C   UNL A   1     -27.438   3.091  25.645  0.00  0.00    +0.107 C 
ATOM      8  N   UNL A   1     -28.075   2.089  25.003  0.00  0.00    -0.208 NA
ATOM      9  C   UNL A   1     -27.543   0.849  25.079  0.00  0.00    +0.253 C 
ATOM     10  C   UNL A   1     -26.354   0.576  25.777  0.00  0.00    +0.193 C 
ATOM     11  F   UNL A   1     -25.860  -0.681  25.795  0.00  0.00    -0.199 F 
BRANCH   6  12
ATOM     12  C   UNL A   1     -25.642   4.093  27.123  0.00  0.00    +0.266 C 
ATOM     13  N   UNL A   1     -25.614   5.252  26.449  0.00  0.00    -0.200 NA
ATOM     14  C   UNL A   1     -25.026   6.479  26.963  0.00  0.00    +0.139 C 
ATOM     15  O   UNL A   1     -25.143   3.966  28.243  0.00  0.00    -0.268 OA
ENDBRANCH   6  12
BRANCH   9  16
ATOM     16  O   UNL A   1     -28.193  -0.208  24.477  0.00  0.00    -0.456 OA
BRANCH  16  17
ATOM     17  C   UNL A   1     -29.460   0.005  23.866  0.00  0.00    +0.243 C 
BRANCH  17  18
ATOM     18  C   UNL A   1     -30.065  -1.377  23.573  0.00  0.00    +0.229 C 
ATOM     19  O   UNL A   1     -30.729  -1.878  24.721  0.00  0.00    -0.216 OA
ENDBRANCH  17  18
ENDBRANCH  16  17
ENDBRANCH   9  16
ENDBRANCH   1   5
BRANCH   3  20
ATOM     20  C   UNL A   1     -22.243   1.497  27.116  0.00  0.00    +0.129 C 
BRANCH  20  21
ATOM     21  C   UNL A   1     -22.424   1.958  25.790  0.00  0.00    +0.313 C 
ATOM     22  O   UNL A   1     -23.450   1.853  25.152  0.00  0.00    -0.259 OA
ATOM     23  F   UNL A   1     -21.339   2.144  25.067  0.00  0.00    -0.164 F 
ENDBRANCH  20  21
BRANCH  20  25
ATOM     24  C   UNL A   1     -19.929   2.558  27.151  0.00  0.00    +0.001 C 
ATOM     25  C   UNL A   1     -20.876   1.603  27.767  0.00  0.00    +0.014 C 
ENDBRANCH  20  25
ENDBRANCH   3  20
BRANCH   4  26
ATOM     26  C   UNL A   1     -25.464  -0.018  29.070  0.00  0.00    +0.106 C 
BRANCH  26  27
ATOM     27  C   UNL A   1     -26.749   0.252  29.304  0.00  0.00    +0.265 C 
ATOM     28  N   UNL A   1     -27.217   1.538  29.556  0.00  0.00    -0.087 NA
ATOM     29  O   UNL A   1     -27.593  -0.635  29.285  0.00  0.00    -0.271 OA
ENDBRANCH  26  27
BRANCH  26  30
ATOM     30  C   UNL A   1     -24.855  -1.012  30.143  0.00  0.00    +0.051 C 
BRANCH  30  31
ATOM     31  C   UNL A   1     -24.973  -2.505  29.788  0.00  0.00    -0.020 C 
ATOM     32  C   UNL A   1     -23.906  -3.173  29.146  0.00  0.00    -0.004 C 
ATOM     33  C   UNL A   1     -23.989  -4.549  28.853  0.00  0.00    -0.000 C 
ATOM     34  C   UNL A   1     -25.137  -5.280  29.205  0.00  0.00    -0.000 C 
ATOM     35  C   UNL A   1     -26.232  -4.611  29.784  0.00  0.00    -0.000 C 
ATOM     36  C   UNL A   1     -26.155  -3.232  30.065  0.00  0.00    -0.004 C 
ENDBRANCH  30  31
BRANCH  30  37
ATOM     37  C   UNL A   1     -25.387  -0.679  31.571  0.00  0.00    +0.078 C 
ATOM     38  C   UNL A   1     -25.189   0.773  32.028  0.00  0.00    +0.019 C 
ATOM     39  C   UNL A   1     -25.336   0.684  33.544  0.00  0.00    +0.020 C 
ATOM     40  C   UNL A   1     -24.829  -0.715  33.905  0.00  0.00    +0.089 C 
ATOM     41  N   UNL A   1     -24.758  -1.481  32.646  0.00  0.00    -0.219 NA
ENDBRANCH  30  37
ENDBRANCH  26  30
ENDBRANCH   4  26
TORSDOF 13
