REMARK  Name = outputs/IAG933/test6/raw/output_5015_IAG933_linker_design_.xyz
REMARK  15 active torsions:
REMARK  status: ('A' for Active; 'I' for Inactive)
REMARK    1  A    between atoms: C_1  and  C_2
REMARK    2  A    between atoms: C_1  and  C_8
REMARK    3  A    between atoms: C_1  and  C_34
REMARK    4  A    between atoms: C_13  and  C_33
REMARK    5  A    between atoms: C_14  and  C_15
REMARK    6  A    between atoms: C_21  and  O_22
REMARK    7  A    between atoms: O_22  and  C_23
REMARK    8  A    between atoms: C_23  and  C_24
REMARK    9  A    between atoms: C_28  and  C_33
REMARK   10  A    between atoms: C_28  and  C_34
REMARK   11  A    between atoms: C_28  and  C_37
REMARK   12  A    between atoms: N_29  and  C_30
REMARK   13  A    between atoms: C_31  and  C_39
REMARK   14  A    between atoms: C_34  and  C_42
REMARK   15  A    between atoms: C_37  and  C_39
REMARK                            x       y       z     vdW  Elec       q    Type
REMARK                         _______ _______ _______ _____ _____    ______ ____
ROOT
ATOM      1  C   UNL A   1     -25.405  -0.059  29.062  0.00  0.00    +0.084 C 
ENDROOT
BRANCH   1   4
ATOM      2  N   UNL A   1     -27.710   1.310  29.308  0.00  0.00    -0.196 NA
ATOM      3  O   UNL A   1     -27.473  -0.772  28.339  0.00  0.00    -0.273 OA
ATOM      4  C   UNL A   1     -26.922   0.154  28.892  0.00  0.00    +0.242 C 
BRANCH   2   5
ATOM      5  C   UNL A   1     -29.252   0.865  29.175  0.00  0.00    +0.143 C 
ATOM      6  C   UNL A   1     -30.282   1.994  28.916  0.00  0.00    +0.043 C 
ATOM      7  S   UNL A   1     -30.127  -0.254  27.940  0.00  0.00    -0.118 S 
ATOM      8  O   UNL A   1     -31.190   1.690  25.832  0.00  0.00    -0.222 OA
ATOM      9  C   UNL A   1     -31.256   1.060  28.191  0.00  0.00    +0.082 C 
ATOM     10  C   UNL A   1     -30.228   3.309  28.069  0.00  0.00    +0.006 C 
ATOM     11  C   UNL A   1     -31.619   3.348  27.502  0.00  0.00    +0.034 C 
ATOM     12  C   UNL A   1     -31.872   1.927  27.051  0.00  0.00    +0.162 C 
ENDBRANCH   2   5
ENDBRANCH   1   4
BRANCH   1  13
ATOM     13  C   UNL A   1     -24.855  -1.012  30.143  0.00  0.00    +0.047 C 
BRANCH  13  14
ATOM     14  C   UNL A   1     -24.973  -2.505  29.788  0.00  0.00    -0.021 C 
ATOM     15  C   UNL A   1     -23.906  -3.173  29.146  0.00  0.00    -0.004 C 
ATOM     16  C   UNL A   1     -23.989  -4.549  28.853  0.00  0.00    -0.000 C 
ATOM     17  C   UNL A   1     -25.137  -5.280  29.205  0.00  0.00    -0.000 C 
ATOM     18  C   UNL A   1     -26.232  -4.611  29.784  0.00  0.00    -0.000 C 
ATOM     19  C   UNL A   1     -26.155  -3.232  30.065  0.00  0.00    -0.004 C 
ENDBRANCH  13  14
BRANCH  13  20
ATOM     20  C   UNL A   1     -25.387  -0.679  31.571  0.00  0.00    +0.077 C 
ATOM     21  C   UNL A   1     -25.189   0.773  32.028  0.00  0.00    +0.019 C 
ATOM     22  C   UNL A   1     -25.336   0.684  33.544  0.00  0.00    +0.020 C 
ATOM     23  C   UNL A   1     -24.829  -0.715  33.905  0.00  0.00    +0.089 C 
ATOM     24  N   UNL A   1     -24.758  -1.481  32.646  0.00  0.00    -0.219 NA
ENDBRANCH  13  20
ENDBRANCH   1  13
BRANCH   1  25
ATOM     25  C   UNL A   1     -24.055   0.316  28.185  0.00  0.00    +0.011 C 
BRANCH  25  26
ATOM     26  C   UNL A   1     -24.847   1.336  27.649  0.00  0.00    +0.008 C 
BRANCH  26  27
ATOM     27  C   UNL A   1     -25.688   1.614  26.461  0.00  0.00    +0.070 C 
ATOM     28  C   UNL A   1     -26.250   2.920  26.395  0.00  0.00    +0.055 C 
ATOM     29  C   UNL A   1     -27.438   3.091  25.645  0.00  0.00    +0.102 C 
ATOM     30  N   UNL A   1     -28.075   2.089  25.003  0.00  0.00    -0.212 NA
ATOM     31  C   UNL A   1     -27.543   0.849  25.079  0.00  0.00    +0.234 C 
ATOM     32  C   UNL A   1     -26.354   0.576  25.777  0.00  0.00    +0.240 C 
ATOM     33  F   UNL A   1     -25.860  -0.681  25.795  0.00  0.00    -0.227 F 
BRANCH  28  34
ATOM     34  C   UNL A   1     -25.642   4.093  27.123  0.00  0.00    +0.262 C 
ATOM     35  N   UNL A   1     -25.614   5.252  26.449  0.00  0.00    -0.200 NA
ATOM     36  C   UNL A   1     -25.026   6.479  26.963  0.00  0.00    +0.139 C 
ATOM     37  O   UNL A   1     -25.143   3.966  28.243  0.00  0.00    -0.269 OA
ENDBRANCH  28  34
BRANCH  31  38
ATOM     38  O   UNL A   1     -28.193  -0.208  24.477  0.00  0.00    -0.459 OA
BRANCH  38  39
ATOM     39  C   UNL A   1     -29.460   0.005  23.866  0.00  0.00    +0.242 C 
BRANCH  39  40
ATOM     40  C   UNL A   1     -30.065  -1.377  23.573  0.00  0.00    +0.229 C 
ATOM     41  O   UNL A   1     -30.729  -1.878  24.721  0.00  0.00    -0.216 OA
ENDBRANCH  39  40
ENDBRANCH  38  39
ENDBRANCH  31  38
ENDBRANCH  26  27
ENDBRANCH  25  26
BRANCH  25  42
ATOM     42  C   UNL A   1     -22.818   0.809  28.916  0.00  0.00    +0.015 C 
BRANCH  42  43
ATOM     43  C   UNL A   1     -21.864   1.577  27.928  0.00  0.00    +0.077 C 
BRANCH  43  44
ATOM     44  C   UNL A   1     -22.544   1.884  26.677  0.00  0.00    -0.078 C 
ATOM     45  C   UNL A   1     -22.926   2.156  25.514  0.00  0.00    -0.014 C 
ENDBRANCH  43  44
ENDBRANCH  42  43
ENDBRANCH  25  42
ENDBRANCH   1  25
TORSDOF 15
