MODEL 501
MODEL 1
REMARK VINA RESULT:    -5.635      0.000      0.000
REMARK INTER + INTRA:          -5.635
REMARK INTER:                  -5.635
REMARK INTRA:                   0.000
REMARK UNBOUND:                 0.000
REMARK  Name = No_501-gen_results/8p0m/2024-11-27-11-27-31/
REMARK  0 active torsions:
REMARK  status: ('A' for Active; 'I' for Inactive)
REMARK                            x       y       z     vdW  Elec       q    Type
REMARK                         _______ _______ _______ _____ _____    ______ ____
ROOT
ATOM      1  C   UNL A   1     -25.622  -2.681  29.516  0.00  0.00    +0.010 A 
ATOM      2  C   UNL A   1     -24.601  -2.846  28.890  0.00  0.00    +0.040 A 
ATOM      3  C   UNL A   1     -24.064  -4.089  28.616  0.00  0.00    +0.008 A 
ATOM      4  C   UNL A   1     -24.776  -5.236  29.064  0.00  0.00    +0.001 A 
ATOM      5  C   UNL A   1     -25.994  -5.007  29.607  0.00  0.00    -0.000 A 
ATOM      6  C   UNL A   1     -26.447  -3.782  29.794  0.00  0.00    -0.002 A 
ATOM      7  C   UNL A   1     -26.142  -1.286  29.759  0.00  0.00    +0.153 C 
ATOM      8  N   UNL A   1     -25.363  -0.455  30.341  0.00  0.00    -0.255 NA
ATOM      9  C   UNL A   1     -24.163  -0.157  29.803  0.00  0.00    +0.143 C 
ATOM     10  C   UNL A   1     -23.018  -1.064  29.631  0.00  0.00    -0.039 C 
ATOM     11  C   UNL A   1     -23.283  -2.007  29.016  0.00  0.00    -0.059 C 
ENDROOT
TORSDOF 0
ENDMDL
ENDMDL
