REMARK  Name = outputs/IAG933/test6/raw/output_5021_IAG933_linker_design_.xyz
REMARK  11 active torsions:
REMARK  status: ('A' for Active; 'I' for Inactive)
REMARK    1  A    between atoms: C_1  and  C_2
REMARK    2  A    between atoms: C_1  and  C_8
REMARK    3  A    between atoms: C_1  and  C_35
REMARK    4  A    between atoms: C_13  and  C_33
REMARK    5  A    between atoms: C_14  and  C_15
REMARK    6  A    between atoms: C_21  and  O_22
REMARK    7  A    between atoms: O_22  and  C_23
REMARK    8  A    between atoms: C_23  and  C_24
REMARK    9  A    between atoms: C_29  and  C_30
REMARK   10  A    between atoms: C_30  and  C_35
REMARK   11  A    between atoms: C_32  and  C_41
REMARK                            x       y       z     vdW  Elec       q    Type
REMARK                         _______ _______ _______ _____ _____    ______ ____
ROOT
ATOM      1  C   UNL A   1     -21.991   0.321  28.613  0.00  0.00    +0.012 C 
ATOM      2  C   UNL A   1     -19.642   0.374  28.541  0.00  0.00    +0.043 C 
ATOM      3  C   UNL A   1     -22.302   1.314  27.604  0.00  0.00    +0.018 C 
ATOM      4  F   UNL A   1     -18.933   2.491  27.781  0.00  0.00    -0.234 F 
ATOM      5  C   UNL A   1     -19.834   1.577  27.826  0.00  0.00    +0.198 C 
ATOM      6  C   UNL A   1     -20.723  -0.223  28.822  0.00  0.00    +0.032 C 
ATOM      7  C   UNL A   1     -21.004   1.816  27.131  0.00  0.00    +0.214 C 
ATOM      8  F   UNL A   1     -21.021   2.376  25.913  0.00  0.00    -0.230 F 
ENDROOT
BRANCH   3  11
ATOM      9  C   UNL A   1     -24.304   1.390  26.777  0.00  0.00    +0.154 C 
ATOM     10  O   UNL A   1     -23.340   1.841  25.930  0.00  0.00    -0.349 OA
ATOM     11  C   UNL A   1     -23.245   1.712  27.250  0.00  0.00    +0.163 C 
BRANCH   9  12
ATOM     12  C   UNL A   1     -25.688   1.614  26.461  0.00  0.00    +0.100 C 
ATOM     13  C   UNL A   1     -26.250   2.920  26.395  0.00  0.00    +0.057 C 
ATOM     14  C   UNL A   1     -27.438   3.091  25.645  0.00  0.00    +0.102 C 
ATOM     15  N   UNL A   1     -28.075   2.089  25.003  0.00  0.00    -0.212 NA
ATOM     16  C   UNL A   1     -27.543   0.849  25.079  0.00  0.00    +0.234 C 
ATOM     17  C   UNL A   1     -26.354   0.576  25.777  0.00  0.00    +0.242 C 
ATOM     18  F   UNL A   1     -25.860  -0.681  25.795  0.00  0.00    -0.227 F 
BRANCH  13  19
ATOM     19  C   UNL A   1     -25.642   4.093  27.123  0.00  0.00    +0.263 C 
ATOM     20  N   UNL A   1     -25.614   5.252  26.449  0.00  0.00    -0.200 NA
ATOM     21  C   UNL A   1     -25.026   6.479  26.963  0.00  0.00    +0.139 C 
ATOM     22  O   UNL A   1     -25.143   3.966  28.243  0.00  0.00    -0.269 OA
ENDBRANCH  13  19
BRANCH  16  23
ATOM     23  O   UNL A   1     -28.193  -0.208  24.477  0.00  0.00    -0.459 OA
BRANCH  23  24
ATOM     24  C   UNL A   1     -29.460   0.005  23.866  0.00  0.00    +0.242 C 
BRANCH  24  25
ATOM     25  C   UNL A   1     -30.065  -1.377  23.573  0.00  0.00    +0.229 C 
ATOM     26  O   UNL A   1     -30.729  -1.878  24.721  0.00  0.00    -0.216 OA
ENDBRANCH  24  25
ENDBRANCH  23  24
ENDBRANCH  16  23
ENDBRANCH   9  12
ENDBRANCH   3  11
BRANCH   1  28
ATOM     27  O   UNL A   1     -22.380  -0.728  30.669  0.00  0.00    -0.289 OA
ATOM     28  C   UNL A   1     -22.816  -0.214  29.594  0.00  0.00    +0.199 C 
BRANCH  28  29
ATOM     29  C   UNL A   1     -24.281  -0.062  29.180  0.00  0.00    +0.218 C 
ATOM     30  O   UNL A   1     -25.612   0.323  28.743  0.00  0.00    -0.214 OA
BRANCH  29  31
ATOM     31  C   UNL A   1     -24.855  -1.012  30.143  0.00  0.00    +0.076 C 
BRANCH  31  32
ATOM     32  C   UNL A   1     -24.973  -2.505  29.788  0.00  0.00    -0.018 C 
ATOM     33  C   UNL A   1     -23.906  -3.173  29.146  0.00  0.00    -0.004 C 
ATOM     34  C   UNL A   1     -23.989  -4.549  28.853  0.00  0.00    -0.000 C 
ATOM     35  C   UNL A   1     -25.137  -5.280  29.205  0.00  0.00    -0.000 C 
ATOM     36  C   UNL A   1     -26.232  -4.611  29.784  0.00  0.00    -0.000 C 
ATOM     37  C   UNL A   1     -26.155  -3.232  30.065  0.00  0.00    -0.004 C 
ENDBRANCH  31  32
BRANCH  31  38
ATOM     38  C   UNL A   1     -25.387  -0.679  31.571  0.00  0.00    +0.080 C 
ATOM     39  C   UNL A   1     -25.189   0.773  32.028  0.00  0.00    +0.019 C 
ATOM     40  C   UNL A   1     -25.336   0.684  33.544  0.00  0.00    +0.020 C 
ATOM     41  C   UNL A   1     -24.829  -0.715  33.905  0.00  0.00    +0.089 C 
ATOM     42  N   UNL A   1     -24.758  -1.481  32.646  0.00  0.00    -0.219 NA
ENDBRANCH  31  38
ENDBRANCH  29  31
ENDBRANCH  28  29
ENDBRANCH   1  28
TORSDOF 11
