REMARK  Name = outputs/IAG933/test6/raw/output_5022_IAG933_linker_design_.xyz
REMARK  14 active torsions:
REMARK  status: ('A' for Active; 'I' for Inactive)
REMARK    1  A    between atoms: C_1  and  C_2
REMARK    2  A    between atoms: C_1  and  C_8
REMARK    3  A    between atoms: C_1  and  C_49
REMARK    4  A    between atoms: C_13  and  C_33
REMARK    5  A    between atoms: C_14  and  C_15
REMARK    6  A    between atoms: C_21  and  O_22
REMARK    7  A    between atoms: O_22  and  C_23
REMARK    8  A    between atoms: C_23  and  C_24
REMARK    9  A    between atoms: C_35  and  C_49
REMARK   10  A    between atoms: C_38  and  N_44
REMARK   11  A    between atoms: C_39  and  O_40
REMARK   12  A    between atoms: O_40  and  C_42
REMARK   13  A    between atoms: C_42  and  C_49
REMARK   14  A    between atoms: N_44  and  S_46
REMARK                            x       y       z     vdW  Elec       q    Type
REMARK                         _______ _______ _______ _____ _____    ______ ____
ROOT
ATOM      1  C   UNL A   1     -25.242   0.027  29.060  0.00  0.00    +0.057 C 
ENDROOT
BRANCH   1   4
ATOM      2  C   UNL A   1     -23.239   1.849  26.218  0.00  0.00    -0.000 C 
ATOM      3  C   UNL A   1     -24.369   1.359  26.979  0.00  0.00    -0.001 C 
ATOM      4  C   UNL A   1     -24.103   0.643  28.250  0.00  0.00    -0.020 C 
ATOM      5  C   UNL A   1     -22.705   0.523  28.737  0.00  0.00    -0.004 C 
ATOM      6  C   UNL A   1     -21.894   1.719  26.690  0.00  0.00    -0.000 C 
ATOM      7  C   UNL A   1     -21.611   1.102  27.977  0.00  0.00    -0.000 C 
BRANCH   3   8
ATOM      8  C   UNL A   1     -25.688   1.614  26.461  0.00  0.00    +0.038 C 
ATOM      9  C   UNL A   1     -26.250   2.920  26.395  0.00  0.00    +0.076 C 
ATOM     10  C   UNL A   1     -27.438   3.091  25.645  0.00  0.00    +0.107 C 
ATOM     11  N   UNL A   1     -28.075   2.089  25.003  0.00  0.00    -0.208 NA
ATOM     12  C   UNL A   1     -27.543   0.849  25.079  0.00  0.00    +0.253 C 
ATOM     13  C   UNL A   1     -26.354   0.576  25.777  0.00  0.00    +0.193 C 
ATOM     14  F   UNL A   1     -25.860  -0.681  25.795  0.00  0.00    -0.199 F 
BRANCH   9  15
ATOM     15  C   UNL A   1     -25.642   4.093  27.123  0.00  0.00    +0.266 C 
ATOM     16  N   UNL A   1     -25.614   5.252  26.449  0.00  0.00    -0.200 NA
ATOM     17  C   UNL A   1     -25.026   6.479  26.963  0.00  0.00    +0.139 C 
ATOM     18  O   UNL A   1     -25.143   3.966  28.243  0.00  0.00    -0.268 OA
ENDBRANCH   9  15
BRANCH  12  19
ATOM     19  O   UNL A   1     -28.193  -0.208  24.477  0.00  0.00    -0.456 OA
BRANCH  19  20
ATOM     20  C   UNL A   1     -29.460   0.005  23.866  0.00  0.00    +0.243 C 
BRANCH  20  21
ATOM     21  C   UNL A   1     -30.065  -1.377  23.573  0.00  0.00    +0.229 C 
ATOM     22  O   UNL A   1     -30.729  -1.878  24.721  0.00  0.00    -0.216 OA
ENDBRANCH  20  21
ENDBRANCH  19  20
ENDBRANCH  12  19
ENDBRANCH   3   8
ENDBRANCH   1   4
BRANCH   1  23
ATOM     23  C   UNL A   1     -24.855  -1.012  30.143  0.00  0.00    +0.045 C 
BRANCH  23  24
ATOM     24  C   UNL A   1     -24.973  -2.505  29.788  0.00  0.00    -0.021 C 
ATOM     25  C   UNL A   1     -23.906  -3.173  29.146  0.00  0.00    -0.004 C 
ATOM     26  C   UNL A   1     -23.989  -4.549  28.853  0.00  0.00    -0.000 C 
ATOM     27  C   UNL A   1     -25.137  -5.280  29.205  0.00  0.00    -0.000 C 
ATOM     28  C   UNL A   1     -26.232  -4.611  29.784  0.00  0.00    -0.000 C 
ATOM     29  C   UNL A   1     -26.155  -3.232  30.065  0.00  0.00    -0.004 C 
ENDBRANCH  23  24
BRANCH  23  30
ATOM     30  C   UNL A   1     -25.387  -0.679  31.571  0.00  0.00    +0.077 C 
ATOM     31  C   UNL A   1     -25.189   0.773  32.028  0.00  0.00    +0.019 C 
ATOM     32  C   UNL A   1     -25.336   0.684  33.544  0.00  0.00    +0.020 C 
ATOM     33  C   UNL A   1     -24.829  -0.715  33.905  0.00  0.00    +0.089 C 
ATOM     34  N   UNL A   1     -24.758  -1.481  32.646  0.00  0.00    -0.219 NA
ENDBRANCH  23  30
ENDBRANCH   1  23
BRANCH   1  35
ATOM     35  C   UNL A   1     -26.753   0.418  29.086  0.00  0.00    +0.147 C 
BRANCH  35  36
ATOM     36  O   UNL A   1     -27.663  -0.682  29.143  0.00  0.00    -0.353 OA
BRANCH  36  43
ATOM     37  O   UNL A   1     -29.748   0.002  27.395  0.00  0.00    -0.352 OA
ATOM     38  C   UNL A   1     -31.447   1.017  29.605  0.00  0.00    +0.026 C 
ATOM     39  C   UNL A   1     -29.300   0.597  28.681  0.00  0.00    +0.145 C 
ATOM     40  C   UNL A   1     -31.010   0.651  27.150  0.00  0.00    +0.161 C 
ATOM     41  C   UNL A   1     -30.251   0.091  29.669  0.00  0.00    +0.061 C 
ATOM     42  C   UNL A   1     -31.986   0.334  28.302  0.00  0.00    +0.117 C 
ATOM     43  C   UNL A   1     -28.858  -0.424  29.866  0.00  0.00    +0.145 C 
BRANCH  42  44
ATOM     44  N   UNL A   1     -33.237   1.022  27.913  0.00  0.00    -0.141 NA
BRANCH  44  48
ATOM     45  C   UNL A   1     -35.530   1.233  29.247  0.00  0.00    +0.255 C 
ATOM     46  C   UNL A   1     -33.101   3.545  28.008  0.00  0.00    +0.115 C 
ATOM     47  O   UNL A   1     -35.250   2.401  27.906  0.00  0.00    -0.274 OA
ATOM     48  S   UNL A   1     -34.065   2.144  28.872  0.00  0.00    +0.059 S 
ATOM     49  O   UNL A   1     -33.988   2.424  30.502  0.00  0.00    -0.139 OA
ENDBRANCH  44  48
ENDBRANCH  42  44
ENDBRANCH  36  43
ENDBRANCH  35  36
ENDBRANCH   1  35
TORSDOF 14
