REMARK  Name = outputs/IAG933/test6/raw/output_5026_IAG933_linker_design_.xyz
REMARK  9 active torsions:
REMARK  status: ('A' for Active; 'I' for Inactive)
REMARK    1  A    between atoms: C_1  and  C_2
REMARK    2  A    between atoms: C_1  and  C_8
REMARK    3  A    between atoms: C_9  and  C_43
REMARK    4  A    between atoms: C_21  and  O_22
REMARK    5  A    between atoms: O_22  and  C_23
REMARK    6  A    between atoms: C_23  and  C_24
REMARK    7  A    between atoms: C_30  and  C_31
REMARK    8  A    between atoms: C_33  and  O_45
REMARK    9  A    between atoms: C_34  and  C_43
REMARK                            x       y       z     vdW  Elec       q    Type
REMARK                         _______ _______ _______ _____ _____    ______ ____
ROOT
ATOM      1  C   UNL A   1     -30.279   3.489  29.285  0.00  0.00    +0.079 C 
ATOM      2  N   UNL A   1     -27.825   7.584  30.983  0.00  0.00    -0.143 NA
ATOM      3  C   UNL A   1     -26.483   3.909  30.056  0.00  0.00    +0.211 C 
ATOM      4  C   UNL A   1     -27.874   6.256  30.687  0.00  0.00    +0.225 C 
ATOM      5  C   UNL A   1     -27.322   1.795  30.661  0.00  0.00    +0.066 C 
ATOM      6  C   UNL A   1     -28.837   1.037  28.147  0.00  0.00    +0.058 C 
ATOM      7  N   UNL A   1     -25.726   7.303  30.416  0.00  0.00    -0.093 NA
ATOM      8  C   UNL A   1     -26.285   6.159  30.351  0.00  0.00    +0.250 C 
ATOM      9  N   UNL A   1     -26.669   8.105  30.883  0.00  0.00    -0.043 NA
ATOM     10  C   UNL A   1     -29.086   3.842  30.131  0.00  0.00    -0.032 C 
ATOM     11  C   UNL A   1     -27.727   3.391  30.250  0.00  0.00    +0.070 C 
ATOM     12  O   UNL A   1     -25.984   5.134  30.215  0.00  0.00    -0.460 OA
ATOM     13  C   UNL A   1     -27.925   0.786  29.215  0.00  0.00    +0.019 C 
ATOM     14  S   UNL A   1     -30.209   2.080  28.164  0.00  0.00    -0.136 S 
ATOM     15  C   UNL A   1     -29.146   5.407  30.276  0.00  0.00    +0.002 C 
ENDROOT
BRANCH   3  27
ATOM     16  C   UNL A   1     -25.688   1.614  26.461  0.00  0.00    +0.073 C 
ATOM     17  C   UNL A   1     -26.250   2.920  26.395  0.00  0.00    +0.053 C 
ATOM     18  C   UNL A   1     -25.642   4.093  27.123  0.00  0.00    +0.218 C 
ATOM     19  N   UNL A   1     -25.614   5.252  26.449  0.00  0.00    -0.236 NA
ATOM     20  C   UNL A   1     -25.026   6.479  26.963  0.00  0.00    +0.155 C 
ATOM     21  O   UNL A   1     -25.143   3.966  28.243  0.00  0.00    -0.461 OA
ATOM     22  C   UNL A   1     -27.438   3.091  25.645  0.00  0.00    +0.102 C 
ATOM     23  N   UNL A   1     -28.075   2.089  25.003  0.00  0.00    -0.212 NA
ATOM     24  C   UNL A   1     -27.543   0.849  25.079  0.00  0.00    +0.234 C 
ATOM     25  C   UNL A   1     -26.354   0.576  25.777  0.00  0.00    +0.240 C 
ATOM     26  F   UNL A   1     -25.860  -0.681  25.795  0.00  0.00    -0.227 F 
ATOM     27  C   UNL A   1     -25.355   3.263  29.478  0.00  0.00    +0.210 C 
ATOM     28  C   UNL A   1     -23.582   1.670  27.875  0.00  0.00    +0.119 C 
ATOM     29  C   UNL A   1     -24.430   1.990  29.192  0.00  0.00    +0.077 C 
ATOM     30  C   UNL A   1     -24.247   1.478  26.583  0.00  0.00    +0.037 C 
BRANCH  28  31
ATOM     31  O   UNL A   1     -22.509   2.576  27.803  0.00  0.00    -0.353 OA
ATOM     32  C   UNL A   1     -21.314   2.059  27.238  0.00  0.00    +0.174 C 
ENDBRANCH  28  31
BRANCH  24  33
ATOM     33  O   UNL A   1     -28.193  -0.208  24.477  0.00  0.00    -0.459 OA
BRANCH  33  34
ATOM     34  C   UNL A   1     -29.460   0.005  23.866  0.00  0.00    +0.242 C 
BRANCH  34  35
ATOM     35  C   UNL A   1     -30.065  -1.377  23.573  0.00  0.00    +0.229 C 
ATOM     36  O   UNL A   1     -30.729  -1.878  24.721  0.00  0.00    -0.216 OA
ENDBRANCH  34  35
ENDBRANCH  33  34
ENDBRANCH  24  33
ENDBRANCH   3  27
BRANCH   5  38
ATOM     37  O   UNL A   1     -25.448   3.185  31.991  0.00  0.00    -0.296 OA
ATOM     38  C   UNL A   1     -25.928   2.126  31.580  0.00  0.00    +0.152 C 
BRANCH  38  40
ATOM     39  C   UNL A   1     -25.387  -0.679  31.571  0.00  0.00    +0.084 C 
ATOM     40  C   UNL A   1     -25.189   0.773  32.028  0.00  0.00    +0.075 C 
ATOM     41  C   UNL A   1     -25.336   0.684  33.544  0.00  0.00    +0.028 C 
ATOM     42  C   UNL A   1     -24.829  -0.715  33.905  0.00  0.00    +0.089 C 
ATOM     43  N   UNL A   1     -24.758  -1.481  32.646  0.00  0.00    -0.219 NA
BRANCH  39  44
ATOM     44  C   UNL A   1     -24.855  -1.012  30.143  0.00  0.00    +0.044 C 
BRANCH  44  45
ATOM     45  C   UNL A   1     -24.973  -2.505  29.788  0.00  0.00    -0.021 C 
ATOM     46  C   UNL A   1     -23.906  -3.173  29.146  0.00  0.00    -0.004 C 
ATOM     47  C   UNL A   1     -23.989  -4.549  28.853  0.00  0.00    -0.000 C 
ATOM     48  C   UNL A   1     -25.137  -5.280  29.205  0.00  0.00    -0.000 C 
ATOM     49  C   UNL A   1     -26.232  -4.611  29.784  0.00  0.00    -0.000 C 
ATOM     50  C   UNL A   1     -26.155  -3.232  30.065  0.00  0.00    -0.004 C 
ENDBRANCH  44  45
ENDBRANCH  39  44
ENDBRANCH  38  40
ENDBRANCH   5  38
TORSDOF 9
