REMARK  Name = outputs/IAG933/test6/raw/output_5027_IAG933_linker_design_.xyz
REMARK  15 active torsions:
REMARK  status: ('A' for Active; 'I' for Inactive)
REMARK    1  A    between atoms: C_1  and  C_2
REMARK    2  A    between atoms: C_1  and  C_8
REMARK    3  A    between atoms: C_1  and  O_42
REMARK    4  A    between atoms: C_13  and  C_30
REMARK    5  A    between atoms: C_14  and  C_15
REMARK    6  A    between atoms: C_21  and  O_22
REMARK    7  A    between atoms: O_22  and  C_23
REMARK    8  A    between atoms: C_23  and  C_24
REMARK    9  A    between atoms: C_31  and  C_36
REMARK   10  A    between atoms: C_31  and  O_41
REMARK   11  A    between atoms: C_32  and  O_34
REMARK   12  A    between atoms: C_32  and  O_41
REMARK   13  A    between atoms: O_34  and  C_38
REMARK   14  A    between atoms: C_38  and  C_40
REMARK   15  A    between atoms: C_38  and  O_42
REMARK                            x       y       z     vdW  Elec       q    Type
REMARK                         _______ _______ _______ _____ _____    ______ ____
ROOT
ATOM      1  C   UNL A   1     -21.557   1.819  27.043  0.00  0.00    +0.058 C 
ATOM      2  N   UNL A   1     -21.824   0.626  29.203  0.00  0.00    -0.128 NA
ATOM      3  C   UNL A   1     -24.338   1.692  26.852  0.00  0.00    +0.198 C 
ATOM      4  C   UNL A   1     -22.379   1.298  28.113  0.00  0.00    +0.092 C 
ATOM      5  O   UNL A   1     -23.608   2.302  25.845  0.00  0.00    -0.471 OA
ATOM      6  C   UNL A   1     -22.192   2.317  25.918  0.00  0.00    +0.174 C 
ATOM      7  C   UNL A   1     -23.759   1.453  28.064  0.00  0.00    +0.068 C 
ENDROOT
BRANCH   3   8
ATOM      8  C   UNL A   1     -25.688   1.614  26.461  0.00  0.00    +0.114 C 
ATOM      9  C   UNL A   1     -26.250   2.920  26.395  0.00  0.00    +0.059 C 
ATOM     10  C   UNL A   1     -27.438   3.091  25.645  0.00  0.00    +0.102 C 
ATOM     11  N   UNL A   1     -28.075   2.089  25.003  0.00  0.00    -0.212 NA
ATOM     12  C   UNL A   1     -27.543   0.849  25.079  0.00  0.00    +0.234 C 
ATOM     13  C   UNL A   1     -26.354   0.576  25.777  0.00  0.00    +0.244 C 
ATOM     14  F   UNL A   1     -25.860  -0.681  25.795  0.00  0.00    -0.227 F 
BRANCH   9  15
ATOM     15  C   UNL A   1     -25.642   4.093  27.123  0.00  0.00    +0.263 C 
ATOM     16  N   UNL A   1     -25.614   5.252  26.449  0.00  0.00    -0.200 NA
ATOM     17  C   UNL A   1     -25.026   6.479  26.963  0.00  0.00    +0.139 C 
ATOM     18  O   UNL A   1     -25.143   3.966  28.243  0.00  0.00    -0.269 OA
ENDBRANCH   9  15
BRANCH  12  19
ATOM     19  O   UNL A   1     -28.193  -0.208  24.477  0.00  0.00    -0.459 OA
BRANCH  19  20
ATOM     20  C   UNL A   1     -29.460   0.005  23.866  0.00  0.00    +0.242 C 
BRANCH  20  21
ATOM     21  C   UNL A   1     -30.065  -1.377  23.573  0.00  0.00    +0.229 C 
ATOM     22  O   UNL A   1     -30.729  -1.878  24.721  0.00  0.00    -0.216 OA
ENDBRANCH  20  21
ENDBRANCH  19  20
ENDBRANCH  12  19
ENDBRANCH   3   8
BRANCH   7  23
ATOM     23  C   UNL A   1     -24.570   1.246  29.192  0.00  0.00    +0.263 C 
BRANCH  23  24
ATOM     24  O   UNL A   1     -24.811   2.245  30.135  0.00  0.00    -0.298 OA
BRANCH  24  25
ATOM     25  C   UNL A   1     -25.740   3.069  31.170  0.00  0.00    +0.296 C 
BRANCH  25  26
ATOM     26  O   UNL A   1     -25.192   3.708  32.451  0.00  0.00    -0.324 OA
BRANCH  26  27
ATOM     27  C   UNL A   1     -26.189   4.644  32.852  0.00  0.00    +0.180 C 
BRANCH  27  28
ATOM     28  C   UNL A   1     -25.631   6.077  33.034  0.00  0.00    +0.214 C 
ATOM     29  O   UNL A   1     -24.534   6.327  32.165  0.00  0.00    -0.218 OA
ENDBRANCH  27  28
ENDBRANCH  26  27
ENDBRANCH  25  26
ENDBRANCH  24  25
ENDBRANCH  23  24
BRANCH  23  30
ATOM     30  O   UNL A   1     -25.232  -0.037  29.170  0.00  0.00    -0.324 OA
BRANCH  30  31
ATOM     31  C   UNL A   1     -24.855  -1.012  30.143  0.00  0.00    +0.156 C 
BRANCH  31  32
ATOM     32  C   UNL A   1     -24.973  -2.505  29.788  0.00  0.00    +0.006 C 
ATOM     33  C   UNL A   1     -23.906  -3.173  29.146  0.00  0.00    -0.002 C 
ATOM     34  C   UNL A   1     -23.989  -4.549  28.853  0.00  0.00    -0.000 C 
ATOM     35  C   UNL A   1     -25.137  -5.280  29.205  0.00  0.00    -0.000 C 
ATOM     36  C   UNL A   1     -26.232  -4.611  29.784  0.00  0.00    -0.000 C 
ATOM     37  C   UNL A   1     -26.155  -3.232  30.065  0.00  0.00    -0.002 C 
ENDBRANCH  31  32
BRANCH  31  38
ATOM     38  C   UNL A   1     -25.387  -0.679  31.571  0.00  0.00    +0.104 C 
ATOM     39  C   UNL A   1     -25.189   0.773  32.028  0.00  0.00    +0.022 C 
ATOM     40  C   UNL A   1     -25.336   0.684  33.544  0.00  0.00    +0.020 C 
ATOM     41  C   UNL A   1     -24.829  -0.715  33.905  0.00  0.00    +0.089 C 
ATOM     42  N   UNL A   1     -24.758  -1.481  32.646  0.00  0.00    -0.217 NA
ENDBRANCH  31  38
ENDBRANCH  30  31
ENDBRANCH  23  30
ENDBRANCH   7  23
TORSDOF 15
