MODEL 502
MODEL 1
REMARK VINA RESULT:    -6.056      0.000      0.000
REMARK INTER + INTRA:          -7.996
REMARK INTER:                  -7.472
REMARK INTRA:                  -0.524
REMARK UNBOUND:                -0.524
REMARK  Name = No_502-gen_results/8p0m/2024-11-27-11-27-31/
REMARK  4 active torsions:
REMARK  status: ('A' for Active; 'I' for Inactive)
REMARK    1  A    between atoms: C_2  and  C_7
REMARK    2  A    between atoms: C_7  and  C_9
REMARK    3  A    between atoms: C_10  and  C_11
REMARK    4  A    between atoms: C_12  and  C_13
REMARK                            x       y       z     vdW  Elec       q    Type
REMARK                         _______ _______ _______ _____ _____    ______ ____
ROOT
ATOM      1  C   UNL A   1     -24.744  -1.058  29.630  0.00  0.00    +0.136 C 
ATOM      2  N   UNL A   1     -25.474  -0.383  30.287  0.00  0.00    -0.123 NA
ENDROOT
BRANCH   1   4
ATOM      3  C   UNL A   1     -25.909  -3.007  29.847  0.00  0.00    -0.003 A 
ATOM      4  C   UNL A   1     -25.027  -2.624  29.416  0.00  0.00    -0.001 A 
ATOM      5  C   UNL A   1     -26.144  -4.486  29.641  0.00  0.00    -0.000 A 
ATOM      6  C   UNL A   1     -25.139  -5.269  29.035  0.00  0.00    -0.000 A 
ATOM      7  C   UNL A   1     -23.826  -3.212  28.780  0.00  0.00    -0.003 A 
ATOM      8  C   UNL A   1     -24.003  -4.574  28.580  0.00  0.00    -0.000 A 
ENDBRANCH   1   4
BRANCH   1   9
ATOM      9  C   UNL A   1     -23.666  -0.499  28.871  0.00  0.00    -0.003 C 
ATOM     10  C   UNL A   1     -23.462   0.748  28.698  0.00  0.00    -0.003 C 
BRANCH  10  11
ATOM     11  C   UNL A   1     -22.331   1.226  27.920  0.00  0.00    -0.000 C 
ATOM     12  C   UNL A   1     -22.506   1.876  26.676  0.00  0.00    -0.000 C 
BRANCH  12  13
ATOM     13  C   UNL A   1     -23.838   2.137  26.222  0.00  0.00    -0.000 C 
ATOM     14  C   UNL A   1     -24.277   3.440  25.996  0.00  0.00    -0.000 C 
ENDBRANCH  12  13
ENDBRANCH  10  11
ENDBRANCH   1   9
TORSDOF 4
ENDMDL
ENDMDL
