REMARK  Name = No_503-gen_results/8p0m/2024-11-27-11-27-31/
REMARK  2 active torsions:
REMARK  status: ('A' for Active; 'I' for Inactive)
REMARK    1  A    between atoms: C_2  and  C_3
REMARK    2  A    between atoms: C_3  and  C_4
REMARK                            x       y       z     vdW  Elec       q    Type
REMARK                         _______ _______ _______ _____ _____    ______ ____
ROOT
ATOM      1  C   UNL A   1     -24.760  -0.156  29.164  0.00  0.00    -0.013 A 
ATOM      2  C   UNL A   1     -23.389  -0.455  29.016  0.00  0.00    -0.004 A 
ATOM      3  C   UNL A   1     -22.414   0.537  29.074  0.00  0.00    -0.000 A 
ATOM      4  C   UNL A   1     -22.689   1.584  28.437  0.00  0.00    -0.000 A 
ATOM      5  C   UNL A   1     -24.043   2.085  28.288  0.00  0.00    -0.000 A 
ATOM      6  C   UNL A   1     -25.048   1.116  28.440  0.00  0.00    -0.004 A 
ENDROOT
BRANCH   1   7
ATOM      7  C   UNL A   1     -25.946  -1.040  28.849  0.00  0.00    +0.113 C 
BRANCH   7   9
ATOM      8  O   UNL A   1     -28.123  -1.335  28.487  0.00  0.00    -0.273 OA
ATOM      9  C   UNL A   1     -27.064  -0.824  28.869  0.00  0.00    +0.246 C 
ATOM     10  N   UNL A   1     -27.269   0.596  29.536  0.00  0.00    -0.203 NA
ATOM     11  C   UNL A   1     -28.623   1.017  29.652  0.00  0.00    +0.139 C 
ENDBRANCH   7   9
ENDBRANCH   1   7
TORSDOF 2
