REMARK  Name = outputs/IAG933/test6/raw/output_5032_IAG933_linker_design_.xyz
REMARK  11 active torsions:
REMARK  status: ('A' for Active; 'I' for Inactive)
REMARK    1  A    between atoms: C_1  and  C_2
REMARK    2  A    between atoms: C_1  and  C_8
REMARK    3  A    between atoms: C_1  and  C_28
REMARK    4  A    between atoms: C_13  and  N_34
REMARK    5  A    between atoms: C_14  and  C_15
REMARK    6  A    between atoms: C_21  and  O_22
REMARK    7  A    between atoms: O_22  and  C_23
REMARK    8  A    between atoms: C_23  and  C_24
REMARK    9  A    between atoms: C_28  and  C_30
REMARK   10  A    between atoms: C_28  and  C_43
REMARK   11  A    between atoms: C_35  and  O_36
REMARK                            x       y       z     vdW  Elec       q    Type
REMARK                         _______ _______ _______ _____ _____    ______ ____
ROOT
ATOM      1  O   UNL A   1     -23.958   1.821  24.989  0.00  0.00    -0.209 OA
ATOM      2  O   UNL A   1     -21.937   2.087  26.054  0.00  0.00    -0.447 OA
ATOM      3  N   UNL A   1     -24.383   1.464  26.490  0.00  0.00    -0.231 N 
ATOM      4  C   UNL A   1     -21.228   1.153  28.077  0.00  0.00    +0.217 C 
ATOM      5  C   UNL A   1     -22.805   2.053  25.148  0.00  0.00    +0.384 C 
ATOM      6  C   UNL A   1     -22.284   1.488  27.127  0.00  0.00    +0.163 C 
ATOM      7  F   UNL A   1     -22.731   1.823  30.216  0.00  0.00    -0.237 F 
ATOM      8  C   UNL A   1     -21.297   0.220  29.258  0.00  0.00    +0.077 C 
ATOM      9  C   UNL A   1     -22.669   0.526  29.754  0.00  0.00    +0.170 C 
ATOM     10  C   UNL A   1     -23.756   0.339  28.638  0.00  0.00    +0.087 C 
ATOM     11  C   UNL A   1     -23.536   1.081  27.462  0.00  0.00    +0.095 C 
ENDROOT
BRANCH   3  12
ATOM     12  C   UNL A   1     -25.688   1.614  26.461  0.00  0.00    +0.179 C 
ATOM     13  C   UNL A   1     -26.250   2.920  26.395  0.00  0.00    +0.078 C 
ATOM     14  C   UNL A   1     -27.438   3.091  25.645  0.00  0.00    +0.104 C 
ATOM     15  N   UNL A   1     -28.075   2.089  25.003  0.00  0.00    -0.212 NA
ATOM     16  C   UNL A   1     -27.543   0.849  25.079  0.00  0.00    +0.236 C 
ATOM     17  C   UNL A   1     -26.354   0.576  25.777  0.00  0.00    +0.263 C 
ATOM     18  F   UNL A   1     -25.860  -0.681  25.795  0.00  0.00    -0.225 F 
BRANCH  13  19
ATOM     19  C   UNL A   1     -25.642   4.093  27.123  0.00  0.00    +0.264 C 
ATOM     20  N   UNL A   1     -25.614   5.252  26.449  0.00  0.00    -0.200 NA
ATOM     21  C   UNL A   1     -25.026   6.479  26.963  0.00  0.00    +0.139 C 
ATOM     22  O   UNL A   1     -25.143   3.966  28.243  0.00  0.00    -0.269 OA
ENDBRANCH  13  19
BRANCH  16  23
ATOM     23  O   UNL A   1     -28.193  -0.208  24.477  0.00  0.00    -0.459 OA
BRANCH  23  24
ATOM     24  C   UNL A   1     -29.460   0.005  23.866  0.00  0.00    +0.242 C 
BRANCH  24  25
ATOM     25  C   UNL A   1     -30.065  -1.377  23.573  0.00  0.00    +0.229 C 
ATOM     26  O   UNL A   1     -30.729  -1.878  24.721  0.00  0.00    -0.216 OA
ENDBRANCH  24  25
ENDBRANCH  23  24
ENDBRANCH  16  23
ENDBRANCH   3  12
BRANCH   4  28
ATOM     27  F   UNL A   1     -19.586   2.158  29.166  0.00  0.00    -0.046 F 
ATOM     28  O   UNL A   1     -20.084   1.941  27.943  0.00  0.00    -0.174 OA
ENDBRANCH   4  28
BRANCH  10  29
ATOM     29  C   UNL A   1     -25.156   0.092  29.079  0.00  0.00    +0.117 C 
BRANCH  29  31
ATOM     30  O   UNL A   1     -26.920   1.304  29.618  0.00  0.00    -0.246 OA
ATOM     31  C   UNL A   1     -26.627   0.304  29.018  0.00  0.00    +0.365 C 
ATOM     32  O   UNL A   1     -27.423  -0.589  28.523  0.00  0.00    -0.246 OA
ENDBRANCH  29  31
BRANCH  29  33
ATOM     33  C   UNL A   1     -24.855  -1.012  30.143  0.00  0.00    +0.050 C 
BRANCH  33  34
ATOM     34  C   UNL A   1     -24.973  -2.505  29.788  0.00  0.00    -0.021 C 
ATOM     35  C   UNL A   1     -23.906  -3.173  29.146  0.00  0.00    -0.004 C 
ATOM     36  C   UNL A   1     -23.989  -4.549  28.853  0.00  0.00    -0.000 C 
ATOM     37  C   UNL A   1     -25.137  -5.280  29.205  0.00  0.00    -0.000 C 
ATOM     38  C   UNL A   1     -26.232  -4.611  29.784  0.00  0.00    -0.000 C 
ATOM     39  C   UNL A   1     -26.155  -3.232  30.065  0.00  0.00    -0.004 C 
ENDBRANCH  33  34
BRANCH  33  40
ATOM     40  C   UNL A   1     -25.387  -0.679  31.571  0.00  0.00    +0.077 C 
ATOM     41  C   UNL A   1     -25.189   0.773  32.028  0.00  0.00    +0.019 C 
ATOM     42  C   UNL A   1     -25.336   0.684  33.544  0.00  0.00    +0.020 C 
ATOM     43  C   UNL A   1     -24.829  -0.715  33.905  0.00  0.00    +0.089 C 
ATOM     44  N   UNL A   1     -24.758  -1.481  32.646  0.00  0.00    -0.219 NA
ENDBRANCH  33  40
ENDBRANCH  29  33
ENDBRANCH  10  29
TORSDOF 11
