REMARK  Name = outputs/IAG933/test6/raw/output_5033_IAG933_linker_design_.xyz
REMARK  11 active torsions:
REMARK  status: ('A' for Active; 'I' for Inactive)
REMARK    1  A    between atoms: C_1  and  C_2
REMARK    2  A    between atoms: C_1  and  C_8
REMARK    3  A    between atoms: C_1  and  C_36
REMARK    4  A    between atoms: C_13  and  C_31
REMARK    5  A    between atoms: C_14  and  C_15
REMARK    6  A    between atoms: C_21  and  O_22
REMARK    7  A    between atoms: O_22  and  C_23
REMARK    8  A    between atoms: C_23  and  C_24
REMARK    9  A    between atoms: O_34  and  C_35
REMARK   10  A    between atoms: C_36  and  C_38
REMARK   11  A    between atoms: C_37  and  C_38
REMARK                            x       y       z     vdW  Elec       q    Type
REMARK                         _______ _______ _______ _____ _____    ______ ____
ROOT
ATOM      1  O   UNL A   1     -21.343   2.104  26.737  0.00  0.00    -0.446 OA
ATOM      2  C   UNL A   1     -21.408   1.366  27.882  0.00  0.00    +0.196 C 
ATOM      3  C   UNL A   1     -24.709   1.197  27.151  0.00  0.00    +0.088 C 
ATOM      4  C   UNL A   1     -24.685   0.408  28.320  0.00  0.00    +0.049 C 
ATOM      5  C   UNL A   1     -25.492  -0.439  28.936  0.00  0.00    -0.027 C 
ATOM      6  C   UNL A   1     -23.526   1.679  26.764  0.00  0.00    +0.043 C 
ATOM      7  C   UNL A   1     -22.664   1.085  28.254  0.00  0.00    +0.107 C 
ATOM      8  C   UNL A   1     -22.542   2.296  26.115  0.00  0.00    +0.177 C 
ATOM      9  N   UNL A   1     -23.534   0.605  29.035  0.00  0.00    -0.214 NA
ENDROOT
BRANCH   3  10
ATOM     10  C   UNL A   1     -25.688   1.614  26.461  0.00  0.00    +0.025 C 
ATOM     11  C   UNL A   1     -26.250   2.920  26.395  0.00  0.00    +0.073 C 
ATOM     12  C   UNL A   1     -27.438   3.091  25.645  0.00  0.00    +0.106 C 
ATOM     13  N   UNL A   1     -28.075   2.089  25.003  0.00  0.00    -0.208 NA
ATOM     14  C   UNL A   1     -27.543   0.849  25.079  0.00  0.00    +0.253 C 
ATOM     15  C   UNL A   1     -26.354   0.576  25.777  0.00  0.00    +0.190 C 
ATOM     16  F   UNL A   1     -25.860  -0.681  25.795  0.00  0.00    -0.200 F 
BRANCH  11  17
ATOM     17  C   UNL A   1     -25.642   4.093  27.123  0.00  0.00    +0.266 C 
ATOM     18  N   UNL A   1     -25.614   5.252  26.449  0.00  0.00    -0.200 NA
ATOM     19  C   UNL A   1     -25.026   6.479  26.963  0.00  0.00    +0.139 C 
ATOM     20  O   UNL A   1     -25.143   3.966  28.243  0.00  0.00    -0.268 OA
ENDBRANCH  11  17
BRANCH  14  21
ATOM     21  O   UNL A   1     -28.193  -0.208  24.477  0.00  0.00    -0.456 OA
BRANCH  21  22
ATOM     22  C   UNL A   1     -29.460   0.005  23.866  0.00  0.00    +0.243 C 
BRANCH  22  23
ATOM     23  C   UNL A   1     -30.065  -1.377  23.573  0.00  0.00    +0.229 C 
ATOM     24  O   UNL A   1     -30.729  -1.878  24.721  0.00  0.00    -0.216 OA
ENDBRANCH  22  23
ENDBRANCH  21  22
ENDBRANCH  14  21
ENDBRANCH   3  10
BRANCH   5  25
ATOM     25  C   UNL A   1     -24.855  -1.012  30.143  0.00  0.00    +0.058 C 
BRANCH  25  26
ATOM     26  C   UNL A   1     -24.973  -2.505  29.788  0.00  0.00    -0.017 C 
ATOM     27  C   UNL A   1     -23.906  -3.173  29.146  0.00  0.00    -0.004 C 
ATOM     28  C   UNL A   1     -23.989  -4.549  28.853  0.00  0.00    -0.000 C 
ATOM     29  C   UNL A   1     -25.137  -5.280  29.205  0.00  0.00    -0.000 C 
ATOM     30  C   UNL A   1     -26.232  -4.611  29.784  0.00  0.00    -0.000 C 
ATOM     31  C   UNL A   1     -26.155  -3.232  30.065  0.00  0.00    -0.004 C 
ENDBRANCH  25  26
BRANCH  25  32
ATOM     32  C   UNL A   1     -25.387  -0.679  31.571  0.00  0.00    +0.081 C 
ATOM     33  C   UNL A   1     -25.189   0.773  32.028  0.00  0.00    +0.019 C 
ATOM     34  C   UNL A   1     -25.336   0.684  33.544  0.00  0.00    +0.020 C 
ATOM     35  C   UNL A   1     -24.829  -0.715  33.905  0.00  0.00    +0.089 C 
ATOM     36  N   UNL A   1     -24.758  -1.481  32.646  0.00  0.00    -0.219 NA
ENDBRANCH  25  32
ENDBRANCH   5  25
BRANCH   5  37
ATOM     37  C   UNL A   1     -26.752  -0.695  28.382  0.00  0.00    +0.029 C 
BRANCH  37  41
ATOM     38  C   UNL A   1     -29.063  -1.218  28.646  0.00  0.00    +0.211 C 
ATOM     39  O   UNL A   1     -29.270  -2.438  29.334  0.00  0.00    -0.218 OA
ATOM     40  C   UNL A   1     -30.142  -0.241  28.403  0.00  0.00    +0.267 C 
ATOM     41  C   UNL A   1     -27.968  -0.383  29.252  0.00  0.00    +0.069 C 
ATOM     42  C   UNL A   1     -28.444   1.087  29.244  0.00  0.00    +0.148 C 
ATOM     43  O   UNL A   1     -29.858   0.990  29.052  0.00  0.00    -0.329 OA
BRANCH  40  44
ATOM     44  O   UNL A   1     -30.096   0.013  26.971  0.00  0.00    -0.326 OA
ATOM     45  C   UNL A   1     -31.233   0.722  26.471  0.00  0.00    +0.177 C 
ENDBRANCH  40  44
ENDBRANCH  37  41
ENDBRANCH   5  37
TORSDOF 11
