REMARK  Name = outputs/IAG933/test6/raw/output_5038_IAG933_linker_design_.xyz
REMARK  15 active torsions:
REMARK  status: ('A' for Active; 'I' for Inactive)
REMARK    1  A    between atoms: C_1  and  C_2
REMARK    2  A    between atoms: C_1  and  C_8
REMARK    3  A    between atoms: C_1  and  C_37
REMARK    4  A    between atoms: C_13  and  C_43
REMARK    5  A    between atoms: C_14  and  C_15
REMARK    6  A    between atoms: C_21  and  O_22
REMARK    7  A    between atoms: O_22  and  C_23
REMARK    8  A    between atoms: C_23  and  C_24
REMARK    9  A    between atoms: C_29  and  C_38
REMARK   10  A    between atoms: C_29  and  C_39
REMARK   11  A    between atoms: C_30  and  C_37
REMARK   12  A    between atoms: C_30  and  C_43
REMARK   13  A    between atoms: C_30  and  C_45
REMARK   14  A    between atoms: C_37  and  C_39
REMARK   15  A    between atoms: C_44  and  C_45
REMARK                            x       y       z     vdW  Elec       q    Type
REMARK                         _______ _______ _______ _____ _____    ______ ____
ROOT
ATOM      1  C   UNL A   1     -25.387  -0.036  28.974  0.00  0.00    +0.008 C 
ENDROOT
BRANCH   1   2
ATOM      2  C   UNL A   1     -24.855  -1.012  30.143  0.00  0.00    +0.038 C 
BRANCH   2   3
ATOM      3  C   UNL A   1     -24.973  -2.505  29.788  0.00  0.00    -0.021 C 
ATOM      4  C   UNL A   1     -23.906  -3.173  29.146  0.00  0.00    -0.004 C 
ATOM      5  C   UNL A   1     -23.989  -4.549  28.853  0.00  0.00    -0.000 C 
ATOM      6  C   UNL A   1     -25.137  -5.280  29.205  0.00  0.00    -0.000 C 
ATOM      7  C   UNL A   1     -26.232  -4.611  29.784  0.00  0.00    -0.000 C 
ATOM      8  C   UNL A   1     -26.155  -3.232  30.065  0.00  0.00    -0.004 C 
ENDBRANCH   2   3
BRANCH   2   9
ATOM      9  C   UNL A   1     -25.387  -0.679  31.571  0.00  0.00    +0.077 C 
ATOM     10  C   UNL A   1     -25.189   0.773  32.028  0.00  0.00    +0.019 C 
ATOM     11  C   UNL A   1     -25.336   0.684  33.544  0.00  0.00    +0.020 C 
ATOM     12  C   UNL A   1     -24.829  -0.715  33.905  0.00  0.00    +0.089 C 
ATOM     13  N   UNL A   1     -24.758  -1.481  32.646  0.00  0.00    -0.219 NA
ENDBRANCH   2   9
ENDBRANCH   1   2
BRANCH   1  14
ATOM     14  C   UNL A   1     -24.314   0.989  28.556  0.00  0.00    +0.041 C 
BRANCH  14  16
ATOM     15  O   UNL A   1     -22.308  -0.113  29.542  0.00  0.00    -0.217 OA
ATOM     16  C   UNL A   1     -22.870   1.030  28.884  0.00  0.00    +0.218 C 
BRANCH  16  19
ATOM     17  F   UNL A   1     -20.619   1.195  28.068  0.00  0.00    -0.196 F 
ATOM     18  F   UNL A   1     -21.914   2.131  26.767  0.00  0.00    -0.196 F 
ATOM     19  C   UNL A   1     -21.941   1.084  27.664  0.00  0.00    +0.348 C 
ENDBRANCH  16  19
ENDBRANCH  14  16
BRANCH  14  20
ATOM     20  C   UNL A   1     -24.457   1.265  27.155  0.00  0.00    +0.032 C 
BRANCH  20  21
ATOM     21  C   UNL A   1     -25.688   1.614  26.461  0.00  0.00    +0.016 C 
ATOM     22  C   UNL A   1     -26.250   2.920  26.395  0.00  0.00    +0.073 C 
ATOM     23  C   UNL A   1     -27.438   3.091  25.645  0.00  0.00    +0.106 C 
ATOM     24  N   UNL A   1     -28.075   2.089  25.003  0.00  0.00    -0.208 NA
ATOM     25  C   UNL A   1     -27.543   0.849  25.079  0.00  0.00    +0.253 C 
ATOM     26  C   UNL A   1     -26.354   0.576  25.777  0.00  0.00    +0.189 C 
ATOM     27  F   UNL A   1     -25.860  -0.681  25.795  0.00  0.00    -0.200 F 
BRANCH  22  28
ATOM     28  C   UNL A   1     -25.642   4.093  27.123  0.00  0.00    +0.266 C 
ATOM     29  N   UNL A   1     -25.614   5.252  26.449  0.00  0.00    -0.200 NA
ATOM     30  C   UNL A   1     -25.026   6.479  26.963  0.00  0.00    +0.139 C 
ATOM     31  O   UNL A   1     -25.143   3.966  28.243  0.00  0.00    -0.268 OA
ENDBRANCH  22  28
BRANCH  25  32
ATOM     32  O   UNL A   1     -28.193  -0.208  24.477  0.00  0.00    -0.456 OA
BRANCH  32  33
ATOM     33  C   UNL A   1     -29.460   0.005  23.866  0.00  0.00    +0.243 C 
BRANCH  33  34
ATOM     34  C   UNL A   1     -30.065  -1.377  23.573  0.00  0.00    +0.229 C 
ATOM     35  O   UNL A   1     -30.729  -1.878  24.721  0.00  0.00    -0.216 OA
ENDBRANCH  33  34
ENDBRANCH  32  33
ENDBRANCH  25  32
ENDBRANCH  20  21
ENDBRANCH  14  20
ENDBRANCH   1  14
BRANCH   1  36
ATOM     36  C   UNL A   1     -26.977   0.054  28.936  0.00  0.00    +0.001 C 
BRANCH  36  37
ATOM     37  C   UNL A   1     -27.711   1.407  29.213  0.00  0.00    +0.002 C 
BRANCH  37  45
ATOM     38  C   UNL A   1     -29.985   2.250  28.280  0.00  0.00    +0.114 C 
ATOM     39  C   UNL A   1     -31.251   1.865  27.850  0.00  0.00    -0.009 C 
ATOM     40  F   UNL A   1     -29.475  -0.556  27.036  0.00  0.00    -0.233 F 
ATOM     41  N   UNL A   1     -29.478   3.439  27.798  0.00  0.00    -0.128 NA
ATOM     42  C   UNL A   1     -31.513   0.564  27.425  0.00  0.00    +0.005 C 
ATOM     43  C   UNL A   1     -29.633  -0.040  28.799  0.00  0.00    +0.042 C 
ATOM     44  C   UNL A   1     -30.564  -0.483  27.720  0.00  0.00    +0.183 C 
ATOM     45  C   UNL A   1     -29.197   1.323  28.877  0.00  0.00    +0.025 C 
ENDBRANCH  37  45
ENDBRANCH  36  37
ENDBRANCH   1  36
TORSDOF 15
