MODEL 503
MODEL 1
REMARK VINA RESULT:    -5.502      0.000      0.000
REMARK INTER + INTRA:          -6.252
REMARK INTER:                  -6.145
REMARK INTRA:                  -0.107
REMARK UNBOUND:                -0.107
REMARK  Name = No_503-gen_results/8p0m/2024-11-27-11-27-31/
REMARK  2 active torsions:
REMARK  status: ('A' for Active; 'I' for Inactive)
REMARK    1  A    between atoms: C_2  and  C_3
REMARK    2  A    between atoms: C_3  and  C_4
REMARK                            x       y       z     vdW  Elec       q    Type
REMARK                         _______ _______ _______ _____ _____    ______ ____
ROOT
ATOM      1  C   UNL A   1     -24.505  -2.661  28.781  0.00  0.00    -0.013 A 
ATOM      2  C   UNL A   1     -23.866  -3.920  28.776  0.00  0.00    -0.004 A 
ATOM      3  C   UNL A   1     -24.591  -5.107  28.713  0.00  0.00    -0.000 A 
ATOM      4  C   UNL A   1     -25.600  -5.148  29.460  0.00  0.00    -0.000 A 
ATOM      5  C   UNL A   1     -26.398  -3.977  29.776  0.00  0.00    -0.000 A 
ATOM      6  C   UNL A   1     -25.725  -2.753  29.635  0.00  0.00    -0.004 A 
ENDROOT
BRANCH   1   7
ATOM      7  C   UNL A   1     -23.909  -1.315  29.128  0.00  0.00    +0.113 C 
BRANCH   7   9
ATOM      8  O   UNL A   1     -21.691  -1.121  29.091  0.00  0.00    -0.273 OA
ATOM      9  C   UNL A   1     -22.886  -0.870  28.897  0.00  0.00    +0.246 C 
ATOM     10  N   UNL A   1     -23.116   0.515  28.169  0.00  0.00    -0.203 NA
ATOM     11  C   UNL A   1     -21.928   1.204  27.796  0.00  0.00    +0.139 C 
ENDBRANCH   7   9
ENDBRANCH   1   7
TORSDOF 2
ENDMDL
ENDMDL
