REMARK  Name = outputs/IAG933/test6/raw/output_5041_IAG933_linker_design_.xyz
REMARK  4 active torsions:
REMARK  status: ('A' for Active; 'I' for Inactive)
REMARK    1  A    between atoms: C_1  and  C_2
REMARK    2  A    between atoms: C_1  and  C_8
REMARK    3  A    between atoms: C_1  and  C_36
REMARK    4  A    between atoms: C_14  and  C_15
REMARK                            x       y       z     vdW  Elec       q    Type
REMARK                         _______ _______ _______ _____ _____    ______ ____
ROOT
ATOM      1  C   UNL A   1     -25.688   1.614  26.461  0.00  0.00    +0.030 C 
ATOM      2  C   UNL A   1     -26.250   2.920  26.395  0.00  0.00    +0.074 C 
ATOM      3  C   UNL A   1     -27.438   3.091  25.645  0.00  0.00    +0.106 C 
ATOM      4  N   UNL A   1     -28.075   2.089  25.003  0.00  0.00    -0.208 NA
ATOM      5  C   UNL A   1     -27.543   0.849  25.079  0.00  0.00    +0.253 C 
ATOM      6  O   UNL A   1     -28.193  -0.208  24.477  0.00  0.00    -0.456 OA
ATOM      7  C   UNL A   1     -29.460   0.005  23.866  0.00  0.00    +0.239 C 
ATOM      8  C   UNL A   1     -30.065  -1.377  23.573  0.00  0.00    +0.192 C 
ATOM      9  O   UNL A   1     -30.729  -1.878  24.721  0.00  0.00    -0.323 OA
ATOM     10  C   UNL A   1     -26.354   0.576  25.777  0.00  0.00    +0.190 C 
ATOM     11  F   UNL A   1     -25.860  -0.681  25.795  0.00  0.00    -0.200 F 
ATOM     12  C   UNL A   1     -21.959   1.715  27.209  0.00  0.00    +0.003 C 
ATOM     13  C   UNL A   1     -24.465   1.666  27.251  0.00  0.00    +0.083 C 
ATOM     14  O   UNL A   1     -29.511  -0.467  28.184  0.00  0.00    -0.437 OA
ATOM     15  N   UNL A   1     -28.693   1.433  31.151  0.00  0.00    -0.057 NA
ATOM     16  C   UNL A   1     -23.246   2.014  26.383  0.00  0.00    +0.021 C 
ATOM     17  C   UNL A   1     -26.719  -0.231  28.607  0.00  0.00    +0.046 C 
ATOM     18  C   UNL A   1     -31.084  -2.161  26.178  0.00  0.00    +0.297 C 
ATOM     19  N   UNL A   1     -24.339   0.283  27.982  0.00  0.00    -0.271 NA
ATOM     20  C   UNL A   1     -25.241  -0.073  28.955  0.00  0.00    +0.067 C 
ATOM     21  C   UNL A   1     -29.051   0.300  29.262  0.00  0.00    +0.220 C 
ATOM     22  C   UNL A   1     -22.286   1.166  28.706  0.00  0.00    +0.017 C 
ATOM     23  N   UNL A   1     -30.939   1.421  30.055  0.00  0.00    -0.129 N 
ATOM     24  C   UNL A   1     -23.183  -0.164  28.433  0.00  0.00    +0.072 C 
ATOM     25  O   UNL A   1     -31.383  -0.906  26.757  0.00  0.00    -0.283 OA
ATOM     26  C   UNL A   1     -30.940  -0.569  28.081  0.00  0.00    +0.396 C 
ATOM     27  C   UNL A   1     -31.486   0.534  28.998  0.00  0.00    +0.385 C 
ATOM     28  C   UNL A   1     -27.515   0.997  30.629  0.00  0.00    +0.289 C 
ATOM     29  C   UNL A   1     -29.589   1.105  30.208  0.00  0.00    +0.359 C 
ATOM     30  C   UNL A   1     -27.665   0.280  29.464  0.00  0.00    +0.051 C 
ATOM     31  C   UNL A   1     -31.594   2.464  30.873  0.00  0.00    +0.262 C 
ATOM     32  O   UNL A   1     -32.540  -0.077  29.586  0.00  0.00    -0.240 OA
ENDROOT
BRANCH   2  33
ATOM     33  C   UNL A   1     -25.642   4.093  27.123  0.00  0.00    +0.266 C 
ATOM     34  N   UNL A   1     -25.614   5.252  26.449  0.00  0.00    -0.200 NA
ATOM     35  C   UNL A   1     -25.026   6.479  26.963  0.00  0.00    +0.139 C 
ATOM     36  O   UNL A   1     -25.143   3.966  28.243  0.00  0.00    -0.268 OA
ENDBRANCH   2  33
BRANCH  20  37
ATOM     37  C   UNL A   1     -24.855  -1.012  30.143  0.00  0.00    +0.053 C 
BRANCH  37  38
ATOM     38  C   UNL A   1     -24.973  -2.505  29.788  0.00  0.00    -0.020 C 
ATOM     39  C   UNL A   1     -23.906  -3.173  29.146  0.00  0.00    -0.004 C 
ATOM     40  C   UNL A   1     -23.989  -4.549  28.853  0.00  0.00    -0.000 C 
ATOM     41  C   UNL A   1     -25.137  -5.280  29.205  0.00  0.00    -0.000 C 
ATOM     42  C   UNL A   1     -26.232  -4.611  29.784  0.00  0.00    -0.000 C 
ATOM     43  C   UNL A   1     -26.155  -3.232  30.065  0.00  0.00    -0.004 C 
ENDBRANCH  37  38
BRANCH  37  44
ATOM     44  C   UNL A   1     -25.387  -0.679  31.571  0.00  0.00    +0.078 C 
ATOM     45  C   UNL A   1     -25.189   0.773  32.028  0.00  0.00    +0.019 C 
ATOM     46  C   UNL A   1     -25.336   0.684  33.544  0.00  0.00    +0.020 C 
ATOM     47  C   UNL A   1     -24.829  -0.715  33.905  0.00  0.00    +0.089 C 
ATOM     48  N   UNL A   1     -24.758  -1.481  32.646  0.00  0.00    -0.219 NA
ENDBRANCH  37  44
ENDBRANCH  20  37
TORSDOF 4
