REMARK  Name = outputs/IAG933/test6/raw/output_5042_IAG933_linker_design_.xyz
REMARK  17 active torsions:
REMARK  status: ('A' for Active; 'I' for Inactive)
REMARK    1  A    between atoms: C_1  and  C_2
REMARK    2  A    between atoms: C_1  and  C_8
REMARK    3  A    between atoms: C_9  and  C_34
REMARK    4  A    between atoms: C_13  and  O_30
REMARK    5  A    between atoms: C_14  and  C_15
REMARK    6  A    between atoms: C_21  and  O_22
REMARK    7  A    between atoms: O_22  and  C_23
REMARK    8  A    between atoms: C_23  and  C_24
REMARK    9  A    between atoms: N_28  and  C_34
REMARK   10  A    between atoms: N_28  and  C_47
REMARK   11  A    between atoms: O_30  and  C_47
REMARK   12  A    between atoms: C_31  and  C_34
REMARK   13  A    between atoms: C_32  and  C_40
REMARK   14  A    between atoms: C_33  and  C_37
REMARK   15  A    between atoms: C_33  and  N_42
REMARK   16  A    between atoms: C_36  and  C_37
REMARK   17  A    between atoms: C_40  and  C_47
REMARK                            x       y       z     vdW  Elec       q    Type
REMARK                         _______ _______ _______ _____ _____    ______ ____
ROOT
ATOM      1  C   UNL A   1     -25.349   1.838  31.021  0.00  0.00    +0.092 C 
ENDROOT
BRANCH   1   3
ATOM      2  C   UNL A   1     -28.220   4.742  29.958  0.00  0.00    +0.050 C 
ATOM      3  C   UNL A   1     -26.324   2.631  30.869  0.00  0.00    +0.076 C 
ATOM      4  C   UNL A   1     -28.380   3.186  29.920  0.00  0.00    +0.155 C 
ATOM      5  C   UNL A   1     -27.263   2.288  29.708  0.00  0.00    +0.050 C 
ATOM      6  N   UNL A   1     -26.482   3.878  31.447  0.00  0.00    -0.272 NA
ATOM      7  C   UNL A   1     -26.883   4.973  30.687  0.00  0.00    +0.075 C 
ATOM      8  O   UNL A   1     -29.595   2.759  30.064  0.00  0.00    -0.223 OA
BRANCH   6   9
ATOM      9  C   UNL A   1     -26.375   4.054  32.791  0.00  0.00    +0.086 C 
BRANCH   9  10
ATOM     10  C   UNL A   1     -26.703   3.738  34.122  0.00  0.00    +0.151 C 
BRANCH  10  11
ATOM     11  C   UNL A   1     -26.073   4.630  35.045  0.00  0.00    +0.455 C 
ATOM     12  N   UNL A   1     -26.250   4.459  36.280  0.00  0.00    +0.199 NA
ATOM     13  N   UNL A   1     -25.464   5.710  34.596  0.00  0.00    +0.199 NA
ENDBRANCH  10  11
ENDBRANCH   9  10
ENDBRANCH   6   9
ENDBRANCH   1   3
BRANCH   1  15
ATOM     14  C   UNL A   1     -25.387  -0.679  31.571  0.00  0.00    +0.079 C 
ATOM     15  C   UNL A   1     -25.189   0.773  32.028  0.00  0.00    +0.035 C 
ATOM     16  C   UNL A   1     -25.336   0.684  33.544  0.00  0.00    +0.022 C 
ATOM     17  C   UNL A   1     -24.829  -0.715  33.905  0.00  0.00    +0.089 C 
ATOM     18  N   UNL A   1     -24.758  -1.481  32.646  0.00  0.00    -0.219 NA
BRANCH  14  19
ATOM     19  C   UNL A   1     -24.855  -1.012  30.143  0.00  0.00    +0.044 C 
BRANCH  19  20
ATOM     20  C   UNL A   1     -24.973  -2.505  29.788  0.00  0.00    -0.021 C 
ATOM     21  C   UNL A   1     -23.906  -3.173  29.146  0.00  0.00    -0.004 C 
ATOM     22  C   UNL A   1     -23.989  -4.549  28.853  0.00  0.00    -0.000 C 
ATOM     23  C   UNL A   1     -25.137  -5.280  29.205  0.00  0.00    -0.000 C 
ATOM     24  C   UNL A   1     -26.232  -4.611  29.784  0.00  0.00    -0.000 C 
ATOM     25  C   UNL A   1     -26.155  -3.232  30.065  0.00  0.00    -0.004 C 
ENDBRANCH  19  20
ENDBRANCH  14  19
ENDBRANCH   1  15
BRANCH   1  26
ATOM     26  N   UNL A   1     -24.170   2.053  29.675  0.00  0.00    -0.180 NA
BRANCH  26  27
ATOM     27  C   UNL A   1     -24.083   2.013  28.102  0.00  0.00    +0.253 C 
BRANCH  27  28
ATOM     28  O   UNL A   1     -24.539   1.151  27.104  0.00  0.00    -0.459 OA
BRANCH  28  29
ATOM     29  C   UNL A   1     -25.688   1.614  26.461  0.00  0.00    +0.178 C 
ATOM     30  C   UNL A   1     -26.250   2.920  26.395  0.00  0.00    +0.111 C 
ATOM     31  C   UNL A   1     -27.438   3.091  25.645  0.00  0.00    +0.110 C 
ATOM     32  N   UNL A   1     -28.075   2.089  25.003  0.00  0.00    -0.208 NA
ATOM     33  C   UNL A   1     -27.543   0.849  25.079  0.00  0.00    +0.256 C 
ATOM     34  C   UNL A   1     -26.354   0.576  25.777  0.00  0.00    +0.227 C 
ATOM     35  F   UNL A   1     -25.860  -0.681  25.795  0.00  0.00    -0.196 F 
BRANCH  30  36
ATOM     36  C   UNL A   1     -25.642   4.093  27.123  0.00  0.00    +0.269 C 
ATOM     37  N   UNL A   1     -25.614   5.252  26.449  0.00  0.00    -0.200 NA
ATOM     38  C   UNL A   1     -25.026   6.479  26.963  0.00  0.00    +0.139 C 
ATOM     39  O   UNL A   1     -25.143   3.966  28.243  0.00  0.00    -0.268 OA
ENDBRANCH  30  36
BRANCH  33  40
ATOM     40  O   UNL A   1     -28.193  -0.208  24.477  0.00  0.00    -0.456 OA
BRANCH  40  41
ATOM     41  C   UNL A   1     -29.460   0.005  23.866  0.00  0.00    +0.243 C 
BRANCH  41  42
ATOM     42  C   UNL A   1     -30.065  -1.377  23.573  0.00  0.00    +0.229 C 
ATOM     43  O   UNL A   1     -30.729  -1.878  24.721  0.00  0.00    -0.216 OA
ENDBRANCH  41  42
ENDBRANCH  40  41
ENDBRANCH  33  40
ENDBRANCH  28  29
ENDBRANCH  27  28
BRANCH  27  44
ATOM     44  C   UNL A   1     -22.806   2.273  27.439  0.00  0.00    +0.176 C 
BRANCH  44  45
ATOM     45  C   UNL A   1     -22.056   0.991  28.029  0.00  0.00    +0.370 C 
ATOM     46  O   UNL A   1     -20.743   1.107  27.742  0.00  0.00    -0.245 OA
ATOM     47  O   UNL A   1     -22.513   0.173  28.864  0.00  0.00    -0.245 OA
ENDBRANCH  44  45
ENDBRANCH  27  44
ENDBRANCH  26  27
ENDBRANCH   1  26
TORSDOF 17
