REMARK  Name = outputs/IAG933/test6/raw/output_5045_IAG933_linker_design_.xyz
REMARK  6 active torsions:
REMARK  status: ('A' for Active; 'I' for Inactive)
REMARK    1  A    between atoms: C_1  and  C_2
REMARK    2  A    between atoms: C_1  and  C_8
REMARK    3  A    between atoms: C_1  and  N_39
REMARK    4  A    between atoms: C_21  and  O_22
REMARK    5  A    between atoms: O_22  and  C_23
REMARK    6  A    between atoms: C_23  and  C_24
REMARK                            x       y       z     vdW  Elec       q    Type
REMARK                         _______ _______ _______ _____ _____    ______ ____
ROOT
ATOM      1  C   UNL A   1     -25.688   1.614  26.461  0.00  0.00    +0.096 C 
ATOM      2  C   UNL A   1     -26.250   2.920  26.395  0.00  0.00    +0.057 C 
ATOM      3  C   UNL A   1     -25.642   4.093  27.123  0.00  0.00    +0.226 C 
ATOM      4  N   UNL A   1     -25.614   5.252  26.449  0.00  0.00    -0.235 NA
ATOM      5  C   UNL A   1     -25.026   6.479  26.963  0.00  0.00    +0.155 C 
ATOM      6  O   UNL A   1     -25.143   3.966  28.243  0.00  0.00    -0.406 OA
ATOM      7  C   UNL A   1     -27.438   3.091  25.645  0.00  0.00    +0.102 C 
ATOM      8  N   UNL A   1     -28.075   2.089  25.003  0.00  0.00    -0.212 NA
ATOM      9  C   UNL A   1     -27.543   0.849  25.079  0.00  0.00    +0.234 C 
ATOM     10  C   UNL A   1     -26.354   0.576  25.777  0.00  0.00    +0.244 C 
ATOM     11  F   UNL A   1     -25.860  -0.681  25.795  0.00  0.00    -0.227 F 
ATOM     12  O   UNL A   1     -22.235   2.147  25.749  0.00  0.00    -0.451 OA
ATOM     13  C   UNL A   1     -26.090   2.236  29.505  0.00  0.00    +0.195 C 
ATOM     14  C   UNL A   1     -23.282   1.160  27.566  0.00  0.00    +0.048 C 
ATOM     15  C   UNL A   1     -22.291  -0.064  29.365  0.00  0.00    +0.015 C 
ATOM     16  O   UNL A   1     -25.321   4.207  30.484  0.00  0.00    -0.249 OA
ATOM     17  C   UNL A   1     -20.989   1.200  27.752  0.00  0.00    +0.038 C 
ATOM     18  C   UNL A   1     -21.118   0.409  28.869  0.00  0.00    +0.004 C 
ATOM     19  C   UNL A   1     -23.490   2.307  25.586  0.00  0.00    +0.176 C 
ATOM     20  C   UNL A   1     -22.102   1.523  27.018  0.00  0.00    +0.146 C 
ATOM     21  C   UNL A   1     -25.479   3.507  29.401  0.00  0.00    +0.332 C 
ATOM     22  C   UNL A   1     -25.659   0.905  29.072  0.00  0.00    +0.241 C 
ATOM     23  N   UNL A   1     -24.607   0.160  29.304  0.00  0.00    -0.254 N 
ATOM     24  O   UNL A   1     -26.370   0.171  28.576  0.00  0.00    -0.274 OA
ATOM     25  C   UNL A   1     -24.214   1.601  26.632  0.00  0.00    +0.027 C 
ATOM     26  C   UNL A   1     -23.407   0.422  28.748  0.00  0.00    +0.057 C 
ENDROOT
BRANCH  23  27
ATOM     27  C   UNL A   1     -24.855  -1.012  30.143  0.00  0.00    +0.118 C 
BRANCH  27  28
ATOM     28  C   UNL A   1     -24.973  -2.505  29.788  0.00  0.00    -0.003 C 
ATOM     29  C   UNL A   1     -23.906  -3.173  29.146  0.00  0.00    -0.003 C 
ATOM     30  C   UNL A   1     -23.989  -4.549  28.853  0.00  0.00    -0.000 C 
ATOM     31  C   UNL A   1     -25.137  -5.280  29.205  0.00  0.00    -0.000 C 
ATOM     32  C   UNL A   1     -26.232  -4.611  29.784  0.00  0.00    -0.000 C 
ATOM     33  C   UNL A   1     -26.155  -3.232  30.065  0.00  0.00    -0.003 C 
ENDBRANCH  27  28
BRANCH  27  34
ATOM     34  C   UNL A   1     -25.387  -0.679  31.571  0.00  0.00    +0.096 C 
ATOM     35  C   UNL A   1     -25.189   0.773  32.028  0.00  0.00    +0.021 C 
ATOM     36  C   UNL A   1     -25.336   0.684  33.544  0.00  0.00    +0.020 C 
ATOM     37  C   UNL A   1     -24.829  -0.715  33.905  0.00  0.00    +0.089 C 
ATOM     38  N   UNL A   1     -24.758  -1.481  32.646  0.00  0.00    -0.217 NA
ENDBRANCH  27  34
ENDBRANCH  23  27
BRANCH   9  39
ATOM     39  O   UNL A   1     -28.193  -0.208  24.477  0.00  0.00    -0.459 OA
BRANCH  39  40
ATOM     40  C   UNL A   1     -29.460   0.005  23.866  0.00  0.00    +0.242 C 
BRANCH  40  41
ATOM     41  C   UNL A   1     -30.065  -1.377  23.573  0.00  0.00    +0.229 C 
ATOM     42  O   UNL A   1     -30.729  -1.878  24.721  0.00  0.00    -0.216 OA
ENDBRANCH  40  41
ENDBRANCH  39  40
ENDBRANCH   9  39
TORSDOF 6
