REMARK  Name = outputs/IAG933/test6/raw/output_5049_IAG933_linker_design_.xyz
REMARK  11 active torsions:
REMARK  status: ('A' for Active; 'I' for Inactive)
REMARK    1  A    between atoms: C_1  and  C_2
REMARK    2  A    between atoms: C_1  and  C_8
REMARK    3  A    between atoms: C_1  and  C_43
REMARK    4  A    between atoms: C_13  and  C_36
REMARK    5  A    between atoms: C_14  and  C_15
REMARK    6  A    between atoms: C_21  and  O_22
REMARK    7  A    between atoms: O_22  and  C_23
REMARK    8  A    between atoms: C_23  and  C_24
REMARK    9  A    between atoms: N_28  and  C_43
REMARK   10  A    between atoms: C_32  and  C_35
REMARK   11  A    between atoms: C_32  and  C_43
REMARK                            x       y       z     vdW  Elec       q    Type
REMARK                         _______ _______ _______ _____ _____    ______ ____
ROOT
ATOM      1  C   UNL A   1     -23.522   0.359  28.819  0.00  0.00    +0.214 C 
ATOM      2  O   UNL A   1     -22.561  -0.060  29.529  0.00  0.00    -0.291 OA
ENDROOT
BRANCH   1   4
ATOM      3  O   UNL A   1     -22.133   2.218  25.818  0.00  0.00    -0.421 OA
ATOM      4  C   UNL A   1     -23.273   1.198  27.663  0.00  0.00    +0.183 C 
ATOM      5  C   UNL A   1     -24.269   1.671  26.574  0.00  0.00    +0.018 C 
ATOM      6  C   UNL A   1     -21.942   1.614  27.385  0.00  0.00    +0.332 C 
ATOM      7  C   UNL A   1     -23.483   2.227  25.557  0.00  0.00    +0.176 C 
ATOM      8  O   UNL A   1     -20.811   1.623  27.878  0.00  0.00    -0.249 OA
BRANCH   5   9
ATOM      9  C   UNL A   1     -25.688   1.614  26.461  0.00  0.00    +0.092 C 
ATOM     10  C   UNL A   1     -26.250   2.920  26.395  0.00  0.00    +0.059 C 
ATOM     11  C   UNL A   1     -27.438   3.091  25.645  0.00  0.00    +0.102 C 
ATOM     12  N   UNL A   1     -28.075   2.089  25.003  0.00  0.00    -0.212 NA
ATOM     13  C   UNL A   1     -27.543   0.849  25.079  0.00  0.00    +0.234 C 
ATOM     14  C   UNL A   1     -26.354   0.576  25.777  0.00  0.00    +0.244 C 
ATOM     15  F   UNL A   1     -25.860  -0.681  25.795  0.00  0.00    -0.227 F 
BRANCH  10  16
ATOM     16  C   UNL A   1     -25.642   4.093  27.123  0.00  0.00    +0.263 C 
ATOM     17  N   UNL A   1     -25.614   5.252  26.449  0.00  0.00    -0.200 NA
ATOM     18  C   UNL A   1     -25.026   6.479  26.963  0.00  0.00    +0.139 C 
ATOM     19  O   UNL A   1     -25.143   3.966  28.243  0.00  0.00    -0.269 OA
ENDBRANCH  10  16
BRANCH  13  20
ATOM     20  O   UNL A   1     -28.193  -0.208  24.477  0.00  0.00    -0.459 OA
BRANCH  20  21
ATOM     21  C   UNL A   1     -29.460   0.005  23.866  0.00  0.00    +0.242 C 
BRANCH  21  22
ATOM     22  C   UNL A   1     -30.065  -1.377  23.573  0.00  0.00    +0.229 C 
ATOM     23  O   UNL A   1     -30.729  -1.878  24.721  0.00  0.00    -0.216 OA
ENDBRANCH  21  22
ENDBRANCH  20  21
ENDBRANCH  13  20
ENDBRANCH   5   9
ENDBRANCH   1   4
BRANCH   1  24
ATOM     24  C   UNL A   1     -24.917   0.010  28.936  0.00  0.00    +0.277 C 
BRANCH  24  25
ATOM     25  N   UNL A   1     -25.901   1.009  29.298  0.00  0.00    -0.061 NA
ATOM     26  C   UNL A   1     -27.241   0.960  29.211  0.00  0.00    +0.323 C 
ATOM     27  C   UNL A   1     -29.342  -0.096  28.671  0.00  0.00    +0.164 C 
ATOM     28  C   UNL A   1     -29.386   2.233  29.593  0.00  0.00    +0.011 C 
ATOM     29  N   UNL A   1     -27.990  -0.195  28.691  0.00  0.00    -0.163 N 
ATOM     30  C   UNL A   1     -27.972   2.167  29.710  0.00  0.00    +0.089 C 
ATOM     31  C   UNL A   1     -28.796  -0.492  27.459  0.00  0.00    +0.275 C 
ATOM     32  C   UNL A   1     -30.134   1.105  29.156  0.00  0.00    +0.040 C 
ENDBRANCH  24  25
BRANCH  24  33
ATOM     33  C   UNL A   1     -24.855  -1.012  30.143  0.00  0.00    +0.095 C 
BRANCH  33  34
ATOM     34  C   UNL A   1     -24.973  -2.505  29.788  0.00  0.00    -0.017 C 
ATOM     35  C   UNL A   1     -23.906  -3.173  29.146  0.00  0.00    -0.004 C 
ATOM     36  C   UNL A   1     -23.989  -4.549  28.853  0.00  0.00    -0.000 C 
ATOM     37  C   UNL A   1     -25.137  -5.280  29.205  0.00  0.00    -0.000 C 
ATOM     38  C   UNL A   1     -26.232  -4.611  29.784  0.00  0.00    -0.000 C 
ATOM     39  C   UNL A   1     -26.155  -3.232  30.065  0.00  0.00    -0.004 C 
ENDBRANCH  33  34
BRANCH  33  40
ATOM     40  C   UNL A   1     -25.387  -0.679  31.571  0.00  0.00    +0.082 C 
ATOM     41  C   UNL A   1     -25.189   0.773  32.028  0.00  0.00    +0.019 C 
ATOM     42  C   UNL A   1     -25.336   0.684  33.544  0.00  0.00    +0.020 C 
ATOM     43  C   UNL A   1     -24.829  -0.715  33.905  0.00  0.00    +0.089 C 
ATOM     44  N   UNL A   1     -24.758  -1.481  32.646  0.00  0.00    -0.219 NA
ENDBRANCH  33  40
ENDBRANCH  24  33
ENDBRANCH   1  24
TORSDOF 11
