MODEL 504
MODEL 1
REMARK VINA RESULT:    -6.168      0.000      0.000
REMARK INTER + INTRA:          -7.745
REMARK INTER:                  -7.250
REMARK INTRA:                  -0.495
REMARK UNBOUND:                -0.495
REMARK  Name = No_504-gen_results/8p0m/2024-11-27-11-27-31/
REMARK  3 active torsions:
REMARK  status: ('A' for Active; 'I' for Inactive)
REMARK    1  A    between atoms: C_1  and  C_2
REMARK    2  A    between atoms: C_1  and  C_6
REMARK    3  A    between atoms: C_2  and  C_4
REMARK                            x       y       z     vdW  Elec       q    Type
REMARK                         _______ _______ _______ _____ _____    ______ ____
ROOT
ATOM      1  C   UNL A   1     -24.589  -1.030  28.642  0.00  0.00    +0.320 C 
ATOM      2  F   UNL A   1     -25.576  -0.497  29.172  0.00  0.00    -0.196 F 
ATOM      3  F   UNL A   1     -24.784  -0.786  27.251  0.00  0.00    -0.196 F 
ENDROOT
BRANCH   1   4
ATOM      4  C   UNL A   1     -24.739  -2.551  28.763  0.00  0.00    +0.041 A 
ATOM      5  C   UNL A   1     -23.922  -3.417  28.574  0.00  0.00    +0.001 A 
ATOM      6  C   UNL A   1     -26.009  -3.056  29.439  0.00  0.00    +0.001 A 
ATOM      7  C   UNL A   1     -24.131  -4.825  28.577  0.00  0.00    -0.000 A 
ATOM      8  C   UNL A   1     -26.140  -4.407  29.695  0.00  0.00    -0.000 A 
ATOM      9  C   UNL A   1     -25.209  -5.266  29.247  0.00  0.00    -0.000 A 
ENDBRANCH   1   4
BRANCH   1  10
ATOM     10  C   UNL A   1     -23.534  -0.561  29.001  0.00  0.00    +0.319 C 
ATOM     11  F   UNL A   1     -22.658  -0.077  28.200  0.00  0.00    -0.222 F 
BRANCH  10  12
ATOM     12  C   UNL A   1     -23.258  -0.306  30.401  0.00  0.00    +0.433 C 
ATOM     13  F   UNL A   1     -24.018  -0.787  31.106  0.00  0.00    -0.167 F 
ATOM     14  F   UNL A   1     -23.171   1.118  30.589  0.00  0.00    -0.167 F 
ATOM     15  F   UNL A   1     -21.982  -0.663  30.666  0.00  0.00    -0.167 F 
ENDBRANCH  10  12
ENDBRANCH   1  10
TORSDOF 3
ENDMDL
ENDMDL
