REMARK  Name = outputs/IAG933/test6/raw/output_5051_IAG933_linker_design_.xyz
REMARK  11 active torsions:
REMARK  status: ('A' for Active; 'I' for Inactive)
REMARK    1  A    between atoms: C_1  and  C_2
REMARK    2  A    between atoms: C_1  and  C_8
REMARK    3  A    between atoms: C_1  and  C_40
REMARK    4  A    between atoms: C_13  and  N_38
REMARK    5  A    between atoms: C_14  and  C_15
REMARK    6  A    between atoms: C_21  and  O_22
REMARK    7  A    between atoms: O_22  and  C_23
REMARK    8  A    between atoms: C_23  and  C_24
REMARK    9  A    between atoms: C_30  and  C_36
REMARK   10  A    between atoms: C_36  and  C_37
REMARK   11  A    between atoms: C_37  and  C_39
REMARK                            x       y       z     vdW  Elec       q    Type
REMARK                         _______ _______ _______ _____ _____    ______ ____
ROOT
ATOM      1  N   UNL A   1     -23.070   0.041  29.230  0.00  0.00    -0.223 NA
ATOM      2  C   UNL A   1     -22.611   0.926  28.266  0.00  0.00    +0.217 C 
ATOM      3  C   UNL A   1     -23.484   1.432  27.351  0.00  0.00    +0.142 C 
ATOM      4  N   UNL A   1     -24.784   1.167  27.502  0.00  0.00    -0.299 N 
ATOM      5  C   UNL A   1     -25.343   0.475  28.536  0.00  0.00    +0.040 C 
ATOM      6  C   UNL A   1     -24.396  -0.155  29.337  0.00  0.00    +0.075 C 
ATOM      7  C   UNL A   1     -23.064   2.249  26.247  0.00  0.00    +0.031 C 
ATOM      8  F   UNL A   1     -21.290   1.298  28.197  0.00  0.00    -0.186 F 
ENDROOT
BRANCH   4   9
ATOM      9  C   UNL A   1     -25.688   1.614  26.461  0.00  0.00    +0.143 C 
ATOM     10  C   UNL A   1     -26.250   2.920  26.395  0.00  0.00    +0.073 C 
ATOM     11  C   UNL A   1     -27.438   3.091  25.645  0.00  0.00    +0.104 C 
ATOM     12  N   UNL A   1     -28.075   2.089  25.003  0.00  0.00    -0.212 NA
ATOM     13  C   UNL A   1     -27.543   0.849  25.079  0.00  0.00    +0.236 C 
ATOM     14  C   UNL A   1     -26.354   0.576  25.777  0.00  0.00    +0.258 C 
ATOM     15  F   UNL A   1     -25.860  -0.681  25.795  0.00  0.00    -0.225 F 
BRANCH  10  16
ATOM     16  C   UNL A   1     -25.642   4.093  27.123  0.00  0.00    +0.264 C 
ATOM     17  N   UNL A   1     -25.614   5.252  26.449  0.00  0.00    -0.200 NA
ATOM     18  C   UNL A   1     -25.026   6.479  26.963  0.00  0.00    +0.139 C 
ATOM     19  O   UNL A   1     -25.143   3.966  28.243  0.00  0.00    -0.269 OA
ENDBRANCH  10  16
BRANCH  13  20
ATOM     20  O   UNL A   1     -28.193  -0.208  24.477  0.00  0.00    -0.459 OA
BRANCH  20  21
ATOM     21  C   UNL A   1     -29.460   0.005  23.866  0.00  0.00    +0.242 C 
BRANCH  21  22
ATOM     22  C   UNL A   1     -30.065  -1.377  23.573  0.00  0.00    +0.229 C 
ATOM     23  O   UNL A   1     -30.729  -1.878  24.721  0.00  0.00    -0.216 OA
ENDBRANCH  21  22
ENDBRANCH  20  21
ENDBRANCH  13  20
ENDBRANCH   4   9
BRANCH   6  24
ATOM     24  C   UNL A   1     -24.855  -1.012  30.143  0.00  0.00    +0.079 C 
BRANCH  24  25
ATOM     25  C   UNL A   1     -24.973  -2.505  29.788  0.00  0.00    -0.015 C 
ATOM     26  C   UNL A   1     -23.906  -3.173  29.146  0.00  0.00    -0.004 C 
ATOM     27  C   UNL A   1     -23.989  -4.549  28.853  0.00  0.00    -0.000 C 
ATOM     28  C   UNL A   1     -25.137  -5.280  29.205  0.00  0.00    -0.000 C 
ATOM     29  C   UNL A   1     -26.232  -4.611  29.784  0.00  0.00    -0.000 C 
ATOM     30  C   UNL A   1     -26.155  -3.232  30.065  0.00  0.00    -0.004 C 
ENDBRANCH  24  25
BRANCH  24  31
ATOM     31  C   UNL A   1     -25.387  -0.679  31.571  0.00  0.00    +0.082 C 
ATOM     32  C   UNL A   1     -25.189   0.773  32.028  0.00  0.00    +0.020 C 
ATOM     33  C   UNL A   1     -25.336   0.684  33.544  0.00  0.00    +0.020 C 
ATOM     34  C   UNL A   1     -24.829  -0.715  33.905  0.00  0.00    +0.089 C 
ATOM     35  N   UNL A   1     -24.758  -1.481  32.646  0.00  0.00    -0.219 NA
ENDBRANCH  24  31
ENDBRANCH   6  24
BRANCH   5  36
ATOM     36  C   UNL A   1     -26.798   0.406  28.828  0.00  0.00    +0.043 C 
BRANCH  36  37
ATOM     37  C   UNL A   1     -28.176   0.936  28.877  0.00  0.00    +0.011 C 
BRANCH  37  39
ATOM     38  C   UNL A   1     -30.388   0.066  27.817  0.00  0.00    +0.187 C 
ATOM     39  C   UNL A   1     -29.298  -0.100  28.916  0.00  0.00    +0.063 C 
ATOM     40  O   UNL A   1     -31.379  -0.170  30.580  0.00  0.00    -0.351 OA
ATOM     41  C   UNL A   1     -29.964  -0.079  30.367  0.00  0.00    +0.145 C 
ATOM     42  C   UNL A   1     -32.216   0.394  29.545  0.00  0.00    +0.177 C 
ATOM     43  O   UNL A   1     -30.387   1.457  27.492  0.00  0.00    -0.220 OA
ATOM     44  C   UNL A   1     -31.861  -0.365  28.223  0.00  0.00    +0.211 C 
ATOM     45  O   UNL A   1     -31.829  -1.797  28.482  0.00  0.00    -0.218 OA
ENDBRANCH  37  39
ENDBRANCH  36  37
ENDBRANCH   5  36
TORSDOF 11
