REMARK  Name = outputs/IAG933/test6/raw/output_5056_IAG933_linker_design_.xyz
REMARK  16 active torsions:
REMARK  status: ('A' for Active; 'I' for Inactive)
REMARK    1  A    between atoms: C_1  and  C_2
REMARK    2  A    between atoms: C_1  and  C_8
REMARK    3  A    between atoms: C_1  and  C_47
REMARK    4  A    between atoms: C_13  and  C_46
REMARK    5  A    between atoms: C_14  and  C_15
REMARK    6  A    between atoms: C_21  and  O_22
REMARK    7  A    between atoms: O_22  and  C_23
REMARK    8  A    between atoms: C_23  and  C_24
REMARK    9  A    between atoms: N_29  and  C_46
REMARK   10  A    between atoms: N_29  and  C_47
REMARK   11  A    between atoms: C_30  and  C_33
REMARK   12  A    between atoms: C_30  and  N_34
REMARK   13  A    between atoms: C_36  and  C_38
REMARK   14  A    between atoms: C_36  and  C_47
REMARK   15  A    between atoms: O_39  and  C_45
REMARK   16  A    between atoms: C_45  and  C_46
REMARK                            x       y       z     vdW  Elec       q    Type
REMARK                         _______ _______ _______ _____ _____    ______ ____
ROOT
ATOM      1  C   UNL A   1     -25.757  -0.291  29.211  0.00  0.00    +0.079 C 
ENDROOT
BRANCH   1   2
ATOM      2  C   UNL A   1     -24.855  -1.012  30.143  0.00  0.00    +0.054 C 
BRANCH   2   3
ATOM      3  C   UNL A   1     -24.973  -2.505  29.788  0.00  0.00    -0.020 C 
ATOM      4  C   UNL A   1     -23.906  -3.173  29.146  0.00  0.00    -0.004 C 
ATOM      5  C   UNL A   1     -23.989  -4.549  28.853  0.00  0.00    -0.000 C 
ATOM      6  C   UNL A   1     -25.137  -5.280  29.205  0.00  0.00    -0.000 C 
ATOM      7  C   UNL A   1     -26.232  -4.611  29.784  0.00  0.00    -0.000 C 
ATOM      8  C   UNL A   1     -26.155  -3.232  30.065  0.00  0.00    -0.004 C 
ENDBRANCH   2   3
BRANCH   2   9
ATOM      9  C   UNL A   1     -25.387  -0.679  31.571  0.00  0.00    +0.078 C 
ATOM     10  C   UNL A   1     -25.189   0.773  32.028  0.00  0.00    +0.019 C 
ATOM     11  C   UNL A   1     -25.336   0.684  33.544  0.00  0.00    +0.020 C 
ATOM     12  C   UNL A   1     -24.829  -0.715  33.905  0.00  0.00    +0.089 C 
ATOM     13  N   UNL A   1     -24.758  -1.481  32.646  0.00  0.00    -0.219 NA
ENDBRANCH   2   9
ENDBRANCH   1   2
BRANCH   1  14
ATOM     14  N   UNL A   1     -25.735   1.054  28.679  0.00  0.00    -0.212 NA
BRANCH  14  15
ATOM     15  C   UNL A   1     -25.078   1.174  27.640  0.00  0.00    +0.147 C 
BRANCH  15  16
ATOM     16  C   UNL A   1     -25.688   1.614  26.461  0.00  0.00    +0.094 C 
ATOM     17  C   UNL A   1     -26.250   2.920  26.395  0.00  0.00    +0.057 C 
ATOM     18  C   UNL A   1     -27.438   3.091  25.645  0.00  0.00    +0.102 C 
ATOM     19  N   UNL A   1     -28.075   2.089  25.003  0.00  0.00    -0.212 NA
ATOM     20  C   UNL A   1     -27.543   0.849  25.079  0.00  0.00    +0.234 C 
ATOM     21  C   UNL A   1     -26.354   0.576  25.777  0.00  0.00    +0.242 C 
ATOM     22  F   UNL A   1     -25.860  -0.681  25.795  0.00  0.00    -0.227 F 
BRANCH  17  23
ATOM     23  C   UNL A   1     -25.642   4.093  27.123  0.00  0.00    +0.263 C 
ATOM     24  N   UNL A   1     -25.614   5.252  26.449  0.00  0.00    -0.200 NA
ATOM     25  C   UNL A   1     -25.026   6.479  26.963  0.00  0.00    +0.139 C 
ATOM     26  O   UNL A   1     -25.143   3.966  28.243  0.00  0.00    -0.269 OA
ENDBRANCH  17  23
BRANCH  20  27
ATOM     27  O   UNL A   1     -28.193  -0.208  24.477  0.00  0.00    -0.459 OA
BRANCH  27  28
ATOM     28  C   UNL A   1     -29.460   0.005  23.866  0.00  0.00    +0.242 C 
BRANCH  28  29
ATOM     29  C   UNL A   1     -30.065  -1.377  23.573  0.00  0.00    +0.229 C 
ATOM     30  O   UNL A   1     -30.729  -1.878  24.721  0.00  0.00    -0.216 OA
ENDBRANCH  28  29
ENDBRANCH  27  28
ENDBRANCH  20  27
ENDBRANCH  15  16
BRANCH  15  33
ATOM     31  C   UNL A   1     -22.979   0.232  28.615  0.00  0.00    +0.168 C 
ATOM     32  O   UNL A   1     -22.461  -0.388  29.290  0.00  0.00    -0.228 OA
ATOM     33  C   UNL A   1     -23.582   1.157  27.601  0.00  0.00    +0.206 C 
BRANCH  33  34
ATOM     34  O   UNL A   1     -22.805   1.561  26.680  0.00  0.00    -0.464 OA
ATOM     35  C   UNL A   1     -21.450   1.750  27.132  0.00  0.00    +0.253 C 
ENDBRANCH  33  34
ENDBRANCH  15  33
ENDBRANCH  14  15
ENDBRANCH   1  14
BRANCH   1  36
ATOM     36  C   UNL A   1     -27.165  -0.884  29.023  0.00  0.00    +0.021 C 
BRANCH  36  41
ATOM     37  C   UNL A   1     -29.537  -0.795  29.036  0.00  0.00    +0.228 C 
ATOM     38  N   UNL A   1     -30.637  -0.419  30.896  0.00  0.00    -0.278 N 
ATOM     39  O   UNL A   1     -29.956  -0.783  27.652  0.00  0.00    -0.213 OA
ATOM     40  C   UNL A   1     -30.212   1.089  30.623  0.00  0.00    +0.094 C 
ATOM     41  C   UNL A   1     -28.322   0.153  29.271  0.00  0.00    +0.043 C 
ATOM     42  O   UNL A   1     -29.297  -2.323  30.814  0.00  0.00    -0.272 OA
ATOM     43  C   UNL A   1     -28.821   0.999  30.563  0.00  0.00    +0.025 C 
ATOM     44  C   UNL A   1     -29.904  -1.379  30.222  0.00  0.00    +0.256 C 
BRANCH  38  45
ATOM     45  C   UNL A   1     -31.605  -1.381  31.791  0.00  0.00    +0.093 C 
BRANCH  45  46
ATOM     46  C   UNL A   1     -32.509  -0.463  32.634  0.00  0.00    +0.021 C 
ATOM     47  C   UNL A   1     -33.299  -1.057  33.753  0.00  0.00    +0.002 C 
ENDBRANCH  45  46
ENDBRANCH  38  45
ENDBRANCH  36  41
ENDBRANCH   1  36
TORSDOF 16
