MODEL 505
MODEL 1
REMARK VINA RESULT:    -7.621      0.000      0.000
REMARK INTER + INTRA:          -8.878
REMARK INTER:                  -8.512
REMARK INTRA:                  -0.367
REMARK UNBOUND:                -0.367
REMARK  Name = No_505-gen_results/8p0m/2024-11-27-11-27-31/
REMARK  2 active torsions:
REMARK  status: ('A' for Active; 'I' for Inactive)
REMARK    1  A    between atoms: C_7  and  C_8
REMARK    2  A    between atoms: C_11  and  C_15
REMARK                            x       y       z     vdW  Elec       q    Type
REMARK                         _______ _______ _______ _____ _____    ______ ____
ROOT
ATOM      1  F   UNL A   1     -23.385  -4.163  28.201  0.00  0.00    -0.202 F 
ATOM      2  C   UNL A   1     -24.331  -3.791  28.728  0.00  0.00    +0.169 A 
ATOM      3  C   UNL A   1     -25.184  -4.700  29.052  0.00  0.00    +0.168 A 
ATOM      4  C   UNL A   1     -26.448  -4.453  29.784  0.00  0.00    +0.043 A 
ATOM      5  C   UNL A   1     -26.675  -3.078  30.143  0.00  0.00    +0.060 A 
ATOM      6  C   UNL A   1     -25.701  -2.168  29.797  0.00  0.00    +0.015 A 
ATOM      7  C   UNL A   1     -24.552  -2.501  29.144  0.00  0.00    +0.048 A 
ATOM      8 CL   UNL A   1     -28.119  -2.681  30.941  0.00  0.00    -0.082 Cl
ATOM      9  F   UNL A   1     -25.068  -6.005  28.774  0.00  0.00    -0.202 F 
ENDROOT
BRANCH   7  10
ATOM     10  C   UNL A   1     -23.600  -1.442  28.879  0.00  0.00    +0.084 A 
ATOM     11  N   UNL A   1     -22.426  -1.407  29.224  0.00  0.00    -0.244 NA
ATOM     12  C   UNL A   1     -24.002  -0.302  28.082  0.00  0.00    +0.026 A 
ATOM     13  C   UNL A   1     -23.085   0.650  27.747  0.00  0.00    +0.083 A 
ATOM     14  C   UNL A   1     -21.448  -0.513  28.997  0.00  0.00    +0.099 A 
ATOM     15  C   UNL A   1     -21.813   0.580  28.225  0.00  0.00    +0.027 A 
BRANCH  13  16
ATOM     16  C   UNL A   1     -23.372   1.908  27.127  0.00  0.00    +0.388 C 
ATOM     17  O   UNL A   1     -23.091   2.105  25.959  0.00  0.00    -0.241 OA
ATOM     18  O   UNL A   1     -23.745   2.899  27.784  0.00  0.00    -0.241 OA
ENDBRANCH  13  16
ENDBRANCH   7  10
TORSDOF 2
ENDMDL
ENDMDL
