REMARK  Name = No_506-gen_results/8p0m/2024-11-27-11-27-31/
REMARK  2 active torsions:
REMARK  status: ('A' for Active; 'I' for Inactive)
REMARK    1  A    between atoms: C_3  and  C_10
REMARK    2  A    between atoms: C_5  and  N_7
REMARK                            x       y       z     vdW  Elec       q    Type
REMARK                         _______ _______ _______ _____ _____    ______ ____
ROOT
ATOM      1  C   UNL A   1     -28.016  -0.814  28.878  0.00  0.00    +0.001 A 
ATOM      2  C   UNL A   1     -27.064  -0.119  28.608  0.00  0.00    +0.000 A 
ATOM      3  C   UNL A   1     -26.972   0.714  27.506  0.00  0.00    +0.001 A 
ATOM      4  C   UNL A   1     -28.105   0.774  26.642  0.00  0.00    +0.015 A 
ATOM      5  C   UNL A   1     -29.204   0.118  27.048  0.00  0.00    +0.048 A 
ATOM      6  C   UNL A   1     -29.213  -0.609  28.128  0.00  0.00    +0.015 A 
ENDROOT
BRANCH   3   7
ATOM      7  C   UNL A   1     -25.655   1.386  27.107  0.00  0.00    +0.000 A 
ATOM      8  C   UNL A   1     -25.402   2.139  26.191  0.00  0.00    +0.000 A 
ATOM      9  C   UNL A   1     -24.259   2.838  26.183  0.00  0.00    +0.000 A 
ATOM     10  C   UNL A   1     -23.125   2.527  26.967  0.00  0.00    +0.000 A 
ATOM     11  C   UNL A   1     -23.334   1.503  27.923  0.00  0.00    +0.000 A 
ATOM     12  C   UNL A   1     -24.613   0.952  28.055  0.00  0.00    +0.000 A 
ENDBRANCH   3   7
BRANCH   5  13
ATOM     13  N   UNL A   1     -30.305   0.226  26.193  0.00  0.00    -0.304 N 
ATOM     14  C   UNL A   1     -30.206   0.016  24.903  0.00  0.00    +0.112 C 
ATOM     15  C   UNL A   1     -31.628   0.373  26.708  0.00  0.00    +0.112 C 
ENDBRANCH   5  13
TORSDOF 2
