REMARK  Name = No_507-gen_results/8p0m/2024-11-27-11-27-31/
REMARK  3 active torsions:
REMARK  status: ('A' for Active; 'I' for Inactive)
REMARK    1  A    between atoms: C_2  and  C_10
REMARK    2  A    between atoms: C_6  and  C_7
REMARK    3  A    between atoms: C_11  and  C_12
REMARK                            x       y       z     vdW  Elec       q    Type
REMARK                         _______ _______ _______ _____ _____    ______ ____
ROOT
ATOM      1  C   UNL A   1     -28.016  -0.814  28.878  0.00  0.00    +0.006 A 
ATOM      2  C   UNL A   1     -27.064  -0.119  28.608  0.00  0.00    +0.000 A 
ATOM      3  C   UNL A   1     -25.792  -0.430  29.076  0.00  0.00    +0.000 A 
ATOM      4  C   UNL A   1     -25.568  -1.241  29.757  0.00  0.00    +0.000 A 
ATOM      5  C   UNL A   1     -26.611  -2.184  30.244  0.00  0.00    +0.006 A 
ATOM      6  C   UNL A   1     -27.819  -1.919  29.803  0.00  0.00    +0.068 A 
ENDROOT
BRANCH   6   7
ATOM      7  C   UNL A   1     -28.916  -2.808  30.273  0.00  0.00    +0.333 C 
ATOM      8  O   UNL A   1     -28.740  -4.016  30.262  0.00  0.00    -0.254 OA
ATOM      9  F   UNL A   1     -29.767  -2.358  31.035  0.00  0.00    -0.159 F 
ENDBRANCH   6   7
BRANCH   2  10
ATOM     10  C   UNL A   1     -27.223   1.089  27.655  0.00  0.00    -0.000 C 
ATOM     11  C   UNL A   1     -26.887   2.042  27.535  0.00  0.00    -0.000 C 
BRANCH  11  12
ATOM     12  C   UNL A   1     -26.597   3.012  27.078  0.00  0.00    -0.005 C 
ATOM     13  C   UNL A   1     -27.011   3.699  26.240  0.00  0.00    -0.026 C 
ATOM     14  C   UNL A   1     -28.064   3.010  25.444  0.00  0.00    +0.031 C 
ENDBRANCH  11  12
ENDBRANCH   2  10
TORSDOF 3
