REMARK  Name = outputs/IAG933/test6/raw/output_5071_IAG933_linker_design_.xyz
REMARK  12 active torsions:
REMARK  status: ('A' for Active; 'I' for Inactive)
REMARK    1  A    between atoms: C_1  and  C_2
REMARK    2  A    between atoms: C_1  and  C_8
REMARK    3  A    between atoms: C_1  and  C_30
REMARK    4  A    between atoms: C_13  and  C_39
REMARK    5  A    between atoms: C_14  and  C_15
REMARK    6  A    between atoms: C_21  and  O_22
REMARK    7  A    between atoms: O_22  and  C_23
REMARK    8  A    between atoms: C_23  and  C_24
REMARK    9  A    between atoms: C_29  and  O_36
REMARK   10  A    between atoms: C_30  and  C_31
REMARK   11  A    between atoms: C_30  and  O_36
REMARK   12  A    between atoms: C_37  and  C_40
REMARK                            x       y       z     vdW  Elec       q    Type
REMARK                         _______ _______ _______ _____ _____    ______ ____
ROOT
ATOM      1  C   UNL A   1     -25.267  -0.070  28.867  0.00  0.00    +0.143 C 
ENDROOT
BRANCH   1   2
ATOM      2  C   UNL A   1     -24.093   0.634  28.109  0.00  0.00    +0.011 C 
ATOM      3  S   UNL A   1     -22.791   1.933  26.377  0.00  0.00    -0.087 S 
ATOM      4  C   UNL A   1     -24.326   1.334  26.991  0.00  0.00    +0.030 C 
ATOM      5  C   UNL A   1     -21.896   1.410  27.735  0.00  0.00    +0.035 C 
ATOM      6  C   UNL A   1     -22.796   0.754  28.646  0.00  0.00    +0.005 C 
BRANCH   4   7
ATOM      7  C   UNL A   1     -25.688   1.614  26.461  0.00  0.00    +0.044 C 
ATOM      8  C   UNL A   1     -26.250   2.920  26.395  0.00  0.00    +0.077 C 
ATOM      9  C   UNL A   1     -27.438   3.091  25.645  0.00  0.00    +0.107 C 
ATOM     10  N   UNL A   1     -28.075   2.089  25.003  0.00  0.00    -0.208 NA
ATOM     11  C   UNL A   1     -27.543   0.849  25.079  0.00  0.00    +0.253 C 
ATOM     12  C   UNL A   1     -26.354   0.576  25.777  0.00  0.00    +0.194 C 
ATOM     13  F   UNL A   1     -25.860  -0.681  25.795  0.00  0.00    -0.199 F 
BRANCH   8  14
ATOM     14  C   UNL A   1     -25.642   4.093  27.123  0.00  0.00    +0.266 C 
ATOM     15  N   UNL A   1     -25.614   5.252  26.449  0.00  0.00    -0.200 NA
ATOM     16  C   UNL A   1     -25.026   6.479  26.963  0.00  0.00    +0.139 C 
ATOM     17  O   UNL A   1     -25.143   3.966  28.243  0.00  0.00    -0.268 OA
ENDBRANCH   8  14
BRANCH  11  18
ATOM     18  O   UNL A   1     -28.193  -0.208  24.477  0.00  0.00    -0.456 OA
BRANCH  18  19
ATOM     19  C   UNL A   1     -29.460   0.005  23.866  0.00  0.00    +0.243 C 
BRANCH  19  20
ATOM     20  C   UNL A   1     -30.065  -1.377  23.573  0.00  0.00    +0.229 C 
ATOM     21  O   UNL A   1     -30.729  -1.878  24.721  0.00  0.00    -0.216 OA
ENDBRANCH  19  20
ENDBRANCH  18  19
ENDBRANCH  11  18
ENDBRANCH   4   7
ENDBRANCH   1   2
BRANCH   1  22
ATOM     22  C   UNL A   1     -24.855  -1.012  30.143  0.00  0.00    +0.070 C 
BRANCH  22  23
ATOM     23  C   UNL A   1     -24.973  -2.505  29.788  0.00  0.00    -0.018 C 
ATOM     24  C   UNL A   1     -23.906  -3.173  29.146  0.00  0.00    -0.004 C 
ATOM     25  C   UNL A   1     -23.989  -4.549  28.853  0.00  0.00    -0.000 C 
ATOM     26  C   UNL A   1     -25.137  -5.280  29.205  0.00  0.00    -0.000 C 
ATOM     27  C   UNL A   1     -26.232  -4.611  29.784  0.00  0.00    -0.000 C 
ATOM     28  C   UNL A   1     -26.155  -3.232  30.065  0.00  0.00    -0.004 C 
ENDBRANCH  22  23
BRANCH  22  29
ATOM     29  C   UNL A   1     -25.387  -0.679  31.571  0.00  0.00    +0.080 C 
ATOM     30  C   UNL A   1     -25.189   0.773  32.028  0.00  0.00    +0.019 C 
ATOM     31  C   UNL A   1     -25.336   0.684  33.544  0.00  0.00    +0.020 C 
ATOM     32  C   UNL A   1     -24.829  -0.715  33.905  0.00  0.00    +0.089 C 
ATOM     33  N   UNL A   1     -24.758  -1.481  32.646  0.00  0.00    -0.219 NA
ENDBRANCH  22  29
ENDBRANCH   1  22
BRANCH   1  34
ATOM     34  O   UNL A   1     -26.266   0.885  29.241  0.00  0.00    -0.354 OA
BRANCH  34  35
ATOM     35  C   UNL A   1     -27.670   0.715  29.343  0.00  0.00    +0.116 C 
ATOM     36  C   UNL A   1     -29.672   1.488  28.623  0.00  0.00    +0.005 C 
ATOM     37  C   UNL A   1     -28.355   2.009  28.964  0.00  0.00    +0.030 C 
ATOM     38  C   UNL A   1     -28.316  -0.466  28.595  0.00  0.00    +0.032 C 
ATOM     39  C   UNL A   1     -29.809   0.025  28.719  0.00  0.00    +0.033 C 
BRANCH  39  42
ATOM     40  O   UNL A   1     -31.986  -2.613  27.613  0.00  0.00    -0.220 OA
ATOM     41  C   UNL A   1     -32.641  -2.613  28.891  0.00  0.00    +0.185 C 
ATOM     42  C   UNL A   1     -30.775  -1.044  28.696  0.00  0.00    +0.155 C 
ATOM     43  O   UNL A   1     -31.069  -1.536  27.495  0.00  0.00    -0.223 OA
ATOM     44  C   UNL A   1     -31.669  -1.813  29.712  0.00  0.00    +0.068 C 
ENDBRANCH  39  42
ENDBRANCH  34  35
ENDBRANCH   1  34
TORSDOF 12
