REMARK  Name = outputs/IAG933/test6/raw/output_5072_IAG933_linker_design_.xyz
REMARK  15 active torsions:
REMARK  status: ('A' for Active; 'I' for Inactive)
REMARK    1  A    between atoms: C_1  and  C_2
REMARK    2  A    between atoms: C_1  and  C_8
REMARK    3  A    between atoms: C_1  and  O_41
REMARK    4  A    between atoms: C_13  and  C_28
REMARK    5  A    between atoms: C_14  and  C_15
REMARK    6  A    between atoms: C_21  and  O_22
REMARK    7  A    between atoms: O_22  and  C_23
REMARK    8  A    between atoms: C_23  and  C_24
REMARK    9  A    between atoms: C_28  and  N_35
REMARK   10  A    between atoms: O_29  and  C_34
REMARK   11  A    between atoms: O_29  and  C_38
REMARK   12  A    between atoms: N_35  and  C_36
REMARK   13  A    between atoms: C_36  and  C_40
REMARK   14  A    between atoms: C_36  and  O_41
REMARK   15  A    between atoms: C_38  and  C_40
REMARK                            x       y       z     vdW  Elec       q    Type
REMARK                         _______ _______ _______ _____ _____    ______ ____
ROOT
ATOM      1  C   UNL A   1     -24.728   0.747  28.586  0.00  0.00    +0.197 C 
ENDROOT
BRANCH   1   4
ATOM      2  C   UNL A   1     -21.624   1.742  26.459  0.00  0.00    +0.095 C 
ATOM      3  C   UNL A   1     -22.323   1.217  27.695  0.00  0.00    +0.228 C 
ATOM      4  N   UNL A   1     -23.701   1.196  27.649  0.00  0.00    -0.257 N 
ATOM      5  O   UNL A   1     -21.676   0.845  28.724  0.00  0.00    -0.275 OA
BRANCH   4   6
ATOM      6  C   UNL A   1     -24.137   1.491  26.610  0.00  0.00    +0.103 C 
BRANCH   6   7
ATOM      7  C   UNL A   1     -25.688   1.614  26.461  0.00  0.00    +0.090 C 
ATOM      8  C   UNL A   1     -26.250   2.920  26.395  0.00  0.00    +0.057 C 
ATOM      9  C   UNL A   1     -27.438   3.091  25.645  0.00  0.00    +0.102 C 
ATOM     10  N   UNL A   1     -28.075   2.089  25.003  0.00  0.00    -0.212 NA
ATOM     11  C   UNL A   1     -27.543   0.849  25.079  0.00  0.00    +0.234 C 
ATOM     12  C   UNL A   1     -26.354   0.576  25.777  0.00  0.00    +0.242 C 
ATOM     13  F   UNL A   1     -25.860  -0.681  25.795  0.00  0.00    -0.227 F 
BRANCH   8  14
ATOM     14  C   UNL A   1     -25.642   4.093  27.123  0.00  0.00    +0.263 C 
ATOM     15  N   UNL A   1     -25.614   5.252  26.449  0.00  0.00    -0.200 NA
ATOM     16  C   UNL A   1     -25.026   6.479  26.963  0.00  0.00    +0.139 C 
ATOM     17  O   UNL A   1     -25.143   3.966  28.243  0.00  0.00    -0.269 OA
ENDBRANCH   8  14
BRANCH  11  18
ATOM     18  O   UNL A   1     -28.193  -0.208  24.477  0.00  0.00    -0.459 OA
BRANCH  18  19
ATOM     19  C   UNL A   1     -29.460   0.005  23.866  0.00  0.00    +0.242 C 
BRANCH  19  20
ATOM     20  C   UNL A   1     -30.065  -1.377  23.573  0.00  0.00    +0.229 C 
ATOM     21  O   UNL A   1     -30.729  -1.878  24.721  0.00  0.00    -0.216 OA
ENDBRANCH  19  20
ENDBRANCH  18  19
ENDBRANCH  11  18
ENDBRANCH   6   7
ENDBRANCH   4   6
ENDBRANCH   1   4
BRANCH   1  22
ATOM     22  C   UNL A   1     -24.718   1.187  29.915  0.00  0.00    +0.083 C 
BRANCH  22  23
ATOM     23  C   UNL A   1     -24.287   2.579  30.591  0.00  0.00    +0.146 C 
BRANCH  23  24
ATOM     24  O   UNL A   1     -25.059   3.805  30.580  0.00  0.00    -0.353 OA
BRANCH  24  27
ATOM     25  C   UNL A   1     -27.691   3.926  31.676  0.00  0.00    +0.145 C 
ATOM     26  O   UNL A   1     -27.545   4.802  30.509  0.00  0.00    -0.351 OA
ATOM     27  C   UNL A   1     -25.519   4.813  31.533  0.00  0.00    +0.147 C 
ATOM     28  C   UNL A   1     -26.425   5.724  30.702  0.00  0.00    +0.172 C 
ATOM     29  C   UNL A   1     -26.456   4.153  32.563  0.00  0.00    +0.064 C 
ENDBRANCH  24  27
ENDBRANCH  23  24
ENDBRANCH  22  23
ENDBRANCH   1  22
BRANCH   1  30
ATOM     30  O   UNL A   1     -24.046  -0.087  29.535  0.00  0.00    -0.334 OA
BRANCH  30  31
ATOM     31  C   UNL A   1     -24.855  -1.012  30.143  0.00  0.00    +0.155 C 
BRANCH  31  32
ATOM     32  C   UNL A   1     -24.973  -2.505  29.788  0.00  0.00    +0.006 C 
ATOM     33  C   UNL A   1     -23.906  -3.173  29.146  0.00  0.00    -0.002 C 
ATOM     34  C   UNL A   1     -23.989  -4.549  28.853  0.00  0.00    -0.000 C 
ATOM     35  C   UNL A   1     -25.137  -5.280  29.205  0.00  0.00    -0.000 C 
ATOM     36  C   UNL A   1     -26.232  -4.611  29.784  0.00  0.00    -0.000 C 
ATOM     37  C   UNL A   1     -26.155  -3.232  30.065  0.00  0.00    -0.002 C 
ENDBRANCH  31  32
BRANCH  31  38
ATOM     38  C   UNL A   1     -25.387  -0.679  31.571  0.00  0.00    +0.104 C 
ATOM     39  C   UNL A   1     -25.189   0.773  32.028  0.00  0.00    +0.022 C 
ATOM     40  C   UNL A   1     -25.336   0.684  33.544  0.00  0.00    +0.020 C 
ATOM     41  C   UNL A   1     -24.829  -0.715  33.905  0.00  0.00    +0.089 C 
ATOM     42  N   UNL A   1     -24.758  -1.481  32.646  0.00  0.00    -0.217 NA
ENDBRANCH  31  38
ENDBRANCH  30  31
ENDBRANCH   1  30
TORSDOF 15
