REMARK  Name = outputs/IAG933/test6/raw/output_5075_IAG933_linker_design_.xyz
REMARK  14 active torsions:
REMARK  status: ('A' for Active; 'I' for Inactive)
REMARK    1  A    between atoms: C_1  and  C_2
REMARK    2  A    between atoms: C_1  and  C_8
REMARK    3  A    between atoms: C_1  and  C_35
REMARK    4  A    between atoms: C_13  and  C_42
REMARK    5  A    between atoms: C_14  and  C_15
REMARK    6  A    between atoms: C_21  and  O_22
REMARK    7  A    between atoms: O_22  and  C_23
REMARK    8  A    between atoms: C_23  and  C_24
REMARK    9  A    between atoms: C_29  and  C_30
REMARK   10  A    between atoms: C_30  and  C_43
REMARK   11  A    between atoms: C_34  and  N_41
REMARK   12  A    between atoms: C_35  and  N_39
REMARK   13  A    between atoms: C_35  and  N_41
REMARK   14  A    between atoms: N_39  and  C_43
REMARK                            x       y       z     vdW  Elec       q    Type
REMARK                         _______ _______ _______ _____ _____    ______ ____
ROOT
ATOM      1  N   UNL A   1     -25.029  -0.397  28.270  0.00  0.00    -0.202 NA
ENDROOT
BRANCH   1   5
ATOM      2  S   UNL A   1     -21.878   1.229  27.908  0.00  0.00    -0.123 S 
ATOM      3  C   UNL A   1     -22.966   1.846  26.783  0.00  0.00    +0.132 C 
ATOM      4 CL   UNL A   1     -22.453   2.554  25.226  0.00  0.00    -0.103 Cl
ATOM      5  C   UNL A   1     -24.475   0.920  28.478  0.00  0.00    +0.091 C 
ATOM      6  C   UNL A   1     -23.103   0.650  29.088  0.00  0.00    +0.076 C 
ATOM      7  C   UNL A   1     -24.253   1.258  26.902  0.00  0.00    +0.067 C 
BRANCH   7   8
ATOM      8  C   UNL A   1     -25.688   1.614  26.461  0.00  0.00    +0.019 C 
ATOM      9  C   UNL A   1     -26.250   2.920  26.395  0.00  0.00    +0.073 C 
ATOM     10  C   UNL A   1     -27.438   3.091  25.645  0.00  0.00    +0.106 C 
ATOM     11  N   UNL A   1     -28.075   2.089  25.003  0.00  0.00    -0.208 NA
ATOM     12  C   UNL A   1     -27.543   0.849  25.079  0.00  0.00    +0.253 C 
ATOM     13  C   UNL A   1     -26.354   0.576  25.777  0.00  0.00    +0.189 C 
ATOM     14  F   UNL A   1     -25.860  -0.681  25.795  0.00  0.00    -0.200 F 
BRANCH   9  15
ATOM     15  C   UNL A   1     -25.642   4.093  27.123  0.00  0.00    +0.266 C 
ATOM     16  N   UNL A   1     -25.614   5.252  26.449  0.00  0.00    -0.200 NA
ATOM     17  C   UNL A   1     -25.026   6.479  26.963  0.00  0.00    +0.139 C 
ATOM     18  O   UNL A   1     -25.143   3.966  28.243  0.00  0.00    -0.268 OA
ENDBRANCH   9  15
BRANCH  12  19
ATOM     19  O   UNL A   1     -28.193  -0.208  24.477  0.00  0.00    -0.456 OA
BRANCH  19  20
ATOM     20  C   UNL A   1     -29.460   0.005  23.866  0.00  0.00    +0.243 C 
BRANCH  20  21
ATOM     21  C   UNL A   1     -30.065  -1.377  23.573  0.00  0.00    +0.229 C 
ATOM     22  O   UNL A   1     -30.729  -1.878  24.721  0.00  0.00    -0.216 OA
ENDBRANCH  20  21
ENDBRANCH  19  20
ENDBRANCH  12  19
ENDBRANCH   7   8
ENDBRANCH   1   5
BRANCH   1  23
ATOM     23  C   UNL A   1     -25.883  -0.493  29.085  0.00  0.00    +0.153 C 
BRANCH  23  24
ATOM     24  C   UNL A   1     -24.855  -1.012  30.143  0.00  0.00    +0.071 C 
BRANCH  24  25
ATOM     25  C   UNL A   1     -24.973  -2.505  29.788  0.00  0.00    -0.018 C 
ATOM     26  C   UNL A   1     -23.906  -3.173  29.146  0.00  0.00    -0.004 C 
ATOM     27  C   UNL A   1     -23.989  -4.549  28.853  0.00  0.00    -0.000 C 
ATOM     28  C   UNL A   1     -25.137  -5.280  29.205  0.00  0.00    -0.000 C 
ATOM     29  C   UNL A   1     -26.232  -4.611  29.784  0.00  0.00    -0.000 C 
ATOM     30  C   UNL A   1     -26.155  -3.232  30.065  0.00  0.00    -0.004 C 
ENDBRANCH  24  25
BRANCH  24  31
ATOM     31  C   UNL A   1     -25.387  -0.679  31.571  0.00  0.00    +0.080 C 
ATOM     32  C   UNL A   1     -25.189   0.773  32.028  0.00  0.00    +0.019 C 
ATOM     33  C   UNL A   1     -25.336   0.684  33.544  0.00  0.00    +0.020 C 
ATOM     34  C   UNL A   1     -24.829  -0.715  33.905  0.00  0.00    +0.089 C 
ATOM     35  N   UNL A   1     -24.758  -1.481  32.646  0.00  0.00    -0.219 NA
ENDBRANCH  24  31
ENDBRANCH  23  24
BRANCH  23  36
ATOM     36  N   UNL A   1     -27.265  -0.402  29.083  0.00  0.00    -0.174 NA
BRANCH  36  39
ATOM     37  O   UNL A   1     -28.159   1.450  28.024  0.00  0.00    -0.205 OA
ATOM     38  C   UNL A   1     -28.673   1.662  30.114  0.00  0.00    +0.054 C 
ATOM     39  C   UNL A   1     -28.373   0.650  29.126  0.00  0.00    +0.220 C 
BRANCH  39  40
ATOM     40  C   UNL A   1     -29.707  -0.179  28.895  0.00  0.00    +0.237 C 
ATOM     41  F   UNL A   1     -29.901  -0.377  27.472  0.00  0.00    -0.230 F 
BRANCH  40  42
ATOM     42  C   UNL A   1     -29.660  -1.497  29.644  0.00  0.00    +0.221 C 
ATOM     43  O   UNL A   1     -29.055  -1.557  30.958  0.00  0.00    -0.217 OA
ENDBRANCH  40  42
ENDBRANCH  39  40
ENDBRANCH  36  39
ENDBRANCH  23  36
ENDBRANCH   1  23
TORSDOF 14
