REMARK  Name = outputs/IAG933/test6/raw/output_5077_IAG933_linker_design_.xyz
REMARK  13 active torsions:
REMARK  status: ('A' for Active; 'I' for Inactive)
REMARK    1  A    between atoms: C_1  and  C_2
REMARK    2  A    between atoms: C_1  and  C_8
REMARK    3  A    between atoms: C_1  and  N_32
REMARK    4  A    between atoms: C_13  and  C_41
REMARK    5  A    between atoms: C_14  and  C_15
REMARK    6  A    between atoms: C_15  and  O_18
REMARK    7  A    between atoms: O_18  and  C_38
REMARK    8  A    between atoms: C_21  and  O_22
REMARK    9  A    between atoms: O_22  and  C_23
REMARK   10  A    between atoms: C_23  and  C_24
REMARK   11  A    between atoms: C_33  and  C_43
REMARK   12  A    between atoms: C_38  and  C_43
REMARK   13  A    between atoms: C_39  and  C_44
REMARK                            x       y       z     vdW  Elec       q    Type
REMARK                         _______ _______ _______ _____ _____    ______ ____
ROOT
ATOM      1  C   UNL A   1     -25.688   1.614  26.461  0.00  0.00    +0.045 C 
ATOM      2  C   UNL A   1     -26.250   2.920  26.395  0.00  0.00    +0.073 C 
ATOM      3  C   UNL A   1     -27.438   3.091  25.645  0.00  0.00    +0.107 C 
ATOM      4  N   UNL A   1     -28.075   2.089  25.003  0.00  0.00    -0.208 NA
ATOM      5  C   UNL A   1     -27.543   0.849  25.079  0.00  0.00    +0.253 C 
ATOM      6  C   UNL A   1     -26.354   0.576  25.777  0.00  0.00    +0.192 C 
ATOM      7  F   UNL A   1     -25.860  -0.681  25.795  0.00  0.00    -0.200 F 
ENDROOT
BRANCH   1  12
ATOM      8  N   UNL A   1     -22.916   0.319  29.684  0.00  0.00    -0.121 NA
ATOM      9  C   UNL A   1     -22.935   1.404  29.633  0.00  0.00    +0.122 C 
ATOM     10  N   UNL A   1     -24.006  -0.180  29.202  0.00  0.00    -0.088 NA
ATOM     11  O   UNL A   1     -24.752   0.059  27.985  0.00  0.00    -0.264 OA
ATOM     12  C   UNL A   1     -24.580   1.285  27.393  0.00  0.00    +0.173 C 
ATOM     13  C   UNL A   1     -23.428   2.046  28.138  0.00  0.00    +0.126 C 
BRANCH  13  15
ATOM     14  O   UNL A   1     -21.128   1.537  27.780  0.00  0.00    -0.279 OA
ATOM     15  C   UNL A   1     -22.248   1.813  27.291  0.00  0.00    +0.234 C 
ATOM     16 CL   UNL A   1     -22.450   2.182  25.729  0.00  0.00    -0.043 Cl
ENDBRANCH  13  15
BRANCH  10  17
ATOM     17  C   UNL A   1     -24.855  -1.012  30.143  0.00  0.00    +0.140 C 
BRANCH  17  18
ATOM     18  C   UNL A   1     -24.973  -2.505  29.788  0.00  0.00    -0.003 C 
ATOM     19  C   UNL A   1     -23.906  -3.173  29.146  0.00  0.00    -0.003 C 
ATOM     20  C   UNL A   1     -23.989  -4.549  28.853  0.00  0.00    -0.000 C 
ATOM     21  C   UNL A   1     -25.137  -5.280  29.205  0.00  0.00    -0.000 C 
ATOM     22  C   UNL A   1     -26.232  -4.611  29.784  0.00  0.00    -0.000 C 
ATOM     23  C   UNL A   1     -26.155  -3.232  30.065  0.00  0.00    -0.003 C 
ENDBRANCH  17  18
BRANCH  17  24
ATOM     24  C   UNL A   1     -25.387  -0.679  31.571  0.00  0.00    +0.095 C 
ATOM     25  C   UNL A   1     -25.189   0.773  32.028  0.00  0.00    +0.021 C 
ATOM     26  C   UNL A   1     -25.336   0.684  33.544  0.00  0.00    +0.020 C 
ATOM     27  C   UNL A   1     -24.829  -0.715  33.905  0.00  0.00    +0.089 C 
ATOM     28  N   UNL A   1     -24.758  -1.481  32.646  0.00  0.00    -0.218 NA
ENDBRANCH  17  24
ENDBRANCH  10  17
ENDBRANCH   1  12
BRANCH   2  29
ATOM     29  C   UNL A   1     -25.642   4.093  27.123  0.00  0.00    +0.222 C 
ATOM     30  N   UNL A   1     -25.614   5.252  26.449  0.00  0.00    -0.236 NA
ATOM     31  C   UNL A   1     -25.026   6.479  26.963  0.00  0.00    +0.155 C 
BRANCH  29  32
ATOM     32  O   UNL A   1     -25.143   3.966  28.243  0.00  0.00    -0.452 OA
BRANCH  32  33
ATOM     33  C   UNL A   1     -25.396   3.419  29.520  0.00  0.00    +0.275 C 
BRANCH  33  35
ATOM     34  O   UNL A   1     -26.121   5.047  30.890  0.00  0.00    -0.287 OA
ATOM     35  C   UNL A   1     -26.426   3.980  30.352  0.00  0.00    +0.218 C 
BRANCH  35  38
ATOM     36  C   UNL A   1     -28.854   3.789  31.122  0.00  0.00    +0.062 C 
ATOM     37  C   UNL A   1     -28.770   5.048  31.898  0.00  0.00    +0.052 C 
ATOM     38  C   UNL A   1     -27.686   3.201  30.585  0.00  0.00    +0.052 C 
ATOM     39  C   UNL A   1     -27.888   1.881  30.165  0.00  0.00    +0.006 C 
ATOM     40  C   UNL A   1     -29.187   1.371  30.015  0.00  0.00    +0.021 C 
ATOM     41  N   UNL A   1     -30.111   3.347  30.870  0.00  0.00    -0.248 NA
ATOM     42  C   UNL A   1     -30.304   2.118  30.363  0.00  0.00    +0.098 C 
ENDBRANCH  35  38
ENDBRANCH  33  35
ENDBRANCH  32  33
ENDBRANCH  29  32
ENDBRANCH   2  29
BRANCH   5  43
ATOM     43  O   UNL A   1     -28.193  -0.208  24.477  0.00  0.00    -0.456 OA
BRANCH  43  44
ATOM     44  C   UNL A   1     -29.460   0.005  23.866  0.00  0.00    +0.243 C 
BRANCH  44  45
ATOM     45  C   UNL A   1     -30.065  -1.377  23.573  0.00  0.00    +0.229 C 
ATOM     46  O   UNL A   1     -30.729  -1.878  24.721  0.00  0.00    -0.216 OA
ENDBRANCH  44  45
ENDBRANCH  43  44
ENDBRANCH   5  43
TORSDOF 13
