MODEL 507
MODEL 1
REMARK VINA RESULT:    -6.445      0.000      0.000
REMARK INTER + INTRA:          -8.010
REMARK INTER:                  -7.575
REMARK INTRA:                  -0.435
REMARK UNBOUND:                -0.435
REMARK  Name = No_507-gen_results/8p0m/2024-11-27-11-27-31/
REMARK  3 active torsions:
REMARK  status: ('A' for Active; 'I' for Inactive)
REMARK    1  A    between atoms: C_2  and  C_10
REMARK    2  A    between atoms: C_6  and  C_7
REMARK    3  A    between atoms: C_11  and  C_12
REMARK                            x       y       z     vdW  Elec       q    Type
REMARK                         _______ _______ _______ _____ _____    ______ ____
ROOT
ATOM      1  C   UNL A   1     -24.092   0.098  28.191  0.00  0.00    +0.006 A 
ATOM      2  C   UNL A   1     -23.772  -0.871  28.839  0.00  0.00    +0.000 A 
ATOM      3  C   UNL A   1     -22.451  -1.072  29.226  0.00  0.00    +0.000 A 
ATOM      4  C   UNL A   1     -21.620  -0.446  28.927  0.00  0.00    +0.000 A 
ATOM      5  C   UNL A   1     -21.800   0.772  28.091  0.00  0.00    +0.006 A 
ATOM      6  C   UNL A   1     -23.042   0.991  27.725  0.00  0.00    +0.068 A 
ENDROOT
BRANCH   6   7
ATOM      7  C   UNL A   1     -23.290   2.179  26.864  0.00  0.00    +0.333 C 
ATOM      8  O   UNL A   1     -23.827   3.159  27.355  0.00  0.00    -0.254 OA
ATOM      9  F   UNL A   1     -22.609   2.340  25.856  0.00  0.00    -0.159 F 
ENDBRANCH   6   7
BRANCH   2  10
ATOM     10  C   UNL A   1     -24.844  -1.871  29.333  0.00  0.00    -0.000 C 
ATOM     11  C   UNL A   1     -25.143  -2.833  29.190  0.00  0.00    -0.000 C 
BRANCH  11  12
ATOM     12  C   UNL A   1     -25.587  -3.838  29.352  0.00  0.00    -0.005 C 
ATOM     13  C   UNL A   1     -25.246  -4.937  29.205  0.00  0.00    -0.026 C 
ATOM     14  C   UNL A   1     -23.989  -5.014  28.410  0.00  0.00    +0.031 C 
ENDBRANCH  11  12
ENDBRANCH   2  10
TORSDOF 3
ENDMDL
ENDMDL
