REMARK  Name = No_508-gen_results/8p0m/2024-11-27-11-27-31/
REMARK  4 active torsions:
REMARK  status: ('A' for Active; 'I' for Inactive)
REMARK    1  A    between atoms: C_2  and  C_5
REMARK    2  A    between atoms: C_4  and  C_10
REMARK    3  A    between atoms: C_11  and  C_12
REMARK    4  A    between atoms: C_13  and  C_14
REMARK                            x       y       z     vdW  Elec       q    Type
REMARK                         _______ _______ _______ _____ _____    ______ ____
ROOT
ATOM      1  C   UNL A   1     -28.016  -0.814  28.878  0.00  0.00    +0.007 A 
ATOM      2  C   UNL A   1     -28.469  -0.785  29.829  0.00  0.00    +0.080 A 
ATOM      3  C   UNL A   1     -27.087   0.290  28.638  0.00  0.00    +0.009 A 
ATOM      4  C   UNL A   1     -26.024   0.364  29.253  0.00  0.00    +0.042 A 
ATOM      5  C   UNL A   1     -26.233   0.142  30.773  0.00  0.00    +0.009 A 
ATOM      6  C   UNL A   1     -27.391  -0.753  31.013  0.00  0.00    +0.007 A 
ENDROOT
BRANCH   2   7
ATOM      7  C   UNL A   1     -29.416  -1.928  30.175  0.00  0.00    +0.388 C 
ATOM      8  O   UNL A   1     -29.220  -2.995  30.448  0.00  0.00    -0.241 OA
ATOM      9  O   UNL A   1     -30.704  -1.477  30.160  0.00  0.00    -0.241 OA
ENDBRANCH   2   7
BRANCH   4  10
ATOM     10  C   UNL A   1     -24.691   0.241  29.061  0.00  0.00    -0.060 C 
ATOM     11  C   UNL A   1     -23.797   0.791  28.901  0.00  0.00    -0.059 C 
BRANCH  11  12
ATOM     12  C   UNL A   1     -22.376   0.506  28.563  0.00  0.00    +0.050 C 
ATOM     13  C   UNL A   1     -21.352   1.326  28.232  0.00  0.00    +0.009 C 
BRANCH  13  14
ATOM     14  C   UNL A   1     -21.844   2.663  27.844  0.00  0.00    +0.001 C 
ATOM     15  C   UNL A   1     -23.188   2.947  27.837  0.00  0.00    +0.000 C 
ENDBRANCH  13  14
ENDBRANCH  11  12
ENDBRANCH   4  10
TORSDOF 4
