REMARK  Name = outputs/IAG933/test6/raw/output_5081_IAG933_linker_design_.xyz
REMARK  15 active torsions:
REMARK  status: ('A' for Active; 'I' for Inactive)
REMARK    1  A    between atoms: C_1  and  C_2
REMARK    2  A    between atoms: C_1  and  C_8
REMARK    3  A    between atoms: C_1  and  C_40
REMARK    4  A    between atoms: C_13  and  N_42
REMARK    5  A    between atoms: C_14  and  C_15
REMARK    6  A    between atoms: C_21  and  O_22
REMARK    7  A    between atoms: O_22  and  C_23
REMARK    8  A    between atoms: C_23  and  C_24
REMARK    9  A    between atoms: C_28  and  C_33
REMARK   10  A    between atoms: C_30  and  C_40
REMARK   11  A    between atoms: C_32  and  C_33
REMARK   12  A    between atoms: C_35  and  C_39
REMARK   13  A    between atoms: C_35  and  C_44
REMARK   14  A    between atoms: C_39  and  C_40
REMARK   15  A    between atoms: N_43  and  C_44
REMARK                            x       y       z     vdW  Elec       q    Type
REMARK                         _______ _______ _______ _____ _____    ______ ____
ROOT
ATOM      1  C   UNL A   1     -25.613  -0.149  29.042  0.00  0.00    +0.026 C 
ENDROOT
BRANCH   1   3
ATOM      2  C   UNL A   1     -23.094   0.196  28.543  0.00  0.00    +0.172 C 
ATOM      3  C   UNL A   1     -24.632   0.651  28.451  0.00  0.00    +0.103 C 
ATOM      4  C   UNL A   1     -22.303   1.357  28.005  0.00  0.00    +0.052 C 
ATOM      5  C   UNL A   1     -20.793   1.451  27.707  0.00  0.00    +0.004 C 
ATOM      6  O   UNL A   1     -22.488  -0.176  29.706  0.00  0.00    -0.221 OA
ATOM      7  C   UNL A   1     -23.087   1.582  26.704  0.00  0.00    +0.093 C 
ATOM      8  N   UNL A   1     -24.387   1.289  27.105  0.00  0.00    -0.304 N 
BRANCH   8   9
ATOM      9  C   UNL A   1     -25.688   1.614  26.461  0.00  0.00    +0.086 C 
ATOM     10  C   UNL A   1     -26.250   2.920  26.395  0.00  0.00    +0.090 C 
ATOM     11  C   UNL A   1     -27.438   3.091  25.645  0.00  0.00    +0.108 C 
ATOM     12  N   UNL A   1     -28.075   2.089  25.003  0.00  0.00    -0.208 NA
ATOM     13  C   UNL A   1     -27.543   0.849  25.079  0.00  0.00    +0.255 C 
ATOM     14  C   UNL A   1     -26.354   0.576  25.777  0.00  0.00    +0.206 C 
ATOM     15  F   UNL A   1     -25.860  -0.681  25.795  0.00  0.00    -0.198 F 
BRANCH  10  16
ATOM     16  C   UNL A   1     -25.642   4.093  27.123  0.00  0.00    +0.268 C 
ATOM     17  N   UNL A   1     -25.614   5.252  26.449  0.00  0.00    -0.200 NA
ATOM     18  C   UNL A   1     -25.026   6.479  26.963  0.00  0.00    +0.139 C 
ATOM     19  O   UNL A   1     -25.143   3.966  28.243  0.00  0.00    -0.268 OA
ENDBRANCH  10  16
BRANCH  13  20
ATOM     20  O   UNL A   1     -28.193  -0.208  24.477  0.00  0.00    -0.456 OA
BRANCH  20  21
ATOM     21  C   UNL A   1     -29.460   0.005  23.866  0.00  0.00    +0.243 C 
BRANCH  21  22
ATOM     22  C   UNL A   1     -30.065  -1.377  23.573  0.00  0.00    +0.229 C 
ATOM     23  O   UNL A   1     -30.729  -1.878  24.721  0.00  0.00    -0.216 OA
ENDBRANCH  21  22
ENDBRANCH  20  21
ENDBRANCH  13  20
ENDBRANCH   8   9
ENDBRANCH   1   3
BRANCH   1  24
ATOM     24  C   UNL A   1     -24.855  -1.012  30.143  0.00  0.00    +0.040 C 
BRANCH  24  25
ATOM     25  C   UNL A   1     -24.973  -2.505  29.788  0.00  0.00    -0.021 C 
ATOM     26  C   UNL A   1     -23.906  -3.173  29.146  0.00  0.00    -0.004 C 
ATOM     27  C   UNL A   1     -23.989  -4.549  28.853  0.00  0.00    -0.000 C 
ATOM     28  C   UNL A   1     -25.137  -5.280  29.205  0.00  0.00    -0.000 C 
ATOM     29  C   UNL A   1     -26.232  -4.611  29.784  0.00  0.00    -0.000 C 
ATOM     30  C   UNL A   1     -26.155  -3.232  30.065  0.00  0.00    -0.004 C 
ENDBRANCH  24  25
BRANCH  24  31
ATOM     31  C   UNL A   1     -25.387  -0.679  31.571  0.00  0.00    +0.077 C 
ATOM     32  C   UNL A   1     -25.189   0.773  32.028  0.00  0.00    +0.019 C 
ATOM     33  C   UNL A   1     -25.336   0.684  33.544  0.00  0.00    +0.020 C 
ATOM     34  C   UNL A   1     -24.829  -0.715  33.905  0.00  0.00    +0.089 C 
ATOM     35  N   UNL A   1     -24.758  -1.481  32.646  0.00  0.00    -0.219 NA
ENDBRANCH  24  31
ENDBRANCH   1  24
BRANCH   1  36
ATOM     36  C   UNL A   1     -27.134  -0.236  29.321  0.00  0.00    +0.004 C 
BRANCH  36  37
ATOM     37  C   UNL A   1     -27.785   0.941  29.910  0.00  0.00    +0.022 C 
BRANCH  37  38
ATOM     38  C   UNL A   1     -28.777   0.916  28.837  0.00  0.00    +0.093 C 
BRANCH  38  41
ATOM     39  C   UNL A   1     -30.008  -1.320  29.649  0.00  0.00    +0.230 C 
ATOM     40  O   UNL A   1     -29.593  -1.527  30.828  0.00  0.00    -0.275 OA
ATOM     41  N   UNL A   1     -29.583  -0.326  28.736  0.00  0.00    -0.278 N 
ATOM     42  C   UNL A   1     -30.336  -0.206  27.443  0.00  0.00    +0.115 C 
BRANCH  39  43
ATOM     43  C   UNL A   1     -31.086  -2.171  29.227  0.00  0.00    +0.111 C 
BRANCH  43  44
ATOM     44  C   UNL A   1     -31.165  -3.565  29.769  0.00  0.00    -0.017 C 
ATOM     45  C   UNL A   1     -30.662  -4.337  30.574  0.00  0.00    -0.004 C 
ENDBRANCH  43  44
ENDBRANCH  39  43
ENDBRANCH  38  41
ENDBRANCH  37  38
ENDBRANCH  36  37
ENDBRANCH   1  36
TORSDOF 15
