REMARK  Name = outputs/IAG933/test6/raw/output_5082_IAG933_linker_design_.xyz
REMARK  9 active torsions:
REMARK  status: ('A' for Active; 'I' for Inactive)
REMARK    1  A    between atoms: C_1  and  C_2
REMARK    2  A    between atoms: C_1  and  C_8
REMARK    3  A    between atoms: C_1  and  N_34
REMARK    4  A    between atoms: C_13  and  C_41
REMARK    5  A    between atoms: C_14  and  C_15
REMARK    6  A    between atoms: C_21  and  O_22
REMARK    7  A    between atoms: O_22  and  C_23
REMARK    8  A    between atoms: C_23  and  C_24
REMARK    9  A    between atoms: C_35  and  C_40
REMARK                            x       y       z     vdW  Elec       q    Type
REMARK                         _______ _______ _______ _____ _____    ______ ____
ROOT
ATOM      1  C   UNL A   1     -22.615   1.065  27.936  0.00  0.00    +0.081 C 
ATOM      2  C   UNL A   1     -23.066   0.260  29.061  0.00  0.00    +0.229 C 
ATOM      3  C   UNL A   1     -21.158   1.469  27.824  0.00  0.00    +0.010 C 
ATOM      4  O   UNL A   1     -22.197  -0.191  29.817  0.00  0.00    -0.275 OA
ATOM      5  N   UNL A   1     -24.421   0.000  29.239  0.00  0.00    -0.257 N 
ATOM      6  C   UNL A   1     -25.389   0.676  28.523  0.00  0.00    +0.054 C 
ATOM      7  C   UNL A   1     -23.497   1.421  26.970  0.00  0.00    +0.036 C 
ATOM      8  C   UNL A   1     -24.806   1.234  27.327  0.00  0.00    -0.011 C 
ENDROOT
BRANCH   8   9
ATOM      9  C   UNL A   1     -25.688   1.614  26.461  0.00  0.00    +0.018 C 
ATOM     10  C   UNL A   1     -26.250   2.920  26.395  0.00  0.00    +0.056 C 
ATOM     11  C   UNL A   1     -27.438   3.091  25.645  0.00  0.00    +0.159 C 
ATOM     12  N   UNL A   1     -28.075   2.089  25.003  0.00  0.00    -0.234 NA
ATOM     13  C   UNL A   1     -27.543   0.849  25.079  0.00  0.00    +0.234 C 
ATOM     14  C   UNL A   1     -26.354   0.576  25.777  0.00  0.00    +0.258 C 
ATOM     15  F   UNL A   1     -25.860  -0.681  25.795  0.00  0.00    -0.222 F 
BRANCH  10  16
ATOM     16  C   UNL A   1     -25.642   4.093  27.123  0.00  0.00    +0.263 C 
ATOM     17  N   UNL A   1     -25.614   5.252  26.449  0.00  0.00    -0.200 NA
ATOM     18  C   UNL A   1     -25.026   6.479  26.963  0.00  0.00    +0.139 C 
ATOM     19  O   UNL A   1     -25.143   3.966  28.243  0.00  0.00    -0.269 OA
ENDBRANCH  10  16
BRANCH  13  20
ATOM     20  O   UNL A   1     -28.193  -0.208  24.477  0.00  0.00    -0.459 OA
BRANCH  20  21
ATOM     21  C   UNL A   1     -29.460   0.005  23.866  0.00  0.00    +0.242 C 
BRANCH  21  22
ATOM     22  C   UNL A   1     -30.065  -1.377  23.573  0.00  0.00    +0.229 C 
ATOM     23  O   UNL A   1     -30.729  -1.878  24.721  0.00  0.00    -0.216 OA
ENDBRANCH  21  22
ENDBRANCH  20  21
ENDBRANCH  13  20
ENDBRANCH   8   9
BRANCH   6  29
ATOM     24  C   UNL A   1     -29.121   1.246  29.988  0.00  0.00    +0.148 C 
ATOM     25  C   UNL A   1     -29.077  -0.024  27.919  0.00  0.00    +0.294 C 
ATOM     26  O   UNL A   1     -29.710   0.233  29.171  0.00  0.00    -0.327 OA
ATOM     27  C   UNL A   1     -27.601   0.949  30.227  0.00  0.00    +0.068 C 
ATOM     28  O   UNL A   1     -27.668   0.480  27.924  0.00  0.00    -0.323 OA
ATOM     29  C   UNL A   1     -26.790   0.652  28.823  0.00  0.00    +0.156 C 
ENDBRANCH   6  29
BRANCH   5  30
ATOM     30  C   UNL A   1     -24.855  -1.012  30.143  0.00  0.00    +0.118 C 
BRANCH  30  31
ATOM     31  C   UNL A   1     -24.973  -2.505  29.788  0.00  0.00    -0.003 C 
ATOM     32  C   UNL A   1     -23.906  -3.173  29.146  0.00  0.00    -0.003 C 
ATOM     33  C   UNL A   1     -23.989  -4.549  28.853  0.00  0.00    -0.000 C 
ATOM     34  C   UNL A   1     -25.137  -5.280  29.205  0.00  0.00    -0.000 C 
ATOM     35  C   UNL A   1     -26.232  -4.611  29.784  0.00  0.00    -0.000 C 
ATOM     36  C   UNL A   1     -26.155  -3.232  30.065  0.00  0.00    -0.003 C 
ENDBRANCH  30  31
BRANCH  30  37
ATOM     37  C   UNL A   1     -25.387  -0.679  31.571  0.00  0.00    +0.095 C 
ATOM     38  C   UNL A   1     -25.189   0.773  32.028  0.00  0.00    +0.021 C 
ATOM     39  C   UNL A   1     -25.336   0.684  33.544  0.00  0.00    +0.020 C 
ATOM     40  C   UNL A   1     -24.829  -0.715  33.905  0.00  0.00    +0.089 C 
ATOM     41  N   UNL A   1     -24.758  -1.481  32.646  0.00  0.00    -0.217 NA
ENDBRANCH  30  37
ENDBRANCH   5  30
TORSDOF 9
