REMARK  Name = outputs/IAG933/test6/raw/output_5087_IAG933_linker_design_.xyz
REMARK  11 active torsions:
REMARK  status: ('A' for Active; 'I' for Inactive)
REMARK    1  A    between atoms: C_1  and  C_2
REMARK    2  A    between atoms: C_1  and  C_8
REMARK    3  A    between atoms: C_1  and  N_42
REMARK    4  A    between atoms: C_13  and  C_35
REMARK    5  A    between atoms: C_14  and  C_15
REMARK    6  A    between atoms: C_21  and  O_22
REMARK    7  A    between atoms: O_22  and  C_23
REMARK    8  A    between atoms: C_23  and  C_24
REMARK    9  A    between atoms: C_30  and  C_38
REMARK   10  A    between atoms: C_30  and  C_44
REMARK   11  A    between atoms: C_34  and  N_42
REMARK                            x       y       z     vdW  Elec       q    Type
REMARK                         _______ _______ _______ _____ _____    ______ ____
ROOT
ATOM      1  F   UNL A   1     -22.251  -0.261  29.703  0.00  0.00    -0.224 F 
ATOM      2  C   UNL A   1     -22.227   1.207  27.938  0.00  0.00    +0.154 C 
ATOM      3  C   UNL A   1     -24.335   0.581  28.421  0.00  0.00    +0.072 C 
ATOM      4  C   UNL A   1     -24.363   1.290  27.289  0.00  0.00    +0.016 C 
ATOM      5  C   UNL A   1     -22.961   0.487  28.724  0.00  0.00    +0.246 C 
ATOM      6  F   UNL A   1     -20.861   1.356  28.008  0.00  0.00    -0.206 F 
ATOM      7  C   UNL A   1     -23.104   1.603  26.967  0.00  0.00    +0.043 C 
ENDROOT
BRANCH   4   8
ATOM      8  C   UNL A   1     -25.688   1.614  26.461  0.00  0.00    +0.039 C 
ATOM      9  C   UNL A   1     -26.250   2.920  26.395  0.00  0.00    +0.077 C 
ATOM     10  C   UNL A   1     -27.438   3.091  25.645  0.00  0.00    +0.107 C 
ATOM     11  N   UNL A   1     -28.075   2.089  25.003  0.00  0.00    -0.208 NA
ATOM     12  C   UNL A   1     -27.543   0.849  25.079  0.00  0.00    +0.253 C 
ATOM     13  C   UNL A   1     -26.354   0.576  25.777  0.00  0.00    +0.193 C 
ATOM     14  F   UNL A   1     -25.860  -0.681  25.795  0.00  0.00    -0.199 F 
BRANCH   9  15
ATOM     15  C   UNL A   1     -25.642   4.093  27.123  0.00  0.00    +0.266 C 
ATOM     16  N   UNL A   1     -25.614   5.252  26.449  0.00  0.00    -0.200 NA
ATOM     17  C   UNL A   1     -25.026   6.479  26.963  0.00  0.00    +0.139 C 
ATOM     18  O   UNL A   1     -25.143   3.966  28.243  0.00  0.00    -0.268 OA
ENDBRANCH   9  15
BRANCH  12  19
ATOM     19  O   UNL A   1     -28.193  -0.208  24.477  0.00  0.00    -0.456 OA
BRANCH  19  20
ATOM     20  C   UNL A   1     -29.460   0.005  23.866  0.00  0.00    +0.243 C 
BRANCH  20  21
ATOM     21  C   UNL A   1     -30.065  -1.377  23.573  0.00  0.00    +0.229 C 
ATOM     22  O   UNL A   1     -30.729  -1.878  24.721  0.00  0.00    -0.216 OA
ENDBRANCH  20  21
ENDBRANCH  19  20
ENDBRANCH  12  19
ENDBRANCH   4   8
BRANCH   3  26
ATOM     23  N   UNL A   1     -26.949   1.625  29.105  0.00  0.00    -0.186 NA
ATOM     24  C   UNL A   1     -26.674   0.357  28.986  0.00  0.00    +0.327 C 
ATOM     25  C   UNL A   1     -28.293   1.944  29.518  0.00  0.00    +0.140 C 
ATOM     26  N   UNL A   1     -25.352  -0.008  29.192  0.00  0.00    -0.239 N 
ATOM     27  O   UNL A   1     -27.473  -0.414  28.454  0.00  0.00    -0.250 OA
BRANCH  26  28
ATOM     28  C   UNL A   1     -24.855  -1.012  30.143  0.00  0.00    +0.119 C 
BRANCH  28  29
ATOM     29  C   UNL A   1     -24.973  -2.505  29.788  0.00  0.00    -0.003 C 
ATOM     30  C   UNL A   1     -23.906  -3.173  29.146  0.00  0.00    -0.003 C 
ATOM     31  C   UNL A   1     -23.989  -4.549  28.853  0.00  0.00    -0.000 C 
ATOM     32  C   UNL A   1     -25.137  -5.280  29.205  0.00  0.00    -0.000 C 
ATOM     33  C   UNL A   1     -26.232  -4.611  29.784  0.00  0.00    -0.000 C 
ATOM     34  C   UNL A   1     -26.155  -3.232  30.065  0.00  0.00    -0.003 C 
ENDBRANCH  28  29
BRANCH  28  35
ATOM     35  C   UNL A   1     -25.387  -0.679  31.571  0.00  0.00    +0.096 C 
ATOM     36  C   UNL A   1     -25.189   0.773  32.028  0.00  0.00    +0.021 C 
ATOM     37  C   UNL A   1     -25.336   0.684  33.544  0.00  0.00    +0.020 C 
ATOM     38  C   UNL A   1     -24.829  -0.715  33.905  0.00  0.00    +0.089 C 
ATOM     39  N   UNL A   1     -24.758  -1.481  32.646  0.00  0.00    -0.217 NA
ENDBRANCH  28  35
ENDBRANCH  26  28
ENDBRANCH   3  26
BRANCH   7  40
ATOM     40  C   UNL A   1     -22.579   2.026  25.824  0.00  0.00    +0.251 C 
ATOM     41  F   UNL A   1     -21.362   2.328  25.571  0.00  0.00    -0.226 F 
BRANCH  40  44
ATOM     42  F   UNL A   1     -24.263   1.161  24.350  0.00  0.00    -0.195 F 
ATOM     43  F   UNL A   1     -23.364   3.186  24.181  0.00  0.00    -0.195 F 
ATOM     44  C   UNL A   1     -23.404   2.101  24.811  0.00  0.00    +0.355 C 
ENDBRANCH  40  44
ENDBRANCH   7  40
TORSDOF 11
