MODEL 508
MODEL 1
REMARK VINA RESULT:    -5.405      0.000      0.000
REMARK INTER + INTRA:          -7.310
REMARK INTER:                  -6.669
REMARK INTRA:                  -0.641
REMARK UNBOUND:                -0.641
REMARK  Name = No_508-gen_results/8p0m/2024-11-27-11-27-31/
REMARK  4 active torsions:
REMARK  status: ('A' for Active; 'I' for Inactive)
REMARK    1  A    between atoms: C_2  and  C_5
REMARK    2  A    between atoms: C_4  and  C_10
REMARK    3  A    between atoms: C_11  and  C_12
REMARK    4  A    between atoms: C_13  and  C_14
REMARK                            x       y       z     vdW  Elec       q    Type
REMARK                         _______ _______ _______ _____ _____    ______ ____
ROOT
ATOM      1  C   UNL A   1     -27.707 -11.893  32.827  0.00  0.00    +0.007 A 
ATOM      2  C   UNL A   1     -28.236 -11.168  33.379  0.00  0.00    +0.080 A 
ATOM      3  C   UNL A   1     -28.562 -12.717  31.972  0.00  0.00    +0.009 A 
ATOM      4  C   UNL A   1     -29.125 -12.234  30.991  0.00  0.00    +0.042 A 
ATOM      5  C   UNL A   1     -29.824 -10.895  31.341  0.00  0.00    +0.009 A 
ATOM      6  C   UNL A   1     -29.105 -10.205  32.440  0.00  0.00    +0.007 A 
ENDROOT
BRANCH   2   7
ATOM      7  C   UNL A   1     -27.411 -10.237  34.259  0.00  0.00    +0.388 C 
ATOM      8  O   UNL A   1     -26.537 -10.434  34.930  0.00  0.00    -0.241 OA
ATOM      9  O   UNL A   1     -27.859  -8.956  34.119  0.00  0.00    -0.241 OA
ENDBRANCH   2   7
BRANCH   4  10
ATOM     10  C   UNL A   1     -29.087 -12.266  29.639  0.00  0.00    -0.060 C 
ATOM     11  C   UNL A   1     -29.021 -11.656  28.772  0.00  0.00    -0.059 C 
BRANCH  11  12
ATOM     12  C   UNL A   1     -29.128 -11.827  27.298  0.00  0.00    +0.050 C 
ATOM     13  C   UNL A   1     -29.930 -11.234  26.383  0.00  0.00    +0.009 C 
BRANCH  13  14
ATOM     14  C   UNL A   1     -31.074 -10.564  27.032  0.00  0.00    +0.001 C 
ATOM     15  C   UNL A   1     -31.201  -9.196  27.006  0.00  0.00    +0.000 C 
ENDBRANCH  13  14
ENDBRANCH  11  12
ENDBRANCH   4  10
TORSDOF 4
ENDMDL
ENDMDL
