REMARK  Name = outputs/IAG933/test6/raw/output_5093_IAG933_linker_design_.xyz
REMARK  19 active torsions:
REMARK  status: ('A' for Active; 'I' for Inactive)
REMARK    1  A    between atoms: C_1  and  C_2
REMARK    2  A    between atoms: C_1  and  C_8
REMARK    3  A    between atoms: C_9  and  C_36
REMARK    4  A    between atoms: C_13  and  C_35
REMARK    5  A    between atoms: C_14  and  C_15
REMARK    6  A    between atoms: C_21  and  O_22
REMARK    7  A    between atoms: O_22  and  C_23
REMARK    8  A    between atoms: C_23  and  C_24
REMARK    9  A    between atoms: N_28  and  C_36
REMARK   10  A    between atoms: N_28  and  C_37
REMARK   11  A    between atoms: C_29  and  C_39
REMARK   12  A    between atoms: C_29  and  O_42
REMARK   13  A    between atoms: C_30  and  O_33
REMARK   14  A    between atoms: C_30  and  O_42
REMARK   15  A    between atoms: C_32  and  C_34
REMARK   16  A    between atoms: C_32  and  O_41
REMARK   17  A    between atoms: C_34  and  C_36
REMARK   18  A    between atoms: C_35  and  C_37
REMARK   19  A    between atoms: C_35  and  C_39
REMARK                            x       y       z     vdW  Elec       q    Type
REMARK                         _______ _______ _______ _____ _____    ______ ____
ROOT
ATOM      1  C   UNL A   1     -24.639   1.424  27.507  0.00  0.00    +0.027 C 
ENDROOT
BRANCH   1   2
ATOM      2  C   UNL A   1     -25.688   1.614  26.461  0.00  0.00    +0.072 C 
ATOM      3  C   UNL A   1     -26.250   2.920  26.395  0.00  0.00    +0.055 C 
ATOM      4  C   UNL A   1     -27.438   3.091  25.645  0.00  0.00    +0.102 C 
ATOM      5  N   UNL A   1     -28.075   2.089  25.003  0.00  0.00    -0.212 NA
ATOM      6  C   UNL A   1     -27.543   0.849  25.079  0.00  0.00    +0.234 C 
ATOM      7  C   UNL A   1     -26.354   0.576  25.777  0.00  0.00    +0.240 C 
ATOM      8  F   UNL A   1     -25.860  -0.681  25.795  0.00  0.00    -0.227 F 
BRANCH   3   9
ATOM      9  C   UNL A   1     -25.642   4.093  27.123  0.00  0.00    +0.262 C 
ATOM     10  N   UNL A   1     -25.614   5.252  26.449  0.00  0.00    -0.200 NA
ATOM     11  C   UNL A   1     -25.026   6.479  26.963  0.00  0.00    +0.139 C 
ATOM     12  O   UNL A   1     -25.143   3.966  28.243  0.00  0.00    -0.269 OA
ENDBRANCH   3   9
BRANCH   6  13
ATOM     13  O   UNL A   1     -28.193  -0.208  24.477  0.00  0.00    -0.459 OA
BRANCH  13  14
ATOM     14  C   UNL A   1     -29.460   0.005  23.866  0.00  0.00    +0.242 C 
BRANCH  14  15
ATOM     15  C   UNL A   1     -30.065  -1.377  23.573  0.00  0.00    +0.229 C 
ATOM     16  O   UNL A   1     -30.729  -1.878  24.721  0.00  0.00    -0.216 OA
ENDBRANCH  14  15
ENDBRANCH  13  14
ENDBRANCH   6  13
ENDBRANCH   1   2
BRANCH   1  17
ATOM     17  C   UNL A   1     -23.461   1.790  26.484  0.00  0.00    +0.034 C 
BRANCH  17  18
ATOM     18  C   UNL A   1     -22.919   2.227  25.523  0.00  0.00    +0.145 C 
BRANCH  18  19
ATOM     19  O   UNL A   1     -21.871   1.835  25.983  0.00  0.00    -0.327 OA
BRANCH  19  20
ATOM     20  C   UNL A   1     -20.973   1.637  26.979  0.00  0.00    +0.294 C 
BRANCH  20  21
ATOM     21  O   UNL A   1     -21.230   1.224  28.233  0.00  0.00    -0.324 OA
ATOM     22  C   UNL A   1     -22.045   0.857  29.055  0.00  0.00    +0.177 C 
ENDBRANCH  20  21
ENDBRANCH  19  20
ENDBRANCH  18  19
ENDBRANCH  17  18
ENDBRANCH   1  17
BRANCH   1  23
ATOM     23  C   UNL A   1     -25.323   1.119  28.911  0.00  0.00    +0.090 C 
BRANCH  23  24
ATOM     24  N   UNL A   1     -25.303   2.155  29.952  0.00  0.00    -0.212 NA
BRANCH  24  25
ATOM     25  C   UNL A   1     -25.451   2.184  31.436  0.00  0.00    +0.135 C 
BRANCH  25  27
ATOM     26  C   UNL A   1     -25.387  -0.679  31.571  0.00  0.00    +0.079 C 
ATOM     27  C   UNL A   1     -25.189   0.773  32.028  0.00  0.00    +0.041 C 
ATOM     28  C   UNL A   1     -25.336   0.684  33.544  0.00  0.00    +0.022 C 
ATOM     29  C   UNL A   1     -24.829  -0.715  33.905  0.00  0.00    +0.089 C 
ATOM     30  N   UNL A   1     -24.758  -1.481  32.646  0.00  0.00    -0.219 NA
BRANCH  26  31
ATOM     31  C   UNL A   1     -24.855  -1.012  30.143  0.00  0.00    +0.044 C 
BRANCH  31  32
ATOM     32  C   UNL A   1     -24.973  -2.505  29.788  0.00  0.00    -0.021 C 
ATOM     33  C   UNL A   1     -23.906  -3.173  29.146  0.00  0.00    -0.004 C 
ATOM     34  C   UNL A   1     -23.989  -4.549  28.853  0.00  0.00    -0.000 C 
ATOM     35  C   UNL A   1     -25.137  -5.280  29.205  0.00  0.00    -0.000 C 
ATOM     36  C   UNL A   1     -26.232  -4.611  29.784  0.00  0.00    -0.000 C 
ATOM     37  C   UNL A   1     -26.155  -3.232  30.065  0.00  0.00    -0.004 C 
ENDBRANCH  31  32
ENDBRANCH  26  31
ENDBRANCH  25  27
BRANCH  25  38
ATOM     38  C   UNL A   1     -24.819   3.482  32.069  0.00  0.00    +0.212 C 
ATOM     39  O   UNL A   1     -23.685   3.608  32.585  0.00  0.00    -0.290 OA
BRANCH  38  41
ATOM     40  N   UNL A   1     -26.619   4.958  31.048  0.00  0.00    -0.092 NA
ATOM     41  C   UNL A   1     -25.673   4.653  32.105  0.00  0.00    +0.266 C 
BRANCH  41  43
ATOM     42  C   UNL A   1     -27.143   5.492  33.768  0.00  0.00    +0.176 C 
ATOM     43  O   UNL A   1     -25.795   5.524  33.248  0.00  0.00    -0.330 OA
ENDBRANCH  41  43
ENDBRANCH  38  41
ENDBRANCH  25  38
ENDBRANCH  24  25
ENDBRANCH  23  24
ENDBRANCH   1  23
TORSDOF 19
