MODEL 509
MODEL 1
REMARK VINA RESULT:    -4.298      0.000      0.000
REMARK INTER + INTRA:          -4.298
REMARK INTER:                  -4.298
REMARK INTRA:                   0.000
REMARK UNBOUND:                 0.000
REMARK  Name = No_509-gen_results/8p0m/2024-11-27-11-27-31/
REMARK  0 active torsions:
REMARK  status: ('A' for Active; 'I' for Inactive)
REMARK                            x       y       z     vdW  Elec       q    Type
REMARK                         _______ _______ _______ _____ _____    ______ ____
ROOT
ATOM      1  C   UNL A   1     -24.949  -5.368  28.963  0.00  0.00    +0.000 A 
ATOM      2  C   UNL A   1     -24.185  -4.679  28.733  0.00  0.00    +0.000 A 
ATOM      3  C   UNL A   1     -26.118  -4.756  29.593  0.00  0.00    +0.000 A 
ATOM      4  C   UNL A   1     -26.196  -3.406  29.832  0.00  0.00    +0.000 A 
ATOM      5  C   UNL A   1     -23.996  -3.235  28.863  0.00  0.00    +0.000 A 
ATOM      6  C   UNL A   1     -25.123  -2.632  29.471  0.00  0.00    +0.000 A 
ENDROOT
TORSDOF 0
ENDMDL
ENDMDL
