REMARK  Name = outputs/IAG933/test6/raw/output_5101_IAG933_linker_design_.xyz
REMARK  14 active torsions:
REMARK  status: ('A' for Active; 'I' for Inactive)
REMARK    1  A    between atoms: C_1  and  C_2
REMARK    2  A    between atoms: C_1  and  C_8
REMARK    3  A    between atoms: C_1  and  C_40
REMARK    4  A    between atoms: C_13  and  C_39
REMARK    5  A    between atoms: C_14  and  C_15
REMARK    6  A    between atoms: C_21  and  O_22
REMARK    7  A    between atoms: O_22  and  C_23
REMARK    8  A    between atoms: C_23  and  C_24
REMARK    9  A    between atoms: C_28  and  C_45
REMARK   10  A    between atoms: C_29  and  C_36
REMARK   11  A    between atoms: C_29  and  C_45
REMARK   12  A    between atoms: C_30  and  C_40
REMARK   13  A    between atoms: N_37  and  C_40
REMARK   14  A    between atoms: O_42  and  C_44
REMARK                            x       y       z     vdW  Elec       q    Type
REMARK                         _______ _______ _______ _____ _____    ______ ____
ROOT
ATOM      1  C   UNL A   1     -25.511  -0.070  29.089  0.00  0.00    +0.138 C 
ENDROOT
BRANCH   1   2
ATOM      2  C   UNL A   1     -24.383   0.547  28.329  0.00  0.00    +0.070 C 
ATOM      3  C   UNL A   1     -22.965   2.509  25.487  0.00  0.00    +0.035 C 
ATOM      4  C   UNL A   1     -22.375   1.191  27.723  0.00  0.00    +0.208 C 
ATOM      5  F   UNL A   1     -21.055   1.572  27.806  0.00  0.00    -0.186 F 
ATOM      6  C   UNL A   1     -23.241   1.683  26.764  0.00  0.00    +0.023 C 
ATOM      7  C   UNL A   1     -24.470   1.345  27.153  0.00  0.00    +0.015 C 
ATOM      8  N   UNL A   1     -23.019   0.426  28.600  0.00  0.00    -0.189 NA
BRANCH   7   9
ATOM      9  C   UNL A   1     -25.688   1.614  26.461  0.00  0.00    +0.039 C 
ATOM     10  C   UNL A   1     -26.250   2.920  26.395  0.00  0.00    +0.077 C 
ATOM     11  C   UNL A   1     -27.438   3.091  25.645  0.00  0.00    +0.107 C 
ATOM     12  N   UNL A   1     -28.075   2.089  25.003  0.00  0.00    -0.208 NA
ATOM     13  C   UNL A   1     -27.543   0.849  25.079  0.00  0.00    +0.253 C 
ATOM     14  C   UNL A   1     -26.354   0.576  25.777  0.00  0.00    +0.193 C 
ATOM     15  F   UNL A   1     -25.860  -0.681  25.795  0.00  0.00    -0.199 F 
BRANCH  10  16
ATOM     16  C   UNL A   1     -25.642   4.093  27.123  0.00  0.00    +0.266 C 
ATOM     17  N   UNL A   1     -25.614   5.252  26.449  0.00  0.00    -0.200 NA
ATOM     18  C   UNL A   1     -25.026   6.479  26.963  0.00  0.00    +0.139 C 
ATOM     19  O   UNL A   1     -25.143   3.966  28.243  0.00  0.00    -0.268 OA
ENDBRANCH  10  16
BRANCH  13  20
ATOM     20  O   UNL A   1     -28.193  -0.208  24.477  0.00  0.00    -0.456 OA
BRANCH  20  21
ATOM     21  C   UNL A   1     -29.460   0.005  23.866  0.00  0.00    +0.243 C 
BRANCH  21  22
ATOM     22  C   UNL A   1     -30.065  -1.377  23.573  0.00  0.00    +0.229 C 
ATOM     23  O   UNL A   1     -30.729  -1.878  24.721  0.00  0.00    -0.216 OA
ENDBRANCH  21  22
ENDBRANCH  20  21
ENDBRANCH  13  20
ENDBRANCH   7   9
ENDBRANCH   1   2
BRANCH   1  26
ATOM     24  C   UNL A   1     -27.892   0.464  29.145  0.00  0.00    +0.242 C 
ATOM     25  O   UNL A   1     -28.385  -0.608  28.796  0.00  0.00    -0.273 OA
ATOM     26  N   UNL A   1     -26.669   0.804  28.866  0.00  0.00    -0.201 NA
BRANCH  24  27
ATOM     27  C   UNL A   1     -28.378   1.527  30.071  0.00  0.00    +0.087 C 
BRANCH  27  28
ATOM     28  C   UNL A   1     -29.318   2.434  29.930  0.00  0.00    +0.010 C 
BRANCH  28  30
ATOM     29  C   UNL A   1     -30.160   3.930  31.630  0.00  0.00    +0.000 C 
ATOM     30  C   UNL A   1     -30.561   2.750  30.775  0.00  0.00    +0.003 C 
ATOM     31  C   UNL A   1     -31.908   2.457  30.595  0.00  0.00    +0.030 C 
ATOM     32  C   UNL A   1     -32.806   3.547  30.850  0.00  0.00    +0.115 C 
ATOM     33  C   UNL A   1     -31.045   5.004  31.494  0.00  0.00    +0.003 C 
ATOM     34  C   UNL A   1     -32.299   4.887  30.850  0.00  0.00    +0.030 C 
BRANCH  32  35
ATOM     35  O   UNL A   1     -33.914   3.391  31.584  0.00  0.00    -0.354 OA
ATOM     36  C   UNL A   1     -34.279   4.515  32.414  0.00  0.00    +0.174 C 
ENDBRANCH  32  35
ENDBRANCH  28  30
ENDBRANCH  27  28
ENDBRANCH  24  27
ENDBRANCH   1  26
BRANCH   1  37
ATOM     37  C   UNL A   1     -24.855  -1.012  30.143  0.00  0.00    +0.064 C 
BRANCH  37  38
ATOM     38  C   UNL A   1     -24.973  -2.505  29.788  0.00  0.00    -0.019 C 
ATOM     39  C   UNL A   1     -23.906  -3.173  29.146  0.00  0.00    -0.004 C 
ATOM     40  C   UNL A   1     -23.989  -4.549  28.853  0.00  0.00    -0.000 C 
ATOM     41  C   UNL A   1     -25.137  -5.280  29.205  0.00  0.00    -0.000 C 
ATOM     42  C   UNL A   1     -26.232  -4.611  29.784  0.00  0.00    -0.000 C 
ATOM     43  C   UNL A   1     -26.155  -3.232  30.065  0.00  0.00    -0.004 C 
ENDBRANCH  37  38
BRANCH  37  44
ATOM     44  C   UNL A   1     -25.387  -0.679  31.571  0.00  0.00    +0.079 C 
ATOM     45  C   UNL A   1     -25.189   0.773  32.028  0.00  0.00    +0.019 C 
ATOM     46  C   UNL A   1     -25.336   0.684  33.544  0.00  0.00    +0.020 C 
ATOM     47  C   UNL A   1     -24.829  -0.715  33.905  0.00  0.00    +0.089 C 
ATOM     48  N   UNL A   1     -24.758  -1.481  32.646  0.00  0.00    -0.219 NA
ENDBRANCH  37  44
ENDBRANCH   1  37
TORSDOF 14
