REMARK  Name = outputs/IAG933/test6/raw/output_5106_IAG933_linker_design_.xyz
REMARK  14 active torsions:
REMARK  status: ('A' for Active; 'I' for Inactive)
REMARK    1  A    between atoms: C_1  and  C_2
REMARK    2  A    between atoms: C_1  and  C_8
REMARK    3  A    between atoms: C_1  and  C_39
REMARK    4  A    between atoms: C_13  and  C_30
REMARK    5  A    between atoms: C_14  and  C_15
REMARK    6  A    between atoms: C_21  and  O_22
REMARK    7  A    between atoms: O_22  and  C_23
REMARK    8  A    between atoms: C_23  and  C_24
REMARK    9  A    between atoms: N_33  and  C_40
REMARK   10  A    between atoms: C_35  and  C_39
REMARK   11  A    between atoms: C_36  and  C_48
REMARK   12  A    between atoms: C_39  and  N_41
REMARK   13  A    between atoms: N_41  and  C_47
REMARK   14  A    between atoms: C_47  and  C_48
REMARK                            x       y       z     vdW  Elec       q    Type
REMARK                         _______ _______ _______ _____ _____    ______ ____
ROOT
ATOM      1  C   UNL A   1     -25.574  -0.240  29.031  0.00  0.00    +0.100 C 
ENDROOT
BRANCH   1   5
ATOM      2  F   UNL A   1     -21.013   1.614  28.418  0.00  0.00    -0.202 F 
ATOM      3  C   UNL A   1     -24.688   1.221  27.023  0.00  0.00    +0.002 C 
ATOM      4  C   UNL A   1     -23.634   1.504  26.123  0.00  0.00    +0.032 C 
ATOM      5  C   UNL A   1     -24.561   0.557  28.264  0.00  0.00    -0.004 C 
ATOM      6  F   UNL A   1     -21.434   1.890  25.888  0.00  0.00    -0.202 F 
ATOM      7  C   UNL A   1     -22.241   1.245  27.973  0.00  0.00    +0.167 C 
ATOM      8  C   UNL A   1     -22.434   1.541  26.646  0.00  0.00    +0.167 C 
ATOM      9  C   UNL A   1     -23.276   0.691  28.760  0.00  0.00    +0.029 C 
BRANCH   3  10
ATOM     10  C   UNL A   1     -25.688   1.614  26.461  0.00  0.00    +0.038 C 
ATOM     11  C   UNL A   1     -26.250   2.920  26.395  0.00  0.00    +0.076 C 
ATOM     12  C   UNL A   1     -27.438   3.091  25.645  0.00  0.00    +0.107 C 
ATOM     13  N   UNL A   1     -28.075   2.089  25.003  0.00  0.00    -0.208 NA
ATOM     14  C   UNL A   1     -27.543   0.849  25.079  0.00  0.00    +0.253 C 
ATOM     15  C   UNL A   1     -26.354   0.576  25.777  0.00  0.00    +0.193 C 
ATOM     16  F   UNL A   1     -25.860  -0.681  25.795  0.00  0.00    -0.199 F 
BRANCH  11  17
ATOM     17  C   UNL A   1     -25.642   4.093  27.123  0.00  0.00    +0.266 C 
ATOM     18  N   UNL A   1     -25.614   5.252  26.449  0.00  0.00    -0.200 NA
ATOM     19  C   UNL A   1     -25.026   6.479  26.963  0.00  0.00    +0.139 C 
ATOM     20  O   UNL A   1     -25.143   3.966  28.243  0.00  0.00    -0.268 OA
ENDBRANCH  11  17
BRANCH  14  21
ATOM     21  O   UNL A   1     -28.193  -0.208  24.477  0.00  0.00    -0.456 OA
BRANCH  21  22
ATOM     22  C   UNL A   1     -29.460   0.005  23.866  0.00  0.00    +0.243 C 
BRANCH  22  23
ATOM     23  C   UNL A   1     -30.065  -1.377  23.573  0.00  0.00    +0.229 C 
ATOM     24  O   UNL A   1     -30.729  -1.878  24.721  0.00  0.00    -0.216 OA
ENDBRANCH  22  23
ENDBRANCH  21  22
ENDBRANCH  14  21
ENDBRANCH   3  10
ENDBRANCH   1   5
BRANCH   1  25
ATOM     25  C   UNL A   1     -24.855  -1.012  30.143  0.00  0.00    +0.059 C 
BRANCH  25  26
ATOM     26  C   UNL A   1     -24.973  -2.505  29.788  0.00  0.00    -0.019 C 
ATOM     27  C   UNL A   1     -23.906  -3.173  29.146  0.00  0.00    -0.004 C 
ATOM     28  C   UNL A   1     -23.989  -4.549  28.853  0.00  0.00    -0.000 C 
ATOM     29  C   UNL A   1     -25.137  -5.280  29.205  0.00  0.00    -0.000 C 
ATOM     30  C   UNL A   1     -26.232  -4.611  29.784  0.00  0.00    -0.000 C 
ATOM     31  C   UNL A   1     -26.155  -3.232  30.065  0.00  0.00    -0.004 C 
ENDBRANCH  25  26
BRANCH  25  32
ATOM     32  C   UNL A   1     -25.387  -0.679  31.571  0.00  0.00    +0.079 C 
ATOM     33  C   UNL A   1     -25.189   0.773  32.028  0.00  0.00    +0.019 C 
ATOM     34  C   UNL A   1     -25.336   0.684  33.544  0.00  0.00    +0.020 C 
ATOM     35  C   UNL A   1     -24.829  -0.715  33.905  0.00  0.00    +0.089 C 
ATOM     36  N   UNL A   1     -24.758  -1.481  32.646  0.00  0.00    -0.219 NA
ENDBRANCH  25  32
ENDBRANCH   1  25
BRANCH   1  37
ATOM     37  N   UNL A   1     -26.912   0.219  29.200  0.00  0.00    -0.215 NA
BRANCH  37  38
ATOM     38  C   UNL A   1     -28.158  -0.542  29.470  0.00  0.00    +0.089 C 
BRANCH  38  39
ATOM     39  C   UNL A   1     -29.384   0.388  29.709  0.00  0.00    +0.024 C 
BRANCH  39  44
ATOM     40  O   UNL A   1     -31.882   2.536  27.637  0.00  0.00    -0.282 OA
ATOM     41  C   UNL A   1     -32.152   0.166  27.146  0.00  0.00    +0.134 C 
ATOM     42  N   UNL A   1     -32.720   1.525  27.595  0.00  0.00    -0.163 NA
ATOM     43  O   UNL A   1     -29.749  -0.434  26.697  0.00  0.00    -0.222 OA
ATOM     44  C   UNL A   1     -30.165   0.932  28.479  0.00  0.00    +0.065 C 
ATOM     45  C   UNL A   1     -30.419   2.264  27.756  0.00  0.00    +0.169 C 
ATOM     46  C   UNL A   1     -30.770  -0.283  27.657  0.00  0.00    +0.173 C 
BRANCH  42  47
ATOM     47  C   UNL A   1     -33.988   1.804  26.887  0.00  0.00    +0.101 C 
ATOM     48  C   UNL A   1     -33.731   2.359  25.474  0.00  0.00    +0.021 C 
ENDBRANCH  42  47
ENDBRANCH  39  44
ENDBRANCH  38  39
ENDBRANCH  37  38
ENDBRANCH   1  37
TORSDOF 14
