MODEL 510
MODEL 1
REMARK VINA RESULT:    -6.811      0.000      0.000
REMARK INTER + INTRA:          -8.069
REMARK INTER:                  -7.608
REMARK INTRA:                  -0.462
REMARK UNBOUND:                -0.462
REMARK  Name = No_510-gen_results/8p0m/2024-11-27-11-27-31/
REMARK  2 active torsions:
REMARK  status: ('A' for Active; 'I' for Inactive)
REMARK    1  A    between atoms: C_1  and  C_2
REMARK    2  A    between atoms: C_5  and  C_10
REMARK                            x       y       z     vdW  Elec       q    Type
REMARK                         _______ _______ _______ _____ _____    ______ ____
ROOT
ATOM      1  C   UNL A   1     -23.919  -1.768  28.883  0.00  0.00    +0.018 A 
ATOM      2  C   UNL A   1     -22.671  -1.294  29.239  0.00  0.00    +0.001 A 
ATOM      3  C   UNL A   1     -22.064  -0.066  28.759  0.00  0.00    +0.001 A 
ATOM      4  C   UNL A   1     -22.779   0.731  27.837  0.00  0.00    +0.044 A 
ATOM      5  C   UNL A   1     -24.088   0.254  27.468  0.00  0.00    +0.001 A 
ATOM      6  C   UNL A   1     -24.658  -0.895  27.965  0.00  0.00    +0.001 A 
ENDROOT
BRANCH   1   7
ATOM      7  C   UNL A   1     -24.416  -2.763  29.356  0.00  0.00    +0.081 A 
ATOM      8  N   UNL A   1     -24.004  -3.955  28.829  0.00  0.00    -0.244 NA
ATOM      9  C   UNL A   1     -24.726  -5.076  29.027  0.00  0.00    +0.099 A 
ATOM     10  C   UNL A   1     -25.991  -4.950  29.512  0.00  0.00    +0.021 A 
ATOM     11  C   UNL A   1     -26.558  -3.737  29.910  0.00  0.00    +0.003 A 
ATOM     12  C   UNL A   1     -25.850  -2.625  29.629  0.00  0.00    +0.019 A 
ENDBRANCH   1   7
BRANCH   4  13
ATOM     13  C   UNL A   1     -22.255   1.951  27.312  0.00  0.00    +0.341 C 
ATOM     14  F   UNL A   1     -21.081   2.153  27.525  0.00  0.00    -0.193 F 
ATOM     15  F   UNL A   1     -23.011   2.746  26.652  0.00  0.00    -0.193 F 
ENDBRANCH   4  13
TORSDOF 2
ENDMDL
ENDMDL
