REMARK  Name = outputs/IAG933/test6/raw/output_511_IAG933_linker_design_.xyz
REMARK  14 active torsions:
REMARK  status: ('A' for Active; 'I' for Inactive)
REMARK    1  A    between atoms: C_1  and  C_2
REMARK    2  A    between atoms: C_1  and  C_8
REMARK    3  A    between atoms: C_1  and  N_36
REMARK    4  A    between atoms: C_13  and  N_45
REMARK    5  A    between atoms: C_14  and  C_15
REMARK    6  A    between atoms: C_21  and  O_22
REMARK    7  A    between atoms: O_22  and  C_23
REMARK    8  A    between atoms: C_23  and  C_24
REMARK    9  A    between atoms: C_28  and  C_32
REMARK   10  A    between atoms: C_28  and  N_36
REMARK   11  A    between atoms: C_28  and  N_45
REMARK   12  A    between atoms: C_31  and  N_36
REMARK   13  A    between atoms: C_31  and  C_37
REMARK   14  A    between atoms: O_34  and  C_39
REMARK                            x       y       z     vdW  Elec       q    Type
REMARK                         _______ _______ _______ _____ _____    ______ ____
ROOT
ATOM      1  C   UNL A   1     -24.763   0.694  28.640  0.00  0.00    +0.135 C 
ENDROOT
BRANCH   1   2
ATOM      2  C   UNL A   1     -23.381   0.853  28.905  0.00  0.00    +0.066 C 
ATOM      3  C   UNL A   1     -22.903   1.894  28.433  0.00  0.00    +0.067 C 
ATOM      4  C   UNL A   1     -21.965   1.424  27.594  0.00  0.00    +0.235 C 
ATOM      5  C   UNL A   1     -22.241   0.025  29.239  0.00  0.00    +0.148 C 
ATOM      6  O   UNL A   1     -21.315   0.468  28.165  0.00  0.00    -0.330 OA
BRANCH   4   7
ATOM      7  O   UNL A   1     -21.655   2.016  26.410  0.00  0.00    -0.328 OA
ATOM      8  C   UNL A   1     -22.750   2.397  25.548  0.00  0.00    +0.177 C 
ENDBRANCH   4   7
ENDBRANCH   1   2
BRANCH   1   9
ATOM      9  N   UNL A   1     -25.712  -0.196  29.259  0.00  0.00    -0.256 NA
BRANCH   9  10
ATOM     10  C   UNL A   1     -24.855  -1.012  30.143  0.00  0.00    +0.097 C 
BRANCH  10  11
ATOM     11  C   UNL A   1     -24.973  -2.505  29.788  0.00  0.00    -0.006 C 
ATOM     12  C   UNL A   1     -23.906  -3.173  29.146  0.00  0.00    -0.003 C 
ATOM     13  C   UNL A   1     -23.989  -4.549  28.853  0.00  0.00    -0.000 C 
ATOM     14  C   UNL A   1     -25.137  -5.280  29.205  0.00  0.00    -0.000 C 
ATOM     15  C   UNL A   1     -26.232  -4.611  29.784  0.00  0.00    -0.000 C 
ATOM     16  C   UNL A   1     -26.155  -3.232  30.065  0.00  0.00    -0.003 C 
ENDBRANCH  10  11
BRANCH  10  17
ATOM     17  C   UNL A   1     -25.387  -0.679  31.571  0.00  0.00    +0.092 C 
ATOM     18  C   UNL A   1     -25.189   0.773  32.028  0.00  0.00    +0.021 C 
ATOM     19  C   UNL A   1     -25.336   0.684  33.544  0.00  0.00    +0.020 C 
ATOM     20  C   UNL A   1     -24.829  -0.715  33.905  0.00  0.00    +0.089 C 
ATOM     21  N   UNL A   1     -24.758  -1.481  32.646  0.00  0.00    -0.218 NA
ENDBRANCH  10  17
ENDBRANCH   9  10
BRANCH   9  22
ATOM     22  C   UNL A   1     -27.258  -0.360  28.912  0.00  0.00    +0.080 C 
BRANCH  22  26
ATOM     23  C   UNL A   1     -28.340   1.261  30.431  0.00  0.00    +0.210 C 
ATOM     24  O   UNL A   1     -30.211  -0.895  28.242  0.00  0.00    -0.218 OA
ATOM     25  C   UNL A   1     -29.666   2.704  29.096  0.00  0.00    +0.170 C 
ATOM     26  C   UNL A   1     -28.530   0.372  29.395  0.00  0.00    +0.094 C 
ATOM     27  O   UNL A   1     -28.856   2.498  30.193  0.00  0.00    -0.472 OA
ATOM     28  C   UNL A   1     -29.697   0.338  28.656  0.00  0.00    +0.182 C 
ATOM     29  C   UNL A   1     -30.240   1.611  28.396  0.00  0.00    +0.046 C 
ENDBRANCH  22  26
ENDBRANCH   9  22
ENDBRANCH   1   9
BRANCH   1  30
ATOM     30  N   UNL A   1     -25.197   1.234  27.628  0.00  0.00    -0.197 NA
BRANCH  30  31
ATOM     31  C   UNL A   1     -25.688   1.614  26.461  0.00  0.00    +0.144 C 
ATOM     32  C   UNL A   1     -26.250   2.920  26.395  0.00  0.00    +0.071 C 
ATOM     33  C   UNL A   1     -27.438   3.091  25.645  0.00  0.00    +0.103 C 
ATOM     34  N   UNL A   1     -28.075   2.089  25.003  0.00  0.00    -0.212 NA
ATOM     35  C   UNL A   1     -27.543   0.849  25.079  0.00  0.00    +0.236 C 
ATOM     36  C   UNL A   1     -26.354   0.576  25.777  0.00  0.00    +0.256 C 
ATOM     37  F   UNL A   1     -25.860  -0.681  25.795  0.00  0.00    -0.225 F 
BRANCH  32  38
ATOM     38  C   UNL A   1     -25.642   4.093  27.123  0.00  0.00    +0.264 C 
ATOM     39  N   UNL A   1     -25.614   5.252  26.449  0.00  0.00    -0.200 NA
ATOM     40  C   UNL A   1     -25.026   6.479  26.963  0.00  0.00    +0.139 C 
ATOM     41  O   UNL A   1     -25.143   3.966  28.243  0.00  0.00    -0.269 OA
ENDBRANCH  32  38
BRANCH  35  42
ATOM     42  O   UNL A   1     -28.193  -0.208  24.477  0.00  0.00    -0.459 OA
BRANCH  42  43
ATOM     43  C   UNL A   1     -29.460   0.005  23.866  0.00  0.00    +0.242 C 
BRANCH  43  44
ATOM     44  C   UNL A   1     -30.065  -1.377  23.573  0.00  0.00    +0.229 C 
ATOM     45  O   UNL A   1     -30.729  -1.878  24.721  0.00  0.00    -0.216 OA
ENDBRANCH  43  44
ENDBRANCH  42  43
ENDBRANCH  35  42
ENDBRANCH  30  31
ENDBRANCH   1  30
TORSDOF 14
