REMARK  Name = outputs/IAG933/test6/raw/output_5112_IAG933_linker_design_.xyz
REMARK  9 active torsions:
REMARK  status: ('A' for Active; 'I' for Inactive)
REMARK    1  A    between atoms: C_1  and  C_2
REMARK    2  A    between atoms: C_1  and  C_8
REMARK    3  A    between atoms: C_1  and  N_29
REMARK    4  A    between atoms: C_13  and  C_28
REMARK    5  A    between atoms: C_14  and  C_15
REMARK    6  A    between atoms: C_21  and  O_22
REMARK    7  A    between atoms: O_22  and  C_23
REMARK    8  A    between atoms: C_23  and  C_24
REMARK    9  A    between atoms: C_37  and  C_41
REMARK                            x       y       z     vdW  Elec       q    Type
REMARK                         _______ _______ _______ _____ _____    ______ ____
ROOT
ATOM      1  C   UNL A   1     -24.690   1.124  27.280  0.00  0.00    +0.065 A 
ATOM      2  N   UNL A   1     -24.318  -0.197  29.078  0.00  0.00    -0.289 N 
ATOM      3  C   UNL A   1     -22.766   2.145  26.134  0.00  0.00    +0.348 C 
ATOM      4  C   UNL A   1     -22.570   1.017  27.986  0.00  0.00    +0.102 A 
ATOM      5  C   UNL A   1     -21.206   1.395  27.611  0.00  0.00    +0.350 C 
ATOM      6  O   UNL A   1     -23.212   2.719  25.172  0.00  0.00    -0.244 OA
ATOM      7  O   UNL A   1     -21.308   2.025  26.413  0.00  0.00    -0.386 OA
ATOM      8  O   UNL A   1     -20.164   0.946  28.209  0.00  0.00    -0.244 OA
ATOM      9  O   UNL A   1     -26.497   0.489  28.785  0.00  0.00    -0.267 OA
ATOM     10  C   UNL A   1     -25.208   0.277  28.314  0.00  0.00    +0.261 A 
ATOM     11  C   UNL A   1     -23.486   1.444  27.107  0.00  0.00    +0.088 A 
ATOM     12  C   UNL A   1     -23.009   0.063  28.936  0.00  0.00    +0.112 A 
ENDROOT
BRANCH   1  13
ATOM     13  C   UNL A   1     -25.688   1.614  26.461  0.00  0.00    +0.043 C 
ATOM     14  C   UNL A   1     -26.250   2.920  26.395  0.00  0.00    +0.077 C 
ATOM     15  C   UNL A   1     -27.438   3.091  25.645  0.00  0.00    +0.107 C 
ATOM     16  N   UNL A   1     -28.075   2.089  25.003  0.00  0.00    -0.208 NA
ATOM     17  C   UNL A   1     -27.543   0.849  25.079  0.00  0.00    +0.253 C 
ATOM     18  C   UNL A   1     -26.354   0.576  25.777  0.00  0.00    +0.193 C 
ATOM     19  F   UNL A   1     -25.860  -0.681  25.795  0.00  0.00    -0.199 F 
BRANCH  14  20
ATOM     20  C   UNL A   1     -25.642   4.093  27.123  0.00  0.00    +0.266 C 
ATOM     21  N   UNL A   1     -25.614   5.252  26.449  0.00  0.00    -0.200 NA
ATOM     22  C   UNL A   1     -25.026   6.479  26.963  0.00  0.00    +0.139 C 
ATOM     23  O   UNL A   1     -25.143   3.966  28.243  0.00  0.00    -0.268 OA
ENDBRANCH  14  20
BRANCH  17  24
ATOM     24  O   UNL A   1     -28.193  -0.208  24.477  0.00  0.00    -0.456 OA
BRANCH  24  25
ATOM     25  C   UNL A   1     -29.460   0.005  23.866  0.00  0.00    +0.243 C 
BRANCH  25  26
ATOM     26  C   UNL A   1     -30.065  -1.377  23.573  0.00  0.00    +0.229 C 
ATOM     27  O   UNL A   1     -30.729  -1.878  24.721  0.00  0.00    -0.216 OA
ENDBRANCH  25  26
ENDBRANCH  24  25
ENDBRANCH  17  24
ENDBRANCH   1  13
BRANCH  12  28
ATOM     28  C   UNL A   1     -22.126  -0.578  29.661  0.00  0.00    +0.252 C 
ATOM     29  O   UNL A   1     -22.158  -0.379  30.787  0.00  0.00    -0.281 OA
ENDBRANCH  12  28
BRANCH   2  30
ATOM     30  C   UNL A   1     -24.855  -1.012  30.143  0.00  0.00    +0.127 C 
BRANCH  30  31
ATOM     31  C   UNL A   1     -24.973  -2.505  29.788  0.00  0.00    -0.000 C 
ATOM     32  C   UNL A   1     -23.906  -3.173  29.146  0.00  0.00    -0.002 C 
ATOM     33  C   UNL A   1     -23.989  -4.549  28.853  0.00  0.00    -0.000 C 
ATOM     34  C   UNL A   1     -25.137  -5.280  29.205  0.00  0.00    -0.000 C 
ATOM     35  C   UNL A   1     -26.232  -4.611  29.784  0.00  0.00    -0.000 C 
ATOM     36  C   UNL A   1     -26.155  -3.232  30.065  0.00  0.00    -0.002 C 
ENDBRANCH  30  31
BRANCH  30  37
ATOM     37  C   UNL A   1     -25.387  -0.679  31.571  0.00  0.00    +0.098 C 
ATOM     38  C   UNL A   1     -25.189   0.773  32.028  0.00  0.00    +0.021 C 
ATOM     39  C   UNL A   1     -25.336   0.684  33.544  0.00  0.00    +0.020 C 
ATOM     40  C   UNL A   1     -24.829  -0.715  33.905  0.00  0.00    +0.089 C 
ATOM     41  N   UNL A   1     -24.758  -1.481  32.646  0.00  0.00    -0.217 NA
ENDBRANCH  30  37
ENDBRANCH   2  30
TORSDOF 9
