REMARK  Name = outputs/IAG933/test6/raw/output_5113_IAG933_linker_design_.xyz
REMARK  15 active torsions:
REMARK  status: ('A' for Active; 'I' for Inactive)
REMARK    1  A    between atoms: C_1  and  C_2
REMARK    2  A    between atoms: C_1  and  C_8
REMARK    3  A    between atoms: C_1  and  C_28
REMARK    4  A    between atoms: C_13  and  O_33
REMARK    5  A    between atoms: C_14  and  C_15
REMARK    6  A    between atoms: C_21  and  O_22
REMARK    7  A    between atoms: O_22  and  C_23
REMARK    8  A    between atoms: C_23  and  C_24
REMARK    9  A    between atoms: C_28  and  N_29
REMARK   10  A    between atoms: C_28  and  C_30
REMARK   11  A    between atoms: C_30  and  O_33
REMARK   12  A    between atoms: C_30  and  N_34
REMARK   13  A    between atoms: C_31  and  N_34
REMARK   14  A    between atoms: C_32  and  O_35
REMARK   15  A    between atoms: C_37  and  C_40
REMARK                            x       y       z     vdW  Elec       q    Type
REMARK                         _______ _______ _______ _____ _____    ______ ____
ROOT
ATOM      1  C   UNL A   1     -25.314   0.040  29.063  0.00  0.00    +0.163 C 
ENDROOT
BRANCH   1   2
ATOM      2  N   UNL A   1     -26.701   0.023  28.777  0.00  0.00    -0.195 NA
ATOM      3  C   UNL A   1     -27.930  -0.329  29.180  0.00  0.00    +0.307 C 
ATOM      4  O   UNL A   1     -28.227  -1.415  29.704  0.00  0.00    -0.265 OA
BRANCH   3   6
ATOM      5  C   UNL A   1     -29.244   1.618  29.765  0.00  0.00    +0.219 C 
ATOM      6  C   UNL A   1     -28.879   0.493  28.877  0.00  0.00    +0.287 C 
ATOM      7  O   UNL A   1     -29.462  -0.090  27.654  0.00  0.00    -0.278 OA
BRANCH   5   8
ATOM      8  O   UNL A   1     -28.468   1.880  30.916  0.00  0.00    -0.465 OA
ATOM      9  C   UNL A   1     -28.907   3.054  31.589  0.00  0.00    +0.253 C 
ENDBRANCH   5   8
ENDBRANCH   3   6
ENDBRANCH   1   2
BRANCH   1  10
ATOM     10  C   UNL A   1     -24.855  -1.012  30.143  0.00  0.00    +0.064 C 
BRANCH  10  11
ATOM     11  C   UNL A   1     -24.973  -2.505  29.788  0.00  0.00    -0.019 C 
ATOM     12  C   UNL A   1     -23.906  -3.173  29.146  0.00  0.00    -0.004 C 
ATOM     13  C   UNL A   1     -23.989  -4.549  28.853  0.00  0.00    -0.000 C 
ATOM     14  C   UNL A   1     -25.137  -5.280  29.205  0.00  0.00    -0.000 C 
ATOM     15  C   UNL A   1     -26.232  -4.611  29.784  0.00  0.00    -0.000 C 
ATOM     16  C   UNL A   1     -26.155  -3.232  30.065  0.00  0.00    -0.004 C 
ENDBRANCH  10  11
BRANCH  10  17
ATOM     17  C   UNL A   1     -25.387  -0.679  31.571  0.00  0.00    +0.079 C 
ATOM     18  C   UNL A   1     -25.189   0.773  32.028  0.00  0.00    +0.019 C 
ATOM     19  C   UNL A   1     -25.336   0.684  33.544  0.00  0.00    +0.020 C 
ATOM     20  C   UNL A   1     -24.829  -0.715  33.905  0.00  0.00    +0.089 C 
ATOM     21  N   UNL A   1     -24.758  -1.481  32.646  0.00  0.00    -0.219 NA
ENDBRANCH  10  17
ENDBRANCH   1  10
BRANCH   1  22
ATOM     22  C   UNL A   1     -24.544   0.965  28.414  0.00  0.00    +0.288 C 
BRANCH  22  23
ATOM     23  O   UNL A   1     -24.466   1.506  27.165  0.00  0.00    -0.454 OA
BRANCH  23  24
ATOM     24  C   UNL A   1     -25.688   1.614  26.461  0.00  0.00    +0.178 C 
ATOM     25  C   UNL A   1     -26.250   2.920  26.395  0.00  0.00    +0.111 C 
ATOM     26  C   UNL A   1     -27.438   3.091  25.645  0.00  0.00    +0.110 C 
ATOM     27  N   UNL A   1     -28.075   2.089  25.003  0.00  0.00    -0.208 NA
ATOM     28  C   UNL A   1     -27.543   0.849  25.079  0.00  0.00    +0.256 C 
ATOM     29  C   UNL A   1     -26.354   0.576  25.777  0.00  0.00    +0.227 C 
ATOM     30  F   UNL A   1     -25.860  -0.681  25.795  0.00  0.00    -0.196 F 
BRANCH  25  31
ATOM     31  C   UNL A   1     -25.642   4.093  27.123  0.00  0.00    +0.269 C 
ATOM     32  N   UNL A   1     -25.614   5.252  26.449  0.00  0.00    -0.200 NA
ATOM     33  C   UNL A   1     -25.026   6.479  26.963  0.00  0.00    +0.139 C 
ATOM     34  O   UNL A   1     -25.143   3.966  28.243  0.00  0.00    -0.268 OA
ENDBRANCH  25  31
BRANCH  28  35
ATOM     35  O   UNL A   1     -28.193  -0.208  24.477  0.00  0.00    -0.456 OA
BRANCH  35  36
ATOM     36  C   UNL A   1     -29.460   0.005  23.866  0.00  0.00    +0.243 C 
BRANCH  36  37
ATOM     37  C   UNL A   1     -30.065  -1.377  23.573  0.00  0.00    +0.229 C 
ATOM     38  O   UNL A   1     -30.729  -1.878  24.721  0.00  0.00    -0.216 OA
ENDBRANCH  36  37
ENDBRANCH  35  36
ENDBRANCH  28  35
ENDBRANCH  23  24
ENDBRANCH  22  23
BRANCH  22  39
ATOM     39  N   UNL A   1     -23.160   0.780  28.856  0.00  0.00    -0.146 NA
BRANCH  39  40
ATOM     40  C   UNL A   1     -22.102   1.131  28.111  0.00  0.00    +0.035 C 
ATOM     41  C   UNL A   1     -21.100   1.590  27.607  0.00  0.00    +0.009 C 
ENDBRANCH  39  40
ENDBRANCH  22  39
ENDBRANCH   1  22
TORSDOF 15
