REMARK  Name = outputs/IAG933/test6/raw/output_5114_IAG933_linker_design_.xyz
REMARK  9 active torsions:
REMARK  status: ('A' for Active; 'I' for Inactive)
REMARK    1  A    between atoms: C_1  and  C_2
REMARK    2  A    between atoms: C_1  and  C_8
REMARK    3  A    between atoms: C_1  and  N_39
REMARK    4  A    between atoms: C_13  and  C_36
REMARK    5  A    between atoms: C_14  and  C_15
REMARK    6  A    between atoms: C_21  and  O_22
REMARK    7  A    between atoms: O_22  and  C_23
REMARK    8  A    between atoms: C_23  and  C_24
REMARK    9  A    between atoms: C_30  and  O_34
REMARK                            x       y       z     vdW  Elec       q    Type
REMARK                         _______ _______ _______ _____ _____    ______ ____
ROOT
ATOM      1  C   UNL A   1     -21.380   1.557  27.464  0.00  0.00    +0.277 C 
ATOM      2  N   UNL A   1     -22.109  -0.458  30.309  0.00  0.00    +0.218 NA
ATOM      3  C   UNL A   1     -22.622   1.587  26.854  0.00  0.00    +0.234 C 
ATOM      4  C   UNL A   1     -27.176   0.109  28.906  0.00  0.00    +0.050 C 
ATOM      5  C   UNL A   1     -23.717   1.118  27.580  0.00  0.00    +0.063 A 
ATOM      6  C   UNL A   1     -22.267   0.323  29.280  0.00  0.00    +0.431 C 
ATOM      7  C   UNL A   1     -25.718   0.341  28.425  0.00  0.00    +0.035 A 
ATOM      8  C   UNL A   1     -25.070   1.074  27.414  0.00  0.00    +0.002 A 
ATOM      9  N   UNL A   1     -21.213   0.917  28.649  0.00  0.00    -0.024 NA
ATOM     10  N   UNL A   1     -24.689  -0.031  29.173  0.00  0.00    -0.322 N 
ATOM     11  C   UNL A   1     -23.529   0.447  28.764  0.00  0.00    +0.155 A 
ENDROOT
BRANCH   8  12
ATOM     12  C   UNL A   1     -25.688   1.614  26.461  0.00  0.00    +0.094 C 
ATOM     13  C   UNL A   1     -26.250   2.920  26.395  0.00  0.00    +0.059 C 
ATOM     14  C   UNL A   1     -27.438   3.091  25.645  0.00  0.00    +0.102 C 
ATOM     15  N   UNL A   1     -28.075   2.089  25.003  0.00  0.00    -0.212 NA
ATOM     16  C   UNL A   1     -27.543   0.849  25.079  0.00  0.00    +0.234 C 
ATOM     17  C   UNL A   1     -26.354   0.576  25.777  0.00  0.00    +0.244 C 
ATOM     18  F   UNL A   1     -25.860  -0.681  25.795  0.00  0.00    -0.227 F 
BRANCH  13  19
ATOM     19  C   UNL A   1     -25.642   4.093  27.123  0.00  0.00    +0.263 C 
ATOM     20  N   UNL A   1     -25.614   5.252  26.449  0.00  0.00    -0.200 NA
ATOM     21  C   UNL A   1     -25.026   6.479  26.963  0.00  0.00    +0.139 C 
ATOM     22  O   UNL A   1     -25.143   3.966  28.243  0.00  0.00    -0.269 OA
ENDBRANCH  13  19
BRANCH  16  23
ATOM     23  O   UNL A   1     -28.193  -0.208  24.477  0.00  0.00    -0.459 OA
BRANCH  23  24
ATOM     24  C   UNL A   1     -29.460   0.005  23.866  0.00  0.00    +0.242 C 
BRANCH  24  25
ATOM     25  C   UNL A   1     -30.065  -1.377  23.573  0.00  0.00    +0.229 C 
ATOM     26  O   UNL A   1     -30.729  -1.878  24.721  0.00  0.00    -0.216 OA
ENDBRANCH  24  25
ENDBRANCH  23  24
ENDBRANCH  16  23
ENDBRANCH   8  12
BRANCH   3  27
ATOM     27  O   UNL A   1     -22.805   1.922  25.543  0.00  0.00    -0.299 OA
ATOM     28  O   UNL A   1     -23.531   3.052  25.410  0.00  0.00    +0.029 OA
ENDBRANCH   3  27
BRANCH  10  29
ATOM     29  C   UNL A   1     -24.855  -1.012  30.143  0.00  0.00    +0.124 C 
BRANCH  29  30
ATOM     30  C   UNL A   1     -24.973  -2.505  29.788  0.00  0.00    -0.000 C 
ATOM     31  C   UNL A   1     -23.906  -3.173  29.146  0.00  0.00    -0.002 C 
ATOM     32  C   UNL A   1     -23.989  -4.549  28.853  0.00  0.00    -0.000 C 
ATOM     33  C   UNL A   1     -25.137  -5.280  29.205  0.00  0.00    -0.000 C 
ATOM     34  C   UNL A   1     -26.232  -4.611  29.784  0.00  0.00    -0.000 C 
ATOM     35  C   UNL A   1     -26.155  -3.232  30.065  0.00  0.00    -0.002 C 
ENDBRANCH  29  30
BRANCH  29  36
ATOM     36  C   UNL A   1     -25.387  -0.679  31.571  0.00  0.00    +0.098 C 
ATOM     37  C   UNL A   1     -25.189   0.773  32.028  0.00  0.00    +0.021 C 
ATOM     38  C   UNL A   1     -25.336   0.684  33.544  0.00  0.00    +0.020 C 
ATOM     39  C   UNL A   1     -24.829  -0.715  33.905  0.00  0.00    +0.089 C 
ATOM     40  N   UNL A   1     -24.758  -1.481  32.646  0.00  0.00    -0.217 NA
ENDBRANCH  29  36
ENDBRANCH  10  29
TORSDOF 9
