REMARK  Name = outputs/IAG933/test6/raw/output_5117_IAG933_linker_design_.xyz
REMARK  10 active torsions:
REMARK  status: ('A' for Active; 'I' for Inactive)
REMARK    1  A    between atoms: C_1  and  C_2
REMARK    2  A    between atoms: C_1  and  C_8
REMARK    3  A    between atoms: C_1  and  C_30
REMARK    4  A    between atoms: C_13  and  C_31
REMARK    5  A    between atoms: C_14  and  C_15
REMARK    6  A    between atoms: C_21  and  O_22
REMARK    7  A    between atoms: O_22  and  C_23
REMARK    8  A    between atoms: C_23  and  C_24
REMARK    9  A    between atoms: C_30  and  C_37
REMARK   10  A    between atoms: C_30  and  O_40
REMARK                            x       y       z     vdW  Elec       q    Type
REMARK                         _______ _______ _______ _____ _____    ______ ____
ROOT
ATOM      1  C   UNL A   1     -23.274   1.829  26.510  0.00  0.00    +0.167 A 
ATOM      2  C   UNL A   1     -23.008   0.217  28.726  0.00  0.00    +0.135 A 
ATOM      3  C   UNL A   1     -24.411   1.307  27.117  0.00  0.00    +0.034 A 
ATOM      4  O   UNL A   1     -22.596  -0.577  29.777  0.00  0.00    -0.476 OA
ATOM      5  F   UNL A   1     -21.040   2.056  26.269  0.00  0.00    -0.202 F 
ATOM      6  C   UNL A   1     -21.234  -0.703  29.562  0.00  0.00    +0.210 C 
ATOM      7  C   UNL A   1     -21.877   0.681  28.091  0.00  0.00    +0.045 A 
ATOM      8  C   UNL A   1     -20.759   0.020  28.759  0.00  0.00    +0.079 C 
ATOM      9  C   UNL A   1     -24.307   0.504  28.269  0.00  0.00    +0.044 A 
ATOM     10  F   UNL A   1     -23.323   2.656  25.492  0.00  0.00    -0.202 F 
ATOM     11  C   UNL A   1     -22.029   1.512  26.967  0.00  0.00    +0.166 A 
ENDROOT
BRANCH   3  12
ATOM     12  C   UNL A   1     -25.688   1.614  26.461  0.00  0.00    +0.040 C 
ATOM     13  C   UNL A   1     -26.250   2.920  26.395  0.00  0.00    +0.077 C 
ATOM     14  C   UNL A   1     -27.438   3.091  25.645  0.00  0.00    +0.107 C 
ATOM     15  N   UNL A   1     -28.075   2.089  25.003  0.00  0.00    -0.208 NA
ATOM     16  C   UNL A   1     -27.543   0.849  25.079  0.00  0.00    +0.253 C 
ATOM     17  C   UNL A   1     -26.354   0.576  25.777  0.00  0.00    +0.193 C 
ATOM     18  F   UNL A   1     -25.860  -0.681  25.795  0.00  0.00    -0.199 F 
BRANCH  13  19
ATOM     19  C   UNL A   1     -25.642   4.093  27.123  0.00  0.00    +0.266 C 
ATOM     20  N   UNL A   1     -25.614   5.252  26.449  0.00  0.00    -0.200 NA
ATOM     21  C   UNL A   1     -25.026   6.479  26.963  0.00  0.00    +0.139 C 
ATOM     22  O   UNL A   1     -25.143   3.966  28.243  0.00  0.00    -0.268 OA
ENDBRANCH  13  19
BRANCH  16  23
ATOM     23  O   UNL A   1     -28.193  -0.208  24.477  0.00  0.00    -0.456 OA
BRANCH  23  24
ATOM     24  C   UNL A   1     -29.460   0.005  23.866  0.00  0.00    +0.243 C 
BRANCH  24  25
ATOM     25  C   UNL A   1     -30.065  -1.377  23.573  0.00  0.00    +0.229 C 
ATOM     26  O   UNL A   1     -30.729  -1.878  24.721  0.00  0.00    -0.216 OA
ENDBRANCH  24  25
ENDBRANCH  23  24
ENDBRANCH  16  23
ENDBRANCH   3  12
BRANCH   9  27
ATOM     27  C   UNL A   1     -25.474   0.023  29.103  0.00  0.00    +0.185 C 
BRANCH  27  29
ATOM     28  O   UNL A   1     -27.733  -0.532  29.283  0.00  0.00    -0.034 OA
ATOM     29  O   UNL A   1     -26.808  -0.027  28.529  0.00  0.00    -0.187 OA
ENDBRANCH  27  29
BRANCH  27  30
ATOM     30  C   UNL A   1     -24.855  -1.012  30.143  0.00  0.00    +0.073 C 
BRANCH  30  31
ATOM     31  C   UNL A   1     -24.973  -2.505  29.788  0.00  0.00    -0.018 C 
ATOM     32  C   UNL A   1     -23.906  -3.173  29.146  0.00  0.00    -0.004 C 
ATOM     33  C   UNL A   1     -23.989  -4.549  28.853  0.00  0.00    -0.000 C 
ATOM     34  C   UNL A   1     -25.137  -5.280  29.205  0.00  0.00    -0.000 C 
ATOM     35  C   UNL A   1     -26.232  -4.611  29.784  0.00  0.00    -0.000 C 
ATOM     36  C   UNL A   1     -26.155  -3.232  30.065  0.00  0.00    -0.004 C 
ENDBRANCH  30  31
BRANCH  30  37
ATOM     37  C   UNL A   1     -25.387  -0.679  31.571  0.00  0.00    +0.080 C 
ATOM     38  C   UNL A   1     -25.189   0.773  32.028  0.00  0.00    +0.019 C 
ATOM     39  C   UNL A   1     -25.336   0.684  33.544  0.00  0.00    +0.020 C 
ATOM     40  C   UNL A   1     -24.829  -0.715  33.905  0.00  0.00    +0.089 C 
ATOM     41  N   UNL A   1     -24.758  -1.481  32.646  0.00  0.00    -0.219 NA
ENDBRANCH  30  37
ENDBRANCH  27  30
ENDBRANCH   9  27
TORSDOF 10
