REMARK  Name = outputs/IAG933/test6/raw/output_5118_IAG933_linker_design_.xyz
REMARK  12 active torsions:
REMARK  status: ('A' for Active; 'I' for Inactive)
REMARK    1  A    between atoms: C_1  and  C_2
REMARK    2  A    between atoms: C_1  and  C_8
REMARK    3  A    between atoms: C_1  and  C_33
REMARK    4  A    between atoms: C_14  and  C_15
REMARK    5  A    between atoms: C_15  and  O_18
REMARK    6  A    between atoms: O_18  and  C_37
REMARK    7  A    between atoms: C_21  and  O_22
REMARK    8  A    between atoms: O_22  and  C_23
REMARK    9  A    between atoms: C_23  and  C_24
REMARK   10  A    between atoms: C_30  and  C_32
REMARK   11  A    between atoms: C_32  and  C_37
REMARK   12  A    between atoms: C_37  and  C_44
REMARK                            x       y       z     vdW  Elec       q    Type
REMARK                         _______ _______ _______ _____ _____    ______ ____
ROOT
ATOM      1  C   UNL A   1     -25.286   2.779  29.186  0.00  0.00    +0.192 C 
ENDROOT
BRANCH   1   8
ATOM      2  N   UNL A   1     -23.279   2.160  28.234  0.00  0.00    -0.226 NA
ATOM      3  C   UNL A   1     -22.336   1.431  27.927  0.00  0.00    +0.285 C 
ATOM      4  C   UNL A   1     -23.823   0.021  29.657  0.00  0.00    +0.075 C 
ATOM      5  O   UNL A   1     -21.755   0.432  28.600  0.00  0.00    -0.452 OA
ATOM      6  C   UNL A   1     -22.462  -0.271  29.544  0.00  0.00    +0.210 C 
ATOM      7 CL   UNL A   1     -21.646   1.894  26.389  0.00  0.00    -0.022 Cl
ATOM      8  C   UNL A   1     -24.176   1.631  29.186  0.00  0.00    +0.151 C 
BRANCH   4   9
ATOM      9  C   UNL A   1     -24.855  -1.012  30.143  0.00  0.00    +0.044 C 
BRANCH   9  10
ATOM     10  C   UNL A   1     -24.973  -2.505  29.788  0.00  0.00    -0.021 C 
ATOM     11  C   UNL A   1     -23.906  -3.173  29.146  0.00  0.00    -0.004 C 
ATOM     12  C   UNL A   1     -23.989  -4.549  28.853  0.00  0.00    -0.000 C 
ATOM     13  C   UNL A   1     -25.137  -5.280  29.205  0.00  0.00    -0.000 C 
ATOM     14  C   UNL A   1     -26.232  -4.611  29.784  0.00  0.00    -0.000 C 
ATOM     15  C   UNL A   1     -26.155  -3.232  30.065  0.00  0.00    -0.004 C 
ENDBRANCH   9  10
BRANCH   9  16
ATOM     16  C   UNL A   1     -25.387  -0.679  31.571  0.00  0.00    +0.077 C 
ATOM     17  C   UNL A   1     -25.189   0.773  32.028  0.00  0.00    +0.019 C 
ATOM     18  C   UNL A   1     -25.336   0.684  33.544  0.00  0.00    +0.020 C 
ATOM     19  C   UNL A   1     -24.829  -0.715  33.905  0.00  0.00    +0.089 C 
ATOM     20  N   UNL A   1     -24.758  -1.481  32.646  0.00  0.00    -0.219 NA
ENDBRANCH   9  16
ENDBRANCH   4   9
ENDBRANCH   1   8
BRANCH   1  21
ATOM     21  O   UNL A   1     -25.143   3.966  28.243  0.00  0.00    -0.462 OA
BRANCH  21  22
ATOM     22  C   UNL A   1     -25.642   4.093  27.123  0.00  0.00    +0.222 C 
ATOM     23  N   UNL A   1     -25.614   5.252  26.449  0.00  0.00    -0.236 NA
ATOM     24  C   UNL A   1     -25.026   6.479  26.963  0.00  0.00    +0.155 C 
BRANCH  22  26
ATOM     25  C   UNL A   1     -25.688   1.614  26.461  0.00  0.00    +0.041 C 
ATOM     26  C   UNL A   1     -26.250   2.920  26.395  0.00  0.00    +0.074 C 
ATOM     27  C   UNL A   1     -27.438   3.091  25.645  0.00  0.00    +0.107 C 
ATOM     28  N   UNL A   1     -28.075   2.089  25.003  0.00  0.00    -0.208 NA
ATOM     29  C   UNL A   1     -27.543   0.849  25.079  0.00  0.00    +0.253 C 
ATOM     30  C   UNL A   1     -26.354   0.576  25.777  0.00  0.00    +0.193 C 
ATOM     31  F   UNL A   1     -25.860  -0.681  25.795  0.00  0.00    -0.199 F 
BRANCH  29  32
ATOM     32  O   UNL A   1     -28.193  -0.208  24.477  0.00  0.00    -0.456 OA
BRANCH  32  33
ATOM     33  C   UNL A   1     -29.460   0.005  23.866  0.00  0.00    +0.243 C 
BRANCH  33  34
ATOM     34  C   UNL A   1     -30.065  -1.377  23.573  0.00  0.00    +0.229 C 
ATOM     35  O   UNL A   1     -30.729  -1.878  24.721  0.00  0.00    -0.216 OA
ENDBRANCH  33  34
ENDBRANCH  32  33
ENDBRANCH  29  32
ENDBRANCH  22  26
ENDBRANCH  21  22
ENDBRANCH   1  21
BRANCH   1  36
ATOM     36  C   UNL A   1     -26.206   2.767  29.973  0.00  0.00    +0.070 C 
BRANCH  36  38
ATOM     37  N   UNL A   1     -27.561   4.982  29.739  0.00  0.00    -0.272 N 
ATOM     38  C   UNL A   1     -26.621   4.119  30.263  0.00  0.00    +0.102 C 
ATOM     39  C   UNL A   1     -27.500   6.199  30.370  0.00  0.00    +0.252 C 
ATOM     40  C   UNL A   1     -24.967   4.430  32.291  0.00  0.00    +0.018 C 
ATOM     41  C   UNL A   1     -25.289   8.325  31.309  0.00  0.00    +0.072 C 
ATOM     42  C   UNL A   1     -24.564   5.335  33.285  0.00  0.00    +0.231 C 
ATOM     43  C   UNL A   1     -28.687   4.649  28.788  0.00  0.00    +0.115 C 
ATOM     44  C   UNL A   1     -26.347   6.084  31.305  0.00  0.00    +0.081 C 
ATOM     45  C   UNL A   1     -25.925   4.825  31.340  0.00  0.00    +0.002 C 
ATOM     46  C   UNL A   1     -25.629   6.973  31.981  0.00  0.00    +0.121 C 
ATOM     47  O   UNL A   1     -28.198   7.174  30.214  0.00  0.00    -0.270 OA
ATOM     48  O   UNL A   1     -24.970   6.629  33.150  0.00  0.00    -0.475 OA
ENDBRANCH  36  38
ENDBRANCH   1  36
TORSDOF 12
