MODEL 511
MODEL 1
REMARK VINA RESULT:    -7.137      0.000      0.000
REMARK INTER + INTRA:         -10.895
REMARK INTER:                 -10.058
REMARK INTRA:                  -0.837
REMARK UNBOUND:                -0.837
REMARK  Name = No_511-gen_results/8p0m/2024-11-27-11-27-31/
REMARK  7 active torsions:
REMARK  status: ('A' for Active; 'I' for Inactive)
REMARK    1  A    between atoms: C_2  and  C_17
REMARK    2  A    between atoms: C_4  and  C_7
REMARK    3  A    between atoms: C_7  and  C_8
REMARK    4  A    between atoms: C_8  and  C_9
REMARK    5  A    between atoms: C_10  and  O_22
REMARK    6  A    between atoms: O_22  and  C_23
REMARK    7  A    between atoms: C_23  and  C_24
REMARK                            x       y       z     vdW  Elec       q    Type
REMARK                         _______ _______ _______ _____ _____    ______ ____
ROOT
ATOM      1  C   UNL A   1     -23.082  -1.173  29.752  0.00  0.00    +0.033 C 
ATOM      2  C   UNL A   1     -23.045  -1.041  31.204  0.00  0.00    +0.005 C 
ENDROOT
BRANCH   1   3
ATOM      3  C   UNL A   1     -22.841  -0.028  28.991  0.00  0.00    +0.051 A 
ATOM      4  C   UNL A   1     -23.718   1.008  28.698  0.00  0.00    +0.149 A 
ATOM      5  C   UNL A   1     -23.341   1.993  27.744  0.00  0.00    +0.091 A 
ATOM      6  C   UNL A   1     -22.056   1.922  27.178  0.00  0.00    +0.018 A 
ATOM      7  C   UNL A   1     -21.162   1.058  27.702  0.00  0.00    +0.043 A 
ATOM      8  C   UNL A   1     -21.500   0.035  28.556  0.00  0.00    +0.195 A 
ATOM      9 CL   UNL A   1     -24.480   3.185  27.315  0.00  0.00    -0.079 Cl
ATOM     10  O   UNL A   1     -20.608  -0.842  28.885  0.00  0.00    -0.287 OA
BRANCH   4  11
ATOM     11  O   UNL A   1     -25.011   0.995  29.132  0.00  0.00    -0.466 OA
BRANCH  11  12
ATOM     12  C   UNL A   1     -25.525   1.718  30.122  0.00  0.00    +0.277 C 
BRANCH  12  13
ATOM     13  C   UNL A   1     -24.604   2.133  31.154  0.00  0.00    +0.255 C 
ATOM     14  O   UNL A   1     -24.884   1.837  32.295  0.00  0.00    -0.284 OA
ENDBRANCH  12  13
ENDBRANCH  11  12
ENDBRANCH   4  11
ENDBRANCH   1   3
BRANCH   1  15
ATOM     15  C   UNL A   1     -23.707  -2.331  29.143  0.00  0.00    +0.032 C 
BRANCH  15  19
ATOM     16  C   UNL A   1     -26.604  -4.626  29.709  0.00  0.00    +0.018 A 
ATOM     17  C   UNL A   1     -27.296  -3.938  30.105  0.00  0.00    +0.081 A 
ATOM     18  C   UNL A   1     -25.282  -4.094  29.341  0.00  0.00    +0.054 A 
ATOM     19  C   UNL A   1     -24.933  -2.746  29.647  0.00  0.00    -0.011 A 
ATOM     20  C   UNL A   1     -27.171  -2.528  30.567  0.00  0.00    +0.006 A 
ATOM     21  C   UNL A   1     -25.961  -1.996  30.234  0.00  0.00    -0.003 A 
ATOM     22 CL   UNL A   1     -24.110  -5.048  28.547  0.00  0.00    -0.083 Cl
BRANCH  17  23
ATOM     23  C   UNL A   1     -28.751  -4.522  30.543  0.00  0.00    +0.388 C 
ATOM     24  O   UNL A   1     -29.125  -4.435  31.771  0.00  0.00    -0.241 OA
ATOM     25  O   UNL A   1     -29.484  -4.934  29.671  0.00  0.00    -0.241 OA
ENDBRANCH  17  23
ENDBRANCH  15  19
ENDBRANCH   1  15
TORSDOF 7
ENDMDL
ENDMDL
