REMARK  Name = outputs/IAG933/test6/raw/output_5122_IAG933_linker_design_.xyz
REMARK  16 active torsions:
REMARK  status: ('A' for Active; 'I' for Inactive)
REMARK    1  A    between atoms: C_1  and  C_2
REMARK    2  A    between atoms: C_1  and  C_8
REMARK    3  A    between atoms: C_1  and  N_29
REMARK    4  A    between atoms: C_13  and  C_28
REMARK    5  A    between atoms: C_14  and  C_15
REMARK    6  A    between atoms: C_21  and  O_22
REMARK    7  A    between atoms: O_22  and  C_23
REMARK    8  A    between atoms: C_23  and  C_24
REMARK    9  A    between atoms: C_30  and  C_37
REMARK   10  A    between atoms: C_30  and  C_43
REMARK   11  A    between atoms: C_33  and  C_35
REMARK   12  A    between atoms: C_33  and  C_43
REMARK   13  A    between atoms: N_34  and  C_41
REMARK   14  A    between atoms: C_35  and  C_42
REMARK   15  A    between atoms: C_39  and  C_42
REMARK   16  A    between atoms: C_42  and  C_48
REMARK                            x       y       z     vdW  Elec       q    Type
REMARK                         _______ _______ _______ _____ _____    ______ ____
ROOT
ATOM      1  C   UNL A   1     -24.517   1.501  26.932  0.00  0.00    +0.103 C 
ATOM      2  N   UNL A   1     -23.529  -0.492  29.678  0.00  0.00    -0.265 NA
ATOM      3  N   UNL A   1     -20.934   1.317  28.267  0.00  0.00    -0.140 NA
ATOM      4  S   UNL A   1     -22.564   1.789  26.478  0.00  0.00    -0.084 S 
ATOM      5  C   UNL A   1     -25.422   1.347  29.128  0.00  0.00    +0.087 C 
ATOM      6  C   UNL A   1     -24.409   1.076  28.209  0.00  0.00    +0.028 C 
ATOM      7  C   UNL A   1     -22.129   1.176  27.832  0.00  0.00    +0.146 C 
ATOM      8  C   UNL A   1     -23.325   0.519  28.617  0.00  0.00    +0.100 C 
ENDROOT
BRANCH   1   9
ATOM      9  C   UNL A   1     -25.688   1.614  26.461  0.00  0.00    +0.030 C 
ATOM     10  C   UNL A   1     -26.250   2.920  26.395  0.00  0.00    +0.074 C 
ATOM     11  C   UNL A   1     -27.438   3.091  25.645  0.00  0.00    +0.106 C 
ATOM     12  N   UNL A   1     -28.075   2.089  25.003  0.00  0.00    -0.208 NA
ATOM     13  C   UNL A   1     -27.543   0.849  25.079  0.00  0.00    +0.253 C 
ATOM     14  C   UNL A   1     -26.354   0.576  25.777  0.00  0.00    +0.190 C 
ATOM     15  F   UNL A   1     -25.860  -0.681  25.795  0.00  0.00    -0.200 F 
BRANCH  10  16
ATOM     16  C   UNL A   1     -25.642   4.093  27.123  0.00  0.00    +0.266 C 
ATOM     17  N   UNL A   1     -25.614   5.252  26.449  0.00  0.00    -0.200 NA
ATOM     18  C   UNL A   1     -25.026   6.479  26.963  0.00  0.00    +0.139 C 
ATOM     19  O   UNL A   1     -25.143   3.966  28.243  0.00  0.00    -0.268 OA
ENDBRANCH  10  16
BRANCH  13  20
ATOM     20  O   UNL A   1     -28.193  -0.208  24.477  0.00  0.00    -0.456 OA
BRANCH  20  21
ATOM     21  C   UNL A   1     -29.460   0.005  23.866  0.00  0.00    +0.243 C 
BRANCH  21  22
ATOM     22  C   UNL A   1     -30.065  -1.377  23.573  0.00  0.00    +0.229 C 
ATOM     23  O   UNL A   1     -30.729  -1.878  24.721  0.00  0.00    -0.216 OA
ENDBRANCH  21  22
ENDBRANCH  20  21
ENDBRANCH  13  20
ENDBRANCH   1   9
BRANCH   5  24
ATOM     24  N   UNL A   1     -26.740   2.128  29.172  0.00  0.00    -0.178 NA
ATOM     25  C   UNL A   1     -28.037   2.209  29.994  0.00  0.00    +0.249 C 
ATOM     26  O   UNL A   1     -27.822   2.690  31.111  0.00  0.00    -0.273 OA
BRANCH  25  27
ATOM     27  C   UNL A   1     -29.081   1.725  29.712  0.00  0.00    +0.101 C 
BRANCH  27  29
ATOM     28  C   UNL A   1     -28.151  -0.309  29.043  0.00  0.00    -0.004 C 
ATOM     29  C   UNL A   1     -29.064   0.567  28.933  0.00  0.00    -0.017 C 
ENDBRANCH  27  29
BRANCH  27  30
ATOM     30  C   UNL A   1     -30.323   2.317  30.091  0.00  0.00    +0.014 C 
BRANCH  30  31
ATOM     31  C   UNL A   1     -31.297   1.380  30.360  0.00  0.00    +0.004 C 
BRANCH  31  32
ATOM     32  C   UNL A   1     -31.118   0.030  30.314  0.00  0.00    +0.036 C 
BRANCH  32  33
ATOM     33  C   UNL A   1     -30.607  -0.915  29.448  0.00  0.00    +0.185 C 
ATOM     34  O   UNL A   1     -30.622  -1.108  28.145  0.00  0.00    -0.220 OA
BRANCH  33  35
ATOM     35  C   UNL A   1     -30.688  -2.263  30.133  0.00  0.00    +0.215 C 
ATOM     36  O   UNL A   1     -29.434  -2.446  30.760  0.00  0.00    -0.218 OA
ENDBRANCH  33  35
ENDBRANCH  32  33
ENDBRANCH  31  32
ENDBRANCH  30  31
ENDBRANCH  27  30
ENDBRANCH  25  27
ENDBRANCH   5  24
BRANCH   2  37
ATOM     37  C   UNL A   1     -24.855  -1.012  30.143  0.00  0.00    +0.141 C 
BRANCH  37  38
ATOM     38  C   UNL A   1     -24.973  -2.505  29.788  0.00  0.00    +0.001 C 
ATOM     39  C   UNL A   1     -23.906  -3.173  29.146  0.00  0.00    -0.002 C 
ATOM     40  C   UNL A   1     -23.989  -4.549  28.853  0.00  0.00    -0.000 C 
ATOM     41  C   UNL A   1     -25.137  -5.280  29.205  0.00  0.00    -0.000 C 
ATOM     42  C   UNL A   1     -26.232  -4.611  29.784  0.00  0.00    -0.000 C 
ATOM     43  C   UNL A   1     -26.155  -3.232  30.065  0.00  0.00    -0.002 C 
ENDBRANCH  37  38
BRANCH  37  44
ATOM     44  C   UNL A   1     -25.387  -0.679  31.571  0.00  0.00    +0.099 C 
ATOM     45  C   UNL A   1     -25.189   0.773  32.028  0.00  0.00    +0.021 C 
ATOM     46  C   UNL A   1     -25.336   0.684  33.544  0.00  0.00    +0.020 C 
ATOM     47  C   UNL A   1     -24.829  -0.715  33.905  0.00  0.00    +0.089 C 
ATOM     48  N   UNL A   1     -24.758  -1.481  32.646  0.00  0.00    -0.217 NA
ENDBRANCH  37  44
ENDBRANCH   2  37
TORSDOF 16
