REMARK  Name = outputs/IAG933/test6/raw/output_5124_IAG933_linker_design_.xyz
REMARK  15 active torsions:
REMARK  status: ('A' for Active; 'I' for Inactive)
REMARK    1  A    between atoms: C_1  and  C_2
REMARK    2  A    between atoms: C_1  and  C_8
REMARK    3  A    between atoms: C_1  and  N_39
REMARK    4  A    between atoms: C_13  and  N_31
REMARK    5  A    between atoms: C_14  and  C_15
REMARK    6  A    between atoms: C_21  and  O_22
REMARK    7  A    between atoms: O_22  and  C_23
REMARK    8  A    between atoms: C_23  and  C_24
REMARK    9  A    between atoms: C_28  and  C_34
REMARK   10  A    between atoms: C_28  and  C_48
REMARK   11  A    between atoms: C_32  and  C_47
REMARK   12  A    between atoms: C_34  and  N_39
REMARK   13  A    between atoms: C_37  and  N_39
REMARK   14  A    between atoms: C_45  and  C_46
REMARK   15  A    between atoms: C_45  and  O_49
REMARK                            x       y       z     vdW  Elec       q    Type
REMARK                         _______ _______ _______ _____ _____    ______ ____
ROOT
ATOM      1  N   UNL A   1     -25.022  -0.029  29.073  0.00  0.00    -0.258 NA
ENDROOT
BRANCH   1   5
ATOM      2  N   UNL A   1     -24.776   1.242  27.410  0.00  0.00    -0.247 NA
ATOM      3  C   UNL A   1     -23.618   0.873  27.262  0.00  0.00    +0.178 C 
ATOM      4  C   UNL A   1     -22.589   0.619  29.567  0.00  0.00    +0.035 C 
ATOM      5  C   UNL A   1     -23.983   0.755  28.621  0.00  0.00    +0.117 C 
BRANCH   2   6
ATOM      6  C   UNL A   1     -25.688   1.614  26.461  0.00  0.00    +0.130 C 
ATOM      7  C   UNL A   1     -26.250   2.920  26.395  0.00  0.00    +0.070 C 
ATOM      8  C   UNL A   1     -27.438   3.091  25.645  0.00  0.00    +0.103 C 
ATOM      9  N   UNL A   1     -28.075   2.089  25.003  0.00  0.00    -0.212 NA
ATOM     10  C   UNL A   1     -27.543   0.849  25.079  0.00  0.00    +0.235 C 
ATOM     11  C   UNL A   1     -26.354   0.576  25.777  0.00  0.00    +0.255 C 
ATOM     12  F   UNL A   1     -25.860  -0.681  25.795  0.00  0.00    -0.225 F 
BRANCH   7  13
ATOM     13  C   UNL A   1     -25.642   4.093  27.123  0.00  0.00    +0.264 C 
ATOM     14  N   UNL A   1     -25.614   5.252  26.449  0.00  0.00    -0.200 NA
ATOM     15  C   UNL A   1     -25.026   6.479  26.963  0.00  0.00    +0.139 C 
ATOM     16  O   UNL A   1     -25.143   3.966  28.243  0.00  0.00    -0.269 OA
ENDBRANCH   7  13
BRANCH  10  17
ATOM     17  O   UNL A   1     -28.193  -0.208  24.477  0.00  0.00    -0.459 OA
BRANCH  17  18
ATOM     18  C   UNL A   1     -29.460   0.005  23.866  0.00  0.00    +0.242 C 
BRANCH  18  19
ATOM     19  C   UNL A   1     -30.065  -1.377  23.573  0.00  0.00    +0.229 C 
ATOM     20  O   UNL A   1     -30.729  -1.878  24.721  0.00  0.00    -0.216 OA
ENDBRANCH  18  19
ENDBRANCH  17  18
ENDBRANCH  10  17
ENDBRANCH   2   6
BRANCH   3  23
ATOM     21  O   UNL A   1     -22.873   2.297  25.526  0.00  0.00    -0.258 OA
ATOM     22  F   UNL A   1     -21.470   1.694  27.043  0.00  0.00    -0.162 F 
ATOM     23  C   UNL A   1     -22.644   1.663  26.575  0.00  0.00    +0.328 C 
ENDBRANCH   3  23
ENDBRANCH   1   5
BRANCH   1  24
ATOM     24  C   UNL A   1     -24.855  -1.012  30.143  0.00  0.00    +0.097 C 
BRANCH  24  25
ATOM     25  C   UNL A   1     -24.973  -2.505  29.788  0.00  0.00    -0.006 C 
ATOM     26  C   UNL A   1     -23.906  -3.173  29.146  0.00  0.00    -0.003 C 
ATOM     27  C   UNL A   1     -23.989  -4.549  28.853  0.00  0.00    -0.000 C 
ATOM     28  C   UNL A   1     -25.137  -5.280  29.205  0.00  0.00    -0.000 C 
ATOM     29  C   UNL A   1     -26.232  -4.611  29.784  0.00  0.00    -0.000 C 
ATOM     30  C   UNL A   1     -26.155  -3.232  30.065  0.00  0.00    -0.003 C 
ENDBRANCH  24  25
BRANCH  24  31
ATOM     31  C   UNL A   1     -25.387  -0.679  31.571  0.00  0.00    +0.092 C 
ATOM     32  C   UNL A   1     -25.189   0.773  32.028  0.00  0.00    +0.021 C 
ATOM     33  C   UNL A   1     -25.336   0.684  33.544  0.00  0.00    +0.020 C 
ATOM     34  C   UNL A   1     -24.829  -0.715  33.905  0.00  0.00    +0.089 C 
ATOM     35  N   UNL A   1     -24.758  -1.481  32.646  0.00  0.00    -0.218 NA
ENDBRANCH  24  31
ENDBRANCH   1  24
BRANCH   1  36
ATOM     36  C   UNL A   1     -26.390  -0.125  28.651  0.00  0.00    +0.075 C 
BRANCH  36  37
ATOM     37  C   UNL A   1     -27.737  -0.197  28.971  0.00  0.00    +0.037 C 
BRANCH  37  46
ATOM     38  N   UNL A   1     -29.058   0.459  31.343  0.00  0.00    -0.245 N 
ATOM     39  C   UNL A   1     -29.657  -0.900  31.283  0.00  0.00    +0.097 C 
ATOM     40  C   UNL A   1     -30.030  -1.106  29.816  0.00  0.00    +0.024 C 
ATOM     41  O   UNL A   1     -29.240   0.671  33.650  0.00  0.00    -0.222 OA
ATOM     42  C   UNL A   1     -29.771   1.410  29.370  0.00  0.00    +0.022 C 
ATOM     43  C   UNL A   1     -29.088   1.228  32.496  0.00  0.00    +0.447 C 
ATOM     44  O   UNL A   1     -28.945   2.465  32.333  0.00  0.00    -0.222 OA
ATOM     45  C   UNL A   1     -30.589   0.131  29.143  0.00  0.00    +0.033 C 
ATOM     46  C   UNL A   1     -28.452   0.861  29.986  0.00  0.00    +0.080 C 
BRANCH  45  47
ATOM     47  C   UNL A   1     -30.834   0.015  27.629  0.00  0.00    +0.142 C 
BRANCH  47  49
ATOM     48  C   UNL A   1     -32.193   1.123  26.090  0.00  0.00    +0.174 C 
ATOM     49  O   UNL A   1     -32.102   0.643  27.411  0.00  0.00    -0.351 OA
ENDBRANCH  47  49
ENDBRANCH  45  47
ENDBRANCH  37  46
ENDBRANCH  36  37
ENDBRANCH   1  36
TORSDOF 15
