REMARK  Name = outputs/IAG933/test6/raw/output_5128_IAG933_linker_design_.xyz
REMARK  11 active torsions:
REMARK  status: ('A' for Active; 'I' for Inactive)
REMARK    1  A    between atoms: C_1  and  C_2
REMARK    2  A    between atoms: C_1  and  C_8
REMARK    3  A    between atoms: C_1  and  N_32
REMARK    4  A    between atoms: C_13  and  C_44
REMARK    5  A    between atoms: C_14  and  C_15
REMARK    6  A    between atoms: C_21  and  O_22
REMARK    7  A    between atoms: O_22  and  C_23
REMARK    8  A    between atoms: C_23  and  C_24
REMARK    9  A    between atoms: C_28  and  C_30
REMARK   10  A    between atoms: C_28  and  N_32
REMARK   11  A    between atoms: N_32  and  C_41
REMARK                            x       y       z     vdW  Elec       q    Type
REMARK                         _______ _______ _______ _____ _____    ______ ____
ROOT
ATOM      1  C   UNL A   1     -23.247   1.811  26.342  0.00  0.00    +0.061 C 
ATOM      2  F   UNL A   1     -22.438  -0.557  29.516  0.00  0.00    -0.201 F 
ATOM      3  C   UNL A   1     -21.796   0.885  27.922  0.00  0.00    +0.170 C 
ATOM      4  F   UNL A   1     -20.549   0.715  28.303  0.00  0.00    -0.202 F 
ATOM      5  C   UNL A   1     -22.921   0.230  28.599  0.00  0.00    +0.181 C 
ATOM      6  C   UNL A   1     -24.242   0.371  28.194  0.00  0.00    +0.079 C 
ATOM      7 CL   UNL A   1     -23.371   2.657  24.822  0.00  0.00    -0.082 Cl
ATOM      8  C   UNL A   1     -21.969   1.708  26.876  0.00  0.00    +0.043 C 
ATOM      9  C   UNL A   1     -24.416   1.197  27.045  0.00  0.00    +0.029 C 
ENDROOT
BRANCH   9  10
ATOM     10  C   UNL A   1     -25.688   1.614  26.461  0.00  0.00    +0.040 C 
ATOM     11  C   UNL A   1     -26.250   2.920  26.395  0.00  0.00    +0.077 C 
ATOM     12  C   UNL A   1     -27.438   3.091  25.645  0.00  0.00    +0.107 C 
ATOM     13  N   UNL A   1     -28.075   2.089  25.003  0.00  0.00    -0.208 NA
ATOM     14  C   UNL A   1     -27.543   0.849  25.079  0.00  0.00    +0.253 C 
ATOM     15  C   UNL A   1     -26.354   0.576  25.777  0.00  0.00    +0.193 C 
ATOM     16  F   UNL A   1     -25.860  -0.681  25.795  0.00  0.00    -0.199 F 
BRANCH  11  17
ATOM     17  C   UNL A   1     -25.642   4.093  27.123  0.00  0.00    +0.266 C 
ATOM     18  N   UNL A   1     -25.614   5.252  26.449  0.00  0.00    -0.200 NA
ATOM     19  C   UNL A   1     -25.026   6.479  26.963  0.00  0.00    +0.139 C 
ATOM     20  O   UNL A   1     -25.143   3.966  28.243  0.00  0.00    -0.268 OA
ENDBRANCH  11  17
BRANCH  14  21
ATOM     21  O   UNL A   1     -28.193  -0.208  24.477  0.00  0.00    -0.456 OA
BRANCH  21  22
ATOM     22  C   UNL A   1     -29.460   0.005  23.866  0.00  0.00    +0.243 C 
BRANCH  22  23
ATOM     23  C   UNL A   1     -30.065  -1.377  23.573  0.00  0.00    +0.229 C 
ATOM     24  O   UNL A   1     -30.729  -1.878  24.721  0.00  0.00    -0.216 OA
ENDBRANCH  22  23
ENDBRANCH  21  22
ENDBRANCH  14  21
ENDBRANCH   9  10
BRANCH   6  25
ATOM     25  N   UNL A   1     -25.349  -0.234  28.923  0.00  0.00    -0.298 N 
BRANCH  25  26
ATOM     26  C   UNL A   1     -24.855  -1.012  30.143  0.00  0.00    +0.112 C 
BRANCH  26  27
ATOM     27  C   UNL A   1     -24.973  -2.505  29.788  0.00  0.00    -0.003 C 
ATOM     28  C   UNL A   1     -23.906  -3.173  29.146  0.00  0.00    -0.003 C 
ATOM     29  C   UNL A   1     -23.989  -4.549  28.853  0.00  0.00    -0.000 C 
ATOM     30  C   UNL A   1     -25.137  -5.280  29.205  0.00  0.00    -0.000 C 
ATOM     31  C   UNL A   1     -26.232  -4.611  29.784  0.00  0.00    -0.000 C 
ATOM     32  C   UNL A   1     -26.155  -3.232  30.065  0.00  0.00    -0.003 C 
ENDBRANCH  26  27
BRANCH  26  33
ATOM     33  C   UNL A   1     -25.387  -0.679  31.571  0.00  0.00    +0.095 C 
ATOM     34  C   UNL A   1     -25.189   0.773  32.028  0.00  0.00    +0.021 C 
ATOM     35  C   UNL A   1     -25.336   0.684  33.544  0.00  0.00    +0.020 C 
ATOM     36  C   UNL A   1     -24.829  -0.715  33.905  0.00  0.00    +0.089 C 
ATOM     37  N   UNL A   1     -24.758  -1.481  32.646  0.00  0.00    -0.217 NA
ENDBRANCH  26  33
ENDBRANCH  25  26
BRANCH  25  38
ATOM     38  C   UNL A   1     -26.927  -0.542  28.456  0.00  0.00    +0.118 C 
BRANCH  38  40
ATOM     39  C   UNL A   1     -29.184  -1.293  29.397  0.00  0.00    +0.027 C 
ATOM     40  C   UNL A   1     -28.154  -0.331  29.269  0.00  0.00    -0.000 C 
ATOM     41  C   UNL A   1     -29.122   0.989  31.064  0.00  0.00    +0.002 C 
ATOM     42  F   UNL A   1     -30.794  -2.250  30.811  0.00  0.00    -0.204 F 
ATOM     43  C   UNL A   1     -30.005  -1.189  30.530  0.00  0.00    +0.140 C 
ATOM     44  C   UNL A   1     -28.222   0.861  30.001  0.00  0.00    -0.003 C 
ATOM     45  C   UNL A   1     -29.969  -0.085  31.396  0.00  0.00    +0.030 C 
ENDBRANCH  38  40
ENDBRANCH  25  38
ENDBRANCH   6  25
TORSDOF 11
