REMARK  Name = outputs/IAG933/test6/raw/output_5129_IAG933_linker_design_.xyz
REMARK  9 active torsions:
REMARK  status: ('A' for Active; 'I' for Inactive)
REMARK    1  A    between atoms: C_1  and  C_2
REMARK    2  A    between atoms: C_1  and  C_8
REMARK    3  A    between atoms: C_1  and  N_29
REMARK    4  A    between atoms: C_13  and  C_40
REMARK    5  A    between atoms: C_14  and  C_15
REMARK    6  A    between atoms: C_21  and  O_22
REMARK    7  A    between atoms: O_22  and  C_23
REMARK    8  A    between atoms: C_23  and  C_24
REMARK    9  A    between atoms: C_35  and  C_36
REMARK                            x       y       z     vdW  Elec       q    Type
REMARK                         _______ _______ _______ _____ _____    ______ ____
ROOT
ATOM      1  N   UNL A   1     -24.221  -0.025  29.314  0.00  0.00    -0.267 N 
ATOM      2  C   UNL A   1     -21.049   0.901  27.915  0.00  0.00    +0.010 C 
ATOM      3  C   UNL A   1     -20.557  -0.075  28.671  0.00  0.00    +0.037 C 
ATOM      4  O   UNL A   1     -21.554   2.331  25.436  0.00  0.00    -0.291 OA
ATOM      5  C   UNL A   1     -22.422   0.901  27.869  0.00  0.00    +0.005 C 
ATOM      6  C   UNL A   1     -25.171   0.719  28.611  0.00  0.00    +0.234 C 
ATOM      7  C   UNL A   1     -20.384   1.911  27.260  0.00  0.00    +0.187 C 
ATOM      8  O   UNL A   1     -23.817   2.649  25.063  0.00  0.00    -0.242 OA
ATOM      9  O   UNL A   1     -26.335   0.817  28.948  0.00  0.00    -0.274 OA
ATOM     10  O   UNL A   1     -20.506   2.142  25.980  0.00  0.00    -0.168 OA
ATOM     11  C   UNL A   1     -24.672   1.335  27.335  0.00  0.00    +0.130 C 
ATOM     12  C   UNL A   1     -22.748   0.406  29.134  0.00  0.00    +0.160 C 
ATOM     13  C   UNL A   1     -23.335   1.403  26.963  0.00  0.00    +0.067 C 
ATOM     14  C   UNL A   1     -22.829   2.148  25.858  0.00  0.00    +0.371 C 
ATOM     15  O   UNL A   1     -21.745  -1.560  29.880  0.00  0.00    -0.289 OA
ATOM     16  C   UNL A   1     -21.310  -0.697  29.206  0.00  0.00    +0.195 C 
ENDROOT
BRANCH  11  17
ATOM     17  C   UNL A   1     -25.688   1.614  26.461  0.00  0.00    +0.029 C 
ATOM     18  C   UNL A   1     -26.250   2.920  26.395  0.00  0.00    +0.073 C 
ATOM     19  C   UNL A   1     -27.438   3.091  25.645  0.00  0.00    +0.106 C 
ATOM     20  N   UNL A   1     -28.075   2.089  25.003  0.00  0.00    -0.208 NA
ATOM     21  C   UNL A   1     -27.543   0.849  25.079  0.00  0.00    +0.253 C 
ATOM     22  C   UNL A   1     -26.354   0.576  25.777  0.00  0.00    +0.190 C 
ATOM     23  F   UNL A   1     -25.860  -0.681  25.795  0.00  0.00    -0.200 F 
BRANCH  18  24
ATOM     24  C   UNL A   1     -25.642   4.093  27.123  0.00  0.00    +0.266 C 
ATOM     25  N   UNL A   1     -25.614   5.252  26.449  0.00  0.00    -0.200 NA
ATOM     26  C   UNL A   1     -25.026   6.479  26.963  0.00  0.00    +0.139 C 
ATOM     27  O   UNL A   1     -25.143   3.966  28.243  0.00  0.00    -0.268 OA
ENDBRANCH  18  24
BRANCH  21  28
ATOM     28  O   UNL A   1     -28.193  -0.208  24.477  0.00  0.00    -0.456 OA
BRANCH  28  29
ATOM     29  C   UNL A   1     -29.460   0.005  23.866  0.00  0.00    +0.243 C 
BRANCH  29  30
ATOM     30  C   UNL A   1     -30.065  -1.377  23.573  0.00  0.00    +0.229 C 
ATOM     31  O   UNL A   1     -30.729  -1.878  24.721  0.00  0.00    -0.216 OA
ENDBRANCH  29  30
ENDBRANCH  28  29
ENDBRANCH  21  28
ENDBRANCH  11  17
BRANCH   7  33
ATOM     32  C   UNL A   1     -18.236   2.524  26.753  0.00  0.00    +0.003 C 
ATOM     33  C   UNL A   1     -18.863   1.917  27.896  0.00  0.00    +0.039 C 
ENDBRANCH   7  33
BRANCH   1  34
ATOM     34  C   UNL A   1     -24.855  -1.012  30.143  0.00  0.00    +0.114 C 
BRANCH  34  35
ATOM     35  C   UNL A   1     -24.973  -2.505  29.788  0.00  0.00    -0.003 C 
ATOM     36  C   UNL A   1     -23.906  -3.173  29.146  0.00  0.00    -0.003 C 
ATOM     37  C   UNL A   1     -23.989  -4.549  28.853  0.00  0.00    -0.000 C 
ATOM     38  C   UNL A   1     -25.137  -5.280  29.205  0.00  0.00    -0.000 C 
ATOM     39  C   UNL A   1     -26.232  -4.611  29.784  0.00  0.00    -0.000 C 
ATOM     40  C   UNL A   1     -26.155  -3.232  30.065  0.00  0.00    -0.003 C 
ENDBRANCH  34  35
BRANCH  34  41
ATOM     41  C   UNL A   1     -25.387  -0.679  31.571  0.00  0.00    +0.095 C 
ATOM     42  C   UNL A   1     -25.189   0.773  32.028  0.00  0.00    +0.021 C 
ATOM     43  C   UNL A   1     -25.336   0.684  33.544  0.00  0.00    +0.020 C 
ATOM     44  C   UNL A   1     -24.829  -0.715  33.905  0.00  0.00    +0.089 C 
ATOM     45  N   UNL A   1     -24.758  -1.481  32.646  0.00  0.00    -0.217 NA
ENDBRANCH  34  41
ENDBRANCH   1  34
TORSDOF 9
