MODEL 512
MODEL 1
REMARK VINA RESULT:    -4.569      0.000      0.000
REMARK INTER + INTRA:          -4.569
REMARK INTER:                  -4.569
REMARK INTRA:                   0.000
REMARK UNBOUND:                 0.000
REMARK  Name = No_512-gen_results/8p0m/2024-11-27-11-27-31/
REMARK  0 active torsions:
REMARK  status: ('A' for Active; 'I' for Inactive)
REMARK                            x       y       z     vdW  Elec       q    Type
REMARK                         _______ _______ _______ _____ _____    ______ ____
ROOT
ATOM      1  C   UNL A   1     -23.987  -4.310  28.622  0.00  0.00    +0.030 A 
ATOM      2  C   UNL A   1     -24.886  -5.075  28.883  0.00  0.00    +0.140 A 
ATOM      3  C   UNL A   1     -26.032  -4.640  29.540  0.00  0.00    +0.030 A 
ATOM      4  C   UNL A   1     -26.163  -3.272  29.973  0.00  0.00    +0.002 A 
ATOM      5  C   UNL A   1     -25.067  -2.461  29.651  0.00  0.00    +0.000 A 
ATOM      6  C   UNL A   1     -23.999  -2.926  29.043  0.00  0.00    +0.002 A 
ATOM      7  F   UNL A   1     -24.865  -6.377  28.595  0.00  0.00    -0.204 F 
ENDROOT
TORSDOF 0
ENDMDL
ENDMDL
