REMARK  Name = No_513-gen_results/8p0m/2024-11-27-11-27-31/
REMARK  6 active torsions:
REMARK  status: ('A' for Active; 'I' for Inactive)
REMARK    1  A    between atoms: C_1  and  C_2
REMARK    2  A    between atoms: C_1  and  C_8
REMARK    3  A    between atoms: C_3  and  N_17
REMARK    4  A    between atoms: C_5  and  C_14
REMARK    5  A    between atoms: N_17  and  C_18
REMARK    6  A    between atoms: C_19  and  C_20
REMARK                            x       y       z     vdW  Elec       q    Type
REMARK                         _______ _______ _______ _____ _____    ______ ____
ROOT
ATOM      1  C   UNL A   1     -27.064  -0.119  28.608  0.00  0.00    -0.003 A 
ATOM      2  C   UNL A   1     -27.001   0.691  27.491  0.00  0.00    +0.067 A 
ATOM      3  C   UNL A   1     -25.855   1.482  27.083  0.00  0.00    +0.023 A 
ATOM      4  C   UNL A   1     -24.690   1.453  27.881  0.00  0.00    +0.081 A 
ATOM      5  C   UNL A   1     -24.738   0.601  29.042  0.00  0.00    +0.006 A 
ATOM      6  C   UNL A   1     -25.823  -0.169  29.389  0.00  0.00    -0.002 A 
ENDROOT
BRANCH   4   7
ATOM      7  C   UNL A   1     -23.492   2.160  27.561  0.00  0.00    +0.388 C 
ATOM      8  O   UNL A   1     -22.618   1.692  27.168  0.00  0.00    -0.241 OA
ATOM      9  O   UNL A   1     -23.707   3.509  27.606  0.00  0.00    -0.241 OA
ENDBRANCH   4   7
BRANCH   1  10
ATOM     10  C   UNL A   1     -28.016  -0.814  28.878  0.00  0.00    +0.054 C 
BRANCH  10  11
ATOM     11  C   UNL A   1     -28.735  -0.464  30.142  0.00  0.00    -0.018 A 
ATOM     12  C   UNL A   1     -28.783   0.612  30.517  0.00  0.00    -0.004 A 
ATOM     13  C   UNL A   1     -29.593   0.957  31.796  0.00  0.00    -0.000 A 
ATOM     14  C   UNL A   1     -30.190  -0.114  32.426  0.00  0.00    -0.000 A 
ATOM     15  C   UNL A   1     -29.417  -1.594  30.883  0.00  0.00    -0.004 A 
ATOM     16  C   UNL A   1     -30.103  -1.371  32.001  0.00  0.00    -0.000 A 
ENDBRANCH  10  11
ENDBRANCH   1  10
BRANCH   2  17
ATOM     17  N   UNL A   1     -28.062   0.800  26.656  0.00  0.00    -0.211 NA
BRANCH  17  18
ATOM     18  C   UNL A   1     -28.067   0.784  25.351  0.00  0.00    +0.086 C 
ATOM     19  C   UNL A   1     -29.269   0.508  24.665  0.00  0.00    +0.018 C 
BRANCH  19  20
ATOM     20  C   UNL A   1     -29.621  -0.567  24.186  0.00  0.00    -0.003 C 
ATOM     21  C   UNL A   1     -30.911  -0.890  23.629  0.00  0.00    -0.026 C 
ATOM     22  C   UNL A   1     -31.768   0.173  23.394  0.00  0.00    +0.031 C 
ENDBRANCH  19  20
ENDBRANCH  17  18
ENDBRANCH   2  17
TORSDOF 6
