REMARK  Name = outputs/IAG933/test6/raw/output_5130_IAG933_linker_design_.xyz
REMARK  12 active torsions:
REMARK  status: ('A' for Active; 'I' for Inactive)
REMARK    1  A    between atoms: C_1  and  C_2
REMARK    2  A    between atoms: C_1  and  C_8
REMARK    3  A    between atoms: C_1  and  C_39
REMARK    4  A    between atoms: C_13  and  C_42
REMARK    5  A    between atoms: C_14  and  C_15
REMARK    6  A    between atoms: C_21  and  O_22
REMARK    7  A    between atoms: O_22  and  C_23
REMARK    8  A    between atoms: C_23  and  C_24
REMARK    9  A    between atoms: C_32  and  C_36
REMARK   10  A    between atoms: C_32  and  C_43
REMARK   11  A    between atoms: N_34  and  C_39
REMARK   12  A    between atoms: N_35  and  C_39
REMARK                            x       y       z     vdW  Elec       q    Type
REMARK                         _______ _______ _______ _____ _____    ______ ____
ROOT
ATOM      1  C   UNL A   1     -25.584  -0.171  29.106  0.00  0.00    +0.160 C 
ENDROOT
BRANCH   1   4
ATOM      2  N   UNL A   1     -20.991   1.598  27.790  0.00  0.00    -0.131 NA
ATOM      3  C   UNL A   1     -23.080   1.563  26.579  0.00  0.00    +0.041 C 
ATOM      4  N   UNL A   1     -24.426   0.152  28.109  0.00  0.00    -0.253 NA
ATOM      5  C   UNL A   1     -23.048   0.185  28.394  0.00  0.00    +0.093 C 
ATOM      6  C   UNL A   1     -22.510   1.099  27.720  0.00  0.00    +0.110 C 
ATOM      7  C   UNL A   1     -24.459   1.375  27.292  0.00  0.00    +0.086 C 
BRANCH   7   8
ATOM      8  C   UNL A   1     -25.688   1.614  26.461  0.00  0.00    +0.030 C 
ATOM      9  C   UNL A   1     -26.250   2.920  26.395  0.00  0.00    +0.074 C 
ATOM     10  C   UNL A   1     -27.438   3.091  25.645  0.00  0.00    +0.106 C 
ATOM     11  N   UNL A   1     -28.075   2.089  25.003  0.00  0.00    -0.208 NA
ATOM     12  C   UNL A   1     -27.543   0.849  25.079  0.00  0.00    +0.253 C 
ATOM     13  C   UNL A   1     -26.354   0.576  25.777  0.00  0.00    +0.190 C 
ATOM     14  F   UNL A   1     -25.860  -0.681  25.795  0.00  0.00    -0.200 F 
BRANCH   9  15
ATOM     15  C   UNL A   1     -25.642   4.093  27.123  0.00  0.00    +0.266 C 
ATOM     16  N   UNL A   1     -25.614   5.252  26.449  0.00  0.00    -0.200 NA
ATOM     17  C   UNL A   1     -25.026   6.479  26.963  0.00  0.00    +0.139 C 
ATOM     18  O   UNL A   1     -25.143   3.966  28.243  0.00  0.00    -0.268 OA
ENDBRANCH   9  15
BRANCH  12  19
ATOM     19  O   UNL A   1     -28.193  -0.208  24.477  0.00  0.00    -0.456 OA
BRANCH  19  20
ATOM     20  C   UNL A   1     -29.460   0.005  23.866  0.00  0.00    +0.243 C 
BRANCH  20  21
ATOM     21  C   UNL A   1     -30.065  -1.377  23.573  0.00  0.00    +0.229 C 
ATOM     22  O   UNL A   1     -30.729  -1.878  24.721  0.00  0.00    -0.216 OA
ENDBRANCH  20  21
ENDBRANCH  19  20
ENDBRANCH  12  19
ENDBRANCH   7   8
ENDBRANCH   1   4
BRANCH   1  24
ATOM     23  O   UNL A   1     -28.125  -1.648  29.346  0.00  0.00    -0.273 OA
ATOM     24  N   UNL A   1     -26.945   0.294  29.312  0.00  0.00    -0.190 NA
ATOM     25  C   UNL A   1     -28.066  -0.403  29.395  0.00  0.00    +0.243 C 
BRANCH  25  26
ATOM     26  C   UNL A   1     -29.386   0.320  29.466  0.00  0.00    +0.089 C 
BRANCH  26  29
ATOM     27  O   UNL A   1     -28.435   1.905  33.011  0.00  0.00    -0.223 OA
ATOM     28  C   UNL A   1     -30.083   0.482  31.932  0.00  0.00    +0.036 C 
ATOM     29  C   UNL A   1     -29.162   1.370  30.580  0.00  0.00    +0.039 C 
ATOM     30  C   UNL A   1     -28.678   2.820  30.191  0.00  0.00    +0.003 C 
ATOM     31  C   UNL A   1     -28.629   0.990  31.973  0.00  0.00    +0.152 C 
ENDBRANCH  26  29
ENDBRANCH  25  26
ENDBRANCH   1  24
BRANCH   1  32
ATOM     32  C   UNL A   1     -24.855  -1.012  30.143  0.00  0.00    +0.074 C 
BRANCH  32  33
ATOM     33  C   UNL A   1     -24.973  -2.505  29.788  0.00  0.00    -0.018 C 
ATOM     34  C   UNL A   1     -23.906  -3.173  29.146  0.00  0.00    -0.004 C 
ATOM     35  C   UNL A   1     -23.989  -4.549  28.853  0.00  0.00    -0.000 C 
ATOM     36  C   UNL A   1     -25.137  -5.280  29.205  0.00  0.00    -0.000 C 
ATOM     37  C   UNL A   1     -26.232  -4.611  29.784  0.00  0.00    -0.000 C 
ATOM     38  C   UNL A   1     -26.155  -3.232  30.065  0.00  0.00    -0.004 C 
ENDBRANCH  32  33
BRANCH  32  39
ATOM     39  C   UNL A   1     -25.387  -0.679  31.571  0.00  0.00    +0.080 C 
ATOM     40  C   UNL A   1     -25.189   0.773  32.028  0.00  0.00    +0.019 C 
ATOM     41  C   UNL A   1     -25.336   0.684  33.544  0.00  0.00    +0.020 C 
ATOM     42  C   UNL A   1     -24.829  -0.715  33.905  0.00  0.00    +0.089 C 
ATOM     43  N   UNL A   1     -24.758  -1.481  32.646  0.00  0.00    -0.219 NA
ENDBRANCH  32  39
ENDBRANCH   1  32
TORSDOF 12
