MODEL 513
MODEL 1
REMARK VINA RESULT:    -6.667      0.000      0.000
REMARK INTER + INTRA:         -10.343
REMARK INTER:                  -9.005
REMARK INTRA:                  -1.338
REMARK UNBOUND:                -1.338
REMARK  Name = No_513-gen_results/8p0m/2024-11-27-11-27-31/
REMARK  6 active torsions:
REMARK  status: ('A' for Active; 'I' for Inactive)
REMARK    1  A    between atoms: C_1  and  C_2
REMARK    2  A    between atoms: C_1  and  C_8
REMARK    3  A    between atoms: C_3  and  N_17
REMARK    4  A    between atoms: C_5  and  C_14
REMARK    5  A    between atoms: N_17  and  C_18
REMARK    6  A    between atoms: C_19  and  C_20
REMARK                            x       y       z     vdW  Elec       q    Type
REMARK                         _______ _______ _______ _____ _____    ______ ____
ROOT
ATOM      1  C   UNL A   1     -23.855  -0.773  29.583  0.00  0.00    -0.003 A 
ATOM      2  C   UNL A   1     -25.074  -1.003  30.189  0.00  0.00    +0.067 A 
ATOM      3  C   UNL A   1     -25.781  -2.270  30.212  0.00  0.00    +0.023 A 
ATOM      4  C   UNL A   1     -25.207  -3.381  29.557  0.00  0.00    +0.081 A 
ATOM      5  C   UNL A   1     -23.928  -3.157  28.932  0.00  0.00    +0.006 A 
ATOM      6  C   UNL A   1     -23.258  -1.957  28.955  0.00  0.00    -0.002 A 
ENDROOT
BRANCH   4   7
ATOM      7  C   UNL A   1     -25.792  -4.683  29.543  0.00  0.00    +0.388 C 
ATOM      8  O   UNL A   1     -25.225  -5.585  29.491  0.00  0.00    -0.241 OA
ATOM      9  O   UNL A   1     -27.125  -4.611  29.837  0.00  0.00    -0.241 OA
ENDBRANCH   4   7
BRANCH   1  10
ATOM     10  C   UNL A   1     -23.266   0.282  29.643  0.00  0.00    +0.054 C 
BRANCH  10  11
ATOM     11  C   UNL A   1     -23.040   0.972  28.335  0.00  0.00    -0.018 A 
ATOM     12  C   UNL A   1     -21.988   1.216  27.969  0.00  0.00    -0.004 A 
ATOM     13  C   UNL A   1     -21.780   1.872  26.577  0.00  0.00    -0.000 A 
ATOM     14  C   UNL A   1     -22.933   2.153  25.875  0.00  0.00    -0.000 A 
ATOM     15  C   UNL A   1     -24.265   1.306  27.511  0.00  0.00    -0.004 A 
ATOM     16  C   UNL A   1     -24.158   1.895  26.323  0.00  0.00    -0.000 A 
ENDBRANCH  10  11
ENDBRANCH   1  10
BRANCH   2  17
ATOM     17  N   UNL A   1     -25.720  -0.008  30.843  0.00  0.00    -0.211 NA
BRANCH  17  18
ATOM     18  C   UNL A   1     -25.983   0.083  32.118  0.00  0.00    +0.086 C 
ATOM     19  C   UNL A   1     -24.919   0.163  33.041  0.00  0.00    +0.018 C 
BRANCH  19  20
ATOM     20  C   UNL A   1     -24.444  -0.752  33.710  0.00  0.00    -0.003 C 
ATOM     21  C   UNL A   1     -24.716  -1.049  35.094  0.00  0.00    -0.026 C 
ATOM     22  C   UNL A   1     -25.788  -0.388  35.671  0.00  0.00    +0.031 C 
ENDBRANCH  19  20
ENDBRANCH  17  18
ENDBRANCH   2  17
TORSDOF 6
ENDMDL
ENDMDL
