REMARK  Name = outputs/IAG933/test6/raw/output_5142_IAG933_linker_design_.xyz
REMARK  9 active torsions:
REMARK  status: ('A' for Active; 'I' for Inactive)
REMARK    1  A    between atoms: C_1  and  C_2
REMARK    2  A    between atoms: C_1  and  C_8
REMARK    3  A    between atoms: C_1  and  C_38
REMARK    4  A    between atoms: C_21  and  O_22
REMARK    5  A    between atoms: O_22  and  C_23
REMARK    6  A    between atoms: C_23  and  C_24
REMARK    7  A    between atoms: C_29  and  C_33
REMARK    8  A    between atoms: C_33  and  C_39
REMARK    9  A    between atoms: C_38  and  C_42
REMARK                            x       y       z     vdW  Elec       q    Type
REMARK                         _______ _______ _______ _____ _____    ______ ____
ROOT
ATOM      1  C   UNL A   1     -25.688   1.614  26.461  0.00  0.00    +0.024 C 
ATOM      2  C   UNL A   1     -26.250   2.920  26.395  0.00  0.00    +0.071 C 
ATOM      3  C   UNL A   1     -25.642   4.093  27.123  0.00  0.00    +0.222 C 
ATOM      4  N   UNL A   1     -25.614   5.252  26.449  0.00  0.00    -0.236 NA
ATOM      5  C   UNL A   1     -25.026   6.479  26.963  0.00  0.00    +0.155 C 
ATOM      6  O   UNL A   1     -25.143   3.966  28.243  0.00  0.00    -0.464 OA
ATOM      7  C   UNL A   1     -27.438   3.091  25.645  0.00  0.00    +0.106 C 
ATOM      8  N   UNL A   1     -28.075   2.089  25.003  0.00  0.00    -0.208 NA
ATOM      9  C   UNL A   1     -27.543   0.849  25.079  0.00  0.00    +0.253 C 
ATOM     10  C   UNL A   1     -26.354   0.576  25.777  0.00  0.00    +0.190 C 
ATOM     11  F   UNL A   1     -25.860  -0.681  25.795  0.00  0.00    -0.200 F 
ATOM     12  C   UNL A   1     -22.937   3.001  28.421  0.00  0.00    +0.108 C 
ATOM     13  F   UNL A   1     -23.125   2.566  25.711  0.00  0.00    -0.236 F 
ATOM     14  N   UNL A   1     -23.118   0.172  28.958  0.00  0.00    -0.269 NA
ATOM     15  C   UNL A   1     -24.499   1.386  27.278  0.00  0.00    +0.100 C 
ATOM     16  C   UNL A   1     -23.303   2.157  27.083  0.00  0.00    +0.178 C 
ATOM     17  F   UNL A   1     -20.936   2.294  27.180  0.00  0.00    -0.235 F 
ATOM     18  C   UNL A   1     -24.268   3.377  29.022  0.00  0.00    +0.175 C 
ATOM     19  C   UNL A   1     -22.190   1.915  27.709  0.00  0.00    +0.190 C 
ATOM     20  C   UNL A   1     -21.870   0.644  28.464  0.00  0.00    +0.161 C 
ATOM     21  C   UNL A   1     -24.373   0.546  28.465  0.00  0.00    +0.095 C 
ENDROOT
BRANCH  21  23
ATOM     22  O   UNL A   1     -26.578  -0.070  28.957  0.00  0.00    -0.290 OA
ATOM     23  C   UNL A   1     -25.391  -0.082  29.164  0.00  0.00    +0.191 C 
BRANCH  23  24
ATOM     24  C   UNL A   1     -24.855  -1.012  30.143  0.00  0.00    +0.101 C 
BRANCH  24  25
ATOM     25  C   UNL A   1     -24.973  -2.505  29.788  0.00  0.00    -0.014 C 
ATOM     26  C   UNL A   1     -23.906  -3.173  29.146  0.00  0.00    -0.004 C 
ATOM     27  C   UNL A   1     -23.989  -4.549  28.853  0.00  0.00    -0.000 C 
ATOM     28  C   UNL A   1     -25.137  -5.280  29.205  0.00  0.00    -0.000 C 
ATOM     29  C   UNL A   1     -26.232  -4.611  29.784  0.00  0.00    -0.000 C 
ATOM     30  C   UNL A   1     -26.155  -3.232  30.065  0.00  0.00    -0.004 C 
ENDBRANCH  24  25
BRANCH  24  31
ATOM     31  C   UNL A   1     -25.387  -0.679  31.571  0.00  0.00    +0.084 C 
ATOM     32  C   UNL A   1     -25.189   0.773  32.028  0.00  0.00    +0.020 C 
ATOM     33  C   UNL A   1     -25.336   0.684  33.544  0.00  0.00    +0.020 C 
ATOM     34  C   UNL A   1     -24.829  -0.715  33.905  0.00  0.00    +0.089 C 
ATOM     35  N   UNL A   1     -24.758  -1.481  32.646  0.00  0.00    -0.219 NA
ENDBRANCH  24  31
ENDBRANCH  23  24
ENDBRANCH  21  23
BRANCH   9  36
ATOM     36  O   UNL A   1     -28.193  -0.208  24.477  0.00  0.00    -0.456 OA
BRANCH  36  37
ATOM     37  C   UNL A   1     -29.460   0.005  23.866  0.00  0.00    +0.243 C 
BRANCH  37  38
ATOM     38  C   UNL A   1     -30.065  -1.377  23.573  0.00  0.00    +0.229 C 
ATOM     39  O   UNL A   1     -30.729  -1.878  24.721  0.00  0.00    -0.216 OA
ENDBRANCH  37  38
ENDBRANCH  36  37
ENDBRANCH   9  36
BRANCH  18  40
ATOM     40  C   UNL A   1     -23.856   4.185  30.216  0.00  0.00    +0.079 C 
BRANCH  40  41
ATOM     41  C   UNL A   1     -24.887   4.327  31.385  0.00  0.00    +0.186 C 
ATOM     42  O   UNL A   1     -26.208   4.524  30.836  0.00  0.00    -0.220 OA
ENDBRANCH  40  41
ENDBRANCH  18  40
TORSDOF 9
