REMARK  Name = outputs/IAG933/test6/raw/output_5144_IAG933_linker_design_.xyz
REMARK  16 active torsions:
REMARK  status: ('A' for Active; 'I' for Inactive)
REMARK    1  A    between atoms: C_1  and  C_2
REMARK    2  A    between atoms: C_1  and  C_8
REMARK    3  A    between atoms: C_1  and  N_43
REMARK    4  A    between atoms: C_13  and  C_29
REMARK    5  A    between atoms: C_14  and  C_15
REMARK    6  A    between atoms: C_21  and  O_22
REMARK    7  A    between atoms: O_22  and  C_23
REMARK    8  A    between atoms: C_23  and  C_24
REMARK    9  A    between atoms: C_24  and  O_25
REMARK   10  A    between atoms: O_25  and  C_30
REMARK   11  A    between atoms: C_28  and  C_39
REMARK   12  A    between atoms: C_28  and  C_41
REMARK   13  A    between atoms: C_30  and  C_41
REMARK   14  A    between atoms: C_35  and  N_43
REMARK   15  A    between atoms: O_36  and  C_37
REMARK   16  A    between atoms: C_37  and  C_39
REMARK                            x       y       z     vdW  Elec       q    Type
REMARK                         _______ _______ _______ _____ _____    ______ ____
ROOT
ATOM      1  C   UNL A   1     -25.688   1.614  26.461  0.00  0.00    +0.057 C 
ATOM      2  C   UNL A   1     -26.250   2.920  26.395  0.00  0.00    +0.078 C 
ATOM      3  C   UNL A   1     -27.438   3.091  25.645  0.00  0.00    +0.107 C 
ATOM      4  N   UNL A   1     -28.075   2.089  25.003  0.00  0.00    -0.208 NA
ATOM      5  C   UNL A   1     -27.543   0.849  25.079  0.00  0.00    +0.253 C 
ATOM      6  C   UNL A   1     -26.354   0.576  25.777  0.00  0.00    +0.195 C 
ATOM      7  F   UNL A   1     -25.860  -0.681  25.795  0.00  0.00    -0.199 F 
ENDROOT
BRANCH   1   8
ATOM      8  C   UNL A   1     -24.383   1.383  26.945  0.00  0.00    +0.100 C 
ATOM      9  N   UNL A   1     -22.435   0.531  29.963  0.00  0.00    -0.127 NA
ATOM     10  C   UNL A   1     -21.766   1.373  27.786  0.00  0.00    +0.040 C 
ATOM     11  C   UNL A   1     -22.157   1.952  26.552  0.00  0.00    +0.100 C 
ATOM     12  C   UNL A   1     -24.122   0.648  28.181  0.00  0.00    +0.100 C 
ATOM     13  N   UNL A   1     -23.420   1.949  26.155  0.00  0.00    -0.242 NA
ATOM     14  C   UNL A   1     -22.771   0.809  28.629  0.00  0.00    +0.107 C 
BRANCH  12  15
ATOM     15  N   UNL A   1     -25.159  -0.014  29.003  0.00  0.00    -0.231 NA
BRANCH  15  16
ATOM     16  C   UNL A   1     -24.855  -1.012  30.143  0.00  0.00    +0.131 C 
BRANCH  16  17
ATOM     17  C   UNL A   1     -24.973  -2.505  29.788  0.00  0.00    -0.001 C 
ATOM     18  C   UNL A   1     -23.906  -3.173  29.146  0.00  0.00    -0.003 C 
ATOM     19  C   UNL A   1     -23.989  -4.549  28.853  0.00  0.00    -0.000 C 
ATOM     20  C   UNL A   1     -25.137  -5.280  29.205  0.00  0.00    -0.000 C 
ATOM     21  C   UNL A   1     -26.232  -4.611  29.784  0.00  0.00    -0.000 C 
ATOM     22  C   UNL A   1     -26.155  -3.232  30.065  0.00  0.00    -0.003 C 
ENDBRANCH  16  17
BRANCH  16  23
ATOM     23  C   UNL A   1     -25.387  -0.679  31.571  0.00  0.00    +0.097 C 
ATOM     24  C   UNL A   1     -25.189   0.773  32.028  0.00  0.00    +0.021 C 
ATOM     25  C   UNL A   1     -25.336   0.684  33.544  0.00  0.00    +0.020 C 
ATOM     26  C   UNL A   1     -24.829  -0.715  33.905  0.00  0.00    +0.089 C 
ATOM     27  N   UNL A   1     -24.758  -1.481  32.646  0.00  0.00    -0.217 NA
ENDBRANCH  16  23
ENDBRANCH  15  16
ENDBRANCH  12  15
ENDBRANCH   1   8
BRANCH   2  28
ATOM     28  C   UNL A   1     -25.642   4.093  27.123  0.00  0.00    +0.267 C 
ATOM     29  N   UNL A   1     -25.614   5.252  26.449  0.00  0.00    -0.200 NA
ATOM     30  C   UNL A   1     -25.026   6.479  26.963  0.00  0.00    +0.139 C 
ATOM     31  O   UNL A   1     -25.143   3.966  28.243  0.00  0.00    -0.268 OA
ENDBRANCH   2  28
BRANCH   5  32
ATOM     32  O   UNL A   1     -28.193  -0.208  24.477  0.00  0.00    -0.456 OA
BRANCH  32  33
ATOM     33  C   UNL A   1     -29.460   0.005  23.866  0.00  0.00    +0.239 C 
BRANCH  33  34
ATOM     34  C   UNL A   1     -30.065  -1.377  23.573  0.00  0.00    +0.189 C 
BRANCH  34  35
ATOM     35  O   UNL A   1     -30.729  -1.878  24.721  0.00  0.00    -0.350 OA
BRANCH  35  36
ATOM     36  C   UNL A   1     -31.349  -1.559  25.930  0.00  0.00    +0.142 C 
BRANCH  36  37
ATOM     37  C   UNL A   1     -31.283  -1.532  27.327  0.00  0.00    +0.032 C 
BRANCH  37  38
ATOM     38  C   UNL A   1     -31.054  -0.232  27.860  0.00  0.00    +0.007 C 
BRANCH  38  39
ATOM     39  C   UNL A   1     -30.102  -0.066  28.985  0.00  0.00    +0.050 C 
BRANCH  39  40
ATOM     40  C   UNL A   1     -30.247  -1.064  30.030  0.00  0.00    +0.206 C 
ATOM     41  N   UNL A   1     -29.672  -0.724  31.345  0.00  0.00    -0.100 NA
BRANCH  40  43
ATOM     42  C   UNL A   1     -30.284  -3.682  29.912  0.00  0.00    +0.176 C 
ATOM     43  O   UNL A   1     -29.512  -2.363  29.569  0.00  0.00    -0.336 OA
ENDBRANCH  40  43
ENDBRANCH  39  40
ENDBRANCH  38  39
ENDBRANCH  37  38
ENDBRANCH  36  37
ENDBRANCH  35  36
ENDBRANCH  34  35
ENDBRANCH  33  34
ENDBRANCH  32  33
ENDBRANCH   5  32
TORSDOF 16
