REMARK  Name = outputs/IAG933/test6/raw/output_5145_IAG933_linker_design_.xyz
REMARK  17 active torsions:
REMARK  status: ('A' for Active; 'I' for Inactive)
REMARK    1  A    between atoms: C_1  and  C_2
REMARK    2  A    between atoms: C_1  and  C_8
REMARK    3  A    between atoms: C_9  and  C_41
REMARK    4  A    between atoms: C_13  and  C_36
REMARK    5  A    between atoms: C_14  and  C_15
REMARK    6  A    between atoms: C_21  and  O_22
REMARK    7  A    between atoms: O_22  and  C_23
REMARK    8  A    between atoms: C_23  and  C_24
REMARK    9  A    between atoms: C_29  and  C_30
REMARK   10  A    between atoms: C_29  and  C_33
REMARK   11  A    between atoms: C_30  and  N_39
REMARK   12  A    between atoms: O_32  and  C_35
REMARK   13  A    between atoms: O_32  and  N_40
REMARK   14  A    between atoms: C_33  and  O_43
REMARK   15  A    between atoms: C_35  and  C_41
REMARK   16  A    between atoms: C_36  and  O_43
REMARK   17  A    between atoms: C_41  and  C_44
REMARK                            x       y       z     vdW  Elec       q    Type
REMARK                         _______ _______ _______ _____ _____    ______ ____
ROOT
ATOM      1  O   UNL A   1     -24.166   3.623  31.474  0.00  0.00    -0.273 OA
ATOM      2  N   UNL A   1     -23.329   1.841  30.283  0.00  0.00    -0.205 NA
ATOM      3  C   UNL A   1     -24.334   2.591  31.082  0.00  0.00    +0.243 C 
ENDROOT
BRANCH   3   4
ATOM      4  C   UNL A   1     -25.779   2.017  31.322  0.00  0.00    +0.111 C 
BRANCH   4   6
ATOM      5  C   UNL A   1     -25.387  -0.679  31.571  0.00  0.00    +0.078 C 
ATOM      6  C   UNL A   1     -25.189   0.773  32.028  0.00  0.00    +0.029 C 
ATOM      7  C   UNL A   1     -25.336   0.684  33.544  0.00  0.00    +0.021 C 
ATOM      8  C   UNL A   1     -24.829  -0.715  33.905  0.00  0.00    +0.089 C 
ATOM      9  N   UNL A   1     -24.758  -1.481  32.646  0.00  0.00    -0.219 NA
BRANCH   5  10
ATOM     10  C   UNL A   1     -24.855  -1.012  30.143  0.00  0.00    +0.044 C 
BRANCH  10  11
ATOM     11  C   UNL A   1     -24.973  -2.505  29.788  0.00  0.00    -0.021 C 
ATOM     12  C   UNL A   1     -23.906  -3.173  29.146  0.00  0.00    -0.004 C 
ATOM     13  C   UNL A   1     -23.989  -4.549  28.853  0.00  0.00    -0.000 C 
ATOM     14  C   UNL A   1     -25.137  -5.280  29.205  0.00  0.00    -0.000 C 
ATOM     15  C   UNL A   1     -26.232  -4.611  29.784  0.00  0.00    -0.000 C 
ATOM     16  C   UNL A   1     -26.155  -3.232  30.065  0.00  0.00    -0.004 C 
ENDBRANCH  10  11
ENDBRANCH   5  10
ENDBRANCH   4   6
BRANCH   4  17
ATOM     17  C   UNL A   1     -26.676   3.111  31.055  0.00  0.00    +0.176 C 
BRANCH  17  18
ATOM     18  O   UNL A   1     -27.096   4.139  31.921  0.00  0.00    -0.282 OA
BRANCH  18  23
ATOM     19  C   UNL A   1     -27.174   5.637  35.133  0.00  0.00    +0.162 C 
ATOM     20  C   UNL A   1     -27.793   4.991  33.921  0.00  0.00    +0.133 C 
ATOM     21  C   UNL A   1     -26.130   6.447  32.835  0.00  0.00    +0.133 C 
ATOM     22  C   UNL A   1     -25.157   5.881  33.871  0.00  0.00    +0.162 C 
ATOM     23  N   UNL A   1     -27.136   5.364  32.666  0.00  0.00    -0.161 NA
ATOM     24  O   UNL A   1     -25.752   5.674  35.142  0.00  0.00    -0.351 OA
ENDBRANCH  18  23
ENDBRANCH  17  18
ENDBRANCH   4  17
ENDBRANCH   3   4
BRANCH   2  25
ATOM     25  C   UNL A   1     -22.655   1.383  29.078  0.00  0.00    +0.118 C 
BRANCH  25  26
ATOM     26  C   UNL A   1     -21.675   1.026  27.928  0.00  0.00    +0.056 C 
BRANCH  26  27
ATOM     27  C   UNL A   1     -22.167   1.724  26.697  0.00  0.00    +0.144 C 
BRANCH  27  28
ATOM     28  O   UNL A   1     -23.549   2.031  26.442  0.00  0.00    -0.349 OA
BRANCH  28  29
ATOM     29  C   UNL A   1     -24.476   1.288  27.239  0.00  0.00    +0.171 C 
BRANCH  29  30
ATOM     30  C   UNL A   1     -25.688   1.614  26.461  0.00  0.00    +0.045 C 
ATOM     31  C   UNL A   1     -26.250   2.920  26.395  0.00  0.00    +0.075 C 
ATOM     32  C   UNL A   1     -27.438   3.091  25.645  0.00  0.00    +0.106 C 
ATOM     33  N   UNL A   1     -28.075   2.089  25.003  0.00  0.00    -0.208 NA
ATOM     34  C   UNL A   1     -27.543   0.849  25.079  0.00  0.00    +0.253 C 
ATOM     35  C   UNL A   1     -26.354   0.576  25.777  0.00  0.00    +0.192 C 
ATOM     36  F   UNL A   1     -25.860  -0.681  25.795  0.00  0.00    -0.200 F 
BRANCH  31  37
ATOM     37  C   UNL A   1     -25.642   4.093  27.123  0.00  0.00    +0.266 C 
ATOM     38  N   UNL A   1     -25.614   5.252  26.449  0.00  0.00    -0.200 NA
ATOM     39  C   UNL A   1     -25.026   6.479  26.963  0.00  0.00    +0.139 C 
ATOM     40  O   UNL A   1     -25.143   3.966  28.243  0.00  0.00    -0.268 OA
ENDBRANCH  31  37
BRANCH  34  41
ATOM     41  O   UNL A   1     -28.193  -0.208  24.477  0.00  0.00    -0.456 OA
BRANCH  41  42
ATOM     42  C   UNL A   1     -29.460   0.005  23.866  0.00  0.00    +0.243 C 
BRANCH  42  43
ATOM     43  C   UNL A   1     -30.065  -1.377  23.573  0.00  0.00    +0.229 C 
ATOM     44  O   UNL A   1     -30.729  -1.878  24.721  0.00  0.00    -0.216 OA
ENDBRANCH  42  43
ENDBRANCH  41  42
ENDBRANCH  34  41
ENDBRANCH  29  30
ENDBRANCH  28  29
ENDBRANCH  27  28
ENDBRANCH  26  27
ENDBRANCH  25  26
ENDBRANCH   2  25
TORSDOF 17
