REMARK  Name = outputs/IAG933/test6/raw/output_515_IAG933_linker_design_.xyz
REMARK  16 active torsions:
REMARK  status: ('A' for Active; 'I' for Inactive)
REMARK    1  A    between atoms: C_1  and  C_2
REMARK    2  A    between atoms: C_1  and  C_8
REMARK    3  A    between atoms: C_1  and  C_41
REMARK    4  A    between atoms: C_13  and  C_44
REMARK    5  A    between atoms: C_14  and  C_15
REMARK    6  A    between atoms: C_21  and  O_22
REMARK    7  A    between atoms: O_22  and  C_23
REMARK    8  A    between atoms: C_23  and  C_24
REMARK    9  A    between atoms: C_28  and  C_29
REMARK   10  A    between atoms: C_28  and  C_32
REMARK   11  A    between atoms: C_29  and  C_45
REMARK   12  A    between atoms: C_32  and  O_37
REMARK   13  A    between atoms: C_33  and  N_42
REMARK   14  A    between atoms: C_34  and  N_42
REMARK   15  A    between atoms: O_37  and  C_41
REMARK   16  A    between atoms: C_41  and  N_42
REMARK                            x       y       z     vdW  Elec       q    Type
REMARK                         _______ _______ _______ _____ _____    ______ ____
ROOT
ATOM      1  N   UNL A   1     -24.066   0.690  28.559  0.00  0.00    -0.239 NA
ENDROOT
BRANCH   1   4
ATOM      2  O   UNL A   1     -21.146   1.542  27.792  0.00  0.00    -0.248 OA
ATOM      3  C   UNL A   1     -23.846   1.785  24.980  0.00  0.00    +0.015 C 
ATOM      4  C   UNL A   1     -23.500   1.237  27.315  0.00  0.00    +0.178 C 
ATOM      5  O   UNL A   1     -21.683   2.013  25.801  0.00  0.00    -0.442 OA
ATOM      6  C   UNL A   1     -22.138   1.569  26.988  0.00  0.00    +0.336 C 
ATOM      7  C   UNL A   1     -22.563   2.066  24.754  0.00  0.00    +0.234 C 
ATOM      8  C   UNL A   1     -24.285   1.482  26.316  0.00  0.00    -0.013 C 
BRANCH   8   9
ATOM      9  C   UNL A   1     -25.688   1.614  26.461  0.00  0.00    +0.090 C 
ATOM     10  C   UNL A   1     -26.250   2.920  26.395  0.00  0.00    +0.059 C 
ATOM     11  C   UNL A   1     -27.438   3.091  25.645  0.00  0.00    +0.102 C 
ATOM     12  N   UNL A   1     -28.075   2.089  25.003  0.00  0.00    -0.212 NA
ATOM     13  C   UNL A   1     -27.543   0.849  25.079  0.00  0.00    +0.234 C 
ATOM     14  C   UNL A   1     -26.354   0.576  25.777  0.00  0.00    +0.244 C 
ATOM     15  F   UNL A   1     -25.860  -0.681  25.795  0.00  0.00    -0.227 F 
BRANCH  10  16
ATOM     16  C   UNL A   1     -25.642   4.093  27.123  0.00  0.00    +0.263 C 
ATOM     17  N   UNL A   1     -25.614   5.252  26.449  0.00  0.00    -0.200 NA
ATOM     18  C   UNL A   1     -25.026   6.479  26.963  0.00  0.00    +0.139 C 
ATOM     19  O   UNL A   1     -25.143   3.966  28.243  0.00  0.00    -0.269 OA
ENDBRANCH  10  16
BRANCH  13  20
ATOM     20  O   UNL A   1     -28.193  -0.208  24.477  0.00  0.00    -0.459 OA
BRANCH  20  21
ATOM     21  C   UNL A   1     -29.460   0.005  23.866  0.00  0.00    +0.242 C 
BRANCH  21  22
ATOM     22  C   UNL A   1     -30.065  -1.377  23.573  0.00  0.00    +0.229 C 
ATOM     23  O   UNL A   1     -30.729  -1.878  24.721  0.00  0.00    -0.216 OA
ENDBRANCH  21  22
ENDBRANCH  20  21
ENDBRANCH  13  20
ENDBRANCH   8   9
ENDBRANCH   1   4
BRANCH   1  24
ATOM     24  C   UNL A   1     -23.066   0.722  29.736  0.00  0.00    +0.075 C 
ATOM     25  C   UNL A   1     -21.920  -0.285  29.873  0.00  0.00    +0.019 C 
ENDBRANCH   1  24
BRANCH   1  26
ATOM     26  C   UNL A   1     -25.253  -0.083  28.961  0.00  0.00    +0.182 C 
BRANCH  26  27
ATOM     27  C   UNL A   1     -24.855  -1.012  30.143  0.00  0.00    +0.081 C 
BRANCH  27  28
ATOM     28  C   UNL A   1     -24.973  -2.505  29.788  0.00  0.00    -0.017 C 
ATOM     29  C   UNL A   1     -23.906  -3.173  29.146  0.00  0.00    -0.004 C 
ATOM     30  C   UNL A   1     -23.989  -4.549  28.853  0.00  0.00    -0.000 C 
ATOM     31  C   UNL A   1     -25.137  -5.280  29.205  0.00  0.00    -0.000 C 
ATOM     32  C   UNL A   1     -26.232  -4.611  29.784  0.00  0.00    -0.000 C 
ATOM     33  C   UNL A   1     -26.155  -3.232  30.065  0.00  0.00    -0.004 C 
ENDBRANCH  27  28
BRANCH  27  34
ATOM     34  C   UNL A   1     -25.387  -0.679  31.571  0.00  0.00    +0.081 C 
ATOM     35  C   UNL A   1     -25.189   0.773  32.028  0.00  0.00    +0.019 C 
ATOM     36  C   UNL A   1     -25.336   0.684  33.544  0.00  0.00    +0.020 C 
ATOM     37  C   UNL A   1     -24.829  -0.715  33.905  0.00  0.00    +0.089 C 
ATOM     38  N   UNL A   1     -24.758  -1.481  32.646  0.00  0.00    -0.219 NA
ENDBRANCH  27  34
ENDBRANCH  26  27
BRANCH  26  39
ATOM     39  O   UNL A   1     -26.464   0.707  28.770  0.00  0.00    -0.340 OA
BRANCH  39  40
ATOM     40  C   UNL A   1     -27.796   0.105  28.803  0.00  0.00    +0.146 C 
BRANCH  40  41
ATOM     41  C   UNL A   1     -28.673   1.226  28.210  0.00  0.00    +0.068 C 
BRANCH  41  42
ATOM     42  C   UNL A   1     -29.289   2.184  29.268  0.00  0.00    +0.187 C 
ATOM     43  O   UNL A   1     -30.200   1.480  30.125  0.00  0.00    -0.220 OA
BRANCH  42  45
ATOM     44  O   UNL A   1     -28.368   2.939  31.427  0.00  0.00    -0.218 OA
ATOM     45  C   UNL A   1     -28.251   3.057  30.016  0.00  0.00    +0.215 C 
ENDBRANCH  42  45
ENDBRANCH  41  42
ENDBRANCH  40  41
ENDBRANCH  39  40
ENDBRANCH  26  39
ENDBRANCH   1  26
TORSDOF 16
