REMARK  Name = outputs/IAG933/test6/raw/output_5151_IAG933_linker_design_.xyz
REMARK  9 active torsions:
REMARK  status: ('A' for Active; 'I' for Inactive)
REMARK    1  A    between atoms: C_1  and  C_2
REMARK    2  A    between atoms: C_1  and  C_8
REMARK    3  A    between atoms: C_1  and  C_28
REMARK    4  A    between atoms: C_21  and  O_22
REMARK    5  A    between atoms: O_22  and  C_23
REMARK    6  A    between atoms: C_23  and  C_24
REMARK    7  A    between atoms: C_30  and  C_38
REMARK    8  A    between atoms: C_32  and  C_38
REMARK    9  A    between atoms: C_32  and  C_39
REMARK                            x       y       z     vdW  Elec       q    Type
REMARK                         _______ _______ _______ _____ _____    ______ ____
ROOT
ATOM      1  C   UNL A   1     -25.688   1.614  26.461  0.00  0.00    +0.035 C 
ATOM      2  C   UNL A   1     -26.250   2.920  26.395  0.00  0.00    +0.072 C 
ATOM      3  C   UNL A   1     -25.642   4.093  27.123  0.00  0.00    +0.226 C 
ATOM      4  N   UNL A   1     -25.614   5.252  26.449  0.00  0.00    -0.235 NA
ATOM      5  C   UNL A   1     -25.026   6.479  26.963  0.00  0.00    +0.155 C 
ATOM      6  O   UNL A   1     -25.143   3.966  28.243  0.00  0.00    -0.439 OA
ATOM      7  C   UNL A   1     -27.438   3.091  25.645  0.00  0.00    +0.106 C 
ATOM      8  N   UNL A   1     -28.075   2.089  25.003  0.00  0.00    -0.208 NA
ATOM      9  C   UNL A   1     -27.543   0.849  25.079  0.00  0.00    +0.253 C 
ATOM     10  C   UNL A   1     -26.354   0.576  25.777  0.00  0.00    +0.191 C 
ATOM     11  F   UNL A   1     -25.860  -0.681  25.795  0.00  0.00    -0.200 F 
ATOM     12  C   UNL A   1     -24.892  -0.096  28.865  0.00  0.00    +0.231 C 
ATOM     13  O   UNL A   1     -25.768  -0.800  27.997  0.00  0.00    -0.275 OA
ATOM     14  C   UNL A   1     -25.270   3.213  29.415  0.00  0.00    +0.140 C 
ATOM     15  N   UNL A   1     -24.581   1.056  28.548  0.00  0.00    -0.269 N 
ATOM     16  C   UNL A   1     -24.397   1.313  27.145  0.00  0.00    +0.119 C 
ATOM     17  C   UNL A   1     -24.514   2.048  29.498  0.00  0.00    +0.158 C 
ATOM     18  C   UNL A   1     -26.248   3.661  30.375  0.00  0.00    +0.009 C 
ATOM     19  C   UNL A   1     -27.162   4.842  30.308  0.00  0.00    +0.034 C 
ENDROOT
BRANCH  16  21
ATOM     20 CL   UNL A   1     -22.814   2.439  25.258  0.00  0.00    -0.109 Cl
ATOM     21  C   UNL A   1     -22.998   1.664  26.809  0.00  0.00    +0.146 C 
BRANCH  21  23
ATOM     22  F   UNL A   1     -20.690   1.754  27.025  0.00  0.00    -0.224 F 
ATOM     23  C   UNL A   1     -21.851   1.435  27.718  0.00  0.00    +0.280 C 
BRANCH  23  24
ATOM     24  C   UNL A   1     -21.617   0.278  28.346  0.00  0.00    +0.398 C 
ATOM     25  O   UNL A   1     -20.484  -0.341  28.062  0.00  0.00    -0.243 OA
ATOM     26  O   UNL A   1     -22.494  -0.365  28.913  0.00  0.00    -0.243 OA
ENDBRANCH  23  24
ENDBRANCH  21  23
ENDBRANCH  16  21
BRANCH  12  27
ATOM     27  C   UNL A   1     -24.855  -1.012  30.143  0.00  0.00    +0.115 C 
BRANCH  27  28
ATOM     28  C   UNL A   1     -24.973  -2.505  29.788  0.00  0.00    -0.013 C 
ATOM     29  C   UNL A   1     -23.906  -3.173  29.146  0.00  0.00    -0.004 C 
ATOM     30  C   UNL A   1     -23.989  -4.549  28.853  0.00  0.00    -0.000 C 
ATOM     31  C   UNL A   1     -25.137  -5.280  29.205  0.00  0.00    -0.000 C 
ATOM     32  C   UNL A   1     -26.232  -4.611  29.784  0.00  0.00    -0.000 C 
ATOM     33  C   UNL A   1     -26.155  -3.232  30.065  0.00  0.00    -0.004 C 
ENDBRANCH  27  28
BRANCH  27  34
ATOM     34  C   UNL A   1     -25.387  -0.679  31.571  0.00  0.00    +0.086 C 
ATOM     35  C   UNL A   1     -25.189   0.773  32.028  0.00  0.00    +0.020 C 
ATOM     36  C   UNL A   1     -25.336   0.684  33.544  0.00  0.00    +0.020 C 
ATOM     37  C   UNL A   1     -24.829  -0.715  33.905  0.00  0.00    +0.089 C 
ATOM     38  N   UNL A   1     -24.758  -1.481  32.646  0.00  0.00    -0.219 NA
ENDBRANCH  27  34
ENDBRANCH  12  27
BRANCH   9  39
ATOM     39  O   UNL A   1     -28.193  -0.208  24.477  0.00  0.00    -0.456 OA
BRANCH  39  40
ATOM     40  C   UNL A   1     -29.460   0.005  23.866  0.00  0.00    +0.243 C 
BRANCH  40  41
ATOM     41  C   UNL A   1     -30.065  -1.377  23.573  0.00  0.00    +0.229 C 
ATOM     42  O   UNL A   1     -30.729  -1.878  24.721  0.00  0.00    -0.216 OA
ENDBRANCH  40  41
ENDBRANCH  39  40
ENDBRANCH   9  39
TORSDOF 9
