REMARK  Name = outputs/IAG933/test6/raw/output_5152_IAG933_linker_design_.xyz
REMARK  12 active torsions:
REMARK  status: ('A' for Active; 'I' for Inactive)
REMARK    1  A    between atoms: C_1  and  C_2
REMARK    2  A    between atoms: C_1  and  C_8
REMARK    3  A    between atoms: C_9  and  C_30
REMARK    4  A    between atoms: C_13  and  C_28
REMARK    5  A    between atoms: C_14  and  C_15
REMARK    6  A    between atoms: C_21  and  O_22
REMARK    7  A    between atoms: O_22  and  C_23
REMARK    8  A    between atoms: C_23  and  C_24
REMARK    9  A    between atoms: O_29  and  C_38
REMARK   10  A    between atoms: C_30  and  N_34
REMARK   11  A    between atoms: C_30  and  C_38
REMARK   12  A    between atoms: N_34  and  C_41
REMARK                            x       y       z     vdW  Elec       q    Type
REMARK                         _______ _______ _______ _____ _____    ______ ____
ROOT
ATOM      1  C   UNL A   1     -24.387   1.540  27.120  0.00  0.00    +0.105 C 
ATOM      2  N   UNL A   1     -21.500   1.202  27.675  0.00  0.00    +0.005 NA
ATOM      3  C   UNL A   1     -22.186   1.991  26.796  0.00  0.00    +0.357 C 
ATOM      4  N   UNL A   1     -22.136  -0.040  29.579  0.00  0.00    +0.196 NA
ATOM      5  C   UNL A   1     -23.303   2.246  26.496  0.00  0.00    +0.277 C 
ATOM      6  O   UNL A   1     -22.294   2.901  25.969  0.00  0.00    -0.434 OA
ATOM      7  C   UNL A   1     -22.432   0.716  28.539  0.00  0.00    +0.422 C 
ATOM      8  C   UNL A   1     -23.883   1.136  28.445  0.00  0.00    +0.198 C 
ENDROOT
BRANCH   1   9
ATOM      9  C   UNL A   1     -25.688   1.614  26.461  0.00  0.00    +0.022 C 
ATOM     10  C   UNL A   1     -26.250   2.920  26.395  0.00  0.00    +0.073 C 
ATOM     11  C   UNL A   1     -27.438   3.091  25.645  0.00  0.00    +0.106 C 
ATOM     12  N   UNL A   1     -28.075   2.089  25.003  0.00  0.00    -0.208 NA
ATOM     13  C   UNL A   1     -27.543   0.849  25.079  0.00  0.00    +0.253 C 
ATOM     14  C   UNL A   1     -26.354   0.576  25.777  0.00  0.00    +0.189 C 
ATOM     15  F   UNL A   1     -25.860  -0.681  25.795  0.00  0.00    -0.200 F 
BRANCH  10  16
ATOM     16  C   UNL A   1     -25.642   4.093  27.123  0.00  0.00    +0.266 C 
ATOM     17  N   UNL A   1     -25.614   5.252  26.449  0.00  0.00    -0.200 NA
ATOM     18  C   UNL A   1     -25.026   6.479  26.963  0.00  0.00    +0.139 C 
ATOM     19  O   UNL A   1     -25.143   3.966  28.243  0.00  0.00    -0.268 OA
ENDBRANCH  10  16
BRANCH  13  20
ATOM     20  O   UNL A   1     -28.193  -0.208  24.477  0.00  0.00    -0.456 OA
BRANCH  20  21
ATOM     21  C   UNL A   1     -29.460   0.005  23.866  0.00  0.00    +0.243 C 
BRANCH  21  22
ATOM     22  C   UNL A   1     -30.065  -1.377  23.573  0.00  0.00    +0.229 C 
ATOM     23  O   UNL A   1     -30.729  -1.878  24.721  0.00  0.00    -0.216 OA
ENDBRANCH  21  22
ENDBRANCH  20  21
ENDBRANCH  13  20
ENDBRANCH   1   9
BRANCH   8  24
ATOM     24  N   UNL A   1     -24.644   1.449  29.655  0.00  0.00    -0.197 NA
BRANCH  24  25
ATOM     25  C   UNL A   1     -25.340   1.828  30.886  0.00  0.00    +0.173 C 
BRANCH  25  27
ATOM     26  C   UNL A   1     -25.387  -0.679  31.571  0.00  0.00    +0.079 C 
ATOM     27  C   UNL A   1     -25.189   0.773  32.028  0.00  0.00    +0.045 C 
ATOM     28  C   UNL A   1     -25.336   0.684  33.544  0.00  0.00    +0.022 C 
ATOM     29  C   UNL A   1     -24.829  -0.715  33.905  0.00  0.00    +0.089 C 
ATOM     30  N   UNL A   1     -24.758  -1.481  32.646  0.00  0.00    -0.219 NA
BRANCH  26  31
ATOM     31  C   UNL A   1     -24.855  -1.012  30.143  0.00  0.00    +0.044 C 
BRANCH  31  32
ATOM     32  C   UNL A   1     -24.973  -2.505  29.788  0.00  0.00    -0.021 C 
ATOM     33  C   UNL A   1     -23.906  -3.173  29.146  0.00  0.00    -0.004 C 
ATOM     34  C   UNL A   1     -23.989  -4.549  28.853  0.00  0.00    -0.000 C 
ATOM     35  C   UNL A   1     -25.137  -5.280  29.205  0.00  0.00    -0.000 C 
ATOM     36  C   UNL A   1     -26.232  -4.611  29.784  0.00  0.00    -0.000 C 
ATOM     37  C   UNL A   1     -26.155  -3.232  30.065  0.00  0.00    -0.004 C 
ENDBRANCH  31  32
ENDBRANCH  26  31
ENDBRANCH  25  27
BRANCH  25  39
ATOM     38  O   UNL A   1     -26.506   3.650  30.435  0.00  0.00    -0.249 OA
ATOM     39  C   UNL A   1     -25.578   3.014  30.991  0.00  0.00    +0.333 C 
BRANCH  39  40
ATOM     40  O   UNL A   1     -24.648   3.667  31.885  0.00  0.00    -0.443 OA
ATOM     41  C   UNL A   1     -25.070   4.818  32.602  0.00  0.00    +0.256 C 
ENDBRANCH  39  40
ENDBRANCH  25  39
ENDBRANCH  24  25
ENDBRANCH   8  24
TORSDOF 12
