REMARK  Name = outputs/IAG933/test6/raw/output_5154_IAG933_linker_design_.xyz
REMARK  14 active torsions:
REMARK  status: ('A' for Active; 'I' for Inactive)
REMARK    1  A    between atoms: C_1  and  C_2
REMARK    2  A    between atoms: C_1  and  C_8
REMARK    3  A    between atoms: C_1  and  C_35
REMARK    4  A    between atoms: C_13  and  C_41
REMARK    5  A    between atoms: C_14  and  C_15
REMARK    6  A    between atoms: C_21  and  O_22
REMARK    7  A    between atoms: O_22  and  C_23
REMARK    8  A    between atoms: C_23  and  C_24
REMARK    9  A    between atoms: C_28  and  C_37
REMARK   10  A    between atoms: C_28  and  C_38
REMARK   11  A    between atoms: O_33  and  C_34
REMARK   12  A    between atoms: O_33  and  C_41
REMARK   13  A    between atoms: N_36  and  C_38
REMARK   14  A    between atoms: C_38  and  C_41
REMARK                            x       y       z     vdW  Elec       q    Type
REMARK                         _______ _______ _______ _____ _____    ______ ____
ROOT
ATOM      1  C   UNL A   1     -23.374   0.836  27.602  0.00  0.00    +0.139 C 
ENDROOT
BRANCH   1   5
ATOM      2  O   UNL A   1     -26.027   0.002  28.452  0.00  0.00    -0.541 OA
ATOM      3  O   UNL A   1     -23.227   1.222  30.060  0.00  0.00    -0.420 OA
ATOM      4  C   UNL A   1     -24.945  -0.016  29.086  0.00  0.00    +0.073 C 
ATOM      5  N   UNL A   1     -23.928   0.798  28.900  0.00  0.00    -0.281 N 
BRANCH   4   6
ATOM      6  C   UNL A   1     -24.855  -1.012  30.143  0.00  0.00    +0.082 C 
BRANCH   6   7
ATOM      7  C   UNL A   1     -24.973  -2.505  29.788  0.00  0.00    -0.015 C 
ATOM      8  C   UNL A   1     -23.906  -3.173  29.146  0.00  0.00    -0.004 C 
ATOM      9  C   UNL A   1     -23.989  -4.549  28.853  0.00  0.00    -0.000 C 
ATOM     10  C   UNL A   1     -25.137  -5.280  29.205  0.00  0.00    -0.000 C 
ATOM     11  C   UNL A   1     -26.232  -4.611  29.784  0.00  0.00    -0.000 C 
ATOM     12  C   UNL A   1     -26.155  -3.232  30.065  0.00  0.00    -0.004 C 
ENDBRANCH   6   7
BRANCH   6  13
ATOM     13  C   UNL A   1     -25.387  -0.679  31.571  0.00  0.00    +0.083 C 
ATOM     14  C   UNL A   1     -25.189   0.773  32.028  0.00  0.00    +0.020 C 
ATOM     15  C   UNL A   1     -25.336   0.684  33.544  0.00  0.00    +0.020 C 
ATOM     16  C   UNL A   1     -24.829  -0.715  33.905  0.00  0.00    +0.089 C 
ATOM     17  N   UNL A   1     -24.758  -1.481  32.646  0.00  0.00    -0.219 NA
ENDBRANCH   6  13
ENDBRANCH   4   6
ENDBRANCH   1   5
BRANCH   1  18
ATOM     18  C   UNL A   1     -22.027   1.544  27.695  0.00  0.00    +0.202 C 
ATOM     19  O   UNL A   1     -21.165   1.900  26.514  0.00  0.00    -0.219 OA
BRANCH  18  21
ATOM     20  O   UNL A   1     -19.853   0.019  28.098  0.00  0.00    -0.348 OA
ATOM     21  C   UNL A   1     -20.907   0.852  28.440  0.00  0.00    +0.177 C 
ATOM     22  C   UNL A   1     -20.927  -0.331  28.955  0.00  0.00    +0.174 C 
ENDBRANCH  18  21
ENDBRANCH   1  18
BRANCH   1  23
ATOM     23  C   UNL A   1     -24.314   1.678  26.795  0.00  0.00    +0.146 C 
BRANCH  23  24
ATOM     24  C   UNL A   1     -25.688   1.614  26.461  0.00  0.00    +0.099 C 
ATOM     25  C   UNL A   1     -26.250   2.920  26.395  0.00  0.00    +0.057 C 
ATOM     26  C   UNL A   1     -27.438   3.091  25.645  0.00  0.00    +0.102 C 
ATOM     27  N   UNL A   1     -28.075   2.089  25.003  0.00  0.00    -0.212 NA
ATOM     28  C   UNL A   1     -27.543   0.849  25.079  0.00  0.00    +0.234 C 
ATOM     29  C   UNL A   1     -26.354   0.576  25.777  0.00  0.00    +0.242 C 
ATOM     30  F   UNL A   1     -25.860  -0.681  25.795  0.00  0.00    -0.227 F 
BRANCH  25  31
ATOM     31  C   UNL A   1     -25.642   4.093  27.123  0.00  0.00    +0.263 C 
ATOM     32  N   UNL A   1     -25.614   5.252  26.449  0.00  0.00    -0.200 NA
ATOM     33  C   UNL A   1     -25.026   6.479  26.963  0.00  0.00    +0.139 C 
ATOM     34  O   UNL A   1     -25.143   3.966  28.243  0.00  0.00    -0.269 OA
ENDBRANCH  25  31
BRANCH  28  35
ATOM     35  O   UNL A   1     -28.193  -0.208  24.477  0.00  0.00    -0.459 OA
BRANCH  35  36
ATOM     36  C   UNL A   1     -29.460   0.005  23.866  0.00  0.00    +0.242 C 
BRANCH  36  37
ATOM     37  C   UNL A   1     -30.065  -1.377  23.573  0.00  0.00    +0.229 C 
ATOM     38  O   UNL A   1     -30.729  -1.878  24.721  0.00  0.00    -0.216 OA
ENDBRANCH  36  37
ENDBRANCH  35  36
ENDBRANCH  28  35
ENDBRANCH  23  24
BRANCH  23  39
ATOM     39  O   UNL A   1     -23.576   2.779  26.408  0.00  0.00    -0.325 OA
BRANCH  39  40
ATOM     40  C   UNL A   1     -23.578   2.699  25.096  0.00  0.00    +0.329 C 
ATOM     41  O   UNL A   1     -23.455   1.413  24.475  0.00  0.00    -0.184 OA
ENDBRANCH  39  40
ENDBRANCH  23  39
ENDBRANCH   1  23
TORSDOF 14
