REMARK  Name = outputs/IAG933/test6/raw/output_5155_IAG933_linker_design_.xyz
REMARK  14 active torsions:
REMARK  status: ('A' for Active; 'I' for Inactive)
REMARK    1  A    between atoms: C_1  and  C_2
REMARK    2  A    between atoms: C_1  and  C_8
REMARK    3  A    between atoms: C_1  and  C_43
REMARK    4  A    between atoms: C_13  and  C_34
REMARK    5  A    between atoms: C_14  and  C_15
REMARK    6  A    between atoms: C_21  and  O_22
REMARK    7  A    between atoms: O_22  and  C_23
REMARK    8  A    between atoms: C_23  and  C_24
REMARK    9  A    between atoms: N_29  and  C_42
REMARK   10  A    between atoms: N_29  and  C_43
REMARK   11  A    between atoms: C_32  and  C_33
REMARK   12  A    between atoms: C_33  and  O_40
REMARK   13  A    between atoms: C_35  and  C_41
REMARK   14  A    between atoms: O_40  and  C_41
REMARK                            x       y       z     vdW  Elec       q    Type
REMARK                         _______ _______ _______ _____ _____    ______ ____
ROOT
ATOM      1  N   UNL A   1     -22.134   0.668  28.908  0.00  0.00    -0.124 NA
ATOM      2  C   UNL A   1     -22.380   2.205  25.565  0.00  0.00    +0.130 C 
ATOM      3  C   UNL A   1     -24.437   1.552  26.479  0.00  0.00    +0.083 C 
ATOM      4  C   UNL A   1     -21.857   1.868  26.834  0.00  0.00    +0.177 C 
ATOM      5  N   UNL A   1     -23.713   2.010  25.407  0.00  0.00    -0.244 NA
ATOM      6  C   UNL A   1     -22.622   1.225  27.813  0.00  0.00    +0.134 C 
ATOM      7  F   UNL A   1     -20.608   2.120  27.174  0.00  0.00    -0.201 F 
ATOM      8  C   UNL A   1     -23.961   1.202  27.739  0.00  0.00    +0.104 C 
ENDROOT
BRANCH   3   9
ATOM      9  C   UNL A   1     -25.688   1.614  26.461  0.00  0.00    +0.112 C 
ATOM     10  C   UNL A   1     -26.250   2.920  26.395  0.00  0.00    +0.060 C 
ATOM     11  C   UNL A   1     -27.438   3.091  25.645  0.00  0.00    +0.102 C 
ATOM     12  N   UNL A   1     -28.075   2.089  25.003  0.00  0.00    -0.212 NA
ATOM     13  C   UNL A   1     -27.543   0.849  25.079  0.00  0.00    +0.234 C 
ATOM     14  C   UNL A   1     -26.354   0.576  25.777  0.00  0.00    +0.246 C 
ATOM     15  F   UNL A   1     -25.860  -0.681  25.795  0.00  0.00    -0.227 F 
BRANCH  10  16
ATOM     16  C   UNL A   1     -25.642   4.093  27.123  0.00  0.00    +0.263 C 
ATOM     17  N   UNL A   1     -25.614   5.252  26.449  0.00  0.00    -0.200 NA
ATOM     18  C   UNL A   1     -25.026   6.479  26.963  0.00  0.00    +0.139 C 
ATOM     19  O   UNL A   1     -25.143   3.966  28.243  0.00  0.00    -0.269 OA
ENDBRANCH  10  16
BRANCH  13  20
ATOM     20  O   UNL A   1     -28.193  -0.208  24.477  0.00  0.00    -0.459 OA
BRANCH  20  21
ATOM     21  C   UNL A   1     -29.460   0.005  23.866  0.00  0.00    +0.242 C 
BRANCH  21  22
ATOM     22  C   UNL A   1     -30.065  -1.377  23.573  0.00  0.00    +0.229 C 
ATOM     23  O   UNL A   1     -30.729  -1.878  24.721  0.00  0.00    -0.216 OA
ENDBRANCH  21  22
ENDBRANCH  20  21
ENDBRANCH  13  20
ENDBRANCH   3   9
BRANCH   8  24
ATOM     24  N   UNL A   1     -24.930   1.148  28.693  0.00  0.00    -0.206 NA
BRANCH  24  26
ATOM     25  C   UNL A   1     -28.389   0.163  29.082  0.00  0.00    +0.048 C 
ATOM     26  C   UNL A   1     -25.607  -0.051  29.267  0.00  0.00    +0.087 C 
ATOM     27  C   UNL A   1     -26.961  -0.108  29.046  0.00  0.00    -0.091 C 
BRANCH  26  28
ATOM     28  C   UNL A   1     -24.855  -1.012  30.143  0.00  0.00    +0.083 C 
BRANCH  28  29
ATOM     29  C   UNL A   1     -24.973  -2.505  29.788  0.00  0.00    -0.015 C 
ATOM     30  C   UNL A   1     -23.906  -3.173  29.146  0.00  0.00    -0.004 C 
ATOM     31  C   UNL A   1     -23.989  -4.549  28.853  0.00  0.00    -0.000 C 
ATOM     32  C   UNL A   1     -25.137  -5.280  29.205  0.00  0.00    -0.000 C 
ATOM     33  C   UNL A   1     -26.232  -4.611  29.784  0.00  0.00    -0.000 C 
ATOM     34  C   UNL A   1     -26.155  -3.232  30.065  0.00  0.00    -0.004 C 
ENDBRANCH  28  29
BRANCH  28  35
ATOM     35  C   UNL A   1     -25.387  -0.679  31.571  0.00  0.00    +0.083 C 
ATOM     36  C   UNL A   1     -25.189   0.773  32.028  0.00  0.00    +0.020 C 
ATOM     37  C   UNL A   1     -25.336   0.684  33.544  0.00  0.00    +0.020 C 
ATOM     38  C   UNL A   1     -24.829  -0.715  33.905  0.00  0.00    +0.089 C 
ATOM     39  N   UNL A   1     -24.758  -1.481  32.646  0.00  0.00    -0.219 NA
ENDBRANCH  28  35
ENDBRANCH  26  28
BRANCH  25  40
ATOM     40  C   UNL A   1     -29.476   1.067  28.759  0.00  0.00    +0.177 C 
BRANCH  40  41
ATOM     41  O   UNL A   1     -29.389   2.330  29.514  0.00  0.00    -0.347 OA
BRANCH  41  42
ATOM     42  C   UNL A   1     -30.423   3.269  29.476  0.00  0.00    +0.163 C 
BRANCH  42  44
ATOM     43  N   UNL A   1     -32.025   1.255  29.709  0.00  0.00    -0.129 NA
ATOM     44  C   UNL A   1     -31.681   2.535  29.046  0.00  0.00    +0.141 C 
ENDBRANCH  42  44
ENDBRANCH  41  42
ENDBRANCH  40  41
ENDBRANCH  25  40
ENDBRANCH  24  26
ENDBRANCH   8  24
TORSDOF 14
