REMARK  Name = outputs/IAG933/test6/raw/output_5156_IAG933_linker_design_.xyz
REMARK  13 active torsions:
REMARK  status: ('A' for Active; 'I' for Inactive)
REMARK    1  A    between atoms: C_1  and  C_2
REMARK    2  A    between atoms: C_1  and  C_8
REMARK    3  A    between atoms: C_1  and  C_38
REMARK    4  A    between atoms: C_9  and  O_30
REMARK    5  A    between atoms: C_13  and  C_31
REMARK    6  A    between atoms: C_14  and  C_15
REMARK    7  A    between atoms: C_21  and  O_22
REMARK    8  A    between atoms: O_22  and  C_23
REMARK    9  A    between atoms: C_23  and  C_24
REMARK   10  A    between atoms: O_30  and  C_42
REMARK   11  A    between atoms: C_32  and  C_38
REMARK   12  A    between atoms: O_35  and  C_37
REMARK   13  A    between atoms: C_43  and  C_44
REMARK                            x       y       z     vdW  Elec       q    Type
REMARK                         _______ _______ _______ _____ _____    ______ ____
ROOT
ATOM      1  C   UNL A   1     -24.452   1.392  27.198  0.00  0.00    +0.054 C 
ATOM      2  C   UNL A   1     -24.436   0.585  28.306  0.00  0.00    +0.062 C 
ATOM      3  C   UNL A   1     -22.212   1.067  28.761  0.00  0.00    +0.102 C 
ATOM      4  C   UNL A   1     -22.116   1.880  27.699  0.00  0.00    +0.062 C 
ATOM      5  C   UNL A   1     -23.246   1.985  26.899  0.00  0.00    +0.192 C 
ATOM      6  N   UNL A   1     -23.353   0.423  29.056  0.00  0.00    -0.248 NA
ENDROOT
BRANCH   1   7
ATOM      7  C   UNL A   1     -25.688   1.614  26.461  0.00  0.00    +0.042 C 
ATOM      8  C   UNL A   1     -26.250   2.920  26.395  0.00  0.00    +0.077 C 
ATOM      9  C   UNL A   1     -27.438   3.091  25.645  0.00  0.00    +0.107 C 
ATOM     10  N   UNL A   1     -28.075   2.089  25.003  0.00  0.00    -0.208 NA
ATOM     11  C   UNL A   1     -27.543   0.849  25.079  0.00  0.00    +0.253 C 
ATOM     12  C   UNL A   1     -26.354   0.576  25.777  0.00  0.00    +0.193 C 
ATOM     13  F   UNL A   1     -25.860  -0.681  25.795  0.00  0.00    -0.199 F 
BRANCH   8  14
ATOM     14  C   UNL A   1     -25.642   4.093  27.123  0.00  0.00    +0.266 C 
ATOM     15  N   UNL A   1     -25.614   5.252  26.449  0.00  0.00    -0.200 NA
ATOM     16  C   UNL A   1     -25.026   6.479  26.963  0.00  0.00    +0.139 C 
ATOM     17  O   UNL A   1     -25.143   3.966  28.243  0.00  0.00    -0.268 OA
ENDBRANCH   8  14
BRANCH  11  18
ATOM     18  O   UNL A   1     -28.193  -0.208  24.477  0.00  0.00    -0.456 OA
BRANCH  18  19
ATOM     19  C   UNL A   1     -29.460   0.005  23.866  0.00  0.00    +0.243 C 
BRANCH  19  20
ATOM     20  C   UNL A   1     -30.065  -1.377  23.573  0.00  0.00    +0.229 C 
ATOM     21  O   UNL A   1     -30.729  -1.878  24.721  0.00  0.00    -0.216 OA
ENDBRANCH  19  20
ENDBRANCH  18  19
ENDBRANCH  11  18
ENDBRANCH   1   7
BRANCH   5  22
ATOM     22  O   UNL A   1     -22.985   2.563  25.727  0.00  0.00    -0.292 OA
ATOM     23  F   UNL A   1     -21.729   2.354  25.371  0.00  0.00    +0.014 F 
ENDBRANCH   5  22
BRANCH   2  24
ATOM     24  C   UNL A   1     -25.515  -0.250  28.927  0.00  0.00    +0.052 C 
BRANCH  24  25
ATOM     25  C   UNL A   1     -24.855  -1.012  30.143  0.00  0.00    +0.047 C 
BRANCH  25  26
ATOM     26  C   UNL A   1     -24.973  -2.505  29.788  0.00  0.00    -0.021 C 
ATOM     27  C   UNL A   1     -23.906  -3.173  29.146  0.00  0.00    -0.004 C 
ATOM     28  C   UNL A   1     -23.989  -4.549  28.853  0.00  0.00    -0.000 C 
ATOM     29  C   UNL A   1     -25.137  -5.280  29.205  0.00  0.00    -0.000 C 
ATOM     30  C   UNL A   1     -26.232  -4.611  29.784  0.00  0.00    -0.000 C 
ATOM     31  C   UNL A   1     -26.155  -3.232  30.065  0.00  0.00    -0.004 C 
ENDBRANCH  25  26
BRANCH  25  32
ATOM     32  C   UNL A   1     -25.387  -0.679  31.571  0.00  0.00    +0.104 C 
ATOM     33  C   UNL A   1     -25.189   0.773  32.028  0.00  0.00    +0.133 C 
ATOM     34  C   UNL A   1     -25.336   0.684  33.544  0.00  0.00    +0.050 C 
ATOM     35  C   UNL A   1     -24.829  -0.715  33.905  0.00  0.00    +0.091 C 
ATOM     36  N   UNL A   1     -24.758  -1.481  32.646  0.00  0.00    -0.217 NA
BRANCH  33  37
ATOM     37  O   UNL A   1     -25.841   1.680  31.205  0.00  0.00    -0.354 OA
BRANCH  37  40
ATOM     38  O   UNL A   1     -25.079   3.819  32.376  0.00  0.00    -0.220 OA
ATOM     39  C   UNL A   1     -26.454   4.033  31.951  0.00  0.00    +0.193 C 
ATOM     40  C   UNL A   1     -26.812   2.620  31.654  0.00  0.00    +0.159 C 
ATOM     41  C   UNL A   1     -27.365   3.626  30.732  0.00  0.00    +0.166 C 
BRANCH  41  44
ATOM     42  O   UNL A   1     -29.352   2.348  30.210  0.00  0.00    -0.245 OA
ATOM     43  O   UNL A   1     -29.460   4.277  31.343  0.00  0.00    -0.245 OA
ATOM     44  C   UNL A   1     -28.867   3.341  30.760  0.00  0.00    +0.369 C 
ENDBRANCH  41  44
ENDBRANCH  37  40
ENDBRANCH  33  37
ENDBRANCH  25  32
ENDBRANCH  24  25
ENDBRANCH   2  24
TORSDOF 13
