MODEL 515
MODEL 1
REMARK VINA RESULT:    -6.118      0.000      0.000
REMARK INTER + INTRA:          -6.118
REMARK INTER:                  -6.118
REMARK INTRA:                   0.000
REMARK UNBOUND:                 0.000
REMARK  Name = No_515-gen_results/8p0m/2024-11-27-11-27-31/
REMARK  0 active torsions:
REMARK  status: ('A' for Active; 'I' for Inactive)
REMARK                            x       y       z     vdW  Elec       q    Type
REMARK                         _______ _______ _______ _____ _____    ______ ____
ROOT
ATOM      1  O   UNL A   1     -26.508 -12.832  33.804  0.00  0.00    -0.268 OA
ATOM      2  C   UNL A   1     -27.276 -11.904  33.525  0.00  0.00    +0.265 C 
ATOM      3  C   UNL A   1     -28.050 -11.633  32.736  0.00  0.00    +0.051 A 
ATOM      4  C   UNL A   1     -28.232 -12.262  31.517  0.00  0.00    +0.004 A 
ATOM      5  N   UNL A   1     -27.305 -10.770  34.628  0.00  0.00    -0.201 NA
ATOM      6  C   UNL A   1     -28.134  -9.757  34.600  0.00  0.00    +0.121 C 
ATOM      7  C   UNL A   1     -28.954  -9.557  33.488  0.00  0.00    +0.066 C 
ATOM      8  C   UNL A   1     -28.973 -10.383  32.491  0.00  0.00    -0.010 A 
ATOM      9  C   UNL A   1     -28.781 -11.749  30.274  0.00  0.00    +0.000 A 
ATOM     10  C   UNL A   1     -29.628 -10.696  30.230  0.00  0.00    +0.004 A 
ATOM     11  C   UNL A   1     -29.705  -9.974  31.302  0.00  0.00    +0.051 A 
ATOM     12  C   UNL A   1     -30.547  -8.783  31.351  0.00  0.00    +0.265 C 
ATOM     13  O   UNL A   1     -31.387  -8.651  30.467  0.00  0.00    -0.268 OA
ATOM     14  N   UNL A   1     -30.485  -7.964  32.428  0.00  0.00    -0.201 NA
ATOM     15  C   UNL A   1     -29.751  -8.331  33.433  0.00  0.00    +0.121 C 
ENDROOT
TORSDOF 0
ENDMDL
ENDMDL
