REMARK  Name = outputs/IAG933/test6/raw/output_5163_IAG933_linker_design_.xyz
REMARK  11 active torsions:
REMARK  status: ('A' for Active; 'I' for Inactive)
REMARK    1  A    between atoms: C_1  and  C_2
REMARK    2  A    between atoms: C_1  and  C_8
REMARK    3  A    between atoms: C_1  and  N_39
REMARK    4  A    between atoms: C_13  and  C_29
REMARK    5  A    between atoms: C_14  and  C_15
REMARK    6  A    between atoms: C_21  and  O_22
REMARK    7  A    between atoms: O_22  and  C_23
REMARK    8  A    between atoms: C_23  and  C_24
REMARK    9  A    between atoms: C_32  and  C_34
REMARK   10  A    between atoms: C_32  and  C_37
REMARK   11  A    between atoms: C_33  and  N_39
REMARK                            x       y       z     vdW  Elec       q    Type
REMARK                         _______ _______ _______ _____ _____    ______ ____
ROOT
ATOM      1  C   UNL A   1     -21.819   1.104  27.867  0.00  0.00    +0.260 A 
ATOM      2  C   UNL A   1     -24.358   1.343  26.991  0.00  0.00    +0.081 A 
ATOM      3  F   UNL A   1     -23.481   2.052  24.860  0.00  0.00    -0.183 F 
ATOM      4  N   UNL A   1     -20.561   1.035  28.233  0.00  0.00    -0.086 NA
ATOM      5  C   UNL A   1     -24.108   0.714  28.269  0.00  0.00    +0.144 A 
ATOM      6  N   UNL A   1     -22.756   0.573  28.604  0.00  0.00    -0.196 NA
ATOM      7  N   UNL A   1     -22.077   1.706  26.639  0.00  0.00    -0.183 NA
ATOM      8  C   UNL A   1     -23.304   1.737  26.147  0.00  0.00    +0.227 A 
ENDROOT
BRANCH   2   9
ATOM      9  C   UNL A   1     -25.688   1.614  26.461  0.00  0.00    +0.044 C 
ATOM     10  C   UNL A   1     -26.250   2.920  26.395  0.00  0.00    +0.077 C 
ATOM     11  C   UNL A   1     -27.438   3.091  25.645  0.00  0.00    +0.107 C 
ATOM     12  N   UNL A   1     -28.075   2.089  25.003  0.00  0.00    -0.208 NA
ATOM     13  C   UNL A   1     -27.543   0.849  25.079  0.00  0.00    +0.253 C 
ATOM     14  C   UNL A   1     -26.354   0.576  25.777  0.00  0.00    +0.193 C 
ATOM     15  F   UNL A   1     -25.860  -0.681  25.795  0.00  0.00    -0.199 F 
BRANCH  10  16
ATOM     16  C   UNL A   1     -25.642   4.093  27.123  0.00  0.00    +0.266 C 
ATOM     17  N   UNL A   1     -25.614   5.252  26.449  0.00  0.00    -0.200 NA
ATOM     18  C   UNL A   1     -25.026   6.479  26.963  0.00  0.00    +0.139 C 
ATOM     19  O   UNL A   1     -25.143   3.966  28.243  0.00  0.00    -0.268 OA
ENDBRANCH  10  16
BRANCH  13  20
ATOM     20  O   UNL A   1     -28.193  -0.208  24.477  0.00  0.00    -0.456 OA
BRANCH  20  21
ATOM     21  C   UNL A   1     -29.460   0.005  23.866  0.00  0.00    +0.243 C 
BRANCH  21  22
ATOM     22  C   UNL A   1     -30.065  -1.377  23.573  0.00  0.00    +0.229 C 
ATOM     23  O   UNL A   1     -30.729  -1.878  24.721  0.00  0.00    -0.216 OA
ENDBRANCH  21  22
ENDBRANCH  20  21
ENDBRANCH  13  20
ENDBRANCH   2   9
BRANCH   5  26
ATOM     24  C   UNL A   1     -26.533   0.616  29.138  0.00  0.00    +0.231 C 
ATOM     25  O   UNL A   1     -26.605   1.753  29.495  0.00  0.00    -0.275 OA
ATOM     26  N   UNL A   1     -25.158   0.053  29.118  0.00  0.00    -0.240 N 
BRANCH  26  27
ATOM     27  C   UNL A   1     -24.855  -1.012  30.143  0.00  0.00    +0.119 C 
BRANCH  27  28
ATOM     28  C   UNL A   1     -24.973  -2.505  29.788  0.00  0.00    -0.003 C 
ATOM     29  C   UNL A   1     -23.906  -3.173  29.146  0.00  0.00    -0.003 C 
ATOM     30  C   UNL A   1     -23.989  -4.549  28.853  0.00  0.00    -0.000 C 
ATOM     31  C   UNL A   1     -25.137  -5.280  29.205  0.00  0.00    -0.000 C 
ATOM     32  C   UNL A   1     -26.232  -4.611  29.784  0.00  0.00    -0.000 C 
ATOM     33  C   UNL A   1     -26.155  -3.232  30.065  0.00  0.00    -0.003 C 
ENDBRANCH  27  28
BRANCH  27  34
ATOM     34  C   UNL A   1     -25.387  -0.679  31.571  0.00  0.00    +0.096 C 
ATOM     35  C   UNL A   1     -25.189   0.773  32.028  0.00  0.00    +0.021 C 
ATOM     36  C   UNL A   1     -25.336   0.684  33.544  0.00  0.00    +0.020 C 
ATOM     37  C   UNL A   1     -24.829  -0.715  33.905  0.00  0.00    +0.089 C 
ATOM     38  N   UNL A   1     -24.758  -1.481  32.646  0.00  0.00    -0.217 NA
ENDBRANCH  27  34
ENDBRANCH  26  27
BRANCH  24  39
ATOM     39  C   UNL A   1     -27.730  -0.357  28.947  0.00  0.00    +0.086 C 
BRANCH  39  41
ATOM     40  C   UNL A   1     -29.572   1.537  29.491  0.00  0.00    +0.001 C 
ATOM     41  C   UNL A   1     -29.229   0.040  29.233  0.00  0.00    +0.009 C 
ATOM     42  C   UNL A   1     -30.192  -0.542  28.149  0.00  0.00    +0.001 C 
ENDBRANCH  39  41
ENDBRANCH  24  39
ENDBRANCH   5  26
TORSDOF 11
