REMARK  Name = outputs/IAG933/test6/raw/output_5166_IAG933_linker_design_.xyz
REMARK  10 active torsions:
REMARK  status: ('A' for Active; 'I' for Inactive)
REMARK    1  A    between atoms: C_1  and  C_2
REMARK    2  A    between atoms: C_1  and  C_8
REMARK    3  A    between atoms: C_1  and  N_38
REMARK    4  A    between atoms: C_9  and  C_30
REMARK    5  A    between atoms: C_13  and  C_33
REMARK    6  A    between atoms: C_14  and  C_15
REMARK    7  A    between atoms: C_21  and  O_22
REMARK    8  A    between atoms: O_22  and  C_23
REMARK    9  A    between atoms: C_23  and  C_24
REMARK   10  A    between atoms: C_28  and  C_39
REMARK                            x       y       z     vdW  Elec       q    Type
REMARK                         _______ _______ _______ _____ _____    ______ ____
ROOT
ATOM      1  C   UNL A   1     -21.986   1.550  25.903  0.00  0.00    +0.040 C 
ATOM      2  C   UNL A   1     -23.321   1.351  25.663  0.00  0.00    +0.179 C 
ATOM      3  C   UNL A   1     -24.337   1.331  26.722  0.00  0.00    -0.009 C 
ATOM      4  F   UNL A   1     -23.695   0.991  24.351  0.00  0.00    -0.233 F 
ATOM      5  C   UNL A   1     -21.652   1.346  27.243  0.00  0.00    +0.017 C 
ATOM      6  C   UNL A   1     -22.745   0.854  28.199  0.00  0.00    +0.100 C 
ATOM      7  C   UNL A   1     -23.723   1.133  27.738  0.00  0.00    -0.023 C 
ENDROOT
BRANCH   3   8
ATOM      8  C   UNL A   1     -25.688   1.614  26.461  0.00  0.00    +0.091 C 
ATOM      9  C   UNL A   1     -26.250   2.920  26.395  0.00  0.00    +0.059 C 
ATOM     10  C   UNL A   1     -27.438   3.091  25.645  0.00  0.00    +0.102 C 
ATOM     11  N   UNL A   1     -28.075   2.089  25.003  0.00  0.00    -0.212 NA
ATOM     12  C   UNL A   1     -27.543   0.849  25.079  0.00  0.00    +0.234 C 
ATOM     13  C   UNL A   1     -26.354   0.576  25.777  0.00  0.00    +0.244 C 
ATOM     14  F   UNL A   1     -25.860  -0.681  25.795  0.00  0.00    -0.227 F 
BRANCH   9  15
ATOM     15  C   UNL A   1     -25.642   4.093  27.123  0.00  0.00    +0.263 C 
ATOM     16  N   UNL A   1     -25.614   5.252  26.449  0.00  0.00    -0.200 NA
ATOM     17  C   UNL A   1     -25.026   6.479  26.963  0.00  0.00    +0.139 C 
ATOM     18  O   UNL A   1     -25.143   3.966  28.243  0.00  0.00    -0.269 OA
ENDBRANCH   9  15
BRANCH  12  19
ATOM     19  O   UNL A   1     -28.193  -0.208  24.477  0.00  0.00    -0.459 OA
BRANCH  19  20
ATOM     20  C   UNL A   1     -29.460   0.005  23.866  0.00  0.00    +0.242 C 
BRANCH  20  21
ATOM     21  C   UNL A   1     -30.065  -1.377  23.573  0.00  0.00    +0.229 C 
ATOM     22  O   UNL A   1     -30.729  -1.878  24.721  0.00  0.00    -0.216 OA
ENDBRANCH  20  21
ENDBRANCH  19  20
ENDBRANCH  12  19
ENDBRANCH   3   8
BRANCH   6  23
ATOM     23  C   UNL A   1     -23.045   0.081  29.015  0.00  0.00    +0.245 C 
ATOM     24  O   UNL A   1     -22.266  -0.467  29.934  0.00  0.00    -0.273 OA
ATOM     25  N   UNL A   1     -24.368  -0.102  29.268  0.00  0.00    -0.201 NA
BRANCH  25  26
ATOM     26  C   UNL A   1     -24.855  -1.012  30.143  0.00  0.00    +0.134 C 
BRANCH  26  27
ATOM     27  C   UNL A   1     -24.973  -2.505  29.788  0.00  0.00    -0.001 C 
ATOM     28  C   UNL A   1     -23.906  -3.173  29.146  0.00  0.00    -0.003 C 
ATOM     29  C   UNL A   1     -23.989  -4.549  28.853  0.00  0.00    -0.000 C 
ATOM     30  C   UNL A   1     -25.137  -5.280  29.205  0.00  0.00    -0.000 C 
ATOM     31  C   UNL A   1     -26.232  -4.611  29.784  0.00  0.00    -0.000 C 
ATOM     32  C   UNL A   1     -26.155  -3.232  30.065  0.00  0.00    -0.003 C 
ENDBRANCH  26  27
BRANCH  26  33
ATOM     33  C   UNL A   1     -25.387  -0.679  31.571  0.00  0.00    +0.107 C 
ATOM     34  C   UNL A   1     -25.189   0.773  32.028  0.00  0.00    +0.123 C 
ATOM     35  C   UNL A   1     -25.336   0.684  33.544  0.00  0.00    +0.032 C 
ATOM     36  C   UNL A   1     -24.829  -0.715  33.905  0.00  0.00    +0.089 C 
ATOM     37  N   UNL A   1     -24.758  -1.481  32.646  0.00  0.00    -0.217 NA
BRANCH  34  38
ATOM     38  C   UNL A   1     -24.910   2.012  31.387  0.00  0.00    +0.366 C 
ATOM     39  O   UNL A   1     -23.811   2.363  30.850  0.00  0.00    -0.246 OA
ATOM     40  O   UNL A   1     -25.860   2.924  31.399  0.00  0.00    -0.246 OA
ENDBRANCH  34  38
ENDBRANCH  26  33
ENDBRANCH  25  26
ENDBRANCH   6  23
TORSDOF 10
