REMARK  Name = outputs/IAG933/test6/raw/output_5168_IAG933_linker_design_.xyz
REMARK  9 active torsions:
REMARK  status: ('A' for Active; 'I' for Inactive)
REMARK    1  A    between atoms: C_1  and  C_2
REMARK    2  A    between atoms: C_1  and  C_8
REMARK    3  A    between atoms: C_1  and  C_45
REMARK    4  A    between atoms: C_13  and  C_42
REMARK    5  A    between atoms: C_14  and  C_15
REMARK    6  A    between atoms: C_21  and  O_22
REMARK    7  A    between atoms: O_22  and  C_23
REMARK    8  A    between atoms: C_23  and  C_24
REMARK    9  A    between atoms: C_38  and  N_47
REMARK                            x       y       z     vdW  Elec       q    Type
REMARK                         _______ _______ _______ _____ _____    ______ ____
ROOT
ATOM      1  C   UNL A   1     -22.558   0.776  28.122  0.00  0.00    +0.290 C 
ATOM      2  O   UNL A   1     -23.096   0.024  29.186  0.00  0.00    -0.452 OA
ATOM      3 CL   UNL A   1     -22.855   1.996  25.834  0.00  0.00    -0.081 Cl
ATOM      4  C   UNL A   1     -23.439   1.121  27.268  0.00  0.00    +0.103 C 
ATOM      5  C   UNL A   1     -25.755   0.689  28.852  0.00  0.00    +0.250 C 
ATOM      6  C   UNL A   1     -24.810   1.082  27.446  0.00  0.00    +0.096 C 
ATOM      7  F   UNL A   1     -21.194   1.190  27.962  0.00  0.00    -0.163 F 
ATOM      8  C   UNL A   1     -24.598  -0.122  28.944  0.00  0.00    +0.220 C 
ENDROOT
BRANCH   5  20
ATOM      9  C   UNL A   1     -30.933   1.343  29.276  0.00  0.00    +0.062 C 
ATOM     10  N   UNL A   1     -30.921   0.637  28.101  0.00  0.00    -0.275 NA
ATOM     11  C   UNL A   1     -31.711   2.802  27.729  0.00  0.00    +0.017 C 
ATOM     12  C   UNL A   1     -31.608   2.606  29.112  0.00  0.00    +0.018 C 
ATOM     13  C   UNL A   1     -29.204  -0.677  28.551  0.00  0.00    +0.138 C 
ATOM     14  N   UNL A   1     -28.366  -0.186  30.672  0.00  0.00    -0.066 NA
ATOM     15  C   UNL A   1     -30.487   1.042  30.648  0.00  0.00    +0.074 C 
ATOM     16  C   UNL A   1     -28.385  -0.515  29.324  0.00  0.00    +0.333 C 
ATOM     17  C   UNL A   1     -30.458  -0.695  27.742  0.00  0.00    +0.085 C 
ATOM     18  C   UNL A   1     -32.489   0.963  26.119  0.00  0.00    +0.017 C 
ATOM     19  C   UNL A   1     -29.318   0.671  31.244  0.00  0.00    +0.264 C 
ATOM     20  N   UNL A   1     -27.109  -0.090  28.933  0.00  0.00    -0.036 NA
ATOM     21  C   UNL A   1     -31.279   1.514  26.964  0.00  0.00    +0.058 C 
ENDBRANCH   5  20
BRANCH   6  22
ATOM     22  C   UNL A   1     -25.688   1.614  26.461  0.00  0.00    +0.079 C 
ATOM     23  C   UNL A   1     -26.250   2.920  26.395  0.00  0.00    +0.055 C 
ATOM     24  C   UNL A   1     -27.438   3.091  25.645  0.00  0.00    +0.102 C 
ATOM     25  N   UNL A   1     -28.075   2.089  25.003  0.00  0.00    -0.212 NA
ATOM     26  C   UNL A   1     -27.543   0.849  25.079  0.00  0.00    +0.234 C 
ATOM     27  C   UNL A   1     -26.354   0.576  25.777  0.00  0.00    +0.240 C 
ATOM     28  F   UNL A   1     -25.860  -0.681  25.795  0.00  0.00    -0.227 F 
BRANCH  23  29
ATOM     29  C   UNL A   1     -25.642   4.093  27.123  0.00  0.00    +0.263 C 
ATOM     30  N   UNL A   1     -25.614   5.252  26.449  0.00  0.00    -0.200 NA
ATOM     31  C   UNL A   1     -25.026   6.479  26.963  0.00  0.00    +0.139 C 
ATOM     32  O   UNL A   1     -25.143   3.966  28.243  0.00  0.00    -0.269 OA
ENDBRANCH  23  29
BRANCH  26  33
ATOM     33  O   UNL A   1     -28.193  -0.208  24.477  0.00  0.00    -0.459 OA
BRANCH  33  34
ATOM     34  C   UNL A   1     -29.460   0.005  23.866  0.00  0.00    +0.242 C 
BRANCH  34  35
ATOM     35  C   UNL A   1     -30.065  -1.377  23.573  0.00  0.00    +0.229 C 
ATOM     36  O   UNL A   1     -30.729  -1.878  24.721  0.00  0.00    -0.216 OA
ENDBRANCH  34  35
ENDBRANCH  33  34
ENDBRANCH  26  33
ENDBRANCH   6  22
BRANCH   8  37
ATOM     37  C   UNL A   1     -24.855  -1.012  30.143  0.00  0.00    +0.083 C 
BRANCH  37  38
ATOM     38  C   UNL A   1     -24.973  -2.505  29.788  0.00  0.00    -0.018 C 
ATOM     39  C   UNL A   1     -23.906  -3.173  29.146  0.00  0.00    -0.004 C 
ATOM     40  C   UNL A   1     -23.989  -4.549  28.853  0.00  0.00    -0.000 C 
ATOM     41  C   UNL A   1     -25.137  -5.280  29.205  0.00  0.00    -0.000 C 
ATOM     42  C   UNL A   1     -26.232  -4.611  29.784  0.00  0.00    -0.000 C 
ATOM     43  C   UNL A   1     -26.155  -3.232  30.065  0.00  0.00    -0.004 C 
ENDBRANCH  37  38
BRANCH  37  44
ATOM     44  C   UNL A   1     -25.387  -0.679  31.571  0.00  0.00    +0.080 C 
ATOM     45  C   UNL A   1     -25.189   0.773  32.028  0.00  0.00    +0.019 C 
ATOM     46  C   UNL A   1     -25.336   0.684  33.544  0.00  0.00    +0.020 C 
ATOM     47  C   UNL A   1     -24.829  -0.715  33.905  0.00  0.00    +0.089 C 
ATOM     48  N   UNL A   1     -24.758  -1.481  32.646  0.00  0.00    -0.219 NA
ENDBRANCH  37  44
ENDBRANCH   8  37
TORSDOF 9
