REMARK  Name = outputs/IAG933/test6/raw/output_5176_IAG933_linker_design_.xyz
REMARK  11 active torsions:
REMARK  status: ('A' for Active; 'I' for Inactive)
REMARK    1  A    between atoms: C_1  and  C_2
REMARK    2  A    between atoms: C_1  and  C_8
REMARK    3  A    between atoms: C_1  and  C_41
REMARK    4  A    between atoms: C_13  and  C_32
REMARK    5  A    between atoms: C_14  and  C_15
REMARK    6  A    between atoms: C_21  and  O_22
REMARK    7  A    between atoms: O_22  and  C_23
REMARK    8  A    between atoms: C_23  and  C_24
REMARK    9  A    between atoms: C_33  and  O_37
REMARK   10  A    between atoms: O_37  and  C_41
REMARK   11  A    between atoms: C_41  and  C_44
REMARK                            x       y       z     vdW  Elec       q    Type
REMARK                         _______ _______ _______ _____ _____    ______ ____
ROOT
ATOM      1  O   UNL A   1     -22.357   0.206  29.569  0.00  0.00    -0.283 OA
ATOM      2  C   UNL A   1     -22.991   1.813  25.901  0.00  0.00    +0.348 C 
ATOM      3  C   UNL A   1     -24.186   1.440  26.694  0.00  0.00    +0.038 C 
ATOM      4  O   UNL A   1     -21.721   1.892  26.361  0.00  0.00    -0.440 OA
ATOM      5  C   UNL A   1     -22.574   0.892  28.360  0.00  0.00    +0.230 C 
ATOM      6  C   UNL A   1     -21.530   1.446  27.694  0.00  0.00    +0.217 C 
ATOM      7  F   UNL A   1     -23.074   2.029  24.596  0.00  0.00    -0.184 F 
ATOM      8  C   UNL A   1     -23.868   0.816  27.936  0.00  0.00    +0.046 C 
ENDROOT
BRANCH   3   9
ATOM      9  C   UNL A   1     -25.688   1.614  26.461  0.00  0.00    +0.094 C 
ATOM     10  C   UNL A   1     -26.250   2.920  26.395  0.00  0.00    +0.059 C 
ATOM     11  C   UNL A   1     -27.438   3.091  25.645  0.00  0.00    +0.102 C 
ATOM     12  N   UNL A   1     -28.075   2.089  25.003  0.00  0.00    -0.212 NA
ATOM     13  C   UNL A   1     -27.543   0.849  25.079  0.00  0.00    +0.234 C 
ATOM     14  C   UNL A   1     -26.354   0.576  25.777  0.00  0.00    +0.244 C 
ATOM     15  F   UNL A   1     -25.860  -0.681  25.795  0.00  0.00    -0.227 F 
BRANCH  10  16
ATOM     16  C   UNL A   1     -25.642   4.093  27.123  0.00  0.00    +0.263 C 
ATOM     17  N   UNL A   1     -25.614   5.252  26.449  0.00  0.00    -0.200 NA
ATOM     18  C   UNL A   1     -25.026   6.479  26.963  0.00  0.00    +0.139 C 
ATOM     19  O   UNL A   1     -25.143   3.966  28.243  0.00  0.00    -0.269 OA
ENDBRANCH  10  16
BRANCH  13  20
ATOM     20  O   UNL A   1     -28.193  -0.208  24.477  0.00  0.00    -0.459 OA
BRANCH  20  21
ATOM     21  C   UNL A   1     -29.460   0.005  23.866  0.00  0.00    +0.242 C 
BRANCH  21  22
ATOM     22  C   UNL A   1     -30.065  -1.377  23.573  0.00  0.00    +0.229 C 
ATOM     23  O   UNL A   1     -30.729  -1.878  24.721  0.00  0.00    -0.216 OA
ENDBRANCH  21  22
ENDBRANCH  20  21
ENDBRANCH  13  20
ENDBRANCH   3   9
BRANCH   8  24
ATOM     24  C   UNL A   1     -24.849  -0.067  28.840  0.00  0.00    +0.146 C 
BRANCH  24  25
ATOM     25  C   UNL A   1     -24.855  -1.012  30.143  0.00  0.00    +0.070 C 
BRANCH  25  26
ATOM     26  C   UNL A   1     -24.973  -2.505  29.788  0.00  0.00    -0.018 C 
ATOM     27  C   UNL A   1     -23.906  -3.173  29.146  0.00  0.00    -0.004 C 
ATOM     28  C   UNL A   1     -23.989  -4.549  28.853  0.00  0.00    -0.000 C 
ATOM     29  C   UNL A   1     -25.137  -5.280  29.205  0.00  0.00    -0.000 C 
ATOM     30  C   UNL A   1     -26.232  -4.611  29.784  0.00  0.00    -0.000 C 
ATOM     31  C   UNL A   1     -26.155  -3.232  30.065  0.00  0.00    -0.004 C 
ENDBRANCH  25  26
BRANCH  25  32
ATOM     32  C   UNL A   1     -25.387  -0.679  31.571  0.00  0.00    +0.080 C 
ATOM     33  C   UNL A   1     -25.189   0.773  32.028  0.00  0.00    +0.019 C 
ATOM     34  C   UNL A   1     -25.336   0.684  33.544  0.00  0.00    +0.020 C 
ATOM     35  C   UNL A   1     -24.829  -0.715  33.905  0.00  0.00    +0.089 C 
ATOM     36  N   UNL A   1     -24.758  -1.481  32.646  0.00  0.00    -0.219 NA
ENDBRANCH  25  32
ENDBRANCH  24  25
BRANCH  24  37
ATOM     37  O   UNL A   1     -25.933   0.886  28.922  0.00  0.00    -0.348 OA
BRANCH  37  40
ATOM     38  N   UNL A   1     -29.139   1.723  29.304  0.00  0.00    -0.166 NA
ATOM     39  C   UNL A   1     -27.577  -0.649  28.651  0.00  0.00    +0.241 C 
ATOM     40  C   UNL A   1     -27.237   0.520  29.468  0.00  0.00    +0.181 C 
ATOM     41  C   UNL A   1     -27.790   1.938  29.852  0.00  0.00    +0.152 C 
ATOM     42  C   UNL A   1     -29.458   0.849  28.275  0.00  0.00    +0.421 C 
ATOM     43  O   UNL A   1     -28.659  -0.227  27.830  0.00  0.00    -0.431 OA
ATOM     44  O   UNL A   1     -30.487   1.049  27.702  0.00  0.00    -0.225 OA
ENDBRANCH  37  40
ENDBRANCH  24  37
ENDBRANCH   8  24
TORSDOF 11
