MODEL 517
MODEL 1
REMARK VINA RESULT:    -7.847      0.000      0.000
REMARK INTER + INTRA:         -11.406
REMARK INTER:                 -10.140
REMARK INTRA:                  -1.266
REMARK UNBOUND:                -1.266
REMARK  Name = No_517-gen_results/8p0m/2024-11-27-11-27-31/
REMARK  5 active torsions:
REMARK  status: ('A' for Active; 'I' for Inactive)
REMARK    1  A    between atoms: C_2  and  N_22
REMARK    2  A    between atoms: C_3  and  C_7
REMARK    3  A    between atoms: C_6  and  C_32
REMARK    4  A    between atoms: C_11  and  C_19
REMARK    5  A    between atoms: C_33  and  C_34
REMARK                            x       y       z     vdW  Elec       q    Type
REMARK                         _______ _______ _______ _____ _____    ______ ____
ROOT
ATOM      1  C   UNL A   1     -29.698  -9.322   9.292  0.00  0.00    +0.021 A 
ATOM      2  C   UNL A   1     -30.588  -9.521   9.820  0.00  0.00    +0.075 A 
ATOM      3  C   UNL A   1     -29.369  -7.899   9.215  0.00  0.00    +0.055 A 
ATOM      4  C   UNL A   1     -30.153  -6.936   9.800  0.00  0.00    +0.005 A 
ATOM      5  C   UNL A   1     -31.591  -8.727  10.530  0.00  0.00    +0.017 A 
ATOM      6  C   UNL A   1     -31.282  -7.348  10.461  0.00  0.00    +0.001 A 
ENDROOT
BRANCH   3   7
ATOM      7  C   UNL A   1     -28.126  -7.421   8.544  0.00  0.00    +0.254 C 
ATOM      8  N   UNL A   1     -28.224  -7.108   7.268  0.00  0.00    -0.239 N 
ATOM      9  C   UNL A   1     -28.280  -6.118   6.774  0.00  0.00    +0.053 A 
ATOM     10  C   UNL A   1     -28.713  -4.862   7.313  0.00  0.00    +0.021 A 
ATOM     11  C   UNL A   1     -28.928  -3.701   6.553  0.00  0.00    +0.081 A 
ATOM     12  C   UNL A   1     -28.082  -5.887   5.232  0.00  0.00    +0.009 A 
ATOM     13  C   UNL A   1     -27.629  -7.119   4.525  0.00  0.00    +0.118 C 
ATOM     14  C   UNL A   1     -28.605  -3.609   5.253  0.00  0.00    +0.006 A 
ATOM     15  C   UNL A   1     -28.238  -4.662   4.612  0.00  0.00    -0.001 A 
ATOM     16  C   UNL A   1     -27.278  -8.093   6.414  0.00  0.00    +0.190 C 
ATOM     17  N   UNL A   1     -27.477  -8.173   5.142  0.00  0.00    -0.192 NA
ATOM     18  O   UNL A   1     -27.112  -7.263   9.145  0.00  0.00    -0.270 OA
BRANCH  11  19
ATOM     19  C   UNL A   1     -29.368  -2.468   7.395  0.00  0.00    +0.388 C 
ATOM     20  O   UNL A   1     -30.155  -2.691   8.172  0.00  0.00    -0.241 OA
ATOM     21  O   UNL A   1     -28.523  -1.471   7.416  0.00  0.00    -0.241 OA
ENDBRANCH  11  19
ENDBRANCH   3   7
BRANCH   2  22
ATOM     22  N   UNL A   1     -31.000 -10.985   9.972  0.00  0.00    -0.162 NA
ATOM     23  C   UNL A   1     -30.489 -11.784  10.951  0.00  0.00    +0.328 C 
ATOM     24  N   UNL A   1     -30.761 -13.107  10.917  0.00  0.00    -0.260 N 
ATOM     25  O   UNL A   1     -29.685 -11.362  11.833  0.00  0.00    -0.250 OA
ATOM     26  C   UNL A   1     -30.162 -14.088  11.801  0.00  0.00    +0.095 C 
ATOM     27  C   UNL A   1     -30.348 -15.442  11.236  0.00  0.00    +0.024 C 
ATOM     28  C   UNL A   1     -29.702 -15.795  10.109  0.00  0.00    +0.036 C 
ATOM     29  C   UNL A   1     -29.269 -14.755   9.278  0.00  0.00    +0.172 C 
ATOM     30  C   UNL A   1     -30.317 -13.640   9.309  0.00  0.00    +0.128 C 
ATOM     31  O   UNL A   1     -29.081 -15.022   7.925  0.00  0.00    -0.221 OA
ENDBRANCH   2  22
BRANCH   6  32
ATOM     32  C   UNL A   1     -32.194  -6.331  11.104  0.00  0.00    +0.000 C 
ATOM     33  C   UNL A   1     -31.929  -5.274  11.294  0.00  0.00    +0.000 C 
BRANCH  33  34
ATOM     34  C   UNL A   1     -32.802  -4.189  11.909  0.00  0.00    +0.000 C 
ATOM     35  C   UNL A   1     -32.492  -2.914  11.582  0.00  0.00    +0.000 C 
ENDBRANCH  33  34
ENDBRANCH   6  32
TORSDOF 5
ENDMDL
ENDMDL
