REMARK  Name = No_518-gen_results/8p0m/2024-11-27-11-27-31/
REMARK  5 active torsions:
REMARK  status: ('A' for Active; 'I' for Inactive)
REMARK    1  A    between atoms: C_4  and  C_9
REMARK    2  A    between atoms: C_9  and  C_10
REMARK    3  A    between atoms: C_10  and  C_11
REMARK    4  A    between atoms: C_11  and  C_13
REMARK    5  A    between atoms: C_13  and  C_14
REMARK                            x       y       z     vdW  Elec       q    Type
REMARK                         _______ _______ _______ _____ _____    ______ ____
ROOT
ATOM      1  C   UNL A   1     -23.472  -1.507  29.250  0.00  0.00    +0.000 C 
ENDROOT
BRANCH   1   2
ATOM      2  C   UNL A   1     -23.675  -0.223  29.564  0.00  0.00    +0.004 C 
ATOM      3  C   UNL A   1     -23.176   0.352  30.654  0.00  0.00    +0.000 C 
BRANCH   2   4
ATOM      4  C   UNL A   1     -23.064   0.718  28.344  0.00  0.00    +0.026 C 
BRANCH   4   5
ATOM      5  C   UNL A   1     -23.574   1.386  27.579  0.00  0.00    -0.022 A 
ATOM      6  C   UNL A   1     -25.007   1.642  27.531  0.00  0.00    -0.004 A 
ATOM      7  C   UNL A   1     -25.576   2.329  26.414  0.00  0.00    -0.000 A 
ATOM      8  C   UNL A   1     -22.963   2.012  26.424  0.00  0.00    -0.004 A 
ATOM      9  C   UNL A   1     -23.447   2.825  25.479  0.00  0.00    -0.000 A 
ATOM     10  C   UNL A   1     -24.806   3.040  25.575  0.00  0.00    -0.000 A 
ENDBRANCH   4   5
ENDBRANCH   2   4
ENDBRANCH   1   2
BRANCH   1  11
ATOM     11  C   UNL A   1     -24.653  -2.303  29.381  0.00  0.00    +0.000 C 
BRANCH  11  15
ATOM     12  C   UNL A   1     -28.016  -0.814  28.878  0.00  0.00    +0.035 C 
ATOM     13  C   UNL A   1     -28.469  -0.785  29.829  0.00  0.00    +0.182 C 
ATOM     14  C   UNL A   1     -26.504  -0.778  28.877  0.00  0.00    +0.003 C 
ATOM     15  C   UNL A   1     -25.831  -1.681  29.685  0.00  0.00    +0.003 C 
ATOM     16  C   UNL A   1     -28.149  -1.885  30.903  0.00  0.00    +0.182 C 
ATOM     17  C   UNL A   1     -26.646  -1.956  31.033  0.00  0.00    +0.035 C 
ATOM     18  O   UNL A   1     -28.627  -1.731  32.186  0.00  0.00    -0.220 OA
ATOM     19  O   UNL A   1     -30.017  -0.927  29.877  0.00  0.00    -0.220 OA
ENDBRANCH  11  15
ENDBRANCH   1  11
TORSDOF 5
