REMARK  Name = outputs/IAG933/test6/raw/output_5181_IAG933_linker_design_.xyz
REMARK  12 active torsions:
REMARK  status: ('A' for Active; 'I' for Inactive)
REMARK    1  A    between atoms: C_1  and  C_2
REMARK    2  A    between atoms: C_1  and  C_8
REMARK    3  A    between atoms: C_1  and  N_40
REMARK    4  A    between atoms: C_13  and  C_33
REMARK    5  A    between atoms: C_14  and  C_15
REMARK    6  A    between atoms: C_21  and  O_22
REMARK    7  A    between atoms: O_22  and  C_23
REMARK    8  A    between atoms: C_23  and  C_24
REMARK    9  A    between atoms: C_31  and  C_35
REMARK   10  A    between atoms: C_31  and  N_40
REMARK   11  A    between atoms: C_35  and  N_42
REMARK   12  A    between atoms: N_40  and  C_45
REMARK                            x       y       z     vdW  Elec       q    Type
REMARK                         _______ _______ _______ _____ _____    ______ ____
ROOT
ATOM      1  C   UNL A   1     -21.591   0.727  27.764  0.00  0.00    +0.381 C 
ATOM      2  C   UNL A   1     -24.291   1.169  26.962  0.00  0.00    +0.063 C 
ATOM      3  F   UNL A   1     -22.281  -0.359  29.652  0.00  0.00    -0.201 F 
ATOM      4 CL   UNL A   1     -23.407   1.661  24.462  0.00  0.00    -0.043 Cl
ATOM      5  C   UNL A   1     -22.667   0.295  28.546  0.00  0.00    +0.205 C 
ATOM      6  C   UNL A   1     -23.163   1.428  26.155  0.00  0.00    +0.202 C 
ATOM      7  F   UNL A   1     -20.270   0.519  28.098  0.00  0.00    -0.181 F 
ATOM      8  O   UNL A   1     -21.835   1.366  26.587  0.00  0.00    -0.434 OA
ATOM      9  C   UNL A   1     -24.032   0.472  28.220  0.00  0.00    +0.082 C 
ENDROOT
BRANCH   2  10
ATOM     10  C   UNL A   1     -25.688   1.614  26.461  0.00  0.00    +0.043 C 
ATOM     11  C   UNL A   1     -26.250   2.920  26.395  0.00  0.00    +0.077 C 
ATOM     12  C   UNL A   1     -27.438   3.091  25.645  0.00  0.00    +0.107 C 
ATOM     13  N   UNL A   1     -28.075   2.089  25.003  0.00  0.00    -0.208 NA
ATOM     14  C   UNL A   1     -27.543   0.849  25.079  0.00  0.00    +0.253 C 
ATOM     15  C   UNL A   1     -26.354   0.576  25.777  0.00  0.00    +0.193 C 
ATOM     16  F   UNL A   1     -25.860  -0.681  25.795  0.00  0.00    -0.199 F 
BRANCH  11  17
ATOM     17  C   UNL A   1     -25.642   4.093  27.123  0.00  0.00    +0.266 C 
ATOM     18  N   UNL A   1     -25.614   5.252  26.449  0.00  0.00    -0.200 NA
ATOM     19  C   UNL A   1     -25.026   6.479  26.963  0.00  0.00    +0.139 C 
ATOM     20  O   UNL A   1     -25.143   3.966  28.243  0.00  0.00    -0.268 OA
ENDBRANCH  11  17
BRANCH  14  21
ATOM     21  O   UNL A   1     -28.193  -0.208  24.477  0.00  0.00    -0.456 OA
BRANCH  21  22
ATOM     22  C   UNL A   1     -29.460   0.005  23.866  0.00  0.00    +0.243 C 
BRANCH  22  23
ATOM     23  C   UNL A   1     -30.065  -1.377  23.573  0.00  0.00    +0.229 C 
ATOM     24  O   UNL A   1     -30.729  -1.878  24.721  0.00  0.00    -0.216 OA
ENDBRANCH  22  23
ENDBRANCH  21  22
ENDBRANCH  14  21
ENDBRANCH   2  10
BRANCH   9  25
ATOM     25  N   UNL A   1     -25.028   0.062  29.063  0.00  0.00    -0.301 N 
BRANCH  25  26
ATOM     26  C   UNL A   1     -24.855  -1.012  30.143  0.00  0.00    +0.111 C 
BRANCH  26  27
ATOM     27  C   UNL A   1     -24.973  -2.505  29.788  0.00  0.00    -0.003 C 
ATOM     28  C   UNL A   1     -23.906  -3.173  29.146  0.00  0.00    -0.003 C 
ATOM     29  C   UNL A   1     -23.989  -4.549  28.853  0.00  0.00    -0.000 C 
ATOM     30  C   UNL A   1     -25.137  -5.280  29.205  0.00  0.00    -0.000 C 
ATOM     31  C   UNL A   1     -26.232  -4.611  29.784  0.00  0.00    -0.000 C 
ATOM     32  C   UNL A   1     -26.155  -3.232  30.065  0.00  0.00    -0.003 C 
ENDBRANCH  26  27
BRANCH  26  33
ATOM     33  C   UNL A   1     -25.387  -0.679  31.571  0.00  0.00    +0.095 C 
ATOM     34  C   UNL A   1     -25.189   0.773  32.028  0.00  0.00    +0.021 C 
ATOM     35  C   UNL A   1     -25.336   0.684  33.544  0.00  0.00    +0.020 C 
ATOM     36  C   UNL A   1     -24.829  -0.715  33.905  0.00  0.00    +0.089 C 
ATOM     37  N   UNL A   1     -24.758  -1.481  32.646  0.00  0.00    -0.217 NA
ENDBRANCH  26  33
ENDBRANCH  25  26
BRANCH  25  38
ATOM     38  C   UNL A   1     -26.138   0.735  29.149  0.00  0.00    +0.108 C 
BRANCH  38  39
ATOM     39  C   UNL A   1     -27.428   0.124  28.943  0.00  0.00    +0.094 C 
BRANCH  39  44
ATOM     40  C   UNL A   1     -28.989   1.819  28.732  0.00  0.00    +0.072 C 
ATOM     41  C   UNL A   1     -27.804   3.380  30.480  0.00  0.00    +0.003 C 
ATOM     42  C   UNL A   1     -29.210   1.303  31.001  0.00  0.00    +0.072 C 
ATOM     43  C   UNL A   1     -28.653   2.638  31.524  0.00  0.00    +0.017 C 
ATOM     44  N   UNL A   1     -28.491   0.846  29.738  0.00  0.00    -0.271 NA
ATOM     45  C   UNL A   1     -28.341   3.179  29.032  0.00  0.00    +0.017 C 
ENDBRANCH  39  44
ENDBRANCH  38  39
ENDBRANCH  25  38
ENDBRANCH   9  25
TORSDOF 12
