REMARK  Name = outputs/IAG933/test6/raw/output_5182_IAG933_linker_design_.xyz
REMARK  10 active torsions:
REMARK  status: ('A' for Active; 'I' for Inactive)
REMARK    1  A    between atoms: C_1  and  C_2
REMARK    2  A    between atoms: C_1  and  C_8
REMARK    3  A    between atoms: C_1  and  C_39
REMARK    4  A    between atoms: C_13  and  N_28
REMARK    5  A    between atoms: C_14  and  C_15
REMARK    6  A    between atoms: C_21  and  O_22
REMARK    7  A    between atoms: O_22  and  C_23
REMARK    8  A    between atoms: C_23  and  C_24
REMARK    9  A    between atoms: N_31  and  C_39
REMARK   10  A    between atoms: C_35  and  C_39
REMARK                            x       y       z     vdW  Elec       q    Type
REMARK                         _______ _______ _______ _____ _____    ______ ____
ROOT
ATOM      1  N   UNL A   1     -24.406   1.556  26.880  0.00  0.00    -0.263 N 
ATOM      2  C   UNL A   1     -21.989   1.832  27.503  0.00  0.00    +0.173 C 
ATOM      3  C   UNL A   1     -22.322  -0.217  29.148  0.00  0.00    +0.001 C 
ATOM      4  C   UNL A   1     -21.078   0.158  28.660  0.00  0.00    +0.168 C 
ATOM      5  C   UNL A   1     -23.589   2.206  26.140  0.00  0.00    +0.249 C 
ATOM      6  C   UNL A   1     -23.461   0.375  28.648  0.00  0.00    +0.001 C 
ATOM      7  O   UNL A   1     -22.869   2.715  25.171  0.00  0.00    -0.273 OA
ATOM      8  O   UNL A   1     -21.042   1.098  27.611  0.00  0.00    -0.346 OA
ATOM      9  C   UNL A   1     -23.356   1.341  27.493  0.00  0.00    +0.174 C 
ENDROOT
BRANCH   1  10
ATOM     10  C   UNL A   1     -25.688   1.614  26.461  0.00  0.00    +0.146 C 
ATOM     11  C   UNL A   1     -26.250   2.920  26.395  0.00  0.00    +0.073 C 
ATOM     12  C   UNL A   1     -27.438   3.091  25.645  0.00  0.00    +0.104 C 
ATOM     13  N   UNL A   1     -28.075   2.089  25.003  0.00  0.00    -0.212 NA
ATOM     14  C   UNL A   1     -27.543   0.849  25.079  0.00  0.00    +0.236 C 
ATOM     15  C   UNL A   1     -26.354   0.576  25.777  0.00  0.00    +0.258 C 
ATOM     16  F   UNL A   1     -25.860  -0.681  25.795  0.00  0.00    -0.225 F 
BRANCH  11  17
ATOM     17  C   UNL A   1     -25.642   4.093  27.123  0.00  0.00    +0.264 C 
ATOM     18  N   UNL A   1     -25.614   5.252  26.449  0.00  0.00    -0.200 NA
ATOM     19  C   UNL A   1     -25.026   6.479  26.963  0.00  0.00    +0.139 C 
ATOM     20  O   UNL A   1     -25.143   3.966  28.243  0.00  0.00    -0.269 OA
ENDBRANCH  11  17
BRANCH  14  21
ATOM     21  O   UNL A   1     -28.193  -0.208  24.477  0.00  0.00    -0.459 OA
BRANCH  21  22
ATOM     22  C   UNL A   1     -29.460   0.005  23.866  0.00  0.00    +0.242 C 
BRANCH  22  23
ATOM     23  C   UNL A   1     -30.065  -1.377  23.573  0.00  0.00    +0.229 C 
ATOM     24  O   UNL A   1     -30.729  -1.878  24.721  0.00  0.00    -0.216 OA
ENDBRANCH  22  23
ENDBRANCH  21  22
ENDBRANCH  14  21
ENDBRANCH   1  10
BRANCH   6  25
ATOM     25  C   UNL A   1     -24.872  -0.041  28.980  0.00  0.00    +0.124 C 
BRANCH  25  26
ATOM     26  N   UNL A   1     -25.979   0.785  28.888  0.00  0.00    -0.163 NA
ATOM     27  O   UNL A   1     -27.504  -0.770  28.585  0.00  0.00    -0.221 OA
ATOM     28  C   UNL A   1     -27.160   0.233  29.216  0.00  0.00    +0.463 C 
ATOM     29  O   UNL A   1     -27.878   0.708  30.089  0.00  0.00    -0.221 OA
ENDBRANCH  25  26
BRANCH  25  30
ATOM     30  C   UNL A   1     -24.855  -1.012  30.143  0.00  0.00    +0.062 C 
BRANCH  30  31
ATOM     31  C   UNL A   1     -24.973  -2.505  29.788  0.00  0.00    -0.019 C 
ATOM     32  C   UNL A   1     -23.906  -3.173  29.146  0.00  0.00    -0.004 C 
ATOM     33  C   UNL A   1     -23.989  -4.549  28.853  0.00  0.00    -0.000 C 
ATOM     34  C   UNL A   1     -25.137  -5.280  29.205  0.00  0.00    -0.000 C 
ATOM     35  C   UNL A   1     -26.232  -4.611  29.784  0.00  0.00    -0.000 C 
ATOM     36  C   UNL A   1     -26.155  -3.232  30.065  0.00  0.00    -0.004 C 
ENDBRANCH  30  31
BRANCH  30  37
ATOM     37  C   UNL A   1     -25.387  -0.679  31.571  0.00  0.00    +0.079 C 
ATOM     38  C   UNL A   1     -25.189   0.773  32.028  0.00  0.00    +0.019 C 
ATOM     39  C   UNL A   1     -25.336   0.684  33.544  0.00  0.00    +0.020 C 
ATOM     40  C   UNL A   1     -24.829  -0.715  33.905  0.00  0.00    +0.089 C 
ATOM     41  N   UNL A   1     -24.758  -1.481  32.646  0.00  0.00    -0.219 NA
ENDBRANCH  30  37
ENDBRANCH  25  30
ENDBRANCH   6  25
TORSDOF 10
