REMARK  Name = outputs/IAG933/test6/raw/output_5188_IAG933_linker_design_.xyz
REMARK  11 active torsions:
REMARK  status: ('A' for Active; 'I' for Inactive)
REMARK    1  A    between atoms: C_1  and  C_2
REMARK    2  A    between atoms: C_1  and  C_8
REMARK    3  A    between atoms: C_9  and  C_40
REMARK    4  A    between atoms: C_13  and  C_39
REMARK    5  A    between atoms: C_14  and  C_15
REMARK    6  A    between atoms: C_21  and  O_22
REMARK    7  A    between atoms: O_22  and  C_23
REMARK    8  A    between atoms: C_23  and  C_24
REMARK    9  A    between atoms: C_28  and  C_38
REMARK   10  A    between atoms: C_28  and  C_40
REMARK   11  A    between atoms: N_34  and  C_40
REMARK                            x       y       z     vdW  Elec       q    Type
REMARK                         _______ _______ _______ _____ _____    ______ ____
ROOT
ATOM      1  C   UNL A   1     -21.991   2.050  26.864  0.00  0.00    -0.001 C 
ATOM      2  C   UNL A   1     -22.707   0.503  29.047  0.00  0.00    +0.194 C 
ATOM      3  N   UNL A   1     -24.656   0.868  28.070  0.00  0.00    -0.236 NA
ATOM      4  C   UNL A   1     -23.313   2.104  26.284  0.00  0.00    +0.016 C 
ATOM      5  C   UNL A   1     -21.752   1.201  28.184  0.00  0.00    +0.008 C 
ATOM      6  O   UNL A   1     -22.270   0.180  30.430  0.00  0.00    -0.216 OA
ATOM      7  C   UNL A   1     -24.160   1.173  29.340  0.00  0.00    +0.131 C 
ATOM      8  C   UNL A   1     -24.483   1.512  26.973  0.00  0.00    +0.068 C 
ENDROOT
BRANCH   8   9
ATOM      9  C   UNL A   1     -25.688   1.614  26.461  0.00  0.00    +0.053 C 
ATOM     10  C   UNL A   1     -26.250   2.920  26.395  0.00  0.00    +0.078 C 
ATOM     11  C   UNL A   1     -27.438   3.091  25.645  0.00  0.00    +0.107 C 
ATOM     12  N   UNL A   1     -28.075   2.089  25.003  0.00  0.00    -0.208 NA
ATOM     13  C   UNL A   1     -27.543   0.849  25.079  0.00  0.00    +0.253 C 
ATOM     14  C   UNL A   1     -26.354   0.576  25.777  0.00  0.00    +0.194 C 
ATOM     15  F   UNL A   1     -25.860  -0.681  25.795  0.00  0.00    -0.199 F 
BRANCH  10  16
ATOM     16  C   UNL A   1     -25.642   4.093  27.123  0.00  0.00    +0.267 C 
ATOM     17  N   UNL A   1     -25.614   5.252  26.449  0.00  0.00    -0.200 NA
ATOM     18  C   UNL A   1     -25.026   6.479  26.963  0.00  0.00    +0.139 C 
ATOM     19  O   UNL A   1     -25.143   3.966  28.243  0.00  0.00    -0.268 OA
ENDBRANCH  10  16
BRANCH  13  20
ATOM     20  O   UNL A   1     -28.193  -0.208  24.477  0.00  0.00    -0.456 OA
BRANCH  20  21
ATOM     21  C   UNL A   1     -29.460   0.005  23.866  0.00  0.00    +0.243 C 
BRANCH  21  22
ATOM     22  C   UNL A   1     -30.065  -1.377  23.573  0.00  0.00    +0.229 C 
ATOM     23  O   UNL A   1     -30.729  -1.878  24.721  0.00  0.00    -0.216 OA
ENDBRANCH  21  22
ENDBRANCH  20  21
ENDBRANCH  13  20
ENDBRANCH   8   9
BRANCH   7  24
ATOM     24  C   UNL A   1     -24.240   2.094  30.464  0.00  0.00    +0.071 C 
BRANCH  24  25
ATOM     25  C   UNL A   1     -25.299   2.262  31.540  0.00  0.00    +0.177 C 
ATOM     26  O   UNL A   1     -24.536   3.443  31.958  0.00  0.00    -0.209 OA
BRANCH  25  28
ATOM     27  C   UNL A   1     -25.387  -0.679  31.571  0.00  0.00    +0.081 C 
ATOM     28  C   UNL A   1     -25.189   0.773  32.028  0.00  0.00    +0.060 C 
ATOM     29  C   UNL A   1     -25.336   0.684  33.544  0.00  0.00    +0.024 C 
ATOM     30  C   UNL A   1     -24.829  -0.715  33.905  0.00  0.00    +0.089 C 
ATOM     31  N   UNL A   1     -24.758  -1.481  32.646  0.00  0.00    -0.219 NA
BRANCH  27  32
ATOM     32  C   UNL A   1     -24.855  -1.012  30.143  0.00  0.00    +0.044 C 
BRANCH  32  33
ATOM     33  C   UNL A   1     -24.973  -2.505  29.788  0.00  0.00    -0.021 C 
ATOM     34  C   UNL A   1     -23.906  -3.173  29.146  0.00  0.00    -0.004 C 
ATOM     35  C   UNL A   1     -23.989  -4.549  28.853  0.00  0.00    -0.000 C 
ATOM     36  C   UNL A   1     -25.137  -5.280  29.205  0.00  0.00    -0.000 C 
ATOM     37  C   UNL A   1     -26.232  -4.611  29.784  0.00  0.00    -0.000 C 
ATOM     38  C   UNL A   1     -26.155  -3.232  30.065  0.00  0.00    -0.004 C 
ENDBRANCH  32  33
ENDBRANCH  27  32
ENDBRANCH  25  28
BRANCH  25  40
ATOM     39  C   UNL A   1     -26.802   3.655  33.306  0.00  0.00    +0.092 C 
ATOM     40  N   UNL A   1     -26.688   2.898  32.036  0.00  0.00    -0.248 NA
ATOM     41  C   UNL A   1     -27.890   3.070  31.149  0.00  0.00    +0.092 C 
ENDBRANCH  25  40
ENDBRANCH  24  25
ENDBRANCH   7  24
TORSDOF 11
