REMARK  Name = outputs/IAG933/test6/raw/output_5189_IAG933_linker_design_.xyz
REMARK  13 active torsions:
REMARK  status: ('A' for Active; 'I' for Inactive)
REMARK    1  A    between atoms: C_1  and  C_2
REMARK    2  A    between atoms: C_1  and  C_8
REMARK    3  A    between atoms: C_1  and  C_40
REMARK    4  A    between atoms: C_13  and  C_32
REMARK    5  A    between atoms: C_14  and  C_15
REMARK    6  A    between atoms: C_21  and  O_22
REMARK    7  A    between atoms: O_22  and  C_23
REMARK    8  A    between atoms: C_23  and  C_24
REMARK    9  A    between atoms: C_31  and  N_36
REMARK   10  A    between atoms: C_32  and  N_36
REMARK   11  A    between atoms: C_32  and  N_42
REMARK   12  A    between atoms: N_33  and  C_39
REMARK   13  A    between atoms: N_36  and  C_40
REMARK                            x       y       z     vdW  Elec       q    Type
REMARK                         _______ _______ _______ _____ _____    ______ ____
ROOT
ATOM      1  N   UNL A   1     -25.223   1.213  28.784  0.00  0.00    -0.287 N 
ENDROOT
BRANCH   1   2
ATOM      2  C   UNL A   1     -25.729   2.103  29.861  0.00  0.00    +0.079 C 
ATOM      3  C   UNL A   1     -26.800   2.777  30.609  0.00  0.00    +0.077 C 
BRANCH   3   6
ATOM      4  C   UNL A   1     -26.616   5.801  32.354  0.00  0.00    +0.021 C 
ATOM      5  C   UNL A   1     -27.390   4.500  32.198  0.00  0.00    +0.091 C 
ATOM      6  N   UNL A   1     -26.483   3.335  31.946  0.00  0.00    -0.305 N 
ATOM      7  C   UNL A   1     -25.024   3.530  32.023  0.00  0.00    +0.091 C 
ATOM      8  C   UNL A   1     -25.246   5.711  32.941  0.00  0.00    +0.004 C 
ATOM      9  C   UNL A   1     -24.963   4.277  33.360  0.00  0.00    +0.021 C 
ENDBRANCH   3   6
ENDBRANCH   1   2
BRANCH   1  10
ATOM     10  C   UNL A   1     -24.606   1.406  27.501  0.00  0.00    +0.180 C 
BRANCH  10  11
ATOM     11  C   UNL A   1     -25.688   1.614  26.461  0.00  0.00    +0.053 C 
ATOM     12  C   UNL A   1     -26.250   2.920  26.395  0.00  0.00    +0.076 C 
ATOM     13  C   UNL A   1     -27.438   3.091  25.645  0.00  0.00    +0.106 C 
ATOM     14  N   UNL A   1     -28.075   2.089  25.003  0.00  0.00    -0.208 NA
ATOM     15  C   UNL A   1     -27.543   0.849  25.079  0.00  0.00    +0.253 C 
ATOM     16  C   UNL A   1     -26.354   0.576  25.777  0.00  0.00    +0.192 C 
ATOM     17  F   UNL A   1     -25.860  -0.681  25.795  0.00  0.00    -0.200 F 
BRANCH  12  18
ATOM     18  C   UNL A   1     -25.642   4.093  27.123  0.00  0.00    +0.266 C 
ATOM     19  N   UNL A   1     -25.614   5.252  26.449  0.00  0.00    -0.200 NA
ATOM     20  C   UNL A   1     -25.026   6.479  26.963  0.00  0.00    +0.139 C 
ATOM     21  O   UNL A   1     -25.143   3.966  28.243  0.00  0.00    -0.268 OA
ENDBRANCH  12  18
BRANCH  15  22
ATOM     22  O   UNL A   1     -28.193  -0.208  24.477  0.00  0.00    -0.456 OA
BRANCH  22  23
ATOM     23  C   UNL A   1     -29.460   0.005  23.866  0.00  0.00    +0.243 C 
BRANCH  23  24
ATOM     24  C   UNL A   1     -30.065  -1.377  23.573  0.00  0.00    +0.229 C 
ATOM     25  O   UNL A   1     -30.729  -1.878  24.721  0.00  0.00    -0.216 OA
ENDBRANCH  23  24
ENDBRANCH  22  23
ENDBRANCH  15  22
ENDBRANCH  10  11
BRANCH  10  29
ATOM     26  O   UNL A   1     -22.511   0.333  29.076  0.00  0.00    -0.249 OA
ATOM     27  N   UNL A   1     -21.227   1.718  28.133  0.00  0.00    -0.069 NA
ATOM     28  C   UNL A   1     -22.385   1.144  28.130  0.00  0.00    +0.344 C 
ATOM     29  N   UNL A   1     -23.354   1.433  27.134  0.00  0.00    -0.241 N 
ATOM     30  C   UNL A   1     -22.885   1.814  25.779  0.00  0.00    +0.118 C 
ENDBRANCH  10  29
ENDBRANCH   1  10
BRANCH   1  31
ATOM     31  C   UNL A   1     -25.728  -0.207  29.223  0.00  0.00    +0.098 C 
BRANCH  31  32
ATOM     32  C   UNL A   1     -24.855  -1.012  30.143  0.00  0.00    +0.058 C 
BRANCH  32  33
ATOM     33  C   UNL A   1     -24.973  -2.505  29.788  0.00  0.00    -0.019 C 
ATOM     34  C   UNL A   1     -23.906  -3.173  29.146  0.00  0.00    -0.004 C 
ATOM     35  C   UNL A   1     -23.989  -4.549  28.853  0.00  0.00    -0.000 C 
ATOM     36  C   UNL A   1     -25.137  -5.280  29.205  0.00  0.00    -0.000 C 
ATOM     37  C   UNL A   1     -26.232  -4.611  29.784  0.00  0.00    -0.000 C 
ATOM     38  C   UNL A   1     -26.155  -3.232  30.065  0.00  0.00    -0.004 C 
ENDBRANCH  32  33
BRANCH  32  39
ATOM     39  C   UNL A   1     -25.387  -0.679  31.571  0.00  0.00    +0.079 C 
ATOM     40  C   UNL A   1     -25.189   0.773  32.028  0.00  0.00    +0.019 C 
ATOM     41  C   UNL A   1     -25.336   0.684  33.544  0.00  0.00    +0.020 C 
ATOM     42  C   UNL A   1     -24.829  -0.715  33.905  0.00  0.00    +0.089 C 
ATOM     43  N   UNL A   1     -24.758  -1.481  32.646  0.00  0.00    -0.219 NA
ENDBRANCH  32  39
ENDBRANCH  31  32
ENDBRANCH   1  31
TORSDOF 13
