MODEL 518
MODEL 1
REMARK VINA RESULT:    -6.472      0.000      0.000
REMARK INTER + INTRA:          -9.309
REMARK INTER:                  -8.364
REMARK INTRA:                  -0.944
REMARK UNBOUND:                -0.944
REMARK  Name = No_518-gen_results/8p0m/2024-11-27-11-27-31/
REMARK  5 active torsions:
REMARK  status: ('A' for Active; 'I' for Inactive)
REMARK    1  A    between atoms: C_4  and  C_9
REMARK    2  A    between atoms: C_9  and  C_10
REMARK    3  A    between atoms: C_10  and  C_11
REMARK    4  A    between atoms: C_11  and  C_13
REMARK    5  A    between atoms: C_13  and  C_14
REMARK                            x       y       z     vdW  Elec       q    Type
REMARK                         _______ _______ _______ _____ _____    ______ ____
ROOT
ATOM      1  C   UNL A   1      -8.537   1.200  36.274  0.00  0.00    +0.000 C 
ENDROOT
BRANCH   1   2
ATOM      2  C   UNL A   1      -9.839   0.923  36.404  0.00  0.00    +0.004 C 
ATOM      3  C   UNL A   1     -10.712   1.025  35.406  0.00  0.00    +0.000 C 
BRANCH   2   4
ATOM      4  C   UNL A   1      -9.995  -0.661  36.864  0.00  0.00    +0.026 C 
BRANCH   4   5
ATOM      5  C   UNL A   1     -10.553  -1.144  37.729  0.00  0.00    -0.022 A 
ATOM      6  C   UNL A   1     -11.454  -2.281  37.598  0.00  0.00    -0.004 A 
ATOM      7  C   UNL A   1     -12.262  -2.686  38.705  0.00  0.00    -0.000 A 
ATOM      8  C   UNL A   1     -10.609  -0.676  39.099  0.00  0.00    -0.004 A 
ATOM      9  C   UNL A   1     -11.204  -1.163  40.193  0.00  0.00    -0.000 A 
ATOM     10  C   UNL A   1     -11.981  -2.277  39.953  0.00  0.00    -0.000 A 
ENDBRANCH   4   5
ENDBRANCH   2   4
ENDBRANCH   1   2
BRANCH   1  11
ATOM     11  C   UNL A   1      -7.989   0.721  35.042  0.00  0.00    +0.000 C 
BRANCH  11  15
ATOM     12  C   UNL A   1      -5.935  -2.210  34.056  0.00  0.00    +0.035 C 
ATOM     13  C   UNL A   1      -5.005  -2.091  34.536  0.00  0.00    +0.182 C 
ATOM     14  C   UNL A   1      -7.110  -1.546  34.741  0.00  0.00    +0.003 C 
ATOM     15  C   UNL A   1      -6.990  -0.210  35.088  0.00  0.00    +0.003 C 
ATOM     16  C   UNL A   1      -4.418  -0.659  34.803  0.00  0.00    +0.182 C 
ATOM     17  C   UNL A   1      -5.488   0.135  35.514  0.00  0.00    +0.035 C 
ATOM     18  O   UNL A   1      -3.284  -0.530  35.574  0.00  0.00    -0.220 OA
ATOM     19  O   UNL A   1      -3.757  -2.668  33.809  0.00  0.00    -0.220 OA
ENDBRANCH  11  15
ENDBRANCH   1  11
TORSDOF 5
ENDMDL
ENDMDL
