REMARK  Name = outputs/IAG933/test6/raw/output_5191_IAG933_linker_design_.xyz
REMARK  18 active torsions:
REMARK  status: ('A' for Active; 'I' for Inactive)
REMARK    1  A    between atoms: C_1  and  C_2
REMARK    2  A    between atoms: C_1  and  C_8
REMARK    3  A    between atoms: C_1  and  C_29
REMARK    4  A    between atoms: C_13  and  C_42
REMARK    5  A    between atoms: C_14  and  C_15
REMARK    6  A    between atoms: C_21  and  O_22
REMARK    7  A    between atoms: O_22  and  C_23
REMARK    8  A    between atoms: C_23  and  C_24
REMARK    9  A    between atoms: C_28  and  C_31
REMARK   10  A    between atoms: C_28  and  C_42
REMARK   11  A    between atoms: C_29  and  N_30
REMARK   12  A    between atoms: C_29  and  C_40
REMARK   13  A    between atoms: N_30  and  C_42
REMARK   14  A    between atoms: C_31  and  C_37
REMARK   15  A    between atoms: C_32  and  C_36
REMARK   16  A    between atoms: N_34  and  C_35
REMARK   17  A    between atoms: C_35  and  C_36
REMARK   18  A    between atoms: C_39  and  C_40
REMARK                            x       y       z     vdW  Elec       q    Type
REMARK                         _______ _______ _______ _____ _____    ______ ____
ROOT
ATOM      1  C   UNL A   1     -25.141  -0.258  28.801  0.00  0.00    +0.087 C 
ENDROOT
BRANCH   1   2
ATOM      2  C   UNL A   1     -24.855  -1.012  30.143  0.00  0.00    +0.055 C 
BRANCH   2   3
ATOM      3  C   UNL A   1     -24.973  -2.505  29.788  0.00  0.00    -0.020 C 
ATOM      4  C   UNL A   1     -23.906  -3.173  29.146  0.00  0.00    -0.004 C 
ATOM      5  C   UNL A   1     -23.989  -4.549  28.853  0.00  0.00    -0.000 C 
ATOM      6  C   UNL A   1     -25.137  -5.280  29.205  0.00  0.00    -0.000 C 
ATOM      7  C   UNL A   1     -26.232  -4.611  29.784  0.00  0.00    -0.000 C 
ATOM      8  C   UNL A   1     -26.155  -3.232  30.065  0.00  0.00    -0.004 C 
ENDBRANCH   2   3
BRANCH   2   9
ATOM      9  C   UNL A   1     -25.387  -0.679  31.571  0.00  0.00    +0.078 C 
ATOM     10  C   UNL A   1     -25.189   0.773  32.028  0.00  0.00    +0.019 C 
ATOM     11  C   UNL A   1     -25.336   0.684  33.544  0.00  0.00    +0.020 C 
ATOM     12  C   UNL A   1     -24.829  -0.715  33.905  0.00  0.00    +0.089 C 
ATOM     13  N   UNL A   1     -24.758  -1.481  32.646  0.00  0.00    -0.219 NA
ENDBRANCH   2   9
ENDBRANCH   1   2
BRANCH   1  14
ATOM     14  C   UNL A   1     -26.666  -0.087  28.670  0.00  0.00    +0.103 C 
BRANCH  14  17
ATOM     15  N   UNL A   1     -28.441   1.224  30.003  0.00  0.00    -0.278 N 
ATOM     16  O   UNL A   1     -28.829  -0.661  28.722  0.00  0.00    -0.275 OA
ATOM     17  C   UNL A   1     -28.078   0.191  29.190  0.00  0.00    +0.227 C 
ATOM     18  C   UNL A   1     -27.721   2.482  30.081  0.00  0.00    +0.115 C 
BRANCH  15  19
ATOM     19  C   UNL A   1     -29.673   1.318  30.851  0.00  0.00    +0.095 C 
BRANCH  19  20
ATOM     20  C   UNL A   1     -30.899   1.343  29.978  0.00  0.00    +0.042 C 
BRANCH  20  21
ATOM     21  C   UNL A   1     -32.082   2.229  30.424  0.00  0.00    +0.111 C 
ATOM     22  N   UNL A   1     -31.735   3.612  30.908  0.00  0.00    -0.131 NA
ENDBRANCH  20  21
ENDBRANCH  19  20
ENDBRANCH  15  19
ENDBRANCH  14  17
ENDBRANCH   1  14
BRANCH   1  23
ATOM     23  N   UNL A   1     -24.555   1.016  28.588  0.00  0.00    -0.215 NA
BRANCH  23  24
ATOM     24  C   UNL A   1     -24.416   1.205  27.062  0.00  0.00    +0.100 C 
BRANCH  24  25
ATOM     25  C   UNL A   1     -25.688   1.614  26.461  0.00  0.00    +0.032 C 
ATOM     26  C   UNL A   1     -26.250   2.920  26.395  0.00  0.00    +0.074 C 
ATOM     27  C   UNL A   1     -27.438   3.091  25.645  0.00  0.00    +0.106 C 
ATOM     28  N   UNL A   1     -28.075   2.089  25.003  0.00  0.00    -0.208 NA
ATOM     29  C   UNL A   1     -27.543   0.849  25.079  0.00  0.00    +0.253 C 
ATOM     30  C   UNL A   1     -26.354   0.576  25.777  0.00  0.00    +0.190 C 
ATOM     31  F   UNL A   1     -25.860  -0.681  25.795  0.00  0.00    -0.200 F 
BRANCH  26  32
ATOM     32  C   UNL A   1     -25.642   4.093  27.123  0.00  0.00    +0.266 C 
ATOM     33  N   UNL A   1     -25.614   5.252  26.449  0.00  0.00    -0.200 NA
ATOM     34  C   UNL A   1     -25.026   6.479  26.963  0.00  0.00    +0.139 C 
ATOM     35  O   UNL A   1     -25.143   3.966  28.243  0.00  0.00    -0.268 OA
ENDBRANCH  26  32
BRANCH  29  36
ATOM     36  O   UNL A   1     -28.193  -0.208  24.477  0.00  0.00    -0.456 OA
BRANCH  36  37
ATOM     37  C   UNL A   1     -29.460   0.005  23.866  0.00  0.00    +0.243 C 
BRANCH  37  38
ATOM     38  C   UNL A   1     -30.065  -1.377  23.573  0.00  0.00    +0.229 C 
ATOM     39  O   UNL A   1     -30.729  -1.878  24.721  0.00  0.00    -0.216 OA
ENDBRANCH  37  38
ENDBRANCH  36  37
ENDBRANCH  29  36
ENDBRANCH  24  25
BRANCH  24  40
ATOM     40  C   UNL A   1     -23.142   1.651  26.634  0.00  0.00    +0.057 C 
BRANCH  40  41
ATOM     41  C   UNL A   1     -22.179   1.710  27.741  0.00  0.00    +0.163 C 
ATOM     42  F   UNL A   1     -20.879   1.583  27.573  0.00  0.00    -0.237 F 
BRANCH  41  43
ATOM     43  C   UNL A   1     -21.600   0.349  27.875  0.00  0.00    +0.035 C 
ATOM     44  C   UNL A   1     -21.823  -0.125  29.311  0.00  0.00    +0.003 C 
ENDBRANCH  41  43
ENDBRANCH  40  41
ENDBRANCH  24  40
ENDBRANCH  23  24
ENDBRANCH   1  23
TORSDOF 18
