REMARK  Name = outputs/IAG933/test6/raw/output_5193_IAG933_linker_design_.xyz
REMARK  11 active torsions:
REMARK  status: ('A' for Active; 'I' for Inactive)
REMARK    1  A    between atoms: C_1  and  C_2
REMARK    2  A    between atoms: C_1  and  C_8
REMARK    3  A    between atoms: C_1  and  N_39
REMARK    4  A    between atoms: C_13  and  C_32
REMARK    5  A    between atoms: C_14  and  C_15
REMARK    6  A    between atoms: C_21  and  O_22
REMARK    7  A    between atoms: O_22  and  C_23
REMARK    8  A    between atoms: C_23  and  C_24
REMARK    9  A    between atoms: N_37  and  N_39
REMARK   10  A    between atoms: N_37  and  C_43
REMARK   11  A    between atoms: N_39  and  C_40
REMARK                            x       y       z     vdW  Elec       q    Type
REMARK                         _______ _______ _______ _____ _____    ______ ____
ROOT
ATOM      1  O   UNL A   1     -21.665   2.083  26.913  0.00  0.00    -0.354 OA
ATOM      2  C   UNL A   1     -23.650   1.102  25.239  0.00  0.00    +0.004 C 
ATOM      3  C   UNL A   1     -24.174   1.412  26.651  0.00  0.00    +0.025 C 
ATOM      4  C   UNL A   1     -21.556   0.822  27.748  0.00  0.00    +0.144 C 
ATOM      5  C   UNL A   1     -22.643   1.523  24.540  0.00  0.00    +0.032 C 
ATOM      6  C   UNL A   1     -22.580   0.586  28.720  0.00  0.00    +0.051 C 
ATOM      7  C   UNL A   1     -21.473   1.812  25.453  0.00  0.00    +0.142 C 
ATOM      8  C   UNL A   1     -23.829   1.309  28.067  0.00  0.00    +0.093 C 
ENDROOT
BRANCH   3   9
ATOM      9  C   UNL A   1     -25.688   1.614  26.461  0.00  0.00    +0.071 C 
ATOM     10  C   UNL A   1     -26.250   2.920  26.395  0.00  0.00    +0.055 C 
ATOM     11  C   UNL A   1     -27.438   3.091  25.645  0.00  0.00    +0.102 C 
ATOM     12  N   UNL A   1     -28.075   2.089  25.003  0.00  0.00    -0.212 NA
ATOM     13  C   UNL A   1     -27.543   0.849  25.079  0.00  0.00    +0.234 C 
ATOM     14  C   UNL A   1     -26.354   0.576  25.777  0.00  0.00    +0.240 C 
ATOM     15  F   UNL A   1     -25.860  -0.681  25.795  0.00  0.00    -0.227 F 
BRANCH  10  16
ATOM     16  C   UNL A   1     -25.642   4.093  27.123  0.00  0.00    +0.262 C 
ATOM     17  N   UNL A   1     -25.614   5.252  26.449  0.00  0.00    -0.200 NA
ATOM     18  C   UNL A   1     -25.026   6.479  26.963  0.00  0.00    +0.139 C 
ATOM     19  O   UNL A   1     -25.143   3.966  28.243  0.00  0.00    -0.269 OA
ENDBRANCH  10  16
BRANCH  13  20
ATOM     20  O   UNL A   1     -28.193  -0.208  24.477  0.00  0.00    -0.459 OA
BRANCH  20  21
ATOM     21  C   UNL A   1     -29.460   0.005  23.866  0.00  0.00    +0.242 C 
BRANCH  21  22
ATOM     22  C   UNL A   1     -30.065  -1.377  23.573  0.00  0.00    +0.229 C 
ATOM     23  O   UNL A   1     -30.729  -1.878  24.721  0.00  0.00    -0.216 OA
ENDBRANCH  21  22
ENDBRANCH  20  21
ENDBRANCH  13  20
ENDBRANCH   3   9
BRANCH   8  24
ATOM     24  N   UNL A   1     -25.068   0.637  28.404  0.00  0.00    -0.148 NA
BRANCH  24  25
ATOM     25  N   UNL A   1     -25.633  -0.047  29.139  0.00  0.00    -0.201 NA
BRANCH  25  30
ATOM     26  C   UNL A   1     -27.254   1.790  29.696  0.00  0.00    +0.017 C 
ATOM     27  C   UNL A   1     -29.644   1.197  29.079  0.00  0.00    +0.000 C 
ATOM     28  C   UNL A   1     -29.034   0.232  28.055  0.00  0.00    +0.001 C 
ATOM     29  C   UNL A   1     -28.723   1.779  30.156  0.00  0.00    +0.001 C 
ATOM     30  C   UNL A   1     -26.917   0.272  29.446  0.00  0.00    +0.074 C 
ATOM     31  C   UNL A   1     -28.005  -0.678  28.756  0.00  0.00    +0.017 C 
ENDBRANCH  25  30
BRANCH  25  32
ATOM     32  C   UNL A   1     -24.855  -1.012  30.143  0.00  0.00    +0.112 C 
BRANCH  32  33
ATOM     33  C   UNL A   1     -24.973  -2.505  29.788  0.00  0.00    -0.005 C 
ATOM     34  C   UNL A   1     -23.906  -3.173  29.146  0.00  0.00    -0.003 C 
ATOM     35  C   UNL A   1     -23.989  -4.549  28.853  0.00  0.00    -0.000 C 
ATOM     36  C   UNL A   1     -25.137  -5.280  29.205  0.00  0.00    -0.000 C 
ATOM     37  C   UNL A   1     -26.232  -4.611  29.784  0.00  0.00    -0.000 C 
ATOM     38  C   UNL A   1     -26.155  -3.232  30.065  0.00  0.00    -0.003 C 
ENDBRANCH  32  33
BRANCH  32  39
ATOM     39  C   UNL A   1     -25.387  -0.679  31.571  0.00  0.00    +0.093 C 
ATOM     40  C   UNL A   1     -25.189   0.773  32.028  0.00  0.00    +0.021 C 
ATOM     41  C   UNL A   1     -25.336   0.684  33.544  0.00  0.00    +0.020 C 
ATOM     42  C   UNL A   1     -24.829  -0.715  33.905  0.00  0.00    +0.089 C 
ATOM     43  N   UNL A   1     -24.758  -1.481  32.646  0.00  0.00    -0.218 NA
ENDBRANCH  32  39
ENDBRANCH  25  32
ENDBRANCH  24  25
ENDBRANCH   8  24
TORSDOF 11
