REMARK  Name = outputs/IAG933/test6/raw/output_5195_IAG933_linker_design_.xyz
REMARK  14 active torsions:
REMARK  status: ('A' for Active; 'I' for Inactive)
REMARK    1  A    between atoms: C_1  and  C_2
REMARK    2  A    between atoms: C_1  and  C_8
REMARK    3  A    between atoms: C_1  and  C_32
REMARK    4  A    between atoms: C_13  and  C_38
REMARK    5  A    between atoms: C_14  and  C_15
REMARK    6  A    between atoms: C_21  and  O_22
REMARK    7  A    between atoms: O_22  and  C_23
REMARK    8  A    between atoms: C_23  and  C_24
REMARK    9  A    between atoms: C_28  and  C_32
REMARK   10  A    between atoms: C_28  and  N_39
REMARK   11  A    between atoms: C_30  and  C_38
REMARK   12  A    between atoms: C_30  and  N_39
REMARK   13  A    between atoms: C_32  and  C_33
REMARK   14  A    between atoms: C_42  and  N_43
REMARK                            x       y       z     vdW  Elec       q    Type
REMARK                         _______ _______ _______ _____ _____    ______ ____
ROOT
ATOM      1  C   UNL A   1     -25.715  -0.148  29.228  0.00  0.00    +0.101 C 
ENDROOT
BRANCH   1   2
ATOM      2  C   UNL A   1     -27.260   0.479  29.310  0.00  0.00    +0.243 C 
ATOM      3  O   UNL A   1     -28.188  -0.243  28.904  0.00  0.00    -0.273 OA
ATOM      4  N   UNL A   1     -27.279   1.742  29.746  0.00  0.00    -0.207 NA
BRANCH   4  10
ATOM      5  C   UNL A   1     -29.949   1.997  29.393  0.00  0.00    +0.024 C 
ATOM      6  C   UNL A   1     -30.346   4.098  32.834  0.00  0.00    +0.275 C 
ATOM      7  C   UNL A   1     -28.860   2.236  31.570  0.00  0.00    +0.088 C 
ATOM      8  C   UNL A   1     -29.239   3.521  30.871  0.00  0.00    +0.130 C 
ATOM      9  N   UNL A   1     -30.326   4.012  31.527  0.00  0.00    -0.234 NA
ATOM     10  C   UNL A   1     -28.559   2.579  29.721  0.00  0.00    +0.105 C 
ATOM     11  C   UNL A   1     -28.418   2.842  32.521  0.00  0.00    +0.211 C 
ATOM     12  O   UNL A   1     -29.459   3.649  33.448  0.00  0.00    -0.457 OA
ENDBRANCH   4  10
ENDBRANCH   1   2
BRANCH   1  13
ATOM     13  C   UNL A   1     -24.855  -1.012  30.143  0.00  0.00    +0.048 C 
BRANCH  13  14
ATOM     14  C   UNL A   1     -24.973  -2.505  29.788  0.00  0.00    -0.021 C 
ATOM     15  C   UNL A   1     -23.906  -3.173  29.146  0.00  0.00    -0.004 C 
ATOM     16  C   UNL A   1     -23.989  -4.549  28.853  0.00  0.00    -0.000 C 
ATOM     17  C   UNL A   1     -25.137  -5.280  29.205  0.00  0.00    -0.000 C 
ATOM     18  C   UNL A   1     -26.232  -4.611  29.784  0.00  0.00    -0.000 C 
ATOM     19  C   UNL A   1     -26.155  -3.232  30.065  0.00  0.00    -0.004 C 
ENDBRANCH  13  14
BRANCH  13  20
ATOM     20  C   UNL A   1     -25.387  -0.679  31.571  0.00  0.00    +0.077 C 
ATOM     21  C   UNL A   1     -25.189   0.773  32.028  0.00  0.00    +0.019 C 
ATOM     22  C   UNL A   1     -25.336   0.684  33.544  0.00  0.00    +0.020 C 
ATOM     23  C   UNL A   1     -24.829  -0.715  33.905  0.00  0.00    +0.089 C 
ATOM     24  N   UNL A   1     -24.758  -1.481  32.646  0.00  0.00    -0.219 NA
ENDBRANCH  13  20
ENDBRANCH   1  13
BRANCH   1  25
ATOM     25  C   UNL A   1     -25.204   0.592  28.322  0.00  0.00    +0.098 C 
BRANCH  25  26
ATOM     26  N   UNL A   1     -24.016   1.072  28.768  0.00  0.00    -0.219 NA
BRANCH  26  28
ATOM     27  C   UNL A   1     -21.659   1.314  27.520  0.00  0.00    +0.019 C 
ATOM     28  C   UNL A   1     -23.120   0.778  27.642  0.00  0.00    +0.073 C 
BRANCH  28  30
ATOM     29  C   UNL A   1     -23.241   2.183  25.448  0.00  0.00    +0.002 C 
ATOM     30  C   UNL A   1     -24.072   1.384  26.480  0.00  0.00    +0.023 C 
BRANCH  30  31
ATOM     31  C   UNL A   1     -25.688   1.614  26.461  0.00  0.00    +0.071 C 
ATOM     32  C   UNL A   1     -26.250   2.920  26.395  0.00  0.00    +0.055 C 
ATOM     33  C   UNL A   1     -27.438   3.091  25.645  0.00  0.00    +0.102 C 
ATOM     34  N   UNL A   1     -28.075   2.089  25.003  0.00  0.00    -0.212 NA
ATOM     35  C   UNL A   1     -27.543   0.849  25.079  0.00  0.00    +0.234 C 
ATOM     36  C   UNL A   1     -26.354   0.576  25.777  0.00  0.00    +0.240 C 
ATOM     37  F   UNL A   1     -25.860  -0.681  25.795  0.00  0.00    -0.227 F 
BRANCH  32  38
ATOM     38  C   UNL A   1     -25.642   4.093  27.123  0.00  0.00    +0.262 C 
ATOM     39  N   UNL A   1     -25.614   5.252  26.449  0.00  0.00    -0.200 NA
ATOM     40  C   UNL A   1     -25.026   6.479  26.963  0.00  0.00    +0.139 C 
ATOM     41  O   UNL A   1     -25.143   3.966  28.243  0.00  0.00    -0.269 OA
ENDBRANCH  32  38
BRANCH  35  42
ATOM     42  O   UNL A   1     -28.193  -0.208  24.477  0.00  0.00    -0.459 OA
BRANCH  42  43
ATOM     43  C   UNL A   1     -29.460   0.005  23.866  0.00  0.00    +0.242 C 
BRANCH  43  44
ATOM     44  C   UNL A   1     -30.065  -1.377  23.573  0.00  0.00    +0.229 C 
ATOM     45  O   UNL A   1     -30.729  -1.878  24.721  0.00  0.00    -0.216 OA
ENDBRANCH  43  44
ENDBRANCH  42  43
ENDBRANCH  35  42
ENDBRANCH  30  31
ENDBRANCH  28  30
ENDBRANCH  26  28
ENDBRANCH  25  26
ENDBRANCH   1  25
TORSDOF 14
