REMARK  Name = outputs/IAG933/test6/raw/output_5197_IAG933_linker_design_.xyz
REMARK  13 active torsions:
REMARK  status: ('A' for Active; 'I' for Inactive)
REMARK    1  A    between atoms: C_1  and  C_2
REMARK    2  A    between atoms: C_1  and  C_8
REMARK    3  A    between atoms: C_1  and  C_37
REMARK    4  A    between atoms: C_13  and  N_42
REMARK    5  A    between atoms: C_14  and  C_15
REMARK    6  A    between atoms: C_21  and  O_22
REMARK    7  A    between atoms: O_22  and  C_23
REMARK    8  A    between atoms: C_23  and  C_24
REMARK    9  A    between atoms: C_29  and  C_30
REMARK   10  A    between atoms: C_29  and  O_43
REMARK   11  A    between atoms: C_31  and  C_35
REMARK   12  A    between atoms: C_31  and  C_41
REMARK   13  A    between atoms: C_33  and  O_43
REMARK                            x       y       z     vdW  Elec       q    Type
REMARK                         _______ _______ _______ _____ _____    ______ ____
ROOT
ATOM      1  C   UNL A   1     -23.319   0.420  28.581  0.00  0.00    +0.154 A 
ATOM      2  C   UNL A   1     -23.705   1.201  27.278  0.00  0.00    +0.126 A 
ATOM      3  F   UNL A   1     -22.307   0.220  29.392  0.00  0.00    -0.203 F 
ATOM      4  C   UNL A   1     -24.597  -0.040  29.094  0.00  0.00    +0.023 A 
ATOM      5  C   UNL A   1     -25.722   0.603  28.469  0.00  0.00    +0.036 A 
ATOM      6  N   UNL A   1     -24.972   1.262  27.399  0.00  0.00    -0.323 N 
ENDROOT
BRANCH   6   7
ATOM      7  C   UNL A   1     -25.688   1.614  26.461  0.00  0.00    +0.155 C 
ATOM      8  C   UNL A   1     -26.250   2.920  26.395  0.00  0.00    +0.076 C 
ATOM      9  C   UNL A   1     -27.438   3.091  25.645  0.00  0.00    +0.104 C 
ATOM     10  N   UNL A   1     -28.075   2.089  25.003  0.00  0.00    -0.212 NA
ATOM     11  C   UNL A   1     -27.543   0.849  25.079  0.00  0.00    +0.236 C 
ATOM     12  C   UNL A   1     -26.354   0.576  25.777  0.00  0.00    +0.261 C 
ATOM     13  F   UNL A   1     -25.860  -0.681  25.795  0.00  0.00    -0.225 F 
BRANCH   8  14
ATOM     14  C   UNL A   1     -25.642   4.093  27.123  0.00  0.00    +0.264 C 
ATOM     15  N   UNL A   1     -25.614   5.252  26.449  0.00  0.00    -0.200 NA
ATOM     16  C   UNL A   1     -25.026   6.479  26.963  0.00  0.00    +0.139 C 
ATOM     17  O   UNL A   1     -25.143   3.966  28.243  0.00  0.00    -0.269 OA
ENDBRANCH   8  14
BRANCH  11  18
ATOM     18  O   UNL A   1     -28.193  -0.208  24.477  0.00  0.00    -0.459 OA
BRANCH  18  19
ATOM     19  C   UNL A   1     -29.460   0.005  23.866  0.00  0.00    +0.242 C 
BRANCH  19  20
ATOM     20  C   UNL A   1     -30.065  -1.377  23.573  0.00  0.00    +0.229 C 
ATOM     21  O   UNL A   1     -30.729  -1.878  24.721  0.00  0.00    -0.216 OA
ENDBRANCH  19  20
ENDBRANCH  18  19
ENDBRANCH  11  18
ENDBRANCH   6   7
BRANCH   2  22
ATOM     22  C   UNL A   1     -23.102   1.663  26.151  0.00  0.00    +0.320 C 
ATOM     23  F   UNL A   1     -23.528   1.589  24.985  0.00  0.00    -0.197 F 
BRANCH  22  24
ATOM     24  O   UNL A   1     -21.874   2.280  25.936  0.00  0.00    -0.322 OA
BRANCH  24  25
ATOM     25  C   UNL A   1     -21.040   2.450  26.849  0.00  0.00    +0.145 C 
ATOM     26  C   UNL A   1     -20.765   1.513  27.941  0.00  0.00    +0.035 C 
ENDBRANCH  24  25
ENDBRANCH  22  24
ENDBRANCH   2  22
BRANCH   4  27
ATOM     27  C   UNL A   1     -24.855  -1.012  30.143  0.00  0.00    +0.064 C 
BRANCH  27  28
ATOM     28  C   UNL A   1     -24.973  -2.505  29.788  0.00  0.00    -0.017 C 
ATOM     29  C   UNL A   1     -23.906  -3.173  29.146  0.00  0.00    -0.004 C 
ATOM     30  C   UNL A   1     -23.989  -4.549  28.853  0.00  0.00    -0.000 C 
ATOM     31  C   UNL A   1     -25.137  -5.280  29.205  0.00  0.00    -0.000 C 
ATOM     32  C   UNL A   1     -26.232  -4.611  29.784  0.00  0.00    -0.000 C 
ATOM     33  C   UNL A   1     -26.155  -3.232  30.065  0.00  0.00    -0.004 C 
ENDBRANCH  27  28
BRANCH  27  34
ATOM     34  C   UNL A   1     -25.387  -0.679  31.571  0.00  0.00    +0.081 C 
ATOM     35  C   UNL A   1     -25.189   0.773  32.028  0.00  0.00    +0.019 C 
ATOM     36  C   UNL A   1     -25.336   0.684  33.544  0.00  0.00    +0.020 C 
ATOM     37  C   UNL A   1     -24.829  -0.715  33.905  0.00  0.00    +0.089 C 
ATOM     38  N   UNL A   1     -24.758  -1.481  32.646  0.00  0.00    -0.219 NA
ENDBRANCH  27  34
ENDBRANCH   4  27
BRANCH   5  39
ATOM     39  C   UNL A   1     -27.252   0.503  29.250  0.00  0.00    +0.049 C 
BRANCH  39  41
ATOM     40  C   UNL A   1     -28.543   4.517  29.346  0.00  0.00    +0.114 C 
ATOM     41  C   UNL A   1     -27.614   1.851  29.741  0.00  0.00    +0.045 C 
ATOM     42  C   UNL A   1     -27.261   4.211  30.071  0.00  0.00    -0.012 C 
ATOM     43  N   UNL A   1     -29.560   3.494  29.155  0.00  0.00    -0.213 NA
ATOM     44  C   UNL A   1     -26.882   2.849  30.330  0.00  0.00    -0.028 C 
ATOM     45  C   UNL A   1     -29.131   2.111  29.564  0.00  0.00    +0.094 C 
ENDBRANCH  39  41
ENDBRANCH   5  39
TORSDOF 13
