MODEL 519
MODEL 1
REMARK VINA RESULT:    -7.275      0.000      0.000
REMARK INTER + INTRA:         -11.400
REMARK INTER:                  -9.827
REMARK INTRA:                  -1.573
REMARK UNBOUND:                -1.573
REMARK  Name = No_519-gen_results/8p0m/2024-11-27-11-27-31/
REMARK  6 active torsions:
REMARK  status: ('A' for Active; 'I' for Inactive)
REMARK    1  A    between atoms: C_1  and  C_2
REMARK    2  A    between atoms: C_5  and  C_10
REMARK    3  A    between atoms: N_8  and  C_9
REMARK    4  A    between atoms: N_11  and  C_22
REMARK    5  A    between atoms: C_15  and  C_16
REMARK    6  A    between atoms: C_22  and  C_23
REMARK                            x       y       z     vdW  Elec       q    Type
REMARK                         _______ _______ _______ _____ _____    ______ ____
ROOT
ATOM      1  C   UNL A   1     -26.899   1.027  26.085  0.00  0.00    +0.055 A 
ATOM      2  C   UNL A   1     -26.659   1.841  27.144  0.00  0.00    +0.005 A 
ATOM      3  C   UNL A   1     -25.329   2.049  27.761  0.00  0.00    +0.005 A 
ATOM      4  C   UNL A   1     -24.233   1.315  27.201  0.00  0.00    +0.058 A 
ATOM      5  C   UNL A   1     -24.536   0.424  26.147  0.00  0.00    +0.005 A 
ATOM      6  C   UNL A   1     -25.796   0.283  25.626  0.00  0.00    +0.005 A 
ENDROOT
BRANCH   1   7
ATOM      7  C   UNL A   1     -27.991   0.865  25.592  0.00  0.00    +0.269 C 
ATOM      8  N   UNL A   1     -28.123   0.906  24.333  0.00  0.00    -0.175 NA
ATOM      9  O   UNL A   1     -29.010   0.942  26.286  0.00  0.00    -0.268 OA
BRANCH   8  10
ATOM     10  C   UNL A   1     -29.353   1.217  23.745  0.00  0.00    +0.080 A 
ATOM     11  C   UNL A   1     -29.708   2.273  23.473  0.00  0.00    +0.017 A 
ATOM     12  C   UNL A   1     -30.934   2.638  22.893  0.00  0.00    +0.001 A 
ATOM     13  C   UNL A   1     -30.238   0.079  23.428  0.00  0.00    +0.095 A 
ATOM     14  C   UNL A   1     -31.762   1.547  22.572  0.00  0.00    +0.000 A 
ATOM     15  C   UNL A   1     -31.405   0.307  22.868  0.00  0.00    +0.008 A 
BRANCH  13  16
ATOM     16  C   UNL A   1     -29.832  -1.270  23.708  0.00  0.00    +0.389 C 
ATOM     17  O   UNL A   1     -28.935  -1.839  23.161  0.00  0.00    -0.240 OA
ATOM     18  O   UNL A   1     -30.537  -1.876  24.568  0.00  0.00    -0.240 OA
ENDBRANCH  13  16
ENDBRANCH   8  10
ENDBRANCH   1   7
BRANCH   4  19
ATOM     19  C   UNL A   1     -22.903   1.394  27.733  0.00  0.00    +0.277 C 
ATOM     20  N   UNL A   1     -22.240   0.438  28.306  0.00  0.00    -0.212 NA
ATOM     21  O   UNL A   1     -22.244   2.486  27.454  0.00  0.00    -0.266 OA
BRANCH  20  22
ATOM     22  C   UNL A   1     -22.832  -0.533  29.156  0.00  0.00    +0.219 C 
ATOM     23  N   UNL A   1     -22.484  -1.833  28.965  0.00  0.00    -0.101 NA
BRANCH  22  24
ATOM     24  C   UNL A   1     -23.544  -0.233  30.251  0.00  0.00    +0.016 A 
ATOM     25  C   UNL A   1     -23.762   0.612  31.052  0.00  0.00    -0.001 A 
ATOM     26  C   UNL A   1     -24.608   0.775  32.157  0.00  0.00    +0.002 A 
ATOM     27  C   UNL A   1     -25.416  -0.399  32.434  0.00  0.00    +0.029 A 
ATOM     28  C   UNL A   1     -25.553  -1.391  31.524  0.00  0.00    +0.136 A 
ATOM     29  C   UNL A   1     -24.760  -1.319  30.311  0.00  0.00    +0.005 A 
ATOM     30  C   UNL A   1     -25.849  -1.309  29.182  0.00  0.00    +0.033 C 
ATOM     31  F   UNL A   1     -26.976  -1.368  31.313  0.00  0.00    -0.204 F 
ENDBRANCH  22  24
ENDBRANCH  20  22
ENDBRANCH   4  19
TORSDOF 6
ENDMDL
ENDMDL
