MODEL 51
MODEL 1
REMARK VINA RESULT:    -6.431      0.000      0.000
REMARK INTER + INTRA:          -6.882
REMARK INTER:                  -6.807
REMARK INTRA:                  -0.075
REMARK UNBOUND:                -0.075
REMARK  Name = No_51-gen_results/8p0m/2024-11-27-11-27-31/
REMARK  1 active torsions:
REMARK  status: ('A' for Active; 'I' for Inactive)
REMARK    1  A    between atoms: C_6  and  C_7
REMARK                            x       y       z     vdW  Elec       q    Type
REMARK                         _______ _______ _______ _____ _____    ______ ____
ROOT
ATOM      1  C   UNL A   1     -29.192 -10.274  33.032  0.00  0.00    +0.007 A 
ATOM      2  C   UNL A   1     -29.896  -9.829  32.156  0.00  0.00    +0.000 A 
ATOM      3  C   UNL A   1     -29.803 -10.300  30.851  0.00  0.00    +0.000 A 
ATOM      4  C   UNL A   1     -30.604  -9.828  29.685  0.00  0.00    +0.000 A 
ATOM      5  C   UNL A   1     -30.480 -10.313  28.337  0.00  0.00    +0.000 A 
ATOM      6  C   UNL A   1     -28.089 -11.189  32.699  0.00  0.00    +0.080 A 
ATOM      7  C   UNL A   1     -29.660 -11.477  28.253  0.00  0.00    +0.000 A 
ATOM      8  C   UNL A   1     -28.947 -12.012  29.292  0.00  0.00    +0.000 A 
ATOM      9  C   UNL A   1     -29.010 -11.476  30.552  0.00  0.00    +0.000 A 
ATOM     10  C   UNL A   1     -28.047 -11.828  31.516  0.00  0.00    +0.007 A 
ENDROOT
BRANCH   6  11
ATOM     11  C   UNL A   1     -27.224 -11.688  33.774  0.00  0.00    +0.388 C 
ATOM     12  O   UNL A   1     -26.871 -10.776  34.627  0.00  0.00    -0.241 OA
ATOM     13  O   UNL A   1     -26.722 -12.802  33.836  0.00  0.00    -0.241 OA
ENDBRANCH   6  11
TORSDOF 1
ENDMDL
ENDMDL
