REMARK  Name = outputs/IAG933/test6/raw/output_52_IAG933_linker_design_.xyz
REMARK  13 active torsions:
REMARK  status: ('A' for Active; 'I' for Inactive)
REMARK    1  A    between atoms: C_1  and  C_2
REMARK    2  A    between atoms: C_1  and  C_8
REMARK    3  A    between atoms: C_1  and  C_29
REMARK    4  A    between atoms: C_13  and  C_36
REMARK    5  A    between atoms: C_14  and  C_15
REMARK    6  A    between atoms: C_21  and  O_22
REMARK    7  A    between atoms: O_22  and  C_23
REMARK    8  A    between atoms: C_23  and  C_24
REMARK    9  A    between atoms: N_28  and  C_32
REMARK   10  A    between atoms: C_30  and  C_39
REMARK   11  A    between atoms: C_31  and  C_32
REMARK   12  A    between atoms: O_33  and  C_38
REMARK   13  A    between atoms: C_38  and  C_39
REMARK                            x       y       z     vdW  Elec       q    Type
REMARK                         _______ _______ _______ _____ _____    ______ ____
ROOT
ATOM      1  C   UNL A   1     -23.258   1.902  26.785  0.00  0.00    +0.131 C 
ATOM      2  C   UNL A   1     -23.690   1.503  27.830  0.00  0.00    +0.053 C 
ATOM      3  O   UNL A   1     -23.143   2.396  25.198  0.00  0.00    -0.226 OA
ATOM      4  C   UNL A   1     -24.354   1.433  26.879  0.00  0.00    +0.040 C 
ENDROOT
BRANCH   4   5
ATOM      5  C   UNL A   1     -25.688   1.614  26.461  0.00  0.00    +0.073 C 
ATOM      6  C   UNL A   1     -26.250   2.920  26.395  0.00  0.00    +0.055 C 
ATOM      7  C   UNL A   1     -27.438   3.091  25.645  0.00  0.00    +0.102 C 
ATOM      8  N   UNL A   1     -28.075   2.089  25.003  0.00  0.00    -0.212 NA
ATOM      9  C   UNL A   1     -27.543   0.849  25.079  0.00  0.00    +0.234 C 
ATOM     10  C   UNL A   1     -26.354   0.576  25.777  0.00  0.00    +0.240 C 
ATOM     11  F   UNL A   1     -25.860  -0.681  25.795  0.00  0.00    -0.227 F 
BRANCH   6  12
ATOM     12  C   UNL A   1     -25.642   4.093  27.123  0.00  0.00    +0.262 C 
ATOM     13  N   UNL A   1     -25.614   5.252  26.449  0.00  0.00    -0.200 NA
ATOM     14  C   UNL A   1     -25.026   6.479  26.963  0.00  0.00    +0.139 C 
ATOM     15  O   UNL A   1     -25.143   3.966  28.243  0.00  0.00    -0.269 OA
ENDBRANCH   6  12
BRANCH   9  16
ATOM     16  O   UNL A   1     -28.193  -0.208  24.477  0.00  0.00    -0.459 OA
BRANCH  16  17
ATOM     17  C   UNL A   1     -29.460   0.005  23.866  0.00  0.00    +0.242 C 
BRANCH  17  18
ATOM     18  C   UNL A   1     -30.065  -1.377  23.573  0.00  0.00    +0.229 C 
ATOM     19  O   UNL A   1     -30.729  -1.878  24.721  0.00  0.00    -0.216 OA
ENDBRANCH  17  18
ENDBRANCH  16  17
ENDBRANCH   9  16
ENDBRANCH   4   5
BRANCH   2  20
ATOM     20  C   UNL A   1     -24.426   1.877  29.329  0.00  0.00    +0.118 C 
BRANCH  20  21
ATOM     21  N   UNL A   1     -25.464   1.024  28.987  0.00  0.00    -0.205 NA
ATOM     22  C   UNL A   1     -25.925  -0.140  29.237  0.00  0.00    +0.246 C 
ATOM     23  O   UNL A   1     -27.103  -0.487  29.014  0.00  0.00    -0.273 OA
BRANCH  22  24
ATOM     24  C   UNL A   1     -24.855  -1.012  30.143  0.00  0.00    +0.116 C 
BRANCH  24  25
ATOM     25  C   UNL A   1     -24.973  -2.505  29.788  0.00  0.00    -0.013 C 
ATOM     26  C   UNL A   1     -23.906  -3.173  29.146  0.00  0.00    -0.004 C 
ATOM     27  C   UNL A   1     -23.989  -4.549  28.853  0.00  0.00    -0.000 C 
ATOM     28  C   UNL A   1     -25.137  -5.280  29.205  0.00  0.00    -0.000 C 
ATOM     29  C   UNL A   1     -26.232  -4.611  29.784  0.00  0.00    -0.000 C 
ATOM     30  C   UNL A   1     -26.155  -3.232  30.065  0.00  0.00    -0.004 C 
ENDBRANCH  24  25
BRANCH  24  31
ATOM     31  C   UNL A   1     -25.387  -0.679  31.571  0.00  0.00    +0.086 C 
ATOM     32  C   UNL A   1     -25.189   0.773  32.028  0.00  0.00    +0.020 C 
ATOM     33  C   UNL A   1     -25.336   0.684  33.544  0.00  0.00    +0.020 C 
ATOM     34  C   UNL A   1     -24.829  -0.715  33.905  0.00  0.00    +0.089 C 
ATOM     35  N   UNL A   1     -24.758  -1.481  32.646  0.00  0.00    -0.219 NA
ENDBRANCH  24  31
ENDBRANCH  22  24
ENDBRANCH  20  21
ENDBRANCH   2  20
BRANCH   1  36
ATOM     36  C   UNL A   1     -21.883   1.863  26.764  0.00  0.00    +0.062 C 
BRANCH  36  37
ATOM     37  C   UNL A   1     -21.221   1.083  27.706  0.00  0.00    +0.145 C 
BRANCH  37  38
ATOM     38  O   UNL A   1     -21.815  -0.178  28.305  0.00  0.00    -0.351 OA
ATOM     39  C   UNL A   1     -21.843  -0.461  29.721  0.00  0.00    +0.174 C 
ENDBRANCH  37  38
ENDBRANCH  36  37
ENDBRANCH   1  36
TORSDOF 13
