REMARK  Name = No_520-gen_results/8p0m/2024-11-27-11-27-31/
REMARK  0 active torsions:
REMARK  status: ('A' for Active; 'I' for Inactive)
REMARK                            x       y       z     vdW  Elec       q    Type
REMARK                         _______ _______ _______ _____ _____    ______ ____
ROOT
ATOM      1  C   UNL A   1     -28.016  -0.814  28.878  0.00  0.00    +0.017 A 
ATOM      2  C   UNL A   1     -28.469  -0.785  29.829  0.00  0.00    +0.001 A 
ATOM      3  C   UNL A   1     -26.546  -0.876  28.850  0.00  0.00    +0.080 A 
ATOM      4  C   UNL A   1     -25.804  -1.032  30.057  0.00  0.00    -0.004 A 
ATOM      5  C   UNL A   1     -26.537  -1.039  31.217  0.00  0.00    -0.003 A 
ATOM      6  C   UNL A   1     -27.884  -0.953  31.186  0.00  0.00    -0.000 A 
ATOM      7  C   UNL A   1     -24.366  -1.113  30.048  0.00  0.00    +0.045 C 
ATOM      8  C   UNL A   1     -23.625  -0.944  29.023  0.00  0.00    +0.085 C 
ATOM      9  C   UNL A   1     -22.378  -0.335  29.068  0.00  0.00    +0.018 C 
ATOM     10  C   UNL A   1     -21.993   0.717  28.817  0.00  0.00    +0.006 C 
ATOM     11  C   UNL A   1     -22.899   1.688  28.245  0.00  0.00    +0.054 C 
ATOM     12  C   UNL A   1     -23.998   1.361  27.581  0.00  0.00    +0.239 C 
ATOM     13  N   UNL A   1     -24.407  -0.488  27.913  0.00  0.00    -0.159 NA
ATOM     14  N   UNL A   1     -25.758  -0.568  27.729  0.00  0.00    -0.162 NA
ATOM     15  F   UNL A   1     -24.732   1.886  26.871  0.00  0.00    -0.217 F 
ENDROOT
TORSDOF 0
