REMARK  Name = outputs/IAG933/test6/raw/output_5206_IAG933_linker_design_.xyz
REMARK  16 active torsions:
REMARK  status: ('A' for Active; 'I' for Inactive)
REMARK    1  A    between atoms: C_1  and  C_2
REMARK    2  A    between atoms: C_1  and  C_8
REMARK    3  A    between atoms: C_1  and  C_40
REMARK    4  A    between atoms: C_13  and  C_37
REMARK    5  A    between atoms: C_14  and  C_15
REMARK    6  A    between atoms: C_21  and  O_22
REMARK    7  A    between atoms: O_22  and  C_23
REMARK    8  A    between atoms: C_23  and  C_24
REMARK    9  A    between atoms: C_28  and  C_39
REMARK   10  A    between atoms: C_30  and  N_31
REMARK   11  A    between atoms: C_30  and  O_44
REMARK   12  A    between atoms: N_31  and  C_40
REMARK   13  A    between atoms: C_33  and  O_35
REMARK   14  A    between atoms: C_39  and  C_43
REMARK   15  A    between atoms: C_40  and  C_41
REMARK   16  A    between atoms: C_43  and  O_44
REMARK                            x       y       z     vdW  Elec       q    Type
REMARK                         _______ _______ _______ _____ _____    ______ ____
ROOT
ATOM      1  C   UNL A   1     -21.890   1.363  27.589  0.00  0.00    +0.062 C 
ATOM      2  C   UNL A   1     -23.013   1.464  26.788  0.00  0.00    +0.192 C 
ATOM      3  C   UNL A   1     -22.147   1.021  28.858  0.00  0.00    +0.102 C 
ATOM      4  N   UNL A   1     -23.368   0.749  29.298  0.00  0.00    -0.246 NA
ATOM      5  C   UNL A   1     -24.370   1.259  27.220  0.00  0.00    +0.056 C 
ATOM      6  C   UNL A   1     -24.488   0.691  28.546  0.00  0.00    +0.079 C 
ENDROOT
BRANCH   5   7
ATOM      7  C   UNL A   1     -25.688   1.614  26.461  0.00  0.00    +0.042 C 
ATOM      8  C   UNL A   1     -26.250   2.920  26.395  0.00  0.00    +0.077 C 
ATOM      9  C   UNL A   1     -27.438   3.091  25.645  0.00  0.00    +0.107 C 
ATOM     10  N   UNL A   1     -28.075   2.089  25.003  0.00  0.00    -0.208 NA
ATOM     11  C   UNL A   1     -27.543   0.849  25.079  0.00  0.00    +0.253 C 
ATOM     12  C   UNL A   1     -26.354   0.576  25.777  0.00  0.00    +0.193 C 
ATOM     13  F   UNL A   1     -25.860  -0.681  25.795  0.00  0.00    -0.199 F 
BRANCH   8  14
ATOM     14  C   UNL A   1     -25.642   4.093  27.123  0.00  0.00    +0.266 C 
ATOM     15  N   UNL A   1     -25.614   5.252  26.449  0.00  0.00    -0.200 NA
ATOM     16  C   UNL A   1     -25.026   6.479  26.963  0.00  0.00    +0.139 C 
ATOM     17  O   UNL A   1     -25.143   3.966  28.243  0.00  0.00    -0.268 OA
ENDBRANCH   8  14
BRANCH  11  18
ATOM     18  O   UNL A   1     -28.193  -0.208  24.477  0.00  0.00    -0.456 OA
BRANCH  18  19
ATOM     19  C   UNL A   1     -29.460   0.005  23.866  0.00  0.00    +0.243 C 
BRANCH  19  20
ATOM     20  C   UNL A   1     -30.065  -1.377  23.573  0.00  0.00    +0.229 C 
ATOM     21  O   UNL A   1     -30.729  -1.878  24.721  0.00  0.00    -0.216 OA
ENDBRANCH  19  20
ENDBRANCH  18  19
ENDBRANCH  11  18
ENDBRANCH   5   7
BRANCH   2  22
ATOM     22  O   UNL A   1     -22.516   1.786  25.498  0.00  0.00    -0.292 OA
ATOM     23  F   UNL A   1     -23.319   1.976  24.592  0.00  0.00    +0.014 F 
ENDBRANCH   2  22
BRANCH   6  24
ATOM     24  C   UNL A   1     -25.467  -0.076  29.172  0.00  0.00    +0.135 C 
BRANCH  24  25
ATOM     25  N   UNL A   1     -26.863   0.010  29.024  0.00  0.00    -0.099 NA
ATOM     26  O   UNL A   1     -27.849  -0.557  28.979  0.00  0.00    -0.115 OA
BRANCH  25  27
ATOM     27  C   UNL A   1     -27.514   0.587  28.826  0.00  0.00    +0.248 C 
BRANCH  27  28
ATOM     28  O   UNL A   1     -27.566   2.038  28.968  0.00  0.00    -0.336 OA
BRANCH  28  29
ATOM     29  C   UNL A   1     -28.343   2.144  30.158  0.00  0.00    +0.144 C 
BRANCH  29  30
ATOM     30  C   UNL A   1     -29.695   1.415  29.843  0.00  0.00    +0.032 C 
BRANCH  30  31
ATOM     31  C   UNL A   1     -30.143   1.233  28.325  0.00  0.00    +0.003 C 
ATOM     32  C   UNL A   1     -30.988   0.104  28.418  0.00  0.00    +0.000 C 
ATOM     33  C   UNL A   1     -29.951   0.236  27.212  0.00  0.00    +0.000 C 
ENDBRANCH  30  31
ENDBRANCH  29  30
ENDBRANCH  28  29
ENDBRANCH  27  28
ENDBRANCH  25  27
ENDBRANCH  24  25
BRANCH  24  34
ATOM     34  C   UNL A   1     -24.855  -1.012  30.143  0.00  0.00    +0.061 C 
BRANCH  34  35
ATOM     35  C   UNL A   1     -24.973  -2.505  29.788  0.00  0.00    -0.019 C 
ATOM     36  C   UNL A   1     -23.906  -3.173  29.146  0.00  0.00    -0.004 C 
ATOM     37  C   UNL A   1     -23.989  -4.549  28.853  0.00  0.00    -0.000 C 
ATOM     38  C   UNL A   1     -25.137  -5.280  29.205  0.00  0.00    -0.000 C 
ATOM     39  C   UNL A   1     -26.232  -4.611  29.784  0.00  0.00    -0.000 C 
ATOM     40  C   UNL A   1     -26.155  -3.232  30.065  0.00  0.00    -0.004 C 
ENDBRANCH  34  35
BRANCH  34  41
ATOM     41  C   UNL A   1     -25.387  -0.679  31.571  0.00  0.00    +0.079 C 
ATOM     42  C   UNL A   1     -25.189   0.773  32.028  0.00  0.00    +0.019 C 
ATOM     43  C   UNL A   1     -25.336   0.684  33.544  0.00  0.00    +0.020 C 
ATOM     44  C   UNL A   1     -24.829  -0.715  33.905  0.00  0.00    +0.089 C 
ATOM     45  N   UNL A   1     -24.758  -1.481  32.646  0.00  0.00    -0.219 NA
ENDBRANCH  34  41
ENDBRANCH  24  34
ENDBRANCH   6  24
TORSDOF 16
