MODEL 520
MODEL 1
REMARK VINA RESULT:    -6.730      0.000      0.000
REMARK INTER + INTRA:          -6.730
REMARK INTER:                  -6.730
REMARK INTRA:                   0.000
REMARK UNBOUND:                 0.000
REMARK  Name = No_520-gen_results/8p0m/2024-11-27-11-27-31/
REMARK  0 active torsions:
REMARK  status: ('A' for Active; 'I' for Inactive)
REMARK                            x       y       z     vdW  Elec       q    Type
REMARK                         _______ _______ _______ _____ _____    ______ ____
ROOT
ATOM      1  C   UNL A   1     -12.680 -20.962  22.955  0.00  0.00    +0.017 A 
ATOM      2  C   UNL A   1     -11.716 -20.967  23.380  0.00  0.00    +0.001 A 
ATOM      3  C   UNL A   1     -12.765 -21.237  21.511  0.00  0.00    +0.080 A 
ATOM      4  C   UNL A   1     -11.606 -21.626  20.778  0.00  0.00    -0.004 A 
ATOM      5  C   UNL A   1     -10.428 -21.647  21.482  0.00  0.00    -0.003 A 
ATOM      6  C   UNL A   1     -10.404 -21.361  22.801  0.00  0.00    -0.000 A 
ATOM      7  C   UNL A   1     -11.673 -21.917  19.369  0.00  0.00    +0.045 C 
ATOM      8  C   UNL A   1     -12.701 -21.752  18.631  0.00  0.00    +0.085 C 
ATOM      9  C   UNL A   1     -12.638 -21.342  17.306  0.00  0.00    +0.018 C 
ATOM     10  C   UNL A   1     -12.794 -20.338  16.772  0.00  0.00    +0.006 C 
ATOM     11  C   UNL A   1     -13.233 -19.189  17.533  0.00  0.00    +0.054 C 
ATOM     12  C   UNL A   1     -13.888 -19.279  18.681  0.00  0.00    +0.239 C 
ATOM     13  N   UNL A   1     -13.731 -21.072  19.357  0.00  0.00    -0.159 NA
ATOM     14  N   UNL A   1     -13.876 -20.932  20.708  0.00  0.00    -0.162 NA
ATOM     15  F   UNL A   1     -14.516 -18.580  19.341  0.00  0.00    -0.217 F 
ENDROOT
TORSDOF 0
ENDMDL
ENDMDL
