REMARK  Name = outputs/IAG933/test6/raw/output_5216_IAG933_linker_design_.xyz
REMARK  13 active torsions:
REMARK  status: ('A' for Active; 'I' for Inactive)
REMARK    1  A    between atoms: C_1  and  C_2
REMARK    2  A    between atoms: C_1  and  C_8
REMARK    3  A    between atoms: C_1  and  N_31
REMARK    4  A    between atoms: C_13  and  N_34
REMARK    5  A    between atoms: C_14  and  C_15
REMARK    6  A    between atoms: C_21  and  O_22
REMARK    7  A    between atoms: O_22  and  C_23
REMARK    8  A    between atoms: C_23  and  C_24
REMARK    9  A    between atoms: C_28  and  N_31
REMARK   10  A    between atoms: C_28  and  C_32
REMARK   11  A    between atoms: N_31  and  C_35
REMARK   12  A    between atoms: C_32  and  C_37
REMARK   13  A    between atoms: N_34  and  C_42
REMARK                            x       y       z     vdW  Elec       q    Type
REMARK                         _______ _______ _______ _____ _____    ______ ____
ROOT
ATOM      1  C   UNL A   1     -21.077   1.391  27.520  0.00  0.00    +0.013 C 
ATOM      2 CL   UNL A   1     -22.489   2.565  25.513  0.00  0.00    -0.081 Cl
ATOM      3  C   UNL A   1     -23.487   0.444  28.811  0.00  0.00    +0.064 C 
ATOM      4  C   UNL A   1     -22.134   0.023  29.292  0.00  0.00    +0.016 C 
ATOM      5  C   UNL A   1     -20.984   0.545  28.643  0.00  0.00    +0.002 C 
ATOM      6  C   UNL A   1     -23.521   1.204  27.607  0.00  0.00    +0.094 C 
ATOM      7  C   UNL A   1     -22.324   1.685  27.023  0.00  0.00    +0.074 C 
ENDROOT
BRANCH   3   8
ATOM      8  N   UNL A   1     -24.862   0.056  29.237  0.00  0.00    -0.303 N 
BRANCH   8   9
ATOM      9  C   UNL A   1     -24.855  -1.012  30.143  0.00  0.00    +0.111 C 
BRANCH   9  10
ATOM     10  C   UNL A   1     -24.973  -2.505  29.788  0.00  0.00    -0.003 C 
ATOM     11  C   UNL A   1     -23.906  -3.173  29.146  0.00  0.00    -0.003 C 
ATOM     12  C   UNL A   1     -23.989  -4.549  28.853  0.00  0.00    -0.000 C 
ATOM     13  C   UNL A   1     -25.137  -5.280  29.205  0.00  0.00    -0.000 C 
ATOM     14  C   UNL A   1     -26.232  -4.611  29.784  0.00  0.00    -0.000 C 
ATOM     15  C   UNL A   1     -26.155  -3.232  30.065  0.00  0.00    -0.003 C 
ENDBRANCH   9  10
BRANCH   9  16
ATOM     16  C   UNL A   1     -25.387  -0.679  31.571  0.00  0.00    +0.095 C 
ATOM     17  C   UNL A   1     -25.189   0.773  32.028  0.00  0.00    +0.021 C 
ATOM     18  C   UNL A   1     -25.336   0.684  33.544  0.00  0.00    +0.020 C 
ATOM     19  C   UNL A   1     -24.829  -0.715  33.905  0.00  0.00    +0.089 C 
ATOM     20  N   UNL A   1     -24.758  -1.481  32.646  0.00  0.00    -0.217 NA
ENDBRANCH   9  16
ENDBRANCH   8   9
BRANCH   8  21
ATOM     21  C   UNL A   1     -26.468   0.223  28.839  0.00  0.00    +0.096 C 
BRANCH  21  22
ATOM     22  C   UNL A   1     -27.814  -0.606  28.822  0.00  0.00    +0.048 C 
BRANCH  22  25
ATOM     23  C   UNL A   1     -29.358   0.664  30.295  0.00  0.00    -0.004 C 
ATOM     24  C   UNL A   1     -30.037   2.340  28.116  0.00  0.00    -0.005 C 
ATOM     25  C   UNL A   1     -28.859   0.434  29.002  0.00  0.00    -0.021 C 
ATOM     26  C   UNL A   1     -29.250   1.213  27.902  0.00  0.00    -0.004 C 
ATOM     27  C   UNL A   1     -30.475   2.597  29.422  0.00  0.00    -0.022 C 
ATOM     28  C   UNL A   1     -30.164   1.769  30.494  0.00  0.00    -0.005 C 
ATOM     29  C   UNL A   1     -31.289   3.797  29.658  0.00  0.00    +0.031 C 
ENDBRANCH  22  25
ENDBRANCH  21  22
ENDBRANCH   8  21
ENDBRANCH   3   8
BRANCH   6  30
ATOM     30  N   UNL A   1     -24.646   1.205  27.141  0.00  0.00    -0.208 NA
BRANCH  30  31
ATOM     31  C   UNL A   1     -25.688   1.614  26.461  0.00  0.00    +0.108 C 
ATOM     32  C   UNL A   1     -26.250   2.920  26.395  0.00  0.00    +0.092 C 
ATOM     33  C   UNL A   1     -27.438   3.091  25.645  0.00  0.00    +0.108 C 
ATOM     34  N   UNL A   1     -28.075   2.089  25.003  0.00  0.00    -0.208 NA
ATOM     35  C   UNL A   1     -27.543   0.849  25.079  0.00  0.00    +0.255 C 
ATOM     36  C   UNL A   1     -26.354   0.576  25.777  0.00  0.00    +0.208 C 
ATOM     37  F   UNL A   1     -25.860  -0.681  25.795  0.00  0.00    -0.198 F 
BRANCH  32  38
ATOM     38  C   UNL A   1     -25.642   4.093  27.123  0.00  0.00    +0.268 C 
ATOM     39  N   UNL A   1     -25.614   5.252  26.449  0.00  0.00    -0.200 NA
ATOM     40  C   UNL A   1     -25.026   6.479  26.963  0.00  0.00    +0.139 C 
ATOM     41  O   UNL A   1     -25.143   3.966  28.243  0.00  0.00    -0.268 OA
ENDBRANCH  32  38
BRANCH  35  42
ATOM     42  O   UNL A   1     -28.193  -0.208  24.477  0.00  0.00    -0.456 OA
BRANCH  42  43
ATOM     43  C   UNL A   1     -29.460   0.005  23.866  0.00  0.00    +0.243 C 
BRANCH  43  44
ATOM     44  C   UNL A   1     -30.065  -1.377  23.573  0.00  0.00    +0.229 C 
ATOM     45  O   UNL A   1     -30.729  -1.878  24.721  0.00  0.00    -0.216 OA
ENDBRANCH  43  44
ENDBRANCH  42  43
ENDBRANCH  35  42
ENDBRANCH  30  31
ENDBRANCH   6  30
TORSDOF 13
