REMARK  Name = outputs/IAG933/test6/raw/output_5217_IAG933_linker_design_.xyz
REMARK  12 active torsions:
REMARK  status: ('A' for Active; 'I' for Inactive)
REMARK    1  A    between atoms: C_1  and  C_2
REMARK    2  A    between atoms: C_1  and  C_8
REMARK    3  A    between atoms: C_1  and  C_35
REMARK    4  A    between atoms: C_9  and  C_44
REMARK    5  A    between atoms: C_13  and  C_32
REMARK    6  A    between atoms: C_14  and  C_15
REMARK    7  A    between atoms: C_21  and  O_22
REMARK    8  A    between atoms: O_22  and  C_23
REMARK    9  A    between atoms: C_23  and  C_24
REMARK   10  A    between atoms: C_28  and  O_33
REMARK   11  A    between atoms: C_34  and  C_35
REMARK   12  A    between atoms: C_40  and  C_44
REMARK                            x       y       z     vdW  Elec       q    Type
REMARK                         _______ _______ _______ _____ _____    ______ ____
ROOT
ATOM      1  C   UNL A   1     -24.855  -1.012  30.143  0.00  0.00    +0.043 C 
ENDROOT
BRANCH   1   2
ATOM      2  C   UNL A   1     -24.973  -2.505  29.788  0.00  0.00    -0.021 C 
ATOM      3  C   UNL A   1     -23.906  -3.173  29.146  0.00  0.00    -0.004 C 
ATOM      4  C   UNL A   1     -23.989  -4.549  28.853  0.00  0.00    -0.000 C 
ATOM      5  C   UNL A   1     -25.137  -5.280  29.205  0.00  0.00    -0.000 C 
ATOM      6  C   UNL A   1     -26.232  -4.611  29.784  0.00  0.00    -0.000 C 
ATOM      7  C   UNL A   1     -26.155  -3.232  30.065  0.00  0.00    -0.004 C 
ENDBRANCH   1   2
BRANCH   1   8
ATOM      8  C   UNL A   1     -25.387  -0.679  31.571  0.00  0.00    +0.077 C 
ATOM      9  C   UNL A   1     -25.189   0.773  32.028  0.00  0.00    +0.022 C 
ATOM     10  C   UNL A   1     -25.336   0.684  33.544  0.00  0.00    +0.021 C 
ATOM     11  C   UNL A   1     -24.829  -0.715  33.905  0.00  0.00    +0.089 C 
ATOM     12  N   UNL A   1     -24.758  -1.481  32.646  0.00  0.00    -0.219 NA
BRANCH   9  13
ATOM     13  C   UNL A   1     -24.776   2.016  31.221  0.00  0.00    +0.031 C 
BRANCH  13  19
ATOM     14  C   UNL A   1     -26.668   5.971  31.995  0.00  0.00    +0.123 C 
ATOM     15  C   UNL A   1     -27.258   5.397  30.893  0.00  0.00    +0.033 C 
ATOM     16  C   UNL A   1     -24.444   7.003  32.592  0.00  0.00    +0.016 C 
ATOM     17  C   UNL A   1     -25.235   5.791  32.126  0.00  0.00    +0.118 C 
ATOM     18  C   UNL A   1     -27.149   4.267  30.435  0.00  0.00    +0.003 C 
ATOM     19  C   UNL A   1     -25.307   3.392  31.432  0.00  0.00    +0.013 C 
ATOM     20  C   UNL A   1     -24.597   4.535  31.926  0.00  0.00    +0.176 C 
ATOM     21  C   UNL A   1     -26.546   3.438  31.115  0.00  0.00    -0.001 C 
ATOM     22  O   UNL A   1     -23.311   4.290  32.202  0.00  0.00    -0.291 OA
BRANCH  14  23
ATOM     23  O   UNL A   1     -27.563   6.549  32.959  0.00  0.00    -0.475 OA
ATOM     24  C   UNL A   1     -28.961   6.718  32.796  0.00  0.00    +0.252 C 
ENDBRANCH  14  23
ENDBRANCH  13  19
ENDBRANCH   9  13
ENDBRANCH   1   8
BRANCH   1  25
ATOM     25  C   UNL A   1     -25.204  -0.120  28.952  0.00  0.00    +0.032 C 
BRANCH  25  28
ATOM     26  C   UNL A   1     -22.775   0.680  28.685  0.00  0.00    -0.005 C 
ATOM     27  C   UNL A   1     -24.285   1.452  26.890  0.00  0.00    -0.019 C 
ATOM     28  C   UNL A   1     -24.096   0.692  28.178  0.00  0.00    -0.025 C 
ATOM     29  C   UNL A   1     -21.904   1.974  26.778  0.00  0.00    -0.000 C 
ATOM     30  C   UNL A   1     -23.196   2.055  26.216  0.00  0.00    -0.004 C 
ATOM     31  C   UNL A   1     -21.689   1.274  27.991  0.00  0.00    -0.000 C 
BRANCH  27  32
ATOM     32  C   UNL A   1     -25.688   1.614  26.461  0.00  0.00    +0.092 C 
ATOM     33  C   UNL A   1     -26.250   2.920  26.395  0.00  0.00    +0.059 C 
ATOM     34  C   UNL A   1     -27.438   3.091  25.645  0.00  0.00    +0.102 C 
ATOM     35  N   UNL A   1     -28.075   2.089  25.003  0.00  0.00    -0.212 NA
ATOM     36  C   UNL A   1     -27.543   0.849  25.079  0.00  0.00    +0.234 C 
ATOM     37  C   UNL A   1     -26.354   0.576  25.777  0.00  0.00    +0.244 C 
ATOM     38  F   UNL A   1     -25.860  -0.681  25.795  0.00  0.00    -0.227 F 
BRANCH  33  39
ATOM     39  C   UNL A   1     -25.642   4.093  27.123  0.00  0.00    +0.263 C 
ATOM     40  N   UNL A   1     -25.614   5.252  26.449  0.00  0.00    -0.200 NA
ATOM     41  C   UNL A   1     -25.026   6.479  26.963  0.00  0.00    +0.139 C 
ATOM     42  O   UNL A   1     -25.143   3.966  28.243  0.00  0.00    -0.269 OA
ENDBRANCH  33  39
BRANCH  36  43
ATOM     43  O   UNL A   1     -28.193  -0.208  24.477  0.00  0.00    -0.459 OA
BRANCH  43  44
ATOM     44  C   UNL A   1     -29.460   0.005  23.866  0.00  0.00    +0.242 C 
BRANCH  44  45
ATOM     45  C   UNL A   1     -30.065  -1.377  23.573  0.00  0.00    +0.229 C 
ATOM     46  O   UNL A   1     -30.729  -1.878  24.721  0.00  0.00    -0.216 OA
ENDBRANCH  44  45
ENDBRANCH  43  44
ENDBRANCH  36  43
ENDBRANCH  27  32
ENDBRANCH  25  28
ENDBRANCH   1  25
TORSDOF 12
