MODEL 521
MODEL 1
REMARK VINA RESULT:    -6.888      0.000      0.000
REMARK INTER + INTRA:          -8.852
REMARK INTER:                  -8.096
REMARK INTRA:                  -0.756
REMARK UNBOUND:                -0.756
REMARK  Name = No_521-gen_results/8p0m/2024-11-27-11-27-31/
REMARK  3 active torsions:
REMARK  status: ('A' for Active; 'I' for Inactive)
REMARK    1  A    between atoms: C_2  and  C_12
REMARK    2  A    between atoms: C_5  and  C_8
REMARK    3  A    between atoms: C_17  and  C_18
REMARK                            x       y       z     vdW  Elec       q    Type
REMARK                         _______ _______ _______ _____ _____    ______ ____
ROOT
ATOM      1  C   UNL A   1     -23.548  -0.263  29.230  0.00  0.00    +0.060 A 
ATOM      2  C   UNL A   1     -24.253  -1.033  28.620  0.00  0.00    +0.038 A 
ATOM      3  C   UNL A   1     -24.874  -0.760  27.413  0.00  0.00    +0.141 A 
ATOM      4  C   UNL A   1     -24.634   0.522  26.836  0.00  0.00    +0.036 A 
ATOM      5  C   UNL A   1     -23.725   1.295  27.450  0.00  0.00    +0.083 A 
ATOM      6  C   UNL A   1     -23.154   0.936  28.564  0.00  0.00    +0.018 A 
ATOM      7  F   UNL A   1     -25.726  -1.591  26.797  0.00  0.00    -0.204 F 
ATOM      8 CL   UNL A   1     -22.776  -0.750  30.729  0.00  0.00    -0.082 Cl
ENDROOT
BRANCH   2   9
ATOM      9  C   UNL A   1     -24.459  -2.418  29.361  0.00  0.00    +0.006 A 
ATOM     10  C   UNL A   1     -23.749  -3.564  28.907  0.00  0.00    +0.000 A 
ATOM     11  C   UNL A   1     -24.399  -4.743  28.743  0.00  0.00    +0.000 A 
ATOM     12  C   UNL A   1     -25.643  -4.924  29.362  0.00  0.00    +0.000 A 
ATOM     13  C   UNL A   1     -26.369  -3.789  29.793  0.00  0.00    +0.003 A 
ATOM     14  C   UNL A   1     -25.789  -2.668  29.709  0.00  0.00    +0.035 A 
BRANCH  14  15
ATOM     15  C   UNL A   1     -26.078  -2.077  30.526  0.00  0.00    +0.173 C 
ATOM     16  O   UNL A   1     -26.452  -0.915  30.952  0.00  0.00    -0.291 OA
ATOM     17  C   UNL A   1     -27.663  -2.352  30.749  0.00  0.00    +0.077 C 
ENDBRANCH  14  15
ENDBRANCH   2   9
BRANCH   5  18
ATOM     18  C   UNL A   1     -23.484   2.606  26.802  0.00  0.00    +0.388 C 
ATOM     19  O   UNL A   1     -23.063   2.657  25.740  0.00  0.00    -0.241 OA
ATOM     20  O   UNL A   1     -24.012   3.676  27.314  0.00  0.00    -0.241 OA
ENDBRANCH   5  18
TORSDOF 3
ENDMDL
ENDMDL
