REMARK  Name = outputs/IAG933/test6/raw/output_522_IAG933_linker_design_.xyz
REMARK  13 active torsions:
REMARK  status: ('A' for Active; 'I' for Inactive)
REMARK    1  A    between atoms: C_1  and  C_2
REMARK    2  A    between atoms: C_1  and  C_8
REMARK    3  A    between atoms: C_1  and  C_44
REMARK    4  A    between atoms: C_13  and  C_43
REMARK    5  A    between atoms: C_14  and  C_15
REMARK    6  A    between atoms: C_21  and  O_22
REMARK    7  A    between atoms: O_22  and  C_23
REMARK    8  A    between atoms: C_23  and  C_24
REMARK    9  A    between atoms: N_31  and  C_44
REMARK   10  A    between atoms: C_35  and  C_42
REMARK   11  A    between atoms: C_37  and  C_44
REMARK   12  A    between atoms: C_41  and  C_45
REMARK   13  A    between atoms: C_42  and  C_45
REMARK                            x       y       z     vdW  Elec       q    Type
REMARK                         _______ _______ _______ _____ _____    ______ ____
ROOT
ATOM      1  C   UNL A   1     -25.264  -0.202  28.826  0.00  0.00    +0.140 C 
ENDROOT
BRANCH   1   5
ATOM      2  C   UNL A   1     -21.805   1.135  28.415  0.00  0.00    +0.101 C 
ATOM      3  F   UNL A   1     -22.828   2.392  25.207  0.00  0.00    -0.204 F 
ATOM      4  C   UNL A   1     -22.963   1.923  26.497  0.00  0.00    +0.143 C 
ATOM      5  C   UNL A   1     -24.188   0.697  28.305  0.00  0.00    +0.081 C 
ATOM      6  N   UNL A   1     -23.035   0.662  28.988  0.00  0.00    -0.246 NA
ATOM      7  C   UNL A   1     -21.762   1.792  27.176  0.00  0.00    +0.050 C 
ATOM      8  C   UNL A   1     -24.262   1.435  27.077  0.00  0.00    +0.045 C 
BRANCH   8   9
ATOM      9  C   UNL A   1     -25.688   1.614  26.461  0.00  0.00    +0.041 C 
ATOM     10  C   UNL A   1     -26.250   2.920  26.395  0.00  0.00    +0.077 C 
ATOM     11  C   UNL A   1     -27.438   3.091  25.645  0.00  0.00    +0.107 C 
ATOM     12  N   UNL A   1     -28.075   2.089  25.003  0.00  0.00    -0.208 NA
ATOM     13  C   UNL A   1     -27.543   0.849  25.079  0.00  0.00    +0.253 C 
ATOM     14  C   UNL A   1     -26.354   0.576  25.777  0.00  0.00    +0.193 C 
ATOM     15  F   UNL A   1     -25.860  -0.681  25.795  0.00  0.00    -0.199 F 
BRANCH  10  16
ATOM     16  C   UNL A   1     -25.642   4.093  27.123  0.00  0.00    +0.266 C 
ATOM     17  N   UNL A   1     -25.614   5.252  26.449  0.00  0.00    -0.200 NA
ATOM     18  C   UNL A   1     -25.026   6.479  26.963  0.00  0.00    +0.139 C 
ATOM     19  O   UNL A   1     -25.143   3.966  28.243  0.00  0.00    -0.268 OA
ENDBRANCH  10  16
BRANCH  13  20
ATOM     20  O   UNL A   1     -28.193  -0.208  24.477  0.00  0.00    -0.456 OA
BRANCH  20  21
ATOM     21  C   UNL A   1     -29.460   0.005  23.866  0.00  0.00    +0.243 C 
BRANCH  21  22
ATOM     22  C   UNL A   1     -30.065  -1.377  23.573  0.00  0.00    +0.229 C 
ATOM     23  O   UNL A   1     -30.729  -1.878  24.721  0.00  0.00    -0.216 OA
ENDBRANCH  21  22
ENDBRANCH  20  21
ENDBRANCH  13  20
ENDBRANCH   8   9
ENDBRANCH   1   5
BRANCH   1  24
ATOM     24  N   UNL A   1     -26.632   0.263  28.778  0.00  0.00    -0.201 NA
ATOM     25  O   UNL A   1     -28.088  -1.129  29.640  0.00  0.00    -0.273 OA
ATOM     26  C   UNL A   1     -27.860  -0.056  29.175  0.00  0.00    +0.244 C 
BRANCH  26  28
ATOM     27  C   UNL A   1     -29.680   1.314  27.644  0.00  0.00    +0.013 C 
ATOM     28  C   UNL A   1     -29.037   1.062  29.021  0.00  0.00    +0.114 C 
BRANCH  28  29
ATOM     29  C   UNL A   1     -28.532   2.545  29.008  0.00  0.00    +0.221 C 
ATOM     30  O   UNL A   1     -27.720   2.659  30.201  0.00  0.00    -0.217 OA
BRANCH  29  34
ATOM     31  F   UNL A   1     -29.258   4.651  30.023  0.00  0.00    -0.202 F 
ATOM     32  C   UNL A   1     -30.883   2.921  29.828  0.00  0.00    +0.075 C 
ATOM     33  F   UNL A   1     -30.003   4.364  28.010  0.00  0.00    -0.202 F 
ATOM     34  C   UNL A   1     -29.674   3.634  29.150  0.00  0.00    +0.292 C 
ENDBRANCH  29  34
ENDBRANCH  28  29
ENDBRANCH  26  28
ENDBRANCH   1  24
BRANCH   1  35
ATOM     35  C   UNL A   1     -24.855  -1.012  30.143  0.00  0.00    +0.064 C 
BRANCH  35  36
ATOM     36  C   UNL A   1     -24.973  -2.505  29.788  0.00  0.00    -0.019 C 
ATOM     37  C   UNL A   1     -23.906  -3.173  29.146  0.00  0.00    -0.004 C 
ATOM     38  C   UNL A   1     -23.989  -4.549  28.853  0.00  0.00    -0.000 C 
ATOM     39  C   UNL A   1     -25.137  -5.280  29.205  0.00  0.00    -0.000 C 
ATOM     40  C   UNL A   1     -26.232  -4.611  29.784  0.00  0.00    -0.000 C 
ATOM     41  C   UNL A   1     -26.155  -3.232  30.065  0.00  0.00    -0.004 C 
ENDBRANCH  35  36
BRANCH  35  42
ATOM     42  C   UNL A   1     -25.387  -0.679  31.571  0.00  0.00    +0.079 C 
ATOM     43  C   UNL A   1     -25.189   0.773  32.028  0.00  0.00    +0.019 C 
ATOM     44  C   UNL A   1     -25.336   0.684  33.544  0.00  0.00    +0.020 C 
ATOM     45  C   UNL A   1     -24.829  -0.715  33.905  0.00  0.00    +0.089 C 
ATOM     46  N   UNL A   1     -24.758  -1.481  32.646  0.00  0.00    -0.219 NA
ENDBRANCH  35  42
ENDBRANCH   1  35
TORSDOF 13
