REMARK  Name = outputs/IAG933/test6/raw/output_5226_IAG933_linker_design_.xyz
REMARK  12 active torsions:
REMARK  status: ('A' for Active; 'I' for Inactive)
REMARK    1  A    between atoms: C_1  and  C_2
REMARK    2  A    between atoms: C_1  and  C_8
REMARK    3  A    between atoms: C_1  and  C_42
REMARK    4  A    between atoms: C_13  and  C_28
REMARK    5  A    between atoms: C_14  and  C_15
REMARK    6  A    between atoms: C_21  and  O_22
REMARK    7  A    between atoms: O_22  and  C_23
REMARK    8  A    between atoms: C_23  and  C_24
REMARK    9  A    between atoms: C_29  and  N_38
REMARK   10  A    between atoms: C_29  and  C_45
REMARK   11  A    between atoms: C_30  and  C_34
REMARK   12  A    between atoms: N_39  and  C_45
REMARK                            x       y       z     vdW  Elec       q    Type
REMARK                         _______ _______ _______ _____ _____    ______ ____
ROOT
ATOM      1  C   UNL A   1     -24.685   1.317  27.387  0.00  0.00    +0.107 C 
ATOM      2  F   UNL A   1     -21.689   2.403  25.746  0.00  0.00    -0.202 F 
ATOM      3  C   UNL A   1     -22.400   1.038  28.119  0.00  0.00    +0.232 C 
ATOM      4  O   UNL A   1     -22.149  -0.248  30.022  0.00  0.00    -0.292 OA
ATOM      5  N   UNL A   1     -25.241   0.796  28.604  0.00  0.00    -0.258 NA
ATOM      6  C   UNL A   1     -23.324   1.490  27.150  0.00  0.00    +0.041 C 
ATOM      7  C   UNL A   1     -22.898   2.192  25.996  0.00  0.00    +0.163 C 
ATOM      8  C   UNL A   1     -24.346  -0.002  29.274  0.00  0.00    +0.124 C 
ATOM      9  O   UNL A   1     -21.068   1.232  28.003  0.00  0.00    -0.210 OA
ATOM     10  C   UNL A   1     -22.950   0.228  29.227  0.00  0.00    +0.200 C 
ENDROOT
BRANCH   1  11
ATOM     11  C   UNL A   1     -25.688   1.614  26.461  0.00  0.00    +0.034 C 
ATOM     12  C   UNL A   1     -26.250   2.920  26.395  0.00  0.00    +0.074 C 
ATOM     13  C   UNL A   1     -27.438   3.091  25.645  0.00  0.00    +0.106 C 
ATOM     14  N   UNL A   1     -28.075   2.089  25.003  0.00  0.00    -0.208 NA
ATOM     15  C   UNL A   1     -27.543   0.849  25.079  0.00  0.00    +0.253 C 
ATOM     16  C   UNL A   1     -26.354   0.576  25.777  0.00  0.00    +0.191 C 
ATOM     17  F   UNL A   1     -25.860  -0.681  25.795  0.00  0.00    -0.200 F 
BRANCH  12  18
ATOM     18  C   UNL A   1     -25.642   4.093  27.123  0.00  0.00    +0.266 C 
ATOM     19  N   UNL A   1     -25.614   5.252  26.449  0.00  0.00    -0.200 NA
ATOM     20  C   UNL A   1     -25.026   6.479  26.963  0.00  0.00    +0.139 C 
ATOM     21  O   UNL A   1     -25.143   3.966  28.243  0.00  0.00    -0.268 OA
ENDBRANCH  12  18
BRANCH  15  22
ATOM     22  O   UNL A   1     -28.193  -0.208  24.477  0.00  0.00    -0.456 OA
BRANCH  22  23
ATOM     23  C   UNL A   1     -29.460   0.005  23.866  0.00  0.00    +0.243 C 
BRANCH  23  24
ATOM     24  C   UNL A   1     -30.065  -1.377  23.573  0.00  0.00    +0.229 C 
ATOM     25  O   UNL A   1     -30.729  -1.878  24.721  0.00  0.00    -0.216 OA
ENDBRANCH  23  24
ENDBRANCH  22  23
ENDBRANCH  15  22
ENDBRANCH   1  11
BRANCH   8  26
ATOM     26  C   UNL A   1     -24.855  -1.012  30.143  0.00  0.00    +0.060 C 
BRANCH  26  27
ATOM     27  C   UNL A   1     -24.973  -2.505  29.788  0.00  0.00    -0.019 C 
ATOM     28  C   UNL A   1     -23.906  -3.173  29.146  0.00  0.00    -0.004 C 
ATOM     29  C   UNL A   1     -23.989  -4.549  28.853  0.00  0.00    -0.000 C 
ATOM     30  C   UNL A   1     -25.137  -5.280  29.205  0.00  0.00    -0.000 C 
ATOM     31  C   UNL A   1     -26.232  -4.611  29.784  0.00  0.00    -0.000 C 
ATOM     32  C   UNL A   1     -26.155  -3.232  30.065  0.00  0.00    -0.004 C 
ENDBRANCH  26  27
BRANCH  26  33
ATOM     33  C   UNL A   1     -25.387  -0.679  31.571  0.00  0.00    +0.079 C 
ATOM     34  C   UNL A   1     -25.189   0.773  32.028  0.00  0.00    +0.019 C 
ATOM     35  C   UNL A   1     -25.336   0.684  33.544  0.00  0.00    +0.020 C 
ATOM     36  C   UNL A   1     -24.829  -0.715  33.905  0.00  0.00    +0.089 C 
ATOM     37  N   UNL A   1     -24.758  -1.481  32.646  0.00  0.00    -0.219 NA
ENDBRANCH  26  33
ENDBRANCH   8  26
BRANCH   5  38
ATOM     38  C   UNL A   1     -26.755   1.035  29.045  0.00  0.00    +0.130 C 
BRANCH  38  39
ATOM     39  C   UNL A   1     -26.694   2.379  29.929  0.00  0.00    +0.270 C 
BRANCH  39  43
ATOM     40  C   UNL A   1     -27.058   4.810  30.929  0.00  0.00    +0.425 C 
ATOM     41  N   UNL A   1     -28.019   5.394  31.871  0.00  0.00    +0.196 NA
ATOM     42  O   UNL A   1     -28.540   3.400  30.449  0.00  0.00    +0.020 OA
ATOM     43  N   UNL A   1     -27.362   3.619  30.453  0.00  0.00    -0.055 N 
BRANCH  40  44
ATOM     44  C   UNL A   1     -25.890   5.708  30.670  0.00  0.00    +0.308 C 
ATOM     45  O   UNL A   1     -24.855   4.943  31.114  0.00  0.00    -0.206 OA
ENDBRANCH  40  44
ENDBRANCH  39  43
ENDBRANCH  38  39
ENDBRANCH   5  38
TORSDOF 12
