MODEL 522
MODEL 1
REMARK VINA RESULT:    -6.051      0.000      0.000
REMARK INTER + INTRA:          -6.865
REMARK INTER:                  -6.759
REMARK INTRA:                  -0.106
REMARK UNBOUND:                -0.106
REMARK  Name = No_522-gen_results/8p0m/2024-11-27-11-27-31/
REMARK  2 active torsions:
REMARK  status: ('A' for Active; 'I' for Inactive)
REMARK    1  A    between atoms: C_2  and  C_7
REMARK    2  A    between atoms: N_9  and  C_11
REMARK                            x       y       z     vdW  Elec       q    Type
REMARK                         _______ _______ _______ _____ _____    ______ ____
ROOT
ATOM      1  C   UNL A   1     -24.652  -0.702  28.413  0.00  0.00    +0.253 C 
ATOM      2  O   UNL A   1     -24.684  -0.355  27.301  0.00  0.00    -0.270 OA
ATOM      3  N   UNL A   1     -24.235   0.138  29.436  0.00  0.00    -0.253 N 
ATOM      4  C   UNL A   1     -23.894   1.471  29.119  0.00  0.00    +0.120 C 
ENDROOT
BRANCH   1   6
ATOM      5  C   UNL A   1     -24.042  -2.971  28.632  0.00  0.00    +0.004 A 
ATOM      6  C   UNL A   1     -24.783  -2.257  28.861  0.00  0.00    +0.054 A 
ATOM      7  C   UNL A   1     -24.351  -4.388  29.061  0.00  0.00    +0.000 A 
ATOM      8  C   UNL A   1     -25.624  -4.688  29.589  0.00  0.00    +0.000 A 
ATOM      9  C   UNL A   1     -26.175  -2.308  29.361  0.00  0.00    +0.004 A 
ATOM     10  C   UNL A   1     -26.497  -3.598  29.760  0.00  0.00    +0.000 A 
ENDBRANCH   1   6
BRANCH   3  11
ATOM     11  C   UNL A   1     -24.173  -0.290  30.831  0.00  0.00    +0.054 A 
ATOM     12  C   UNL A   1     -22.922  -0.853  31.181  0.00  0.00    +0.015 A 
ATOM     13  C   UNL A   1     -22.813  -1.276  32.521  0.00  0.00    +0.001 A 
ATOM     14  C   UNL A   1     -23.893  -1.138  33.436  0.00  0.00    +0.000 A 
ATOM     15  C   UNL A   1     -25.193  -0.108  31.717  0.00  0.00    +0.015 A 
ATOM     16  C   UNL A   1     -25.059  -0.538  33.046  0.00  0.00    +0.001 A 
ENDBRANCH   3  11
TORSDOF 2
ENDMDL
ENDMDL
