REMARK  Name = outputs/IAG933/test6/raw/output_5234_IAG933_linker_design_.xyz
REMARK  10 active torsions:
REMARK  status: ('A' for Active; 'I' for Inactive)
REMARK    1  A    between atoms: C_1  and  C_2
REMARK    2  A    between atoms: C_15  and  N_16
REMARK    3  A    between atoms: C_21  and  O_22
REMARK    4  A    between atoms: O_22  and  C_23
REMARK    5  A    between atoms: C_23  and  C_24
REMARK    6  A    between atoms: C_28  and  C_32
REMARK    7  A    between atoms: N_33  and  C_36
REMARK    8  A    between atoms: N_33  and  C_40
REMARK    9  A    between atoms: N_37  and  C_40
REMARK   10  A    between atoms: O_39  and  C_40
REMARK                            x       y       z     vdW  Elec       q    Type
REMARK                         _______ _______ _______ _____ _____    ______ ____
ROOT
ATOM      1  C   UNL A   1     -24.855  -1.012  30.143  0.00  0.00    +0.043 C 
ATOM      2  C   UNL A   1     -25.387  -0.679  31.571  0.00  0.00    +0.077 C 
ATOM      3  C   UNL A   1     -25.189   0.773  32.028  0.00  0.00    +0.018 C 
ATOM      4  C   UNL A   1     -25.336   0.684  33.544  0.00  0.00    +0.020 C 
ATOM      5  C   UNL A   1     -24.829  -0.715  33.905  0.00  0.00    +0.089 C 
ATOM      6  N   UNL A   1     -24.758  -1.481  32.646  0.00  0.00    -0.219 NA
ATOM      7  C   UNL A   1     -25.688   1.614  26.461  0.00  0.00    +0.039 C 
ATOM      8  C   UNL A   1     -26.250   2.920  26.395  0.00  0.00    +0.053 C 
ATOM      9  C   UNL A   1     -25.642   4.093  27.123  0.00  0.00    +0.212 C 
ATOM     10  O   UNL A   1     -25.143   3.966  28.243  0.00  0.00    -0.443 OA
ATOM     11  C   UNL A   1     -27.438   3.091  25.645  0.00  0.00    +0.159 C 
ATOM     12  N   UNL A   1     -28.075   2.089  25.003  0.00  0.00    -0.234 NA
ATOM     13  C   UNL A   1     -27.543   0.849  25.079  0.00  0.00    +0.234 C 
ATOM     14  C   UNL A   1     -26.354   0.576  25.777  0.00  0.00    +0.259 C 
ATOM     15  F   UNL A   1     -25.860  -0.681  25.795  0.00  0.00    -0.222 F 
ATOM     16  C   UNL A   1     -25.258   1.369  28.588  0.00  0.00    +0.026 C 
ATOM     17  C   UNL A   1     -25.587   0.003  29.321  0.00  0.00    +0.036 C 
ATOM     18  C   UNL A   1     -26.184   3.158  30.198  0.00  0.00    +0.090 C 
ATOM     19  C   UNL A   1     -26.253   1.777  31.535  0.00  0.00    +0.012 C 
ATOM     20  C   UNL A   1     -25.401   2.823  29.111  0.00  0.00    +0.124 C 
ATOM     21  C   UNL A   1     -24.796   1.457  27.490  0.00  0.00    +0.087 C 
ENDROOT
BRANCH   1  22
ATOM     22  C   UNL A   1     -24.973  -2.505  29.788  0.00  0.00    -0.021 C 
ATOM     23  C   UNL A   1     -23.906  -3.173  29.146  0.00  0.00    -0.004 C 
ATOM     24  C   UNL A   1     -23.989  -4.549  28.853  0.00  0.00    -0.000 C 
ATOM     25  C   UNL A   1     -25.137  -5.280  29.205  0.00  0.00    -0.000 C 
ATOM     26  C   UNL A   1     -26.232  -4.611  29.784  0.00  0.00    -0.000 C 
ATOM     27  C   UNL A   1     -26.155  -3.232  30.065  0.00  0.00    -0.004 C 
ENDBRANCH   1  22
BRANCH   9  28
ATOM     28  N   UNL A   1     -25.614   5.252  26.449  0.00  0.00    -0.203 NA
ATOM     29  C   UNL A   1     -25.026   6.479  26.963  0.00  0.00    +0.139 C 
ENDBRANCH   9  28
BRANCH  18  30
ATOM     30  C   UNL A   1     -25.877   4.465  30.806  0.00  0.00    +0.190 C 
ATOM     31  O   UNL A   1     -26.632   5.539  30.297  0.00  0.00    -0.220 OA
ENDBRANCH  18  30
BRANCH  21  33
ATOM     32  O   UNL A   1     -23.146   2.783  26.289  0.00  0.00    -0.081 OA
ATOM     33  N   UNL A   1     -23.437   1.714  27.232  0.00  0.00    -0.164 N 
BRANCH  33  34
ATOM     34  C   UNL A   1     -22.736   1.759  28.478  0.00  0.00    +0.340 C 
BRANCH  34  35
ATOM     35  N   UNL A   1     -22.999   0.616  29.376  0.00  0.00    +0.007 NA
ATOM     36  O   UNL A   1     -22.733  -0.524  28.858  0.00  0.00    -0.096 OA
ENDBRANCH  34  35
BRANCH  34  38
ATOM     37  C   UNL A   1     -20.968   1.612  27.085  0.00  0.00    +0.178 C 
ATOM     38  O   UNL A   1     -21.338   1.431  28.333  0.00  0.00    -0.316 OA
ENDBRANCH  34  38
ENDBRANCH  33  34
ENDBRANCH  21  33
BRANCH  13  39
ATOM     39  O   UNL A   1     -28.193  -0.208  24.477  0.00  0.00    -0.459 OA
BRANCH  39  40
ATOM     40  C   UNL A   1     -29.460   0.005  23.866  0.00  0.00    +0.242 C 
BRANCH  40  41
ATOM     41  C   UNL A   1     -30.065  -1.377  23.573  0.00  0.00    +0.229 C 
ATOM     42  O   UNL A   1     -30.729  -1.878  24.721  0.00  0.00    -0.216 OA
ENDBRANCH  40  41
ENDBRANCH  39  40
ENDBRANCH  13  39
TORSDOF 10
