REMARK  Name = outputs/IAG933/test6/raw/output_5237_IAG933_linker_design_.xyz
REMARK  12 active torsions:
REMARK  status: ('A' for Active; 'I' for Inactive)
REMARK    1  A    between atoms: C_1  and  C_2
REMARK    2  A    between atoms: C_1  and  C_8
REMARK    3  A    between atoms: C_1  and  N_35
REMARK    4  A    between atoms: C_13  and  C_30
REMARK    5  A    between atoms: C_14  and  C_15
REMARK    6  A    between atoms: C_21  and  O_22
REMARK    7  A    between atoms: O_22  and  C_23
REMARK    8  A    between atoms: C_23  and  C_24
REMARK    9  A    between atoms: C_28  and  C_38
REMARK   10  A    between atoms: C_28  and  C_44
REMARK   11  A    between atoms: N_35  and  C_39
REMARK   12  A    between atoms: N_35  and  C_44
REMARK                            x       y       z     vdW  Elec       q    Type
REMARK                         _______ _______ _______ _____ _____    ______ ____
ROOT
ATOM      1  O   UNL A   1     -23.597   2.127  25.236  0.00  0.00    -0.284 OA
ATOM      2  C   UNL A   1     -24.544   1.212  27.134  0.00  0.00    +0.057 C 
ATOM      3  C   UNL A   1     -22.197   1.650  27.106  0.00  0.00    +0.179 C 
ATOM      4  C   UNL A   1     -23.108   0.485  28.931  0.00  0.00    +0.017 C 
ATOM      5  C   UNL A   1     -24.390   0.528  28.371  0.00  0.00    +0.051 C 
ATOM      6  C   UNL A   1     -23.468   1.683  26.527  0.00  0.00    +0.224 C 
ATOM      7  C   UNL A   1     -22.036   1.066  28.328  0.00  0.00    +0.034 C 
ATOM      8  F   UNL A   1     -21.152   2.120  26.436  0.00  0.00    -0.201 F 
ENDROOT
BRANCH   2   9
ATOM      9  C   UNL A   1     -25.688   1.614  26.461  0.00  0.00    +0.042 C 
ATOM     10  C   UNL A   1     -26.250   2.920  26.395  0.00  0.00    +0.077 C 
ATOM     11  C   UNL A   1     -27.438   3.091  25.645  0.00  0.00    +0.107 C 
ATOM     12  N   UNL A   1     -28.075   2.089  25.003  0.00  0.00    -0.208 NA
ATOM     13  C   UNL A   1     -27.543   0.849  25.079  0.00  0.00    +0.253 C 
ATOM     14  C   UNL A   1     -26.354   0.576  25.777  0.00  0.00    +0.193 C 
ATOM     15  F   UNL A   1     -25.860  -0.681  25.795  0.00  0.00    -0.199 F 
BRANCH  10  16
ATOM     16  C   UNL A   1     -25.642   4.093  27.123  0.00  0.00    +0.266 C 
ATOM     17  N   UNL A   1     -25.614   5.252  26.449  0.00  0.00    -0.200 NA
ATOM     18  C   UNL A   1     -25.026   6.479  26.963  0.00  0.00    +0.139 C 
ATOM     19  O   UNL A   1     -25.143   3.966  28.243  0.00  0.00    -0.268 OA
ENDBRANCH  10  16
BRANCH  13  20
ATOM     20  O   UNL A   1     -28.193  -0.208  24.477  0.00  0.00    -0.456 OA
BRANCH  20  21
ATOM     21  C   UNL A   1     -29.460   0.005  23.866  0.00  0.00    +0.243 C 
BRANCH  21  22
ATOM     22  C   UNL A   1     -30.065  -1.377  23.573  0.00  0.00    +0.229 C 
ATOM     23  O   UNL A   1     -30.729  -1.878  24.721  0.00  0.00    -0.216 OA
ENDBRANCH  21  22
ENDBRANCH  20  21
ENDBRANCH  13  20
ENDBRANCH   2   9
BRANCH   5  24
ATOM     24  N   UNL A   1     -25.359  -0.126  29.098  0.00  0.00    -0.304 N 
BRANCH  24  25
ATOM     25  C   UNL A   1     -24.855  -1.012  30.143  0.00  0.00    +0.111 C 
BRANCH  25  26
ATOM     26  C   UNL A   1     -24.973  -2.505  29.788  0.00  0.00    -0.003 C 
ATOM     27  C   UNL A   1     -23.906  -3.173  29.146  0.00  0.00    -0.003 C 
ATOM     28  C   UNL A   1     -23.989  -4.549  28.853  0.00  0.00    -0.000 C 
ATOM     29  C   UNL A   1     -25.137  -5.280  29.205  0.00  0.00    -0.000 C 
ATOM     30  C   UNL A   1     -26.232  -4.611  29.784  0.00  0.00    -0.000 C 
ATOM     31  C   UNL A   1     -26.155  -3.232  30.065  0.00  0.00    -0.003 C 
ENDBRANCH  25  26
BRANCH  25  32
ATOM     32  C   UNL A   1     -25.387  -0.679  31.571  0.00  0.00    +0.095 C 
ATOM     33  C   UNL A   1     -25.189   0.773  32.028  0.00  0.00    +0.021 C 
ATOM     34  C   UNL A   1     -25.336   0.684  33.544  0.00  0.00    +0.020 C 
ATOM     35  C   UNL A   1     -24.829  -0.715  33.905  0.00  0.00    +0.089 C 
ATOM     36  N   UNL A   1     -24.758  -1.481  32.646  0.00  0.00    -0.217 NA
ENDBRANCH  25  32
ENDBRANCH  24  25
BRANCH  24  37
ATOM     37  C   UNL A   1     -26.897  -0.098  29.184  0.00  0.00    +0.096 C 
BRANCH  37  38
ATOM     38  C   UNL A   1     -27.890   0.453  30.393  0.00  0.00    +0.051 C 
BRANCH  38  43
ATOM     39  O   UNL A   1     -29.095  -0.357  32.684  0.00  0.00    -0.287 OA
ATOM     40  C   UNL A   1     -29.768   1.872  33.398  0.00  0.00    +0.042 C 
ATOM     41  C   UNL A   1     -28.489   3.716  32.453  0.00  0.00    -0.000 C 
ATOM     42  C   UNL A   1     -29.413   3.252  33.391  0.00  0.00    +0.003 C 
ATOM     43  C   UNL A   1     -28.359   1.488  31.456  0.00  0.00    +0.018 C 
ATOM     44  C   UNL A   1     -28.015   2.841  31.448  0.00  0.00    -0.001 C 
ATOM     45  C   UNL A   1     -29.115   0.982  32.523  0.00  0.00    +0.192 C 
ENDBRANCH  38  43
ENDBRANCH  37  38
ENDBRANCH  24  37
ENDBRANCH   5  24
TORSDOF 12
