REMARK  Name = outputs/IAG933/test6/raw/output_5238_IAG933_linker_design_.xyz
REMARK  14 active torsions:
REMARK  status: ('A' for Active; 'I' for Inactive)
REMARK    1  A    between atoms: C_1  and  C_2
REMARK    2  A    between atoms: C_1  and  C_8
REMARK    3  A    between atoms: C_1  and  C_34
REMARK    4  A    between atoms: C_13  and  C_29
REMARK    5  A    between atoms: C_14  and  C_15
REMARK    6  A    between atoms: C_21  and  O_22
REMARK    7  A    between atoms: O_22  and  C_23
REMARK    8  A    between atoms: C_23  and  C_24
REMARK    9  A    between atoms: N_31  and  C_35
REMARK   10  A    between atoms: N_31  and  C_39
REMARK   11  A    between atoms: C_33  and  C_40
REMARK   12  A    between atoms: C_34  and  C_39
REMARK   13  A    between atoms: C_35  and  C_42
REMARK   14  A    between atoms: C_40  and  C_42
REMARK                            x       y       z     vdW  Elec       q    Type
REMARK                         _______ _______ _______ _____ _____    ______ ____
ROOT
ATOM      1  C   UNL A   1     -24.524   1.357  27.186  0.00  0.00    -0.005 C 
ATOM      2  C   UNL A   1     -22.647   0.765  28.542  0.00  0.00    +0.182 C 
ATOM      3  C   UNL A   1     -21.721   1.524  27.824  0.00  0.00    +0.042 C 
ATOM      4  F   UNL A   1     -22.238  -0.280  29.180  0.00  0.00    -0.235 F 
ATOM      5  C   UNL A   1     -22.035   2.014  26.554  0.00  0.00    +0.029 C 
ATOM      6  C   UNL A   1     -24.189   1.029  28.612  0.00  0.00    +0.136 C 
ATOM      7  C   UNL A   1     -23.433   1.939  26.252  0.00  0.00    -0.029 C 
ENDROOT
BRANCH   1   8
ATOM      8  C   UNL A   1     -25.688   1.614  26.461  0.00  0.00    +0.035 C 
ATOM      9  C   UNL A   1     -26.250   2.920  26.395  0.00  0.00    +0.076 C 
ATOM     10  C   UNL A   1     -27.438   3.091  25.645  0.00  0.00    +0.107 C 
ATOM     11  N   UNL A   1     -28.075   2.089  25.003  0.00  0.00    -0.208 NA
ATOM     12  C   UNL A   1     -27.543   0.849  25.079  0.00  0.00    +0.253 C 
ATOM     13  C   UNL A   1     -26.354   0.576  25.777  0.00  0.00    +0.193 C 
ATOM     14  F   UNL A   1     -25.860  -0.681  25.795  0.00  0.00    -0.199 F 
BRANCH   9  15
ATOM     15  C   UNL A   1     -25.642   4.093  27.123  0.00  0.00    +0.266 C 
ATOM     16  N   UNL A   1     -25.614   5.252  26.449  0.00  0.00    -0.200 NA
ATOM     17  C   UNL A   1     -25.026   6.479  26.963  0.00  0.00    +0.139 C 
ATOM     18  O   UNL A   1     -25.143   3.966  28.243  0.00  0.00    -0.268 OA
ENDBRANCH   9  15
BRANCH  12  19
ATOM     19  O   UNL A   1     -28.193  -0.208  24.477  0.00  0.00    -0.456 OA
BRANCH  19  20
ATOM     20  C   UNL A   1     -29.460   0.005  23.866  0.00  0.00    +0.243 C 
BRANCH  20  21
ATOM     21  C   UNL A   1     -30.065  -1.377  23.573  0.00  0.00    +0.229 C 
ATOM     22  O   UNL A   1     -30.729  -1.878  24.721  0.00  0.00    -0.216 OA
ENDBRANCH  20  21
ENDBRANCH  19  20
ENDBRANCH  12  19
ENDBRANCH   1   8
BRANCH   6  24
ATOM     23  O   UNL A   1     -26.565   0.512  29.234  0.00  0.00    -0.221 OA
ATOM     24  C   UNL A   1     -25.275  -0.096  28.954  0.00  0.00    +0.178 C 
BRANCH  24  25
ATOM     25  C   UNL A   1     -24.855  -1.012  30.143  0.00  0.00    +0.070 C 
BRANCH  25  26
ATOM     26  C   UNL A   1     -24.973  -2.505  29.788  0.00  0.00    -0.019 C 
ATOM     27  C   UNL A   1     -23.906  -3.173  29.146  0.00  0.00    -0.004 C 
ATOM     28  C   UNL A   1     -23.989  -4.549  28.853  0.00  0.00    -0.000 C 
ATOM     29  C   UNL A   1     -25.137  -5.280  29.205  0.00  0.00    -0.000 C 
ATOM     30  C   UNL A   1     -26.232  -4.611  29.784  0.00  0.00    -0.000 C 
ATOM     31  C   UNL A   1     -26.155  -3.232  30.065  0.00  0.00    -0.004 C 
ENDBRANCH  25  26
BRANCH  25  32
ATOM     32  C   UNL A   1     -25.387  -0.679  31.571  0.00  0.00    +0.079 C 
ATOM     33  C   UNL A   1     -25.189   0.773  32.028  0.00  0.00    +0.019 C 
ATOM     34  C   UNL A   1     -25.336   0.684  33.544  0.00  0.00    +0.020 C 
ATOM     35  C   UNL A   1     -24.829  -0.715  33.905  0.00  0.00    +0.089 C 
ATOM     36  N   UNL A   1     -24.758  -1.481  32.646  0.00  0.00    -0.219 NA
ENDBRANCH  25  32
ENDBRANCH  24  25
ENDBRANCH   6  24
BRANCH   6  37
ATOM     37  N   UNL A   1     -24.191   1.816  29.884  0.00  0.00    -0.211 NA
BRANCH  37  38
ATOM     38  C   UNL A   1     -24.571   2.883  30.648  0.00  0.00    +0.089 C 
BRANCH  38  39
ATOM     39  C   UNL A   1     -25.594   3.714  30.962  0.00  0.00    +0.021 C 
BRANCH  39  40
ATOM     40  C   UNL A   1     -26.120   3.788  32.208  0.00  0.00    +0.037 C 
BRANCH  40  41
ATOM     41  C   UNL A   1     -25.205   4.086  33.290  0.00  0.00    +0.182 C 
ATOM     42  O   UNL A   1     -23.945   4.434  32.818  0.00  0.00    -0.220 OA
ENDBRANCH  40  41
ENDBRANCH  39  40
ENDBRANCH  38  39
ENDBRANCH  37  38
ENDBRANCH   6  37
TORSDOF 14
