MODEL 523
MODEL 1
REMARK VINA RESULT:    -7.187      0.000      0.000
REMARK INTER + INTRA:          -9.516
REMARK INTER:                  -8.868
REMARK INTRA:                  -0.648
REMARK UNBOUND:                -0.648
REMARK  Name = No_523-gen_results/8p0m/2024-11-27-11-27-31/
REMARK  4 active torsions:
REMARK  status: ('A' for Active; 'I' for Inactive)
REMARK    1  A    between atoms: C_1  and  C_2
REMARK    2  A    between atoms: C_1  and  N_8
REMARK    3  A    between atoms: C_5  and  C_12
REMARK    4  A    between atoms: C_11  and  C_15
REMARK                            x       y       z     vdW  Elec       q    Type
REMARK                         _______ _______ _______ _____ _____    ______ ____
ROOT
ATOM      1  N   UNL A   1     -23.764   0.324  28.029  0.00  0.00    -0.265 NA
ATOM      2  C   UNL A   1     -23.954  -0.720  28.160  0.00  0.00    +0.096 C 
ATOM      3  C   UNL A   1     -24.073  -1.622  28.672  0.00  0.00    -0.020 C 
ATOM      4  C   UNL A   1     -24.168  -2.968  29.056  0.00  0.00    +0.043 C 
ATOM      5  C   UNL A   1     -23.539   1.284  29.228  0.00  0.00    +0.073 C 
ATOM      6  C   UNL A   1     -24.386   0.993  30.306  0.00  0.00    +0.017 C 
ATOM      7  C   UNL A   1     -24.526  -1.002  30.369  0.00  0.00    +0.024 C 
ATOM      8  C   UNL A   1     -24.328   1.357  31.649  0.00  0.00    +0.001 C 
ATOM      9  C   UNL A   1     -24.903  -1.508  31.459  0.00  0.00    +0.004 C 
ATOM     10  C   UNL A   1     -24.927  -0.549  31.197  0.00  0.00    +0.000 C 
ATOM     11  C   UNL A   1     -24.881   0.416  32.507  0.00  0.00    +0.000 C 
ENDROOT
BRANCH   4  12
ATOM     12  C   UNL A   1     -24.549  -4.146  29.122  0.00  0.00    -0.051 C 
ATOM     13  C   UNL A   1     -24.931  -5.286  29.133  0.00  0.00    -0.009 C 
ENDBRANCH   4  12
BRANCH   1  14
ATOM     14  C   UNL A   1     -23.716   1.060  26.855  0.00  0.00    +0.099 C 
BRANCH  14  15
ATOM     15  C   UNL A   1     -24.706   1.155  26.168  0.00  0.00    -0.006 A 
ATOM     16  C   UNL A   1     -25.650   2.152  26.319  0.00  0.00    -0.003 A 
ATOM     17  C   UNL A   1     -26.889   2.264  25.573  0.00  0.00    +0.004 A 
ATOM     18  C   UNL A   1     -27.183   1.292  24.592  0.00  0.00    +0.057 A 
ATOM     19  C   UNL A   1     -26.212   0.238  24.433  0.00  0.00    +0.004 A 
ATOM     20  C   UNL A   1     -25.061   0.132  25.178  0.00  0.00    -0.003 A 
BRANCH  18  21
ATOM     21  C   UNL A   1     -28.358   1.333  23.778  0.00  0.00    +0.284 C 
ATOM     22  N   UNL A   1     -28.869   2.345  23.326  0.00  0.00    -0.084 NA
ATOM     23  O   UNL A   1     -28.751   0.185  23.310  0.00  0.00    -0.267 OA
ENDBRANCH  18  21
ENDBRANCH  14  15
ENDBRANCH   1  14
TORSDOF 4
ENDMDL
ENDMDL
