REMARK  Name = No_524-gen_results/8p0m/2024-11-27-11-27-31/
REMARK  2 active torsions:
REMARK  status: ('A' for Active; 'I' for Inactive)
REMARK    1  A    between atoms: C_2  and  C_7
REMARK    2  A    between atoms: C_4  and  C_10
REMARK                            x       y       z     vdW  Elec       q    Type
REMARK                         _______ _______ _______ _____ _____    ______ ____
ROOT
ATOM      1  C   UNL A   1     -28.016  -0.814  28.878  0.00  0.00    +0.006 A 
ATOM      2  C   UNL A   1     -28.469  -0.785  29.829  0.00  0.00    +0.080 A 
ATOM      3  C   UNL A   1     -26.546  -0.876  28.850  0.00  0.00    +0.004 A 
ATOM      4  C   UNL A   1     -25.804  -1.032  30.057  0.00  0.00    +0.071 A 
ATOM      5  C   UNL A   1     -27.944  -0.987  31.207  0.00  0.00    +0.006 A 
ATOM      6  C   UNL A   1     -26.582  -1.039  31.223  0.00  0.00    +0.004 A 
ENDROOT
BRANCH   4   7
ATOM      7  C   UNL A   1     -24.370  -1.098  30.081  0.00  0.00    +0.419 C 
ATOM      8  F   UNL A   1     -23.935  -2.023  30.680  0.00  0.00    -0.166 F 
ATOM      9  F   UNL A   1     -23.817  -1.097  28.800  0.00  0.00    -0.166 F 
ATOM     10  F   UNL A   1     -23.862   0.035  30.685  0.00  0.00    -0.166 F 
ENDBRANCH   4   7
BRANCH   2  11
ATOM     11  C   UNL A   1     -30.061  -0.737  29.902  0.00  0.00    +0.388 C 
ATOM     12  O   UNL A   1     -30.605   0.086  30.707  0.00  0.00    -0.241 OA
ATOM     13  O   UNL A   1     -30.628  -1.153  28.828  0.00  0.00    -0.241 OA
ENDBRANCH   2  11
TORSDOF 2
