REMARK  Name = outputs/IAG933/test6/raw/output_5247_IAG933_linker_design_.xyz
REMARK  9 active torsions:
REMARK  status: ('A' for Active; 'I' for Inactive)
REMARK    1  A    between atoms: C_1  and  C_2
REMARK    2  A    between atoms: C_1  and  C_8
REMARK    3  A    between atoms: C_1  and  C_44
REMARK    4  A    between atoms: C_13  and  C_33
REMARK    5  A    between atoms: C_14  and  C_15
REMARK    6  A    between atoms: C_21  and  O_22
REMARK    7  A    between atoms: O_22  and  C_23
REMARK    8  A    between atoms: C_23  and  C_24
REMARK    9  A    between atoms: C_37  and  C_38
REMARK                            x       y       z     vdW  Elec       q    Type
REMARK                         _______ _______ _______ _____ _____    ______ ____
ROOT
ATOM      1  N   UNL A   1     -23.281  -0.076  29.396  0.00  0.00    -0.271 NA
ATOM      2  O   UNL A   1     -23.073   2.298  25.944  0.00  0.00    -0.292 OA
ATOM      3  C   UNL A   1     -26.678   0.993  29.042  0.00  0.00    -0.104 C 
ATOM      4  C   UNL A   1     -25.294   0.796  28.524  0.00  0.00    +0.036 C 
ATOM      5  C   UNL A   1     -22.209   0.420  28.830  0.00  0.00    +0.168 C 
ATOM      6  C   UNL A   1     -24.759   1.334  27.364  0.00  0.00    +0.112 C 
ATOM      7  C   UNL A   1     -28.004   1.238  29.736  0.00  0.00    +0.041 C 
ATOM      8  C   UNL A   1     -22.188   1.336  27.818  0.00  0.00    +0.242 C 
ATOM      9  F   UNL A   1     -21.030   1.921  27.527  0.00  0.00    -0.227 F 
ATOM     10  C   UNL A   1     -24.471  -0.104  29.330  0.00  0.00    +0.063 C 
ATOM     11  C   UNL A   1     -23.367   1.670  26.967  0.00  0.00    +0.193 C 
ENDROOT
BRANCH   7  15
ATOM     12  C   UNL A   1     -29.296   5.506  28.438  0.00  0.00    -0.021 C 
ATOM     13  C   UNL A   1     -29.427   2.989  28.543  0.00  0.00    +0.000 C 
ATOM     14  C   UNL A   1     -28.177   3.512  30.620  0.00  0.00    +0.003 C 
ATOM     15  C   UNL A   1     -28.656   2.572  29.631  0.00  0.00    +0.008 C 
ATOM     16 BR   UNL A   1     -26.932   5.695  31.720  0.00  0.00    -0.053 Br
ATOM     17  C   UNL A   1     -29.674   4.230  28.044  0.00  0.00    -0.004 C 
ATOM     18  C   UNL A   1     -28.010   4.916  30.494  0.00  0.00    +0.017 C 
ATOM     19  C   UNL A   1     -28.595   5.808  29.569  0.00  0.00    +0.059 C 
ENDBRANCH   7  15
BRANCH   6  20
ATOM     20  C   UNL A   1     -25.688   1.614  26.461  0.00  0.00    +0.011 C 
ATOM     21  C   UNL A   1     -26.250   2.920  26.395  0.00  0.00    +0.053 C 
ATOM     22  C   UNL A   1     -27.438   3.091  25.645  0.00  0.00    +0.159 C 
ATOM     23  N   UNL A   1     -28.075   2.089  25.003  0.00  0.00    -0.234 NA
ATOM     24  C   UNL A   1     -27.543   0.849  25.079  0.00  0.00    +0.234 C 
ATOM     25  C   UNL A   1     -26.354   0.576  25.777  0.00  0.00    +0.255 C 
ATOM     26  F   UNL A   1     -25.860  -0.681  25.795  0.00  0.00    -0.223 F 
BRANCH  21  27
ATOM     27  C   UNL A   1     -25.642   4.093  27.123  0.00  0.00    +0.262 C 
ATOM     28  N   UNL A   1     -25.614   5.252  26.449  0.00  0.00    -0.200 NA
ATOM     29  C   UNL A   1     -25.026   6.479  26.963  0.00  0.00    +0.139 C 
ATOM     30  O   UNL A   1     -25.143   3.966  28.243  0.00  0.00    -0.269 OA
ENDBRANCH  21  27
BRANCH  24  31
ATOM     31  O   UNL A   1     -28.193  -0.208  24.477  0.00  0.00    -0.459 OA
BRANCH  31  32
ATOM     32  C   UNL A   1     -29.460   0.005  23.866  0.00  0.00    +0.242 C 
BRANCH  32  33
ATOM     33  C   UNL A   1     -30.065  -1.377  23.573  0.00  0.00    +0.229 C 
ATOM     34  O   UNL A   1     -30.729  -1.878  24.721  0.00  0.00    -0.216 OA
ENDBRANCH  32  33
ENDBRANCH  31  32
ENDBRANCH  24  31
ENDBRANCH   6  20
BRANCH  10  35
ATOM     35  C   UNL A   1     -24.855  -1.012  30.143  0.00  0.00    +0.078 C 
BRANCH  35  36
ATOM     36  C   UNL A   1     -24.973  -2.505  29.788  0.00  0.00    -0.015 C 
ATOM     37  C   UNL A   1     -23.906  -3.173  29.146  0.00  0.00    -0.004 C 
ATOM     38  C   UNL A   1     -23.989  -4.549  28.853  0.00  0.00    -0.000 C 
ATOM     39  C   UNL A   1     -25.137  -5.280  29.205  0.00  0.00    -0.000 C 
ATOM     40  C   UNL A   1     -26.232  -4.611  29.784  0.00  0.00    -0.000 C 
ATOM     41  C   UNL A   1     -26.155  -3.232  30.065  0.00  0.00    -0.004 C 
ENDBRANCH  35  36
BRANCH  35  42
ATOM     42  C   UNL A   1     -25.387  -0.679  31.571  0.00  0.00    +0.082 C 
ATOM     43  C   UNL A   1     -25.189   0.773  32.028  0.00  0.00    +0.020 C 
ATOM     44  C   UNL A   1     -25.336   0.684  33.544  0.00  0.00    +0.020 C 
ATOM     45  C   UNL A   1     -24.829  -0.715  33.905  0.00  0.00    +0.089 C 
ATOM     46  N   UNL A   1     -24.758  -1.481  32.646  0.00  0.00    -0.219 NA
ENDBRANCH  35  42
ENDBRANCH  10  35
TORSDOF 9
