REMARK  Name = No_525-gen_results/8p0m/2024-11-27-11-27-31/
REMARK  4 active torsions:
REMARK  status: ('A' for Active; 'I' for Inactive)
REMARK    1  A    between atoms: C_1  and  C_2
REMARK    2  A    between atoms: C_1  and  N_8
REMARK    3  A    between atoms: C_5  and  C_9
REMARK    4  A    between atoms: C_12  and  C_13
REMARK                            x       y       z     vdW  Elec       q    Type
REMARK                         _______ _______ _______ _____ _____    ______ ____
ROOT
ATOM      1  C   UNL A   1     -27.064  -0.119  28.608  0.00  0.00    +0.002 A 
ATOM      2  C   UNL A   1     -26.972   0.714  27.506  0.00  0.00    -0.002 A 
ATOM      3  C   UNL A   1     -25.820   1.491  27.116  0.00  0.00    +0.004 A 
ATOM      4  C   UNL A   1     -24.656   1.424  27.918  0.00  0.00    +0.057 A 
ATOM      5  C   UNL A   1     -24.685   0.590  29.066  0.00  0.00    +0.004 A 
ATOM      6  C   UNL A   1     -25.810  -0.127  29.334  0.00  0.00    -0.002 A 
ENDROOT
BRANCH   4   7
ATOM      7  C   UNL A   1     -23.471   2.189  27.613  0.00  0.00    +0.284 C 
ATOM      8  O   UNL A   1     -23.274   2.700  26.502  0.00  0.00    -0.267 OA
ATOM      9  N   UNL A   1     -22.281   1.945  28.360  0.00  0.00    -0.084 NA
ENDBRANCH   4   7
BRANCH   1  10
ATOM     10  C   UNL A   1     -28.016  -0.814  28.878  0.00  0.00    +0.152 C 
BRANCH  10  11
ATOM     11  N   UNL A   1     -27.968  -1.690  30.006  0.00  0.00    -0.261 NA
ATOM     12  C   UNL A   1     -29.063  -2.369  30.462  0.00  0.00    +0.169 C 
BRANCH  12  13
ATOM     13  C   UNL A   1     -28.833  -3.590  31.327  0.00  0.00    +0.436 C 
ATOM     14  F   UNL A   1     -27.820  -4.193  30.813  0.00  0.00    -0.164 F 
ATOM     15  F   UNL A   1     -28.543  -3.327  32.570  0.00  0.00    -0.164 F 
ATOM     16  F   UNL A   1     -29.910  -4.293  31.514  0.00  0.00    -0.164 F 
ENDBRANCH  12  13
ENDBRANCH  10  11
ENDBRANCH   1  10
TORSDOF 4
