MODEL 525
MODEL 1
REMARK VINA RESULT:    -5.719      0.000      0.000
REMARK INTER + INTRA:          -7.319
REMARK INTER:                  -7.057
REMARK INTRA:                  -0.262
REMARK UNBOUND:                -0.262
REMARK  Name = No_525-gen_results/8p0m/2024-11-27-11-27-31/
REMARK  4 active torsions:
REMARK  status: ('A' for Active; 'I' for Inactive)
REMARK    1  A    between atoms: C_1  and  C_2
REMARK    2  A    between atoms: C_1  and  N_8
REMARK    3  A    between atoms: C_5  and  C_9
REMARK    4  A    between atoms: C_12  and  C_13
REMARK                            x       y       z     vdW  Elec       q    Type
REMARK                         _______ _______ _______ _____ _____    ______ ____
ROOT
ATOM      1  C   UNL A   1     -23.658  -0.437  29.571  0.00  0.00    +0.002 A 
ATOM      2  C   UNL A   1     -23.175  -1.592  28.979  0.00  0.00    -0.002 A 
ATOM      3  C   UNL A   1     -23.829  -2.878  28.956  0.00  0.00    +0.004 A 
ATOM      4  C   UNL A   1     -25.084  -3.011  29.597  0.00  0.00    +0.057 A 
ATOM      5  C   UNL A   1     -25.634  -1.865  30.227  0.00  0.00    +0.004 A 
ATOM      6  C   UNL A   1     -24.954  -0.687  30.169  0.00  0.00    -0.002 A 
ENDROOT
BRANCH   4   7
ATOM      7  C   UNL A   1     -25.791  -4.268  29.643  0.00  0.00    +0.284 C 
ATOM      8  O   UNL A   1     -25.325  -5.314  29.170  0.00  0.00    -0.267 OA
ATOM      9  N   UNL A   1     -27.214  -4.256  29.737  0.00  0.00    -0.084 NA
ENDBRANCH   4   7
BRANCH   1  10
ATOM     10  C   UNL A   1     -23.126   0.647  29.519  0.00  0.00    +0.152 C 
BRANCH  10  11
ATOM     11  N   UNL A   1     -23.372   1.515  28.410  0.00  0.00    -0.261 NA
ATOM     12  C   UNL A   1     -22.536   1.592  27.332  0.00  0.00    +0.169 C 
BRANCH  12  13
ATOM     13  C   UNL A   1     -23.090   2.155  26.041  0.00  0.00    +0.436 C 
ATOM     14  F   UNL A   1     -23.659   3.263  26.362  0.00  0.00    -0.164 F 
ATOM     15  F   UNL A   1     -22.191   2.424  25.136  0.00  0.00    -0.164 F 
ATOM     16  F   UNL A   1     -23.800   1.296  25.373  0.00  0.00    -0.164 F 
ENDBRANCH  12  13
ENDBRANCH  10  11
ENDBRANCH   1  10
TORSDOF 4
ENDMDL
ENDMDL
