REMARK  Name = outputs/IAG933/test6/raw/output_5261_IAG933_linker_design_.xyz
REMARK  11 active torsions:
REMARK  status: ('A' for Active; 'I' for Inactive)
REMARK    1  A    between atoms: C_1  and  C_2
REMARK    2  A    between atoms: C_1  and  C_8
REMARK    3  A    between atoms: C_1  and  N_28
REMARK    4  A    between atoms: C_13  and  C_30
REMARK    5  A    between atoms: C_14  and  C_15
REMARK    6  A    between atoms: C_21  and  O_22
REMARK    7  A    between atoms: O_22  and  C_23
REMARK    8  A    between atoms: C_23  and  C_24
REMARK    9  A    between atoms: CA_32  and  N_35
REMARK   10  A    between atoms: CA_32  and  C_38
REMARK   11  A    between atoms: N_35  and  C_37
REMARK                            x       y       z     vdW  Elec       q    Type
REMARK                         _______ _______ _______ _____ _____    ______ ____
ROOT
ATOM      1  N   UNL A   1     -24.263   0.099  29.367  0.00  0.00    -0.144 N 
ATOM      2  C   UNL A   1     -24.785   1.145  27.330  0.00  0.00    +0.148 C 
ATOM      3  C   UNL A   1     -22.138   0.968  28.041  0.00  0.00    +0.251 C 
ATOM      4  F   UNL A   1     -22.150  -0.050  30.191  0.00  0.00    -0.157 F 
ATOM      5  F   UNL A   1     -22.103   2.007  25.784  0.00  0.00    -0.180 F 
ATOM      6  C   UNL A   1     -22.845   0.362  29.180  0.00  0.00    +0.312 C 
ATOM      7  C   UNK     1     -25.168   0.840  28.582  0.00  0.00    +0.329 C 
ATOM      8  N   UNL A   1     -23.768   1.012  26.515  0.00  0.00    -0.213 NA
ATOM      9  C   UNL A   1     -22.746   1.354  26.801  0.00  0.00    +0.256 C 
ATOM     10  F   UNL A   1     -20.822   1.091  28.062  0.00  0.00    -0.194 F 
ENDROOT
BRANCH   2  11
ATOM     11  C   UNL A   1     -25.688   1.614  26.461  0.00  0.00    +0.117 C 
ATOM     12  C   UNL A   1     -26.250   2.920  26.395  0.00  0.00    +0.061 C 
ATOM     13  C   UNL A   1     -27.438   3.091  25.645  0.00  0.00    +0.102 C 
ATOM     14  N   UNL A   1     -28.075   2.089  25.003  0.00  0.00    -0.212 NA
ATOM     15  C   UNL A   1     -27.543   0.849  25.079  0.00  0.00    +0.234 C 
ATOM     16  C   UNL A   1     -26.354   0.576  25.777  0.00  0.00    +0.246 C 
ATOM     17  F   UNL A   1     -25.860  -0.681  25.795  0.00  0.00    -0.227 F 
BRANCH  12  18
ATOM     18  C   UNL A   1     -25.642   4.093  27.123  0.00  0.00    +0.263 C 
ATOM     19  N   UNL A   1     -25.614   5.252  26.449  0.00  0.00    -0.200 NA
ATOM     20  C   UNL A   1     -25.026   6.479  26.963  0.00  0.00    +0.139 C 
ATOM     21  O   UNL A   1     -25.143   3.966  28.243  0.00  0.00    -0.269 OA
ENDBRANCH  12  18
BRANCH  15  22
ATOM     22  O   UNL A   1     -28.193  -0.208  24.477  0.00  0.00    -0.459 OA
BRANCH  22  23
ATOM     23  C   UNL A   1     -29.460   0.005  23.866  0.00  0.00    +0.242 C 
BRANCH  23  24
ATOM     24  C   UNL A   1     -30.065  -1.377  23.573  0.00  0.00    +0.229 C 
ATOM     25  O   UNL A   1     -30.729  -1.878  24.721  0.00  0.00    -0.216 OA
ENDBRANCH  23  24
ENDBRANCH  22  23
ENDBRANCH  15  22
ENDBRANCH   2  11
BRANCH   1  26
ATOM     26  C   UNL A   1     -24.855  -1.012  30.143  0.00  0.00    +0.205 C 
BRANCH  26  27
ATOM     27  C   UNL A   1     -24.973  -2.505  29.788  0.00  0.00    +0.022 C 
ATOM     28  C   UNL A   1     -23.906  -3.173  29.146  0.00  0.00    -0.000 C 
ATOM     29  C   UNL A   1     -23.989  -4.549  28.853  0.00  0.00    -0.000 C 
ATOM     30  C   UNL A   1     -25.137  -5.280  29.205  0.00  0.00    -0.000 C 
ATOM     31  C   UNL A   1     -26.232  -4.611  29.784  0.00  0.00    -0.000 C 
ATOM     32  C   UNL A   1     -26.155  -3.232  30.065  0.00  0.00    -0.000 C 
ENDBRANCH  26  27
BRANCH  26  33
ATOM     33  C   UNL A   1     -25.387  -0.679  31.571  0.00  0.00    +0.120 C 
ATOM     34  C   UNL A   1     -25.189   0.773  32.028  0.00  0.00    +0.023 C 
ATOM     35  C   UNL A   1     -25.336   0.684  33.544  0.00  0.00    +0.020 C 
ATOM     36  C   UNL A   1     -24.829  -0.715  33.905  0.00  0.00    +0.089 C 
ATOM     37  N   UNL A   1     -24.758  -1.481  32.646  0.00  0.00    -0.215 NA
ENDBRANCH  26  33
ENDBRANCH   1  26
BRANCH   7  38
ATOM     38  N   UNL A   1     -26.375   1.018  29.046  0.00  0.00    -0.037 NA
BRANCH  38  39
ATOM     39  CA  UNL A   1     -27.596   1.212  28.806  0.00  0.00    +0.238 C 
ATOM     40  CB  UNL A   1     -28.162   2.358  29.540  0.00  0.00    +0.058 C 
BRANCH  39  42
ATOM     41  O   UNL A   1     -28.071  -0.942  28.164  0.00  0.00    -0.216 OA
ATOM     42  C   UNL A   1     -28.398   0.315  27.992  0.00  0.00    +0.233 C 
ENDBRANCH  39  42
ENDBRANCH  38  39
ENDBRANCH   7  38
TORSDOF 11
