MODEL 526
MODEL 1
REMARK VINA RESULT:    -7.503      0.000      0.000
REMARK INTER + INTRA:         -10.303
REMARK INTER:                  -8.819
REMARK INTRA:                  -1.484
REMARK UNBOUND:                -1.484
REMARK  Name = No_526-gen_results/8p0m/2024-11-27-11-27-31/
REMARK  3 active torsions:
REMARK  status: ('A' for Active; 'I' for Inactive)
REMARK    1  A    between atoms: C_2  and  C_7
REMARK    2  A    between atoms: C_7  and  C_8
REMARK    3  A    between atoms: C_12  and  C_13
REMARK                            x       y       z     vdW  Elec       q    Type
REMARK                         _______ _______ _______ _____ _____    ______ ____
ROOT
ATOM      1  C   UNL A   1     -23.501  -0.465  28.949  0.00  0.00    -0.032 C 
ATOM      2  C   UNL A   1     -23.354   0.610  28.266  0.00  0.00    -0.008 C 
ATOM      3  C   UNL A   1     -24.059   0.770  27.068  0.00  0.00    -0.004 C 
ATOM      4  C   UNL A   1     -24.984  -0.213  26.780  0.00  0.00    -0.018 C 
ATOM      5  C   UNL A   1     -24.527  -1.300  28.376  0.00  0.00    +0.063 C 
ENDROOT
BRANCH   5   6
ATOM      6  C   UNL A   1     -24.691  -2.327  28.907  0.00  0.00    -0.015 A 
ATOM      7  C   UNL A   1     -25.999  -2.607  29.594  0.00  0.00    -0.004 A 
ATOM      8  C   UNL A   1     -26.317  -3.984  29.859  0.00  0.00    -0.000 A 
ATOM      9  C   UNL A   1     -25.425  -4.996  29.374  0.00  0.00    -0.000 A 
ATOM     10  C   UNL A   1     -24.247  -4.695  28.732  0.00  0.00    -0.000 A 
ATOM     11  C   UNL A   1     -24.021  -3.490  28.478  0.00  0.00    -0.004 A 
ENDBRANCH   5   6
BRANCH   1  12
ATOM     12  C   UNL A   1     -22.721  -0.700  30.208  0.00  0.00    +0.049 C 
BRANCH  12  14
ATOM     13  C   UNL A   1     -24.391   0.354  31.565  0.00  0.00    -0.004 A 
ATOM     14  C   UNL A   1     -23.531  -0.491  31.476  0.00  0.00    -0.018 A 
ATOM     15  C   UNL A   1     -23.199  -1.343  32.479  0.00  0.00    -0.004 A 
ATOM     16  C   UNL A   1     -23.894  -1.243  33.699  0.00  0.00    -0.000 A 
ATOM     17  C   UNL A   1     -25.206   0.450  32.750  0.00  0.00    -0.000 A 
ATOM     18  C   UNL A   1     -24.894  -0.364  33.797  0.00  0.00    -0.000 A 
ENDBRANCH  12  14
ENDBRANCH   1  12
TORSDOF 3
ENDMDL
ENDMDL
