REMARK  Name = outputs/IAG933/test6/raw/output_527_IAG933_linker_design_.xyz
REMARK  12 active torsions:
REMARK  status: ('A' for Active; 'I' for Inactive)
REMARK    1  A    between atoms: C_1  and  C_2
REMARK    2  A    between atoms: C_1  and  C_8
REMARK    3  A    between atoms: C_1  and  N_33
REMARK    4  A    between atoms: C_13  and  C_40
REMARK    5  A    between atoms: C_14  and  C_15
REMARK    6  A    between atoms: C_21  and  O_22
REMARK    7  A    between atoms: O_22  and  C_23
REMARK    8  A    between atoms: C_23  and  C_24
REMARK    9  A    between atoms: C_30  and  C_36
REMARK   10  A    between atoms: O_32  and  C_37
REMARK   11  A    between atoms: N_33  and  C_36
REMARK   12  A    between atoms: N_33  and  C_41
REMARK                            x       y       z     vdW  Elec       q    Type
REMARK                         _______ _______ _______ _____ _____    ______ ____
ROOT
ATOM      1  C   UNL A   1     -20.893  -0.440  28.931  0.00  0.00    -0.021 C 
ATOM      2  C   UNL A   1     -22.227  -0.474  29.230  0.00  0.00    +0.054 C 
ATOM      3  C   UNL A   1     -20.207   0.352  28.186  0.00  0.00    -0.004 C 
ATOM      4  C   UNL A   1     -23.296   1.808  26.782  0.00  0.00    +0.140 C 
ATOM      5  C   UNL A   1     -23.008   0.352  28.471  0.00  0.00    -0.001 C 
ATOM      6  C   UNL A   1     -22.372   1.229  27.532  0.00  0.00    +0.032 C 
ATOM      7  C   UNL A   1     -24.596   1.303  27.164  0.00  0.00    +0.050 C 
ATOM      8  C   UNL A   1     -24.403   0.478  28.393  0.00  0.00    +0.048 C 
ATOM      9  C   UNL A   1     -20.976   1.327  27.477  0.00  0.00    +0.002 C 
ENDROOT
BRANCH   7  10
ATOM     10  C   UNL A   1     -25.688   1.614  26.461  0.00  0.00    +0.042 C 
ATOM     11  C   UNL A   1     -26.250   2.920  26.395  0.00  0.00    +0.077 C 
ATOM     12  C   UNL A   1     -27.438   3.091  25.645  0.00  0.00    +0.107 C 
ATOM     13  N   UNL A   1     -28.075   2.089  25.003  0.00  0.00    -0.208 NA
ATOM     14  C   UNL A   1     -27.543   0.849  25.079  0.00  0.00    +0.253 C 
ATOM     15  C   UNL A   1     -26.354   0.576  25.777  0.00  0.00    +0.193 C 
ATOM     16  F   UNL A   1     -25.860  -0.681  25.795  0.00  0.00    -0.199 F 
BRANCH  11  17
ATOM     17  C   UNL A   1     -25.642   4.093  27.123  0.00  0.00    +0.266 C 
ATOM     18  N   UNL A   1     -25.614   5.252  26.449  0.00  0.00    -0.200 NA
ATOM     19  C   UNL A   1     -25.026   6.479  26.963  0.00  0.00    +0.139 C 
ATOM     20  O   UNL A   1     -25.143   3.966  28.243  0.00  0.00    -0.268 OA
ENDBRANCH  11  17
BRANCH  14  21
ATOM     21  O   UNL A   1     -28.193  -0.208  24.477  0.00  0.00    -0.456 OA
BRANCH  21  22
ATOM     22  C   UNL A   1     -29.460   0.005  23.866  0.00  0.00    +0.243 C 
BRANCH  22  23
ATOM     23  C   UNL A   1     -30.065  -1.377  23.573  0.00  0.00    +0.229 C 
ATOM     24  O   UNL A   1     -30.729  -1.878  24.721  0.00  0.00    -0.216 OA
ENDBRANCH  22  23
ENDBRANCH  21  22
ENDBRANCH  14  21
ENDBRANCH   7  10
BRANCH   4  25
ATOM     25  O   UNL A   1     -23.161   2.821  25.894  0.00  0.00    -0.471 OA
ATOM     26  C   UNL A   1     -22.438   2.619  24.817  0.00  0.00    +0.253 C 
ENDBRANCH   4  25
BRANCH   8  27
ATOM     27  N   UNL A   1     -25.355  -0.137  29.099  0.00  0.00    -0.297 N 
BRANCH  27  28
ATOM     28  C   UNL A   1     -24.855  -1.012  30.143  0.00  0.00    +0.112 C 
BRANCH  28  29
ATOM     29  C   UNL A   1     -24.973  -2.505  29.788  0.00  0.00    -0.003 C 
ATOM     30  C   UNL A   1     -23.906  -3.173  29.146  0.00  0.00    -0.003 C 
ATOM     31  C   UNL A   1     -23.989  -4.549  28.853  0.00  0.00    -0.000 C 
ATOM     32  C   UNL A   1     -25.137  -5.280  29.205  0.00  0.00    -0.000 C 
ATOM     33  C   UNL A   1     -26.232  -4.611  29.784  0.00  0.00    -0.000 C 
ATOM     34  C   UNL A   1     -26.155  -3.232  30.065  0.00  0.00    -0.003 C 
ENDBRANCH  28  29
BRANCH  28  35
ATOM     35  C   UNL A   1     -25.387  -0.679  31.571  0.00  0.00    +0.095 C 
ATOM     36  C   UNL A   1     -25.189   0.773  32.028  0.00  0.00    +0.021 C 
ATOM     37  C   UNL A   1     -25.336   0.684  33.544  0.00  0.00    +0.020 C 
ATOM     38  C   UNL A   1     -24.829  -0.715  33.905  0.00  0.00    +0.089 C 
ATOM     39  N   UNL A   1     -24.758  -1.481  32.646  0.00  0.00    -0.217 NA
ENDBRANCH  28  35
ENDBRANCH  27  28
BRANCH  27  40
ATOM     40  C   UNL A   1     -26.805   0.244  28.951  0.00  0.00    +0.164 C 
BRANCH  40  42
ATOM     41  O   UNL A   1     -29.024  -0.779  28.717  0.00  0.00    -0.286 OA
ATOM     42  C   UNL A   1     -28.023  -0.386  29.421  0.00  0.00    +0.229 C 
ENDBRANCH  40  42
ENDBRANCH  27  40
ENDBRANCH   8  27
TORSDOF 12
