REMARK  Name = outputs/IAG933/test6/raw/output_5282_IAG933_linker_design_.xyz
REMARK  12 active torsions:
REMARK  status: ('A' for Active; 'I' for Inactive)
REMARK    1  A    between atoms: C_1  and  C_2
REMARK    2  A    between atoms: C_1  and  C_8
REMARK    3  A    between atoms: C_9  and  C_40
REMARK    4  A    between atoms: C_13  and  C_37
REMARK    5  A    between atoms: C_14  and  C_15
REMARK    6  A    between atoms: C_21  and  O_22
REMARK    7  A    between atoms: O_22  and  C_23
REMARK    8  A    between atoms: C_23  and  C_24
REMARK    9  A    between atoms: C_29  and  C_34
REMARK   10  A    between atoms: C_29  and  C_40
REMARK   11  A    between atoms: C_32  and  C_40
REMARK   12  A    between atoms: N_38  and  C_40
REMARK                            x       y       z     vdW  Elec       q    Type
REMARK                         _______ _______ _______ _____ _____    ______ ____
ROOT
ATOM      1  C   UNL A   1     -24.234   1.830  29.790  0.00  0.00    +0.032 C 
ENDROOT
BRANCH   1   3
ATOM      2  S   UNL A   1     -23.172   2.034  25.723  0.00  0.00    -0.137 S 
ATOM      3  C   UNL A   1     -23.635   1.569  28.220  0.00  0.00    +0.017 C 
ATOM      4  C   UNL A   1     -21.861   1.964  26.755  0.00  0.00    +0.058 C 
ATOM      5  C   UNL A   1     -24.273   1.384  26.941  0.00  0.00    +0.072 C 
ATOM      6  C   UNL A   1     -22.243   1.616  28.061  0.00  0.00    +0.013 C 
BRANCH   5   7
ATOM      7  C   UNL A   1     -25.688   1.614  26.461  0.00  0.00    +0.026 C 
ATOM      8  C   UNL A   1     -26.250   2.920  26.395  0.00  0.00    +0.073 C 
ATOM      9  C   UNL A   1     -27.438   3.091  25.645  0.00  0.00    +0.106 C 
ATOM     10  N   UNL A   1     -28.075   2.089  25.003  0.00  0.00    -0.208 NA
ATOM     11  C   UNL A   1     -27.543   0.849  25.079  0.00  0.00    +0.253 C 
ATOM     12  C   UNL A   1     -26.354   0.576  25.777  0.00  0.00    +0.190 C 
ATOM     13  F   UNL A   1     -25.860  -0.681  25.795  0.00  0.00    -0.200 F 
BRANCH   8  14
ATOM     14  C   UNL A   1     -25.642   4.093  27.123  0.00  0.00    +0.266 C 
ATOM     15  N   UNL A   1     -25.614   5.252  26.449  0.00  0.00    -0.200 NA
ATOM     16  C   UNL A   1     -25.026   6.479  26.963  0.00  0.00    +0.139 C 
ATOM     17  O   UNL A   1     -25.143   3.966  28.243  0.00  0.00    -0.268 OA
ENDBRANCH   8  14
BRANCH  11  18
ATOM     18  O   UNL A   1     -28.193  -0.208  24.477  0.00  0.00    -0.456 OA
BRANCH  18  19
ATOM     19  C   UNL A   1     -29.460   0.005  23.866  0.00  0.00    +0.243 C 
BRANCH  19  20
ATOM     20  C   UNL A   1     -30.065  -1.377  23.573  0.00  0.00    +0.229 C 
ATOM     21  O   UNL A   1     -30.729  -1.878  24.721  0.00  0.00    -0.216 OA
ENDBRANCH  19  20
ENDBRANCH  18  19
ENDBRANCH  11  18
ENDBRANCH   5   7
ENDBRANCH   1   3
BRANCH   1  22
ATOM     22  C   UNL A   1     -25.332   1.987  30.983  0.00  0.00    +0.174 C 
BRANCH  22  24
ATOM     23  C   UNL A   1     -25.387  -0.679  31.571  0.00  0.00    +0.079 C 
ATOM     24  C   UNL A   1     -25.189   0.773  32.028  0.00  0.00    +0.047 C 
ATOM     25  C   UNL A   1     -25.336   0.684  33.544  0.00  0.00    +0.022 C 
ATOM     26  C   UNL A   1     -24.829  -0.715  33.905  0.00  0.00    +0.089 C 
ATOM     27  N   UNL A   1     -24.758  -1.481  32.646  0.00  0.00    -0.219 NA
BRANCH  23  28
ATOM     28  C   UNL A   1     -24.855  -1.012  30.143  0.00  0.00    +0.044 C 
BRANCH  28  29
ATOM     29  C   UNL A   1     -24.973  -2.505  29.788  0.00  0.00    -0.021 C 
ATOM     30  C   UNL A   1     -23.906  -3.173  29.146  0.00  0.00    -0.004 C 
ATOM     31  C   UNL A   1     -23.989  -4.549  28.853  0.00  0.00    -0.000 C 
ATOM     32  C   UNL A   1     -25.137  -5.280  29.205  0.00  0.00    -0.000 C 
ATOM     33  C   UNL A   1     -26.232  -4.611  29.784  0.00  0.00    -0.000 C 
ATOM     34  C   UNL A   1     -26.155  -3.232  30.065  0.00  0.00    -0.004 C 
ENDBRANCH  28  29
ENDBRANCH  23  28
ENDBRANCH  22  24
BRANCH  22  37
ATOM     35  C   UNL A   1     -27.723   1.625  30.274  0.00  0.00    +0.359 C 
ATOM     36  N   UNL A   1     -28.607   2.202  31.176  0.00  0.00    -0.068 NA
ATOM     37  N   UNL A   1     -26.478   2.162  30.001  0.00  0.00    -0.178 NA
ATOM     38  O   UNL A   1     -28.096   0.607  29.701  0.00  0.00    -0.247 OA
ENDBRANCH  22  37
BRANCH  22  40
ATOM     39  O   UNL A   1     -24.423   3.989  31.930  0.00  0.00    -0.244 OA
ATOM     40  C   UNL A   1     -25.488   3.291  31.890  0.00  0.00    +0.382 C 
ATOM     41  O   UNL A   1     -26.485   3.595  32.550  0.00  0.00    -0.244 OA
ENDBRANCH  22  40
ENDBRANCH   1  22
TORSDOF 12
