MODEL 528
MODEL 1
REMARK VINA RESULT:    -6.819      0.000      0.000
REMARK INTER + INTRA:         -10.202
REMARK INTER:                  -9.210
REMARK INTRA:                  -0.992
REMARK UNBOUND:                -0.992
REMARK  Name = No_528-gen_results/8p0m/2024-11-27-11-27-31/
REMARK  6 active torsions:
REMARK  status: ('A' for Active; 'I' for Inactive)
REMARK    1  A    between atoms: C_1  and  C_11
REMARK    2  A    between atoms: C_4  and  C_15
REMARK    3  A    between atoms: C_5  and  C_6
REMARK    4  A    between atoms: C_15  and  C_16
REMARK    5  A    between atoms: C_21  and  C_24
REMARK    6  A    between atoms: C_24  and  C_25
REMARK                            x       y       z     vdW  Elec       q    Type
REMARK                         _______ _______ _______ _____ _____    ______ ____
ROOT
ATOM      1  C   UNL A   1     -22.091   1.983  26.924  0.00  0.00    +0.067 C 
ATOM      2  C   UNL A   1     -22.548   1.275  27.792  0.00  0.00    -0.040 C 
ATOM      3  C   UNL A   1     -23.756   1.286  28.278  0.00  0.00    +0.023 C 
ATOM      4  C   UNL A   1     -24.281   0.396  29.342  0.00  0.00    +0.024 C 
ATOM      5  C   UNL A   1     -23.385  -0.591  29.841  0.00  0.00    +0.104 C 
ATOM      6  C   UNL A   1     -21.703   0.134  28.365  0.00  0.00    +0.022 C 
ATOM      7  C   UNL A   1     -22.122  -0.752  29.340  0.00  0.00    +0.016 C 
ENDROOT
BRANCH   1   8
ATOM      8  C   UNL A   1     -23.081   2.237  25.802  0.00  0.00    +0.418 C 
ATOM      9  F   UNL A   1     -22.378   2.642  24.704  0.00  0.00    -0.166 F 
ATOM     10  F   UNL A   1     -23.980   3.202  26.129  0.00  0.00    -0.166 F 
ATOM     11  F   UNL A   1     -23.851   1.131  25.576  0.00  0.00    -0.166 F 
ENDBRANCH   1   8
BRANCH   5  12
ATOM     12  C   UNL A   1     -23.847  -1.506  30.820  0.00  0.00    +0.364 C 
ATOM     13  O   UNL A   1     -23.942  -1.486  31.896  0.00  0.00    -0.246 OA
ATOM     14  O   UNL A   1     -24.460  -2.644  30.219  0.00  0.00    -0.246 OA
ENDBRANCH   5  12
BRANCH   4  15
ATOM     15  C   UNL A   1     -25.655   0.547  29.804  0.00  0.00    +0.086 C 
BRANCH  15  16
ATOM     16  C   UNL A   1     -26.786   0.109  28.919  0.00  0.00    +0.227 C 
ATOM     17  O   UNL A   1     -27.023  -0.961  28.796  0.00  0.00    -0.275 OA
ATOM     18  N   UNL A   1     -27.461   1.088  28.381  0.00  0.00    -0.264 N 
ATOM     19  C   UNL A   1     -28.584   0.832  27.484  0.00  0.00    +0.097 C 
ATOM     20  C   UNL A   1     -27.128   2.485  28.561  0.00  0.00    +0.185 C 
ATOM     21  C   UNL A   1     -28.544   1.300  26.439  0.00  0.00    +0.042 C 
ATOM     22  C   UNL A   1     -28.503   2.788  26.347  0.00  0.00    +0.093 C 
ATOM     23  N   UNL A   1     -27.378   3.218  27.278  0.00  0.00    -0.197 NA
BRANCH  21  24
ATOM     24  C   UNL A   1     -27.416   0.782  25.497  0.00  0.00    +0.029 C 
BRANCH  24  25
ATOM     25  C   UNL A   1     -27.838  -0.169  24.529  0.00  0.00    -0.031 C 
ATOM     26  C   UNL A   1     -28.714  -0.335  23.999  0.00  0.00    -0.030 C 
ATOM     27  C   UNL A   1     -29.067  -1.497  23.295  0.00  0.00    +0.030 C 
ENDBRANCH  24  25
ENDBRANCH  21  24
ENDBRANCH  15  16
ENDBRANCH   4  15
TORSDOF 6
ENDMDL
ENDMDL
