REMARK  Name = outputs/IAG933/test6/raw/output_5290_IAG933_linker_design_.xyz
REMARK  11 active torsions:
REMARK  status: ('A' for Active; 'I' for Inactive)
REMARK    1  A    between atoms: C_1  and  C_2
REMARK    2  A    between atoms: C_1  and  C_8
REMARK    3  A    between atoms: C_1  and  N_38
REMARK    4  A    between atoms: C_13  and  C_32
REMARK    5  A    between atoms: C_14  and  C_15
REMARK    6  A    between atoms: C_21  and  O_22
REMARK    7  A    between atoms: O_22  and  C_23
REMARK    8  A    between atoms: C_23  and  C_24
REMARK    9  A    between atoms: C_36  and  O_40
REMARK   10  A    between atoms: C_37  and  C_43
REMARK   11  A    between atoms: O_40  and  C_43
REMARK                            x       y       z     vdW  Elec       q    Type
REMARK                         _______ _______ _______ _____ _____    ______ ____
ROOT
ATOM      1  C   UNL A   1     -26.162   1.762  29.271  0.00  0.00    +0.263 C 
ATOM      2  C   UNL A   1     -22.730   1.357  28.818  0.00  0.00    +0.036 C 
ATOM      3  C   UNL A   1     -22.757  -0.015  29.203  0.00  0.00    +0.074 C 
ATOM      4  O   UNL A   1     -24.217   4.024  31.341  0.00  0.00    -0.273 OA
ATOM      5  C   UNL A   1     -24.530   1.133  27.332  0.00  0.00    +0.059 C 
ATOM      6  N   UNL A   1     -25.748   2.767  30.139  0.00  0.00    -0.144 NA
ATOM      7  O   UNL A   1     -27.293   1.560  28.885  0.00  0.00    -0.271 OA
ATOM      8  C   UNL A   1     -23.085   1.724  27.458  0.00  0.00    +0.107 C 
ATOM      9  N   UNL A   1     -24.225  -0.130  29.220  0.00  0.00    -0.263 NA
ATOM     10  C   UNL A   1     -23.169   2.335  30.058  0.00  0.00    +0.089 C 
ATOM     11  C   UNL A   1     -25.078   0.854  28.760  0.00  0.00    +0.142 C 
ATOM     12  C   UNL A   1     -24.503   3.272  30.561  0.00  0.00    +0.248 C 
ENDROOT
BRANCH   5  13
ATOM     13  C   UNL A   1     -25.688   1.614  26.461  0.00  0.00    +0.018 C 
ATOM     14  C   UNL A   1     -26.250   2.920  26.395  0.00  0.00    +0.073 C 
ATOM     15  C   UNL A   1     -27.438   3.091  25.645  0.00  0.00    +0.106 C 
ATOM     16  N   UNL A   1     -28.075   2.089  25.003  0.00  0.00    -0.208 NA
ATOM     17  C   UNL A   1     -27.543   0.849  25.079  0.00  0.00    +0.253 C 
ATOM     18  C   UNL A   1     -26.354   0.576  25.777  0.00  0.00    +0.189 C 
ATOM     19  F   UNL A   1     -25.860  -0.681  25.795  0.00  0.00    -0.200 F 
BRANCH  14  20
ATOM     20  C   UNL A   1     -25.642   4.093  27.123  0.00  0.00    +0.266 C 
ATOM     21  N   UNL A   1     -25.614   5.252  26.449  0.00  0.00    -0.200 NA
ATOM     22  C   UNL A   1     -25.026   6.479  26.963  0.00  0.00    +0.139 C 
ATOM     23  O   UNL A   1     -25.143   3.966  28.243  0.00  0.00    -0.268 OA
ENDBRANCH  14  20
BRANCH  17  24
ATOM     24  O   UNL A   1     -28.193  -0.208  24.477  0.00  0.00    -0.456 OA
BRANCH  24  25
ATOM     25  C   UNL A   1     -29.460   0.005  23.866  0.00  0.00    +0.243 C 
BRANCH  25  26
ATOM     26  C   UNL A   1     -30.065  -1.377  23.573  0.00  0.00    +0.229 C 
ATOM     27  O   UNL A   1     -30.729  -1.878  24.721  0.00  0.00    -0.216 OA
ENDBRANCH  25  26
ENDBRANCH  24  25
ENDBRANCH  17  24
ENDBRANCH   5  13
BRANCH   8  29
ATOM     28  O   UNL A   1     -20.830   2.011  27.421  0.00  0.00    -0.250 OA
ATOM     29  C   UNL A   1     -21.790   1.631  26.684  0.00  0.00    +0.319 C 
BRANCH  29  30
ATOM     30  O   UNL A   1     -21.763   1.649  25.343  0.00  0.00    -0.415 OA
BRANCH  30  32
ATOM     31  F   UNL A   1     -23.692   0.990  24.426  0.00  0.00    -0.181 F 
ATOM     32  C   UNL A   1     -23.063   2.152  24.945  0.00  0.00    +0.405 C 
ENDBRANCH  30  32
ENDBRANCH  29  30
ENDBRANCH   8  29
BRANCH   9  33
ATOM     33  C   UNL A   1     -24.855  -1.012  30.143  0.00  0.00    +0.097 C 
BRANCH  33  34
ATOM     34  C   UNL A   1     -24.973  -2.505  29.788  0.00  0.00    -0.006 C 
ATOM     35  C   UNL A   1     -23.906  -3.173  29.146  0.00  0.00    -0.003 C 
ATOM     36  C   UNL A   1     -23.989  -4.549  28.853  0.00  0.00    -0.000 C 
ATOM     37  C   UNL A   1     -25.137  -5.280  29.205  0.00  0.00    -0.000 C 
ATOM     38  C   UNL A   1     -26.232  -4.611  29.784  0.00  0.00    -0.000 C 
ATOM     39  C   UNL A   1     -26.155  -3.232  30.065  0.00  0.00    -0.003 C 
ENDBRANCH  33  34
BRANCH  33  40
ATOM     40  C   UNL A   1     -25.387  -0.679  31.571  0.00  0.00    +0.092 C 
ATOM     41  C   UNL A   1     -25.189   0.773  32.028  0.00  0.00    +0.021 C 
ATOM     42  C   UNL A   1     -25.336   0.684  33.544  0.00  0.00    +0.020 C 
ATOM     43  C   UNL A   1     -24.829  -0.715  33.905  0.00  0.00    +0.089 C 
ATOM     44  N   UNL A   1     -24.758  -1.481  32.646  0.00  0.00    -0.218 NA
ENDBRANCH  33  40
ENDBRANCH   9  33
TORSDOF 11
