REMARK  Name = outputs/IAG933/test6/raw/output_5292_IAG933_linker_design_.xyz
REMARK  13 active torsions:
REMARK  status: ('A' for Active; 'I' for Inactive)
REMARK    1  A    between atoms: C_1  and  C_2
REMARK    2  A    between atoms: C_1  and  C_8
REMARK    3  A    between atoms: C_1  and  C_28
REMARK    4  A    between atoms: C_13  and  C_38
REMARK    5  A    between atoms: C_14  and  C_15
REMARK    6  A    between atoms: C_21  and  O_22
REMARK    7  A    between atoms: O_22  and  C_23
REMARK    8  A    between atoms: C_23  and  C_24
REMARK    9  A    between atoms: C_28  and  C_35
REMARK   10  A    between atoms: C_28  and  C_40
REMARK   11  A    between atoms: C_33  and  C_40
REMARK   12  A    between atoms: C_33  and  O_41
REMARK   13  A    between atoms: C_38  and  C_40
REMARK                            x       y       z     vdW  Elec       q    Type
REMARK                         _______ _______ _______ _____ _____    ______ ____
ROOT
ATOM      1  C   UNL A   1     -25.285   0.056  28.994  0.00  0.00    +0.029 C 
ENDROOT
BRANCH   1   6
ATOM      2  C   UNL A   1     -28.630   3.971  29.703  0.00  0.00    +0.028 C 
ATOM      3  O   UNL A   1     -28.067  -1.450  29.275  0.00  0.00    -0.275 OA
ATOM      4  C   UNL A   1     -27.184   1.959  29.569  0.00  0.00    -0.024 C 
ATOM      5  N   UNL A   1     -29.038   0.456  28.353  0.00  0.00    -0.274 N 
ATOM      6  C   UNL A   1     -26.819   0.645  29.281  0.00  0.00    +0.099 C 
ATOM      7  C   UNL A   1     -27.931  -0.212  28.983  0.00  0.00    +0.230 C 
ATOM      8  C   UNL A   1     -29.921  -0.352  27.459  0.00  0.00    +0.115 C 
ATOM      9  C   UNL A   1     -28.437   2.487  29.322  0.00  0.00    -0.028 C 
ATOM     10  C   UNL A   1     -29.389   1.781  28.625  0.00  0.00    +0.116 C 
ENDBRANCH   1   6
BRANCH   1  11
ATOM     11  C   UNL A   1     -24.855  -1.012  30.143  0.00  0.00    +0.040 C 
BRANCH  11  12
ATOM     12  C   UNL A   1     -24.973  -2.505  29.788  0.00  0.00    -0.021 C 
ATOM     13  C   UNL A   1     -23.906  -3.173  29.146  0.00  0.00    -0.004 C 
ATOM     14  C   UNL A   1     -23.989  -4.549  28.853  0.00  0.00    -0.000 C 
ATOM     15  C   UNL A   1     -25.137  -5.280  29.205  0.00  0.00    -0.000 C 
ATOM     16  C   UNL A   1     -26.232  -4.611  29.784  0.00  0.00    -0.000 C 
ATOM     17  C   UNL A   1     -26.155  -3.232  30.065  0.00  0.00    -0.004 C 
ENDBRANCH  11  12
BRANCH  11  18
ATOM     18  C   UNL A   1     -25.387  -0.679  31.571  0.00  0.00    +0.077 C 
ATOM     19  C   UNL A   1     -25.189   0.773  32.028  0.00  0.00    +0.019 C 
ATOM     20  C   UNL A   1     -25.336   0.684  33.544  0.00  0.00    +0.020 C 
ATOM     21  C   UNL A   1     -24.829  -0.715  33.905  0.00  0.00    +0.089 C 
ATOM     22  N   UNL A   1     -24.758  -1.481  32.646  0.00  0.00    -0.219 NA
ENDBRANCH  11  18
ENDBRANCH   1  11
BRANCH   1  23
ATOM     23  C   UNL A   1     -24.184   1.090  28.270  0.00  0.00    +0.101 C 
BRANCH  23  24
ATOM     24  C   UNL A   1     -22.708   0.759  28.632  0.00  0.00    +0.317 C 
ATOM     25  O   UNL A   1     -22.397   0.198  29.655  0.00  0.00    -0.250 OA
BRANCH  24  27
ATOM     26  C   UNL A   1     -21.515   1.925  26.464  0.00  0.00    +0.256 C 
ATOM     27  O   UNL A   1     -21.581   1.287  27.780  0.00  0.00    -0.444 OA
ENDBRANCH  24  27
ENDBRANCH  23  24
BRANCH  23  28
ATOM     28  C   UNL A   1     -24.241   1.326  26.679  0.00  0.00    +0.019 C 
BRANCH  28  29
ATOM     29  C   UNL A   1     -25.688   1.614  26.461  0.00  0.00    +0.071 C 
ATOM     30  C   UNL A   1     -26.250   2.920  26.395  0.00  0.00    +0.055 C 
ATOM     31  C   UNL A   1     -27.438   3.091  25.645  0.00  0.00    +0.102 C 
ATOM     32  N   UNL A   1     -28.075   2.089  25.003  0.00  0.00    -0.212 NA
ATOM     33  C   UNL A   1     -27.543   0.849  25.079  0.00  0.00    +0.234 C 
ATOM     34  C   UNL A   1     -26.354   0.576  25.777  0.00  0.00    +0.240 C 
ATOM     35  F   UNL A   1     -25.860  -0.681  25.795  0.00  0.00    -0.227 F 
BRANCH  30  36
ATOM     36  C   UNL A   1     -25.642   4.093  27.123  0.00  0.00    +0.262 C 
ATOM     37  N   UNL A   1     -25.614   5.252  26.449  0.00  0.00    -0.200 NA
ATOM     38  C   UNL A   1     -25.026   6.479  26.963  0.00  0.00    +0.139 C 
ATOM     39  O   UNL A   1     -25.143   3.966  28.243  0.00  0.00    -0.269 OA
ENDBRANCH  30  36
BRANCH  33  40
ATOM     40  O   UNL A   1     -28.193  -0.208  24.477  0.00  0.00    -0.459 OA
BRANCH  40  41
ATOM     41  C   UNL A   1     -29.460   0.005  23.866  0.00  0.00    +0.242 C 
BRANCH  41  42
ATOM     42  C   UNL A   1     -30.065  -1.377  23.573  0.00  0.00    +0.229 C 
ATOM     43  O   UNL A   1     -30.729  -1.878  24.721  0.00  0.00    -0.216 OA
ENDBRANCH  41  42
ENDBRANCH  40  41
ENDBRANCH  33  40
ENDBRANCH  28  29
ENDBRANCH  23  28
ENDBRANCH   1  23
TORSDOF 13
