REMARK  Name = outputs/IAG933/test6/raw/output_5293_IAG933_linker_design_.xyz
REMARK  16 active torsions:
REMARK  status: ('A' for Active; 'I' for Inactive)
REMARK    1  A    between atoms: C_1  and  C_2
REMARK    2  A    between atoms: C_1  and  C_8
REMARK    3  A    between atoms: C_1  and  N_40
REMARK    4  A    between atoms: C_13  and  N_41
REMARK    5  A    between atoms: C_14  and  C_15
REMARK    6  A    between atoms: C_21  and  O_22
REMARK    7  A    between atoms: O_22  and  C_23
REMARK    8  A    between atoms: C_23  and  C_24
REMARK    9  A    between atoms: C_28  and  P_30
REMARK   10  A    between atoms: C_28  and  C_36
REMARK   11  A    between atoms: C_29  and  C_33
REMARK   12  A    between atoms: C_29  and  C_34
REMARK   13  A    between atoms: C_33  and  N_40
REMARK   14  A    between atoms: C_34  and  C_39
REMARK   15  A    between atoms: C_36  and  N_40
REMARK   16  A    between atoms: C_36  and  N_41
REMARK                            x       y       z     vdW  Elec       q    Type
REMARK                         _______ _______ _______ _____ _____    ______ ____
ROOT
ATOM      1  C   UNL A   1     -24.500   0.431  28.134  0.00  0.00    +0.164 C 
ENDROOT
BRANCH   1   2
ATOM      2  N   UNL A   1     -24.818   1.508  27.367  0.00  0.00    -0.224 NA
BRANCH   2   3
ATOM      3  C   UNL A   1     -25.688   1.614  26.461  0.00  0.00    +0.088 C 
ATOM      4  C   UNL A   1     -26.250   2.920  26.395  0.00  0.00    +0.071 C 
ATOM      5  C   UNL A   1     -27.438   3.091  25.645  0.00  0.00    +0.160 C 
ATOM      6  N   UNL A   1     -28.075   2.089  25.003  0.00  0.00    -0.234 NA
ATOM      7  C   UNL A   1     -27.543   0.849  25.079  0.00  0.00    +0.235 C 
ATOM      8  C   UNL A   1     -26.354   0.576  25.777  0.00  0.00    +0.272 C 
ATOM      9  F   UNL A   1     -25.860  -0.681  25.795  0.00  0.00    -0.221 F 
BRANCH   4  10
ATOM     10  C   UNL A   1     -25.642   4.093  27.123  0.00  0.00    +0.264 C 
ATOM     11  N   UNL A   1     -25.614   5.252  26.449  0.00  0.00    -0.200 NA
ATOM     12  C   UNL A   1     -25.026   6.479  26.963  0.00  0.00    +0.139 C 
ATOM     13  O   UNL A   1     -25.143   3.966  28.243  0.00  0.00    -0.269 OA
ENDBRANCH   4  10
BRANCH   7  14
ATOM     14  O   UNL A   1     -28.193  -0.208  24.477  0.00  0.00    -0.459 OA
BRANCH  14  15
ATOM     15  C   UNL A   1     -29.460   0.005  23.866  0.00  0.00    +0.242 C 
BRANCH  15  16
ATOM     16  C   UNL A   1     -30.065  -1.377  23.573  0.00  0.00    +0.229 C 
ATOM     17  O   UNL A   1     -30.729  -1.878  24.721  0.00  0.00    -0.216 OA
ENDBRANCH  15  16
ENDBRANCH  14  15
ENDBRANCH   7  14
ENDBRANCH   2   3
ENDBRANCH   1   2
BRANCH   1  18
ATOM     18  N   UNL A   1     -25.442  -0.124  29.086  0.00  0.00    -0.252 NA
BRANCH  18  19
ATOM     19  C   UNL A   1     -24.855  -1.012  30.143  0.00  0.00    +0.098 C 
BRANCH  19  20
ATOM     20  C   UNL A   1     -24.973  -2.505  29.788  0.00  0.00    -0.006 C 
ATOM     21  C   UNL A   1     -23.906  -3.173  29.146  0.00  0.00    -0.003 C 
ATOM     22  C   UNL A   1     -23.989  -4.549  28.853  0.00  0.00    -0.000 C 
ATOM     23  C   UNL A   1     -25.137  -5.280  29.205  0.00  0.00    -0.000 C 
ATOM     24  C   UNL A   1     -26.232  -4.611  29.784  0.00  0.00    -0.000 C 
ATOM     25  C   UNL A   1     -26.155  -3.232  30.065  0.00  0.00    -0.003 C 
ENDBRANCH  19  20
BRANCH  19  26
ATOM     26  C   UNL A   1     -25.387  -0.679  31.571  0.00  0.00    +0.092 C 
ATOM     27  C   UNL A   1     -25.189   0.773  32.028  0.00  0.00    +0.021 C 
ATOM     28  C   UNL A   1     -25.336   0.684  33.544  0.00  0.00    +0.020 C 
ATOM     29  C   UNL A   1     -24.829  -0.715  33.905  0.00  0.00    +0.089 C 
ATOM     30  N   UNL A   1     -24.758  -1.481  32.646  0.00  0.00    -0.218 NA
ENDBRANCH  19  26
ENDBRANCH  18  19
BRANCH  18  31
ATOM     31  C   UNL A   1     -26.945   0.080  29.156  0.00  0.00    +0.082 C 
BRANCH  31  32
ATOM     32  C   UNL A   1     -28.282   0.726  29.440  0.00  0.00    +0.083 C 
BRANCH  32  34
ATOM     33  O   UNL A   1     -29.542  -0.459  27.665  0.00  0.00    -0.294 OA
ATOM     34  C   UNL A   1     -29.492   0.397  28.546  0.00  0.00    +0.171 C 
BRANCH  34  36
ATOM     35  N   UNL A   1     -31.077   1.532  27.194  0.00  0.00    -0.123 NA
ATOM     36  C   UNL A   1     -30.567   1.501  28.587  0.00  0.00    +0.173 C 
ENDBRANCH  34  36
ENDBRANCH  32  34
ENDBRANCH  31  32
ENDBRANCH  18  31
ENDBRANCH   1  18
BRANCH   1  37
ATOM     37  C   UNL A   1     -23.068   0.081  28.107  0.00  0.00    +0.161 C 
BRANCH  37  38
ATOM     38  P   UNL A   1     -22.232   1.519  27.922  0.00  0.00    +0.407 P 
ATOM     39  F   UNL A   1     -22.289   1.924  26.497  0.00  0.00    -0.153 F 
ATOM     40  O   UNL A   1     -20.882   1.305  28.186  0.00  0.00    -0.251 OA
ATOM     41  O   UNL A   1     -22.888   2.597  28.632  0.00  0.00    -0.136 OA
ENDBRANCH  37  38
ENDBRANCH   1  37
TORSDOF 16
