MODEL 529
MODEL 1
REMARK VINA RESULT:    -4.996      0.000      0.000
REMARK INTER + INTRA:          -5.405
REMARK INTER:                  -5.289
REMARK INTRA:                  -0.116
REMARK UNBOUND:                -0.116
REMARK  Name = No_529-gen_results/8p0m/2024-11-27-11-27-31/
REMARK  1 active torsions:
REMARK  status: ('A' for Active; 'I' for Inactive)
REMARK    1  A    between atoms: C_5  and  C_7
REMARK                            x       y       z     vdW  Elec       q    Type
REMARK                         _______ _______ _______ _____ _____    ______ ____
ROOT
ATOM      1  C   UNL A   1     -24.677  -5.100  28.956  0.00  0.00    -0.000 A 
ATOM      2  C   UNL A   1     -25.812  -4.959  29.349  0.00  0.00    -0.000 A 
ATOM      3  C   UNL A   1     -26.335  -3.789  29.872  0.00  0.00    -0.000 A 
ATOM      4  C   UNL A   1     -25.469  -2.657  29.920  0.00  0.00    -0.003 A 
ATOM      5  C   UNL A   1     -24.262  -2.807  29.337  0.00  0.00    -0.005 A 
ATOM      6  C   UNL A   1     -23.889  -3.961  28.781  0.00  0.00    -0.003 A 
ENDROOT
BRANCH   5   7
ATOM      7  C   UNL A   1     -23.501  -1.500  29.496  0.00  0.00    +0.114 C 
ATOM      8  N   UNL A   1     -22.406  -1.475  28.944  0.00  0.00    -0.128 NA
ATOM      9  C   UNL A   1     -23.445  -1.012  30.907  0.00  0.00    +0.025 C 
ENDBRANCH   5   7
TORSDOF 1
ENDMDL
ENDMDL
