MODEL 52
MODEL 1
REMARK VINA RESULT:    -4.550      0.000      0.000
REMARK INTER + INTRA:          -4.550
REMARK INTER:                  -4.550
REMARK INTRA:                   0.000
REMARK UNBOUND:                 0.000
REMARK  Name = No_52-gen_results/8p0m/2024-11-27-11-27-31/
REMARK  0 active torsions:
REMARK  status: ('A' for Active; 'I' for Inactive)
REMARK                            x       y       z     vdW  Elec       q    Type
REMARK                         _______ _______ _______ _____ _____    ______ ____
ROOT
ATOM      1  C   UNL A   1     -23.995  -4.285  28.575  0.00  0.00    +0.030 A 
ATOM      2  C   UNL A   1     -24.878  -5.058  28.868  0.00  0.00    +0.140 A 
ATOM      3  C   UNL A   1     -26.016  -4.627  29.540  0.00  0.00    +0.030 A 
ATOM      4  C   UNL A   1     -26.160  -3.254  29.949  0.00  0.00    +0.002 A 
ATOM      5  C   UNL A   1     -25.083  -2.433  29.590  0.00  0.00    +0.000 A 
ATOM      6  C   UNL A   1     -24.021  -2.893  28.969  0.00  0.00    +0.002 A 
ATOM      7  F   UNL A   1     -24.843  -6.365  28.606  0.00  0.00    -0.204 F 
ENDROOT
TORSDOF 0
ENDMDL
ENDMDL
