REMARK  Name = outputs/IAG933/test6/raw/output_530_IAG933_linker_design_.xyz
REMARK  17 active torsions:
REMARK  status: ('A' for Active; 'I' for Inactive)
REMARK    1  A    between atoms: C_1  and  C_2
REMARK    2  A    between atoms: C_1  and  C_8
REMARK    3  A    between atoms: C_1  and  C_36
REMARK    4  A    between atoms: C_13  and  C_35
REMARK    5  A    between atoms: C_14  and  C_15
REMARK    6  A    between atoms: C_21  and  O_22
REMARK    7  A    between atoms: O_22  and  C_23
REMARK    8  A    between atoms: C_23  and  C_24
REMARK    9  A    between atoms: O_28  and  C_42
REMARK   10  A    between atoms: C_29  and  C_37
REMARK   11  A    between atoms: C_29  and  O_43
REMARK   12  A    between atoms: C_32  and  C_38
REMARK   13  A    between atoms: C_32  and  O_43
REMARK   14  A    between atoms: C_35  and  N_41
REMARK   15  A    between atoms: C_36  and  C_38
REMARK   16  A    between atoms: C_36  and  N_41
REMARK   17  A    between atoms: C_37  and  C_39
REMARK                            x       y       z     vdW  Elec       q    Type
REMARK                         _______ _______ _______ _____ _____    ______ ____
ROOT
ATOM      1  C   UNL A   1     -25.062   0.029  28.967  0.00  0.00    +0.086 C 
ENDROOT
BRANCH   1   3
ATOM      2  O   UNL A   1     -22.366   0.117  29.363  0.00  0.00    -0.226 OA
ATOM      3  N   UNL A   1     -24.139   0.633  27.912  0.00  0.00    -0.247 N 
ATOM      4  C   UNL A   1     -22.942   0.643  28.358  0.00  0.00    +0.405 C 
BRANCH   4   5
ATOM      5  O   UNL A   1     -22.253   1.377  27.550  0.00  0.00    -0.430 OA
ATOM      6  C   UNL A   1     -20.846   1.525  27.280  0.00  0.00    +0.257 C 
ENDBRANCH   4   5
BRANCH   3   7
ATOM      7  C   UNL A   1     -24.251   1.530  26.749  0.00  0.00    +0.104 C 
BRANCH   7   8
ATOM      8  C   UNL A   1     -25.688   1.614  26.461  0.00  0.00    +0.090 C 
ATOM      9  C   UNL A   1     -26.250   2.920  26.395  0.00  0.00    +0.057 C 
ATOM     10  C   UNL A   1     -27.438   3.091  25.645  0.00  0.00    +0.102 C 
ATOM     11  N   UNL A   1     -28.075   2.089  25.003  0.00  0.00    -0.212 NA
ATOM     12  C   UNL A   1     -27.543   0.849  25.079  0.00  0.00    +0.234 C 
ATOM     13  C   UNL A   1     -26.354   0.576  25.777  0.00  0.00    +0.242 C 
ATOM     14  F   UNL A   1     -25.860  -0.681  25.795  0.00  0.00    -0.227 F 
BRANCH   9  15
ATOM     15  C   UNL A   1     -25.642   4.093  27.123  0.00  0.00    +0.263 C 
ATOM     16  N   UNL A   1     -25.614   5.252  26.449  0.00  0.00    -0.200 NA
ATOM     17  C   UNL A   1     -25.026   6.479  26.963  0.00  0.00    +0.139 C 
ATOM     18  O   UNL A   1     -25.143   3.966  28.243  0.00  0.00    -0.269 OA
ENDBRANCH   9  15
BRANCH  12  19
ATOM     19  O   UNL A   1     -28.193  -0.208  24.477  0.00  0.00    -0.459 OA
BRANCH  19  20
ATOM     20  C   UNL A   1     -29.460   0.005  23.866  0.00  0.00    +0.242 C 
BRANCH  20  21
ATOM     21  C   UNL A   1     -30.065  -1.377  23.573  0.00  0.00    +0.229 C 
ATOM     22  O   UNL A   1     -30.729  -1.878  24.721  0.00  0.00    -0.216 OA
ENDBRANCH  20  21
ENDBRANCH  19  20
ENDBRANCH  12  19
ENDBRANCH   7   8
ENDBRANCH   3   7
ENDBRANCH   1   3
BRANCH   1  23
ATOM     23  C   UNL A   1     -24.855  -1.012  30.143  0.00  0.00    +0.057 C 
BRANCH  23  24
ATOM     24  C   UNL A   1     -24.973  -2.505  29.788  0.00  0.00    -0.019 C 
ATOM     25  C   UNL A   1     -23.906  -3.173  29.146  0.00  0.00    -0.004 C 
ATOM     26  C   UNL A   1     -23.989  -4.549  28.853  0.00  0.00    -0.000 C 
ATOM     27  C   UNL A   1     -25.137  -5.280  29.205  0.00  0.00    -0.000 C 
ATOM     28  C   UNL A   1     -26.232  -4.611  29.784  0.00  0.00    -0.000 C 
ATOM     29  C   UNL A   1     -26.155  -3.232  30.065  0.00  0.00    -0.004 C 
ENDBRANCH  23  24
BRANCH  23  30
ATOM     30  C   UNL A   1     -25.387  -0.679  31.571  0.00  0.00    +0.078 C 
ATOM     31  C   UNL A   1     -25.189   0.773  32.028  0.00  0.00    +0.019 C 
ATOM     32  C   UNL A   1     -25.336   0.684  33.544  0.00  0.00    +0.020 C 
ATOM     33  C   UNL A   1     -24.829  -0.715  33.905  0.00  0.00    +0.089 C 
ATOM     34  N   UNL A   1     -24.758  -1.481  32.646  0.00  0.00    -0.219 NA
ENDBRANCH  23  30
ENDBRANCH   1  23
BRANCH   1  35
ATOM     35  C   UNL A   1     -26.593   0.102  28.720  0.00  0.00    +0.052 C 
BRANCH  35  36
ATOM     36  C   UNL A   1     -27.607  -0.787  28.579  0.00  0.00    +0.144 C 
BRANCH  36  37
ATOM     37  O   UNL A   1     -28.883  -0.623  28.730  0.00  0.00    -0.353 OA
BRANCH  37  38
ATOM     38  C   UNL A   1     -29.530   0.596  28.216  0.00  0.00    +0.153 C 
BRANCH  38  40
ATOM     39  C   UNL A   1     -31.168   1.458  30.381  0.00  0.00    +0.015 C 
ATOM     40  C   UNL A   1     -29.930   1.393  29.442  0.00  0.00    +0.133 C 
BRANCH  40  42
ATOM     41  O   UNL A   1     -30.739   3.223  28.147  0.00  0.00    -0.246 OA
ATOM     42  C   UNL A   1     -29.856   2.902  28.922  0.00  0.00    +0.367 C 
ATOM     43  O   UNL A   1     -28.937   3.682  29.371  0.00  0.00    -0.246 OA
ENDBRANCH  40  42
ENDBRANCH  38  40
ENDBRANCH  37  38
ENDBRANCH  36  37
ENDBRANCH  35  36
ENDBRANCH   1  35
TORSDOF 17
