REMARK  Name = outputs/IAG933/test6/raw/output_531_IAG933_linker_design_.xyz
REMARK  10 active torsions:
REMARK  status: ('A' for Active; 'I' for Inactive)
REMARK    1  A    between atoms: C_1  and  C_2
REMARK    2  A    between atoms: C_13  and  C_37
REMARK    3  A    between atoms: C_14  and  C_15
REMARK    4  A    between atoms: C_21  and  O_22
REMARK    5  A    between atoms: O_22  and  C_23
REMARK    6  A    between atoms: C_23  and  C_24
REMARK    7  A    between atoms: C_28  and  C_31
REMARK    8  A    between atoms: C_31  and  C_36
REMARK    9  A    between atoms: C_33  and  C_34
REMARK   10  A    between atoms: C_36  and  C_40
REMARK                            x       y       z     vdW  Elec       q    Type
REMARK                         _______ _______ _______ _____ _____    ______ ____
ROOT
ATOM      1  C   UNL A   1     -24.855  -1.012  30.143  0.00  0.00    +0.144 C 
ATOM      2  C   UNL A   1     -25.387  -0.679  31.571  0.00  0.00    +0.103 C 
ATOM      3  C   UNL A   1     -25.189   0.773  32.028  0.00  0.00    +0.060 C 
ATOM      4  C   UNL A   1     -25.336   0.684  33.544  0.00  0.00    +0.024 C 
ATOM      5  C   UNL A   1     -24.829  -0.715  33.905  0.00  0.00    +0.089 C 
ATOM      6  N   UNL A   1     -24.758  -1.481  32.646  0.00  0.00    -0.217 NA
ATOM      7  C   UNL A   1     -24.450   1.794  31.211  0.00  0.00    +0.169 C 
ATOM      8  N   UNL A   1     -23.498  -0.386  29.788  0.00  0.00    -0.234 NA
ATOM      9  O   UNL A   1     -24.063   1.799  29.921  0.00  0.00    -0.464 OA
ATOM     10  C   UNL A   1     -23.911   0.719  29.040  0.00  0.00    +0.220 C 
ENDROOT
BRANCH   1  11
ATOM     11  C   UNL A   1     -24.973  -2.505  29.788  0.00  0.00    +0.001 C 
ATOM     12  C   UNL A   1     -23.906  -3.173  29.146  0.00  0.00    -0.002 C 
ATOM     13  C   UNL A   1     -23.989  -4.549  28.853  0.00  0.00    -0.000 C 
ATOM     14  C   UNL A   1     -25.137  -5.280  29.205  0.00  0.00    -0.000 C 
ATOM     15  C   UNL A   1     -26.232  -4.611  29.784  0.00  0.00    -0.000 C 
ATOM     16  C   UNL A   1     -26.155  -3.232  30.065  0.00  0.00    -0.002 C 
ENDBRANCH   1  11
BRANCH  10  18
ATOM     17  C   UNL A   1     -22.223   2.313  25.413  0.00  0.00    -0.000 C 
ATOM     18  C   UNL A   1     -23.414   1.239  27.731  0.00  0.00    +0.049 C 
ATOM     19  C   UNL A   1     -24.233   1.668  26.700  0.00  0.00    -0.011 C 
ATOM     20  C   UNL A   1     -21.411   1.927  26.465  0.00  0.00    +0.000 C 
ATOM     21  C   UNL A   1     -23.594   2.138  25.519  0.00  0.00    -0.004 C 
ATOM     22  C   UNL A   1     -22.010   1.386  27.606  0.00  0.00    +0.004 C 
BRANCH  19  23
ATOM     23  C   UNL A   1     -25.688   1.614  26.461  0.00  0.00    +0.092 C 
ATOM     24  C   UNL A   1     -26.250   2.920  26.395  0.00  0.00    +0.059 C 
ATOM     25  C   UNL A   1     -27.438   3.091  25.645  0.00  0.00    +0.102 C 
ATOM     26  N   UNL A   1     -28.075   2.089  25.003  0.00  0.00    -0.212 NA
ATOM     27  C   UNL A   1     -27.543   0.849  25.079  0.00  0.00    +0.234 C 
ATOM     28  C   UNL A   1     -26.354   0.576  25.777  0.00  0.00    +0.244 C 
ATOM     29  F   UNL A   1     -25.860  -0.681  25.795  0.00  0.00    -0.227 F 
BRANCH  24  30
ATOM     30  C   UNL A   1     -25.642   4.093  27.123  0.00  0.00    +0.263 C 
ATOM     31  N   UNL A   1     -25.614   5.252  26.449  0.00  0.00    -0.200 NA
ATOM     32  C   UNL A   1     -25.026   6.479  26.963  0.00  0.00    +0.139 C 
ATOM     33  O   UNL A   1     -25.143   3.966  28.243  0.00  0.00    -0.269 OA
ENDBRANCH  24  30
BRANCH  27  34
ATOM     34  O   UNL A   1     -28.193  -0.208  24.477  0.00  0.00    -0.459 OA
BRANCH  34  35
ATOM     35  C   UNL A   1     -29.460   0.005  23.866  0.00  0.00    +0.242 C 
BRANCH  35  36
ATOM     36  C   UNL A   1     -30.065  -1.377  23.573  0.00  0.00    +0.229 C 
ATOM     37  O   UNL A   1     -30.729  -1.878  24.721  0.00  0.00    -0.216 OA
ENDBRANCH  35  36
ENDBRANCH  34  35
ENDBRANCH  27  34
ENDBRANCH  19  23
ENDBRANCH  10  18
BRANCH   7  38
ATOM     38  C   UNL A   1     -24.523   3.092  31.961  0.00  0.00    +0.053 C 
BRANCH  38  39
ATOM     39  C   UNL A   1     -25.641   4.107  31.595  0.00  0.00    +0.092 C 
BRANCH  39  42
ATOM     40  O   UNL A   1     -24.392   6.027  32.233  0.00  0.00    -0.272 OA
ATOM     41  N   UNL A   1     -25.984   5.379  33.628  0.00  0.00    -0.088 NA
ATOM     42  C   UNL A   1     -25.281   5.270  32.520  0.00  0.00    +0.261 C 
ENDBRANCH  39  42
ENDBRANCH  38  39
ENDBRANCH   7  38
TORSDOF 10
