REMARK  Name = outputs/IAG933/test6/raw/output_5310_IAG933_linker_design_.xyz
REMARK  9 active torsions:
REMARK  status: ('A' for Active; 'I' for Inactive)
REMARK    1  A    between atoms: C_1  and  C_2
REMARK    2  A    between atoms: C_1  and  C_8
REMARK    3  A    between atoms: C_1  and  N_34
REMARK    4  A    between atoms: C_13  and  C_42
REMARK    5  A    between atoms: C_14  and  C_15
REMARK    6  A    between atoms: C_21  and  O_22
REMARK    7  A    between atoms: O_22  and  C_23
REMARK    8  A    between atoms: C_23  and  C_24
REMARK    9  A    between atoms: N_34  and  C_36
REMARK                            x       y       z     vdW  Elec       q    Type
REMARK                         _______ _______ _______ _____ _____    ______ ____
ROOT
ATOM      1  C   UNL A   1     -28.152   1.924  30.407  0.00  0.00    +0.133 C 
ATOM      2  C   UNL A   1     -29.370   1.198  30.355  0.00  0.00    +0.017 C 
ATOM      3  C   UNL A   1     -28.180   3.257  31.070  0.00  0.00    +0.072 C 
ATOM      4  N   UNL A   1     -25.262  -0.022  29.137  0.00  0.00    -0.170 N 
ATOM      5  C   UNL A   1     -28.959  -0.368  28.527  0.00  0.00    +0.322 C 
ATOM      6  N   UNL A   1     -26.940   1.476  29.864  0.00  0.00    -0.077 NA
ATOM      7  C   UNL A   1     -30.113  -1.438  30.204  0.00  0.00    +0.016 C 
ATOM      8  C   UNL A   1     -26.607   0.341  29.195  0.00  0.00    +0.420 C 
ATOM      9  N   UNL A   1     -27.551  -0.689  28.733  0.00  0.00    -0.002 NA
ATOM     10  O   UNL A   1     -29.456  -0.512  27.330  0.00  0.00    -0.253 OA
ATOM     11  C   UNL A   1     -29.747  -0.033  29.677  0.00  0.00    +0.121 C 
ENDROOT
BRANCH   4  16
ATOM     12  O   UNL A   1     -22.514  -0.339  29.723  0.00  0.00    -0.284 OA
ATOM     13  C   UNL A   1     -23.253   2.019  26.395  0.00  0.00    +0.003 C 
ATOM     14  C   UNL A   1     -21.959   1.835  26.836  0.00  0.00    +0.004 C 
ATOM     15  C   UNL A   1     -21.790   0.952  27.938  0.00  0.00    +0.045 C 
ATOM     16  C   UNL A   1     -24.242   0.539  28.282  0.00  0.00    +0.151 C 
ATOM     17  C   UNL A   1     -22.906   0.346  28.653  0.00  0.00    +0.224 C 
ATOM     18  C   UNL A   1     -24.364   1.379  27.041  0.00  0.00    +0.035 C 
BRANCH  18  19
ATOM     19  C   UNL A   1     -25.688   1.614  26.461  0.00  0.00    +0.041 C 
ATOM     20  C   UNL A   1     -26.250   2.920  26.395  0.00  0.00    +0.077 C 
ATOM     21  C   UNL A   1     -27.438   3.091  25.645  0.00  0.00    +0.107 C 
ATOM     22  N   UNL A   1     -28.075   2.089  25.003  0.00  0.00    -0.208 NA
ATOM     23  C   UNL A   1     -27.543   0.849  25.079  0.00  0.00    +0.253 C 
ATOM     24  C   UNL A   1     -26.354   0.576  25.777  0.00  0.00    +0.193 C 
ATOM     25  F   UNL A   1     -25.860  -0.681  25.795  0.00  0.00    -0.199 F 
BRANCH  20  26
ATOM     26  C   UNL A   1     -25.642   4.093  27.123  0.00  0.00    +0.266 C 
ATOM     27  N   UNL A   1     -25.614   5.252  26.449  0.00  0.00    -0.200 NA
ATOM     28  C   UNL A   1     -25.026   6.479  26.963  0.00  0.00    +0.139 C 
ATOM     29  O   UNL A   1     -25.143   3.966  28.243  0.00  0.00    -0.268 OA
ENDBRANCH  20  26
BRANCH  23  30
ATOM     30  O   UNL A   1     -28.193  -0.208  24.477  0.00  0.00    -0.456 OA
BRANCH  30  31
ATOM     31  C   UNL A   1     -29.460   0.005  23.866  0.00  0.00    +0.243 C 
BRANCH  31  32
ATOM     32  C   UNL A   1     -30.065  -1.377  23.573  0.00  0.00    +0.229 C 
ATOM     33  O   UNL A   1     -30.729  -1.878  24.721  0.00  0.00    -0.216 OA
ENDBRANCH  31  32
ENDBRANCH  30  31
ENDBRANCH  23  30
ENDBRANCH  18  19
ENDBRANCH   4  16
BRANCH   4  34
ATOM     34  C   UNL A   1     -24.855  -1.012  30.143  0.00  0.00    +0.177 C 
BRANCH  34  35
ATOM     35  C   UNL A   1     -24.973  -2.505  29.788  0.00  0.00    +0.013 C 
ATOM     36  C   UNL A   1     -23.906  -3.173  29.146  0.00  0.00    -0.001 C 
ATOM     37  C   UNL A   1     -23.989  -4.549  28.853  0.00  0.00    -0.000 C 
ATOM     38  C   UNL A   1     -25.137  -5.280  29.205  0.00  0.00    -0.000 C 
ATOM     39  C   UNL A   1     -26.232  -4.611  29.784  0.00  0.00    -0.000 C 
ATOM     40  C   UNL A   1     -26.155  -3.232  30.065  0.00  0.00    -0.001 C 
ENDBRANCH  34  35
BRANCH  34  41
ATOM     41  C   UNL A   1     -25.387  -0.679  31.571  0.00  0.00    +0.112 C 
ATOM     42  C   UNL A   1     -25.189   0.773  32.028  0.00  0.00    +0.022 C 
ATOM     43  C   UNL A   1     -25.336   0.684  33.544  0.00  0.00    +0.020 C 
ATOM     44  C   UNL A   1     -24.829  -0.715  33.905  0.00  0.00    +0.089 C 
ATOM     45  N   UNL A   1     -24.758  -1.481  32.646  0.00  0.00    -0.216 NA
ENDBRANCH  34  41
ENDBRANCH   4  34
TORSDOF 9
