REMARK  Name = outputs/IAG933/test6/raw/output_5315_IAG933_linker_design_.xyz
REMARK  13 active torsions:
REMARK  status: ('A' for Active; 'I' for Inactive)
REMARK    1  A    between atoms: C_1  and  C_2
REMARK    2  A    between atoms: C_1  and  C_8
REMARK    3  A    between atoms: C_1  and  C_39
REMARK    4  A    between atoms: C_14  and  C_15
REMARK    5  A    between atoms: C_21  and  O_22
REMARK    6  A    between atoms: O_22  and  C_23
REMARK    7  A    between atoms: C_23  and  C_24
REMARK    8  A    between atoms: C_31  and  N_36
REMARK    9  A    between atoms: N_33  and  C_41
REMARK   10  A    between atoms: N_36  and  C_39
REMARK   11  A    between atoms: C_38  and  C_41
REMARK   12  A    between atoms: C_38  and  C_43
REMARK   13  A    between atoms: C_39  and  C_43
REMARK                            x       y       z     vdW  Elec       q    Type
REMARK                         _______ _______ _______ _____ _____    ______ ____
ROOT
ATOM      1  O   UNL A   1     -22.848   0.298  29.439  0.00  0.00    -0.289 OA
ATOM      2  C   UNL A   1     -23.893   0.481  28.766  0.00  0.00    +0.199 C 
ENDROOT
BRANCH   2  11
ATOM      3  C   UNL A   1     -25.688   1.614  26.461  0.00  0.00    +0.059 C 
ATOM      4  C   UNL A   1     -26.250   2.920  26.395  0.00  0.00    +0.080 C 
ATOM      5  C   UNL A   1     -27.438   3.091  25.645  0.00  0.00    +0.107 C 
ATOM      6  N   UNL A   1     -28.075   2.089  25.003  0.00  0.00    -0.211 NA
ATOM      7  C   UNL A   1     -27.543   0.849  25.079  0.00  0.00    +0.239 C 
ATOM      8  C   UNL A   1     -26.354   0.576  25.777  0.00  0.00    +0.265 C 
ATOM      9  F   UNL A   1     -25.860  -0.681  25.795  0.00  0.00    -0.222 F 
ATOM     10  C   UNL A   1     -24.512   1.519  26.899  0.00  0.00    -0.101 C 
ATOM     11  C   UNL A   1     -23.653   1.182  27.585  0.00  0.00    +0.089 C 
BRANCH   4  12
ATOM     12  C   UNL A   1     -25.642   4.093  27.123  0.00  0.00    +0.267 C 
ATOM     13  N   UNL A   1     -25.614   5.252  26.449  0.00  0.00    -0.200 NA
ATOM     14  C   UNL A   1     -25.026   6.479  26.963  0.00  0.00    +0.139 C 
ATOM     15  O   UNL A   1     -25.143   3.966  28.243  0.00  0.00    -0.268 OA
ENDBRANCH   4  12
BRANCH  11  17
ATOM     16 CL   UNL A   1     -20.914   1.681  27.504  0.00  0.00    -0.079 Cl
ATOM     17  C   UNL A   1     -22.551   1.466  27.029  0.00  0.00    +0.257 C 
BRANCH  17  19
ATOM     18  O   UNL A   1     -23.303   3.060  25.781  0.00  0.00    -0.147 OA
ATOM     19  N   UNL A   1     -22.803   2.174  25.867  0.00  0.00    -0.036 NA
ENDBRANCH  17  19
ENDBRANCH  11  17
BRANCH   7  20
ATOM     20  O   UNL A   1     -28.193  -0.208  24.477  0.00  0.00    -0.458 OA
BRANCH  20  21
ATOM     21  C   UNL A   1     -29.460   0.005  23.866  0.00  0.00    +0.242 C 
BRANCH  21  22
ATOM     22  C   UNL A   1     -30.065  -1.377  23.573  0.00  0.00    +0.229 C 
ATOM     23  O   UNL A   1     -30.729  -1.878  24.721  0.00  0.00    -0.216 OA
ENDBRANCH  21  22
ENDBRANCH  20  21
ENDBRANCH   7  20
ENDBRANCH   2  11
BRANCH   2  24
ATOM     24  C   UNL A   1     -25.117  -0.124  29.143  0.00  0.00    +0.159 C 
BRANCH  24  25
ATOM     25  C   UNL A   1     -24.855  -1.012  30.143  0.00  0.00    +0.066 C 
BRANCH  25  26
ATOM     26  C   UNL A   1     -24.973  -2.505  29.788  0.00  0.00    -0.019 C 
ATOM     27  C   UNL A   1     -23.906  -3.173  29.146  0.00  0.00    -0.004 C 
ATOM     28  C   UNL A   1     -23.989  -4.549  28.853  0.00  0.00    -0.000 C 
ATOM     29  C   UNL A   1     -25.137  -5.280  29.205  0.00  0.00    -0.000 C 
ATOM     30  C   UNL A   1     -26.232  -4.611  29.784  0.00  0.00    -0.000 C 
ATOM     31  C   UNL A   1     -26.155  -3.232  30.065  0.00  0.00    -0.004 C 
ENDBRANCH  25  26
BRANCH  25  32
ATOM     32  C   UNL A   1     -25.387  -0.679  31.571  0.00  0.00    +0.079 C 
ATOM     33  C   UNL A   1     -25.189   0.773  32.028  0.00  0.00    +0.019 C 
ATOM     34  C   UNL A   1     -25.336   0.684  33.544  0.00  0.00    +0.020 C 
ATOM     35  C   UNL A   1     -24.829  -0.715  33.905  0.00  0.00    +0.089 C 
ATOM     36  N   UNL A   1     -24.758  -1.481  32.646  0.00  0.00    -0.219 NA
ENDBRANCH  25  32
ENDBRANCH  24  25
BRANCH  24  37
ATOM     37  N   UNL A   1     -26.483  -0.198  28.950  0.00  0.00    -0.231 NA
BRANCH  37  39
ATOM     38  C   UNL A   1     -28.711   0.185  28.195  0.00  0.00    +0.016 C 
ATOM     39  C   UNL A   1     -27.611   0.659  28.891  0.00  0.00    +0.066 C 
ATOM     40  C   UNL A   1     -28.730   2.712  29.220  0.00  0.00    +0.001 C 
ATOM     41  C   UNL A   1     -29.843   0.964  28.037  0.00  0.00    +0.001 C 
ATOM     42  C   UNL A   1     -27.626   1.894  29.462  0.00  0.00    +0.016 C 
ATOM     43  C   UNL A   1     -29.831   2.268  28.495  0.00  0.00    +0.000 C 
ENDBRANCH  37  39
ENDBRANCH  24  37
ENDBRANCH   2  24
TORSDOF 13
