REMARK  Name = outputs/IAG933/test6/raw/output_5317_IAG933_linker_design_.xyz
REMARK  11 active torsions:
REMARK  status: ('A' for Active; 'I' for Inactive)
REMARK    1  A    between atoms: C_1  and  C_2
REMARK    2  A    between atoms: C_1  and  C_8
REMARK    3  A    between atoms: C_1  and  C_30
REMARK    4  A    between atoms: C_13  and  N_33
REMARK    5  A    between atoms: C_14  and  C_15
REMARK    6  A    between atoms: C_21  and  O_22
REMARK    7  A    between atoms: O_22  and  C_23
REMARK    8  A    between atoms: C_23  and  C_24
REMARK    9  A    between atoms: C_31  and  O_37
REMARK   10  A    between atoms: N_33  and  C_34
REMARK   11  A    between atoms: C_36  and  O_37
REMARK                            x       y       z     vdW  Elec       q    Type
REMARK                         _______ _______ _______ _____ _____    ______ ____
ROOT
ATOM      1  C   UNL A   1     -21.811   0.681  28.396  0.00  0.00    +0.051 C 
ATOM      2  N   UNL A   1     -23.984   0.202  28.557  0.00  0.00    -0.261 N 
ATOM      3  C   UNL A   1     -25.150  -0.151  29.052  0.00  0.00    +0.232 C 
ATOM      4  C   UNL A   1     -22.392   1.050  27.187  0.00  0.00    +0.158 C 
ATOM      5  C   UNL A   1     -22.734  -0.140  29.159  0.00  0.00    +0.098 C 
ATOM      6  C   UNL A   1     -23.698   0.893  27.541  0.00  0.00    +0.197 C 
ATOM      7  C   UNL A   1     -20.316   0.289  28.340  0.00  0.00    +0.004 C 
ATOM      8  O   UNL A   1     -26.227   0.098  28.882  0.00  0.00    -0.274 OA
ENDROOT
BRANCH   3   9
ATOM      9  C   UNL A   1     -24.855  -1.012  30.143  0.00  0.00    +0.115 C 
BRANCH   9  10
ATOM     10  C   UNL A   1     -24.973  -2.505  29.788  0.00  0.00    -0.013 C 
ATOM     11  C   UNL A   1     -23.906  -3.173  29.146  0.00  0.00    -0.004 C 
ATOM     12  C   UNL A   1     -23.989  -4.549  28.853  0.00  0.00    -0.000 C 
ATOM     13  C   UNL A   1     -25.137  -5.280  29.205  0.00  0.00    -0.000 C 
ATOM     14  C   UNL A   1     -26.232  -4.611  29.784  0.00  0.00    -0.000 C 
ATOM     15  C   UNL A   1     -26.155  -3.232  30.065  0.00  0.00    -0.004 C 
ENDBRANCH   9  10
BRANCH   9  16
ATOM     16  C   UNL A   1     -25.387  -0.679  31.571  0.00  0.00    +0.086 C 
ATOM     17  C   UNL A   1     -25.189   0.773  32.028  0.00  0.00    +0.020 C 
ATOM     18  C   UNL A   1     -25.336   0.684  33.544  0.00  0.00    +0.020 C 
ATOM     19  C   UNL A   1     -24.829  -0.715  33.905  0.00  0.00    +0.089 C 
ATOM     20  N   UNL A   1     -24.758  -1.481  32.646  0.00  0.00    -0.219 NA
ENDBRANCH   9  16
ENDBRANCH   3   9
BRANCH   6  21
ATOM     21  N   UNL A   1     -24.573   1.448  26.879  0.00  0.00    -0.214 NA
BRANCH  21  22
ATOM     22  C   UNL A   1     -25.688   1.614  26.461  0.00  0.00    +0.105 C 
ATOM     23  C   UNL A   1     -26.250   2.920  26.395  0.00  0.00    +0.091 C 
ATOM     24  C   UNL A   1     -27.438   3.091  25.645  0.00  0.00    +0.108 C 
ATOM     25  N   UNL A   1     -28.075   2.089  25.003  0.00  0.00    -0.208 NA
ATOM     26  C   UNL A   1     -27.543   0.849  25.079  0.00  0.00    +0.255 C 
ATOM     27  C   UNL A   1     -26.354   0.576  25.777  0.00  0.00    +0.208 C 
ATOM     28  F   UNL A   1     -25.860  -0.681  25.795  0.00  0.00    -0.198 F 
BRANCH  23  29
ATOM     29  C   UNL A   1     -25.642   4.093  27.123  0.00  0.00    +0.268 C 
ATOM     30  N   UNL A   1     -25.614   5.252  26.449  0.00  0.00    -0.200 NA
ATOM     31  C   UNL A   1     -25.026   6.479  26.963  0.00  0.00    +0.139 C 
ATOM     32  O   UNL A   1     -25.143   3.966  28.243  0.00  0.00    -0.268 OA
ENDBRANCH  23  29
BRANCH  26  33
ATOM     33  O   UNL A   1     -28.193  -0.208  24.477  0.00  0.00    -0.456 OA
BRANCH  33  34
ATOM     34  C   UNL A   1     -29.460   0.005  23.866  0.00  0.00    +0.243 C 
BRANCH  34  35
ATOM     35  C   UNL A   1     -30.065  -1.377  23.573  0.00  0.00    +0.229 C 
ATOM     36  O   UNL A   1     -30.729  -1.878  24.721  0.00  0.00    -0.216 OA
ENDBRANCH  34  35
ENDBRANCH  33  34
ENDBRANCH  26  33
ENDBRANCH  21  22
ENDBRANCH   6  21
BRANCH   4  37
ATOM     37  O   UNL A   1     -21.670   1.651  26.113  0.00  0.00    -0.324 OA
BRANCH  37  38
ATOM     38  C   UNL A   1     -22.695   2.112  25.517  0.00  0.00    +0.329 C 
ATOM     39  O   UNL A   1     -23.389   2.346  24.652  0.00  0.00    -0.184 OA
ENDBRANCH  37  38
ENDBRANCH   4  37
TORSDOF 11
