REMARK  Name = outputs/IAG933/test6/raw/output_5319_IAG933_linker_design_.xyz
REMARK  13 active torsions:
REMARK  status: ('A' for Active; 'I' for Inactive)
REMARK    1  A    between atoms: C_1  and  C_2
REMARK    2  A    between atoms: C_1  and  C_8
REMARK    3  A    between atoms: C_1  and  N_33
REMARK    4  A    between atoms: C_9  and  O_42
REMARK    5  A    between atoms: C_13  and  C_38
REMARK    6  A    between atoms: C_14  and  C_15
REMARK    7  A    between atoms: C_21  and  O_22
REMARK    8  A    between atoms: O_22  and  C_23
REMARK    9  A    between atoms: C_23  and  C_24
REMARK   10  A    between atoms: C_30  and  O_35
REMARK   11  A    between atoms: C_31  and  O_42
REMARK   12  A    between atoms: O_32  and  C_36
REMARK   13  A    between atoms: O_35  and  C_41
REMARK                            x       y       z     vdW  Elec       q    Type
REMARK                         _______ _______ _______ _____ _____    ______ ____
ROOT
ATOM      1  N   UNL A   1     -24.511  -0.072  29.049  0.00  0.00    -0.265 NA
ATOM      2  C   UNL A   1     -25.266  -0.139  28.052  0.00  0.00    +0.093 C 
ATOM      3  C   UNL A   1     -22.288   1.483  27.212  0.00  0.00    +0.260 C 
ATOM      4  C   UNL A   1     -24.468   1.361  26.942  0.00  0.00    +0.103 C 
ATOM      5  N   UNL A   1     -23.298   1.776  26.435  0.00  0.00    -0.240 NA
ATOM      6  C   UNL A   1     -24.333   0.527  28.111  0.00  0.00    +0.119 C 
ATOM      7  C   UNL A   1     -22.479   0.773  28.266  0.00  0.00    +0.228 C 
ATOM      8  C   UNL A   1     -23.098   2.486  25.123  0.00  0.00    +0.092 C 
ENDROOT
BRANCH   4   9
ATOM      9  C   UNL A   1     -25.688   1.614  26.461  0.00  0.00    +0.032 C 
ATOM     10  C   UNL A   1     -26.250   2.920  26.395  0.00  0.00    +0.074 C 
ATOM     11  C   UNL A   1     -27.438   3.091  25.645  0.00  0.00    +0.106 C 
ATOM     12  N   UNL A   1     -28.075   2.089  25.003  0.00  0.00    -0.208 NA
ATOM     13  C   UNL A   1     -27.543   0.849  25.079  0.00  0.00    +0.253 C 
ATOM     14  C   UNL A   1     -26.354   0.576  25.777  0.00  0.00    +0.190 C 
ATOM     15  F   UNL A   1     -25.860  -0.681  25.795  0.00  0.00    -0.200 F 
BRANCH  10  16
ATOM     16  C   UNL A   1     -25.642   4.093  27.123  0.00  0.00    +0.266 C 
ATOM     17  N   UNL A   1     -25.614   5.252  26.449  0.00  0.00    -0.200 NA
ATOM     18  C   UNL A   1     -25.026   6.479  26.963  0.00  0.00    +0.139 C 
ATOM     19  O   UNL A   1     -25.143   3.966  28.243  0.00  0.00    -0.268 OA
ENDBRANCH  10  16
BRANCH  13  20
ATOM     20  O   UNL A   1     -28.193  -0.208  24.477  0.00  0.00    -0.456 OA
BRANCH  20  21
ATOM     21  C   UNL A   1     -29.460   0.005  23.866  0.00  0.00    +0.243 C 
BRANCH  21  22
ATOM     22  C   UNL A   1     -30.065  -1.377  23.573  0.00  0.00    +0.229 C 
ATOM     23  O   UNL A   1     -30.729  -1.878  24.721  0.00  0.00    -0.216 OA
ENDBRANCH  21  22
ENDBRANCH  20  21
ENDBRANCH  13  20
ENDBRANCH   4   9
BRANCH   3  25
ATOM     24  F   UNL A   1     -20.035   2.030  27.786  0.00  0.00    -0.045 F 
ATOM     25  O   UNL A   1     -20.954   1.796  26.927  0.00  0.00    -0.161 OA
ENDBRANCH   3  25
BRANCH   1  26
ATOM     26  C   UNL A   1     -24.855  -1.012  30.143  0.00  0.00    +0.099 C 
BRANCH  26  27
ATOM     27  C   UNL A   1     -24.973  -2.505  29.788  0.00  0.00    -0.006 C 
ATOM     28  C   UNL A   1     -23.906  -3.173  29.146  0.00  0.00    -0.003 C 
ATOM     29  C   UNL A   1     -23.989  -4.549  28.853  0.00  0.00    -0.000 C 
ATOM     30  C   UNL A   1     -25.137  -5.280  29.205  0.00  0.00    -0.000 C 
ATOM     31  C   UNL A   1     -26.232  -4.611  29.784  0.00  0.00    -0.000 C 
ATOM     32  C   UNL A   1     -26.155  -3.232  30.065  0.00  0.00    -0.003 C 
ENDBRANCH  26  27
BRANCH  26  33
ATOM     33  C   UNL A   1     -25.387  -0.679  31.571  0.00  0.00    +0.119 C 
ATOM     34  C   UNL A   1     -25.189   0.773  32.028  0.00  0.00    +0.137 C 
ATOM     35  C   UNL A   1     -25.336   0.684  33.544  0.00  0.00    +0.050 C 
ATOM     36  C   UNL A   1     -24.829  -0.715  33.905  0.00  0.00    +0.091 C 
ATOM     37  N   UNL A   1     -24.758  -1.481  32.646  0.00  0.00    -0.215 NA
BRANCH  34  38
ATOM     38  O   UNL A   1     -23.971   1.222  31.447  0.00  0.00    -0.326 OA
BRANCH  38  40
ATOM     39  O   UNL A   1     -25.704   2.540  30.126  0.00  0.00    -0.184 OA
ATOM     40  C   UNL A   1     -24.340   2.481  30.535  0.00  0.00    +0.329 C 
ENDBRANCH  38  40
ENDBRANCH  34  38
ENDBRANCH  26  33
ENDBRANCH   1  26
BRANCH   7  41
ATOM     41  O   UNL A   1     -22.097  -0.180  28.925  0.00  0.00    -0.470 OA
BRANCH  41  42
ATOM     42  C   UNL A   1     -20.793  -0.160  28.817  0.00  0.00    +0.172 C 
ATOM     43  C   UNL A   1     -19.833  -0.333  28.005  0.00  0.00    +0.043 C 
ENDBRANCH  41  42
ENDBRANCH   7  41
TORSDOF 13
