MODEL 531
MODEL 1
REMARK VINA RESULT:    -4.299      0.000      0.000
REMARK INTER + INTRA:          -4.299
REMARK INTER:                  -4.299
REMARK INTRA:                   0.000
REMARK UNBOUND:                 0.000
REMARK  Name = No_531-gen_results/8p0m/2024-11-27-11-27-31/
REMARK  0 active torsions:
REMARK  status: ('A' for Active; 'I' for Inactive)
REMARK                            x       y       z     vdW  Elec       q    Type
REMARK                         _______ _______ _______ _____ _____    ______ ____
ROOT
ATOM      1  C   UNL A   1     -24.940  -5.398  28.979  0.00  0.00    +0.000 A 
ATOM      2  C   UNL A   1     -24.184  -4.709  28.725  0.00  0.00    +0.000 A 
ATOM      3  C   UNL A   1     -26.105  -4.782  29.613  0.00  0.00    +0.000 A 
ATOM      4  C   UNL A   1     -26.189  -3.428  29.827  0.00  0.00    +0.000 A 
ATOM      5  C   UNL A   1     -24.004  -3.261  28.824  0.00  0.00    +0.000 A 
ATOM      6  C   UNL A   1     -25.126  -2.655  29.436  0.00  0.00    +0.000 A 
ENDROOT
TORSDOF 0
ENDMDL
ENDMDL
