REMARK  Name = outputs/IAG933/test6/raw/output_5326_IAG933_linker_design_.xyz
REMARK  13 active torsions:
REMARK  status: ('A' for Active; 'I' for Inactive)
REMARK    1  A    between atoms: C_1  and  C_2
REMARK    2  A    between atoms: C_1  and  C_8
REMARK    3  A    between atoms: C_1  and  N_40
REMARK    4  A    between atoms: C_13  and  C_38
REMARK    5  A    between atoms: C_14  and  C_15
REMARK    6  A    between atoms: C_21  and  O_22
REMARK    7  A    between atoms: O_22  and  C_23
REMARK    8  A    between atoms: C_23  and  C_24
REMARK    9  A    between atoms: C_29  and  N_34
REMARK   10  A    between atoms: C_29  and  C_36
REMARK   11  A    between atoms: C_29  and  C_38
REMARK   12  A    between atoms: P_32  and  P_33
REMARK   13  A    between atoms: P_33  and  C_37
REMARK                            x       y       z     vdW  Elec       q    Type
REMARK                         _______ _______ _______ _____ _____    ______ ____
ROOT
ATOM      1  C   UNL A   1     -26.351   0.619  28.703  0.00  0.00    -0.105 C 
ATOM      2  C   UNL A   1     -27.586   0.763  29.753  0.00  0.00    +0.079 C 
ATOM      3  C   UNL A   1     -25.058   1.130  27.692  0.00  0.00    +0.013 C 
ENDROOT
BRANCH   3   4
ATOM      4  C   UNL A   1     -25.688   1.614  26.461  0.00  0.00    +0.097 C 
ATOM      5  C   UNL A   1     -26.250   2.920  26.395  0.00  0.00    +0.059 C 
ATOM      6  C   UNL A   1     -27.438   3.091  25.645  0.00  0.00    +0.102 C 
ATOM      7  N   UNL A   1     -28.075   2.089  25.003  0.00  0.00    -0.212 NA
ATOM      8  C   UNL A   1     -27.543   0.849  25.079  0.00  0.00    +0.234 C 
ATOM      9  C   UNL A   1     -26.354   0.576  25.777  0.00  0.00    +0.244 C 
ATOM     10  F   UNL A   1     -25.860  -0.681  25.795  0.00  0.00    -0.227 F 
BRANCH   5  11
ATOM     11  C   UNL A   1     -25.642   4.093  27.123  0.00  0.00    +0.263 C 
ATOM     12  N   UNL A   1     -25.614   5.252  26.449  0.00  0.00    -0.200 NA
ATOM     13  C   UNL A   1     -25.026   6.479  26.963  0.00  0.00    +0.139 C 
ATOM     14  O   UNL A   1     -25.143   3.966  28.243  0.00  0.00    -0.269 OA
ENDBRANCH   5  11
BRANCH   8  15
ATOM     15  O   UNL A   1     -28.193  -0.208  24.477  0.00  0.00    -0.459 OA
BRANCH  15  16
ATOM     16  C   UNL A   1     -29.460   0.005  23.866  0.00  0.00    +0.242 C 
BRANCH  16  17
ATOM     17  C   UNL A   1     -30.065  -1.377  23.573  0.00  0.00    +0.229 C 
ATOM     18  O   UNL A   1     -30.729  -1.878  24.721  0.00  0.00    -0.216 OA
ENDBRANCH  16  17
ENDBRANCH  15  16
ENDBRANCH   8  15
ENDBRANCH   3   4
BRANCH   2  20
ATOM     19  O   UNL A   1     -28.951  -1.148  29.479  0.00  0.00    -0.307 OA
ATOM     20  P   UNL A   1     -29.006   0.211  29.950  0.00  0.00    +0.190 P 
ATOM     21  C   UNL A   1     -30.048   1.264  29.012  0.00  0.00    +0.079 C 
BRANCH  20  22
ATOM     22  P   UNL A   1     -29.569   0.281  31.750  0.00  0.00    +0.167 P 
ATOM     23  C   UNL A   1     -29.885   1.894  32.312  0.00  0.00    +0.075 C 
ATOM     24  C   UNL A   1     -31.155  -0.241  31.779  0.00  0.00    +0.075 C 
ATOM     25  O   UNL A   1     -28.569  -0.326  32.628  0.00  0.00    -0.312 OA
ENDBRANCH  20  22
ENDBRANCH   2  20
BRANCH   3  26
ATOM     26  C   UNL A   1     -23.773   1.107  27.638  0.00  0.00    +0.100 C 
BRANCH  26  28
ATOM     27  C   UNL A   1     -23.130   0.879  29.605  0.00  0.00    +0.179 C 
ATOM     28  N   UNL A   1     -23.286   0.380  28.715  0.00  0.00    -0.196 NA
ATOM     29  N   UNL A   1     -23.809  -0.323  29.382  0.00  0.00    -0.195 NA
BRANCH  29  30
ATOM     30  C   UNL A   1     -24.855  -1.012  30.143  0.00  0.00    +0.112 C 
BRANCH  30  31
ATOM     31  C   UNL A   1     -24.973  -2.505  29.788  0.00  0.00    -0.005 C 
ATOM     32  C   UNL A   1     -23.906  -3.173  29.146  0.00  0.00    -0.003 C 
ATOM     33  C   UNL A   1     -23.989  -4.549  28.853  0.00  0.00    -0.000 C 
ATOM     34  C   UNL A   1     -25.137  -5.280  29.205  0.00  0.00    -0.000 C 
ATOM     35  C   UNL A   1     -26.232  -4.611  29.784  0.00  0.00    -0.000 C 
ATOM     36  C   UNL A   1     -26.155  -3.232  30.065  0.00  0.00    -0.003 C 
ENDBRANCH  30  31
BRANCH  30  37
ATOM     37  C   UNL A   1     -25.387  -0.679  31.571  0.00  0.00    +0.093 C 
ATOM     38  C   UNL A   1     -25.189   0.773  32.028  0.00  0.00    +0.021 C 
ATOM     39  C   UNL A   1     -25.336   0.684  33.544  0.00  0.00    +0.020 C 
ATOM     40  C   UNL A   1     -24.829  -0.715  33.905  0.00  0.00    +0.089 C 
ATOM     41  N   UNL A   1     -24.758  -1.481  32.646  0.00  0.00    -0.218 NA
ENDBRANCH  30  37
ENDBRANCH  29  30
ENDBRANCH  26  28
BRANCH  26  42
ATOM     42  C   UNL A   1     -22.862   2.015  26.815  0.00  0.00    +0.022 C 
ATOM     43  C   UNL A   1     -21.467   1.632  27.159  0.00  0.00    +0.002 C 
ENDBRANCH  26  42
ENDBRANCH   3  26
TORSDOF 13
