REMARK  Name = outputs/IAG933/test6/raw/output_5328_IAG933_linker_design_.xyz
REMARK  14 active torsions:
REMARK  status: ('A' for Active; 'I' for Inactive)
REMARK    1  A    between atoms: C_1  and  C_2
REMARK    2  A    between atoms: C_1  and  C_8
REMARK    3  A    between atoms: C_9  and  C_32
REMARK    4  A    between atoms: C_13  and  C_39
REMARK    5  A    between atoms: C_14  and  C_15
REMARK    6  A    between atoms: C_21  and  O_22
REMARK    7  A    between atoms: O_22  and  C_23
REMARK    8  A    between atoms: C_23  and  C_24
REMARK    9  A    between atoms: O_28  and  C_40
REMARK   10  A    between atoms: C_30  and  C_32
REMARK   11  A    between atoms: C_30  and  C_42
REMARK   12  A    between atoms: C_32  and  N_37
REMARK   13  A    between atoms: C_33  and  C_39
REMARK   14  A    between atoms: C_36  and  N_37
REMARK                            x       y       z     vdW  Elec       q    Type
REMARK                         _______ _______ _______ _____ _____    ______ ____
ROOT
ATOM      1  C   UNL A   1     -23.773   1.536  27.565  0.00  0.00    +0.031 C 
ATOM      2  C   UNL A   1     -21.452   1.662  26.912  0.00  0.00    +0.041 C 
ATOM      3  C   UNL A   1     -23.467   1.478  28.950  0.00  0.00    +0.064 C 
ATOM      4  C   UNL A   1     -22.815   1.813  26.567  0.00  0.00    +0.183 C 
ATOM      5  C   UNL A   1     -22.126   1.268  29.236  0.00  0.00    +0.016 C 
ATOM      6  C   UNL A   1     -21.131   1.319  28.226  0.00  0.00    +0.004 C 
ENDROOT
BRANCH   4   7
ATOM      7  O   UNL A   1     -23.118   2.051  25.249  0.00  0.00    -0.303 OA
ATOM      8  O   UNL A   1     -23.623   1.020  24.495  0.00  0.00    +0.028 OA
ENDBRANCH   4   7
BRANCH   3   9
ATOM      9  N   UNL A   1     -24.618   1.622  29.739  0.00  0.00    -0.239 NA
BRANCH   9  10
ATOM     10  C   UNL A   1     -25.321   1.822  30.989  0.00  0.00    +0.094 C 
BRANCH  10  12
ATOM     11  C   UNL A   1     -25.387  -0.679  31.571  0.00  0.00    +0.079 C 
ATOM     12  C   UNL A   1     -25.189   0.773  32.028  0.00  0.00    +0.038 C 
ATOM     13  C   UNL A   1     -25.336   0.684  33.544  0.00  0.00    +0.022 C 
ATOM     14  C   UNL A   1     -24.829  -0.715  33.905  0.00  0.00    +0.089 C 
ATOM     15  N   UNL A   1     -24.758  -1.481  32.646  0.00  0.00    -0.219 NA
BRANCH  11  16
ATOM     16  C   UNL A   1     -24.855  -1.012  30.143  0.00  0.00    +0.044 C 
BRANCH  16  17
ATOM     17  C   UNL A   1     -24.973  -2.505  29.788  0.00  0.00    -0.021 C 
ATOM     18  C   UNL A   1     -23.906  -3.173  29.146  0.00  0.00    -0.004 C 
ATOM     19  C   UNL A   1     -23.989  -4.549  28.853  0.00  0.00    -0.000 C 
ATOM     20  C   UNL A   1     -25.137  -5.280  29.205  0.00  0.00    -0.000 C 
ATOM     21  C   UNL A   1     -26.232  -4.611  29.784  0.00  0.00    -0.000 C 
ATOM     22  C   UNL A   1     -26.155  -3.232  30.065  0.00  0.00    -0.004 C 
ENDBRANCH  16  17
ENDBRANCH  11  16
ENDBRANCH  10  12
BRANCH  10  23
ATOM     23  C   UNL A   1     -25.402   3.171  31.176  0.00  0.00    +0.023 C 
BRANCH  23  28
ATOM     24  F   UNL A   1     -26.947   4.986  34.403  0.00  0.00    -0.186 F 
ATOM     25  C   UNL A   1     -27.189   3.615  32.657  0.00  0.00    +0.086 C 
ATOM     26  N   UNL A   1     -25.982   5.564  32.543  0.00  0.00    -0.162 NA
ATOM     27  F   UNL A   1     -28.152   5.747  32.824  0.00  0.00    -0.186 F 
ATOM     28  C   UNL A   1     -25.697   3.364  32.633  0.00  0.00    +0.026 C 
ATOM     29  C   UNL A   1     -24.933   4.652  32.909  0.00  0.00    +0.094 C 
ATOM     30  C   UNL A   1     -27.096   5.024  33.087  0.00  0.00    +0.327 C 
ENDBRANCH  23  28
ENDBRANCH  10  23
ENDBRANCH   9  10
ENDBRANCH   3   9
BRANCH   1  31
ATOM     31  C   UNL A   1     -24.856   1.022  27.341  0.00  0.00    +0.039 C 
BRANCH  31  32
ATOM     32  C   UNL A   1     -25.688   1.614  26.461  0.00  0.00    +0.075 C 
ATOM     33  C   UNL A   1     -26.250   2.920  26.395  0.00  0.00    +0.055 C 
ATOM     34  C   UNL A   1     -27.438   3.091  25.645  0.00  0.00    +0.102 C 
ATOM     35  N   UNL A   1     -28.075   2.089  25.003  0.00  0.00    -0.212 NA
ATOM     36  C   UNL A   1     -27.543   0.849  25.079  0.00  0.00    +0.234 C 
ATOM     37  C   UNL A   1     -26.354   0.576  25.777  0.00  0.00    +0.240 C 
ATOM     38  F   UNL A   1     -25.860  -0.681  25.795  0.00  0.00    -0.227 F 
BRANCH  33  39
ATOM     39  C   UNL A   1     -25.642   4.093  27.123  0.00  0.00    +0.262 C 
ATOM     40  N   UNL A   1     -25.614   5.252  26.449  0.00  0.00    -0.200 NA
ATOM     41  C   UNL A   1     -25.026   6.479  26.963  0.00  0.00    +0.139 C 
ATOM     42  O   UNL A   1     -25.143   3.966  28.243  0.00  0.00    -0.269 OA
ENDBRANCH  33  39
BRANCH  36  43
ATOM     43  O   UNL A   1     -28.193  -0.208  24.477  0.00  0.00    -0.459 OA
BRANCH  43  44
ATOM     44  C   UNL A   1     -29.460   0.005  23.866  0.00  0.00    +0.242 C 
BRANCH  44  45
ATOM     45  C   UNL A   1     -30.065  -1.377  23.573  0.00  0.00    +0.229 C 
ATOM     46  O   UNL A   1     -30.729  -1.878  24.721  0.00  0.00    -0.216 OA
ENDBRANCH  44  45
ENDBRANCH  43  44
ENDBRANCH  36  43
ENDBRANCH  31  32
ENDBRANCH   1  31
TORSDOF 14
