MODEL 532
MODEL 1
REMARK VINA RESULT:    -7.945      0.000      0.000
REMARK INTER + INTRA:         -10.505
REMARK INTER:                  -9.802
REMARK INTRA:                  -0.702
REMARK UNBOUND:                -0.702
REMARK  Name = No_532-gen_results/8p0m/2024-11-27-11-27-31/
REMARK  4 active torsions:
REMARK  status: ('A' for Active; 'I' for Inactive)
REMARK    1  A    between atoms: C_3  and  C_8
REMARK    2  A    between atoms: C_15  and  C_16
REMARK    3  A    between atoms: C_16  and  C_17
REMARK    4  A    between atoms: C_17  and  C_19
REMARK                            x       y       z     vdW  Elec       q    Type
REMARK                         _______ _______ _______ _____ _____    ______ ____
ROOT
ATOM      1  C   UNL A   1     -30.436 -14.010  25.566  0.00  0.00    +0.016 A 
ATOM      2  C   UNL A   1     -29.986 -13.979  26.687  0.00  0.00    -0.001 A 
ATOM      3  C   UNL A   1     -30.074 -12.830  27.465  0.00  0.00    -0.000 A 
ATOM      4  C   UNL A   1     -30.665 -11.625  26.942  0.00  0.00    +0.003 A 
ATOM      5  C   UNL A   1     -31.140 -11.742  25.629  0.00  0.00    +0.037 A 
ATOM      6  C   UNL A   1     -31.016 -12.848  24.930  0.00  0.00    +0.135 A 
ATOM      7  O   UNL A   1     -31.469 -12.866  23.646  0.00  0.00    -0.476 OA
ATOM      8  C   UNL A   1     -30.711 -13.328  22.639  0.00  0.00    +0.203 C 
ATOM      9  C   UNL A   1     -30.866 -14.753  22.395  0.00  0.00    +0.072 C 
ATOM     10  C   UNL A   1     -29.761 -15.575  22.676  0.00  0.00    -0.022 A 
ATOM     11  C   UNL A   1     -29.153 -16.108  21.766  0.00  0.00    -0.004 A 
ATOM     12  C   UNL A   1     -27.746 -16.381  21.859  0.00  0.00    -0.000 A 
ATOM     13  C   UNL A   1     -27.217 -16.598  23.155  0.00  0.00    -0.000 A 
ATOM     14  C   UNL A   1     -28.019 -16.169  24.260  0.00  0.00    -0.004 A 
ATOM     15  C   UNL A   1     -29.241 -15.634  24.002  0.00  0.00    -0.021 A 
ATOM     16  C   UNL A   1     -29.874 -15.109  24.659  0.00  0.00    +0.055 C 
ENDROOT
BRANCH   3  17
ATOM     17  C   UNL A   1     -29.563 -12.670  28.876  0.00  0.00    +0.001 A 
ATOM     18  C   UNL A   1     -28.892 -11.665  29.319  0.00  0.00    +0.000 A 
ATOM     19  C   UNL A   1     -28.516 -11.564  30.719  0.00  0.00    +0.001 A 
ATOM     20  C   UNL A   1     -29.124 -12.431  31.640  0.00  0.00    +0.007 A 
ATOM     21  C   UNL A   1     -30.174 -13.529  29.884  0.00  0.00    +0.007 A 
ATOM     22  C   UNL A   1     -29.903 -13.396  31.211  0.00  0.00    +0.035 A 
ATOM     23 BR   UNL A   1     -30.644 -14.644  32.457  0.00  0.00    -0.049 Br
ENDBRANCH   3  17
BRANCH   8  24
ATOM     24  C   UNL A   1     -30.799 -12.469  21.560  0.00  0.00    +0.230 C 
ATOM     25  O   UNL A   1     -31.979 -12.813  20.738  0.00  0.00    -0.216 OA
BRANCH  24  26
ATOM     26  C   UNL A   1     -29.783 -12.294  20.707  0.00  0.00    +0.250 C 
ATOM     27  O   UNL A   1     -29.544 -10.944  20.255  0.00  0.00    -0.212 OA
BRANCH  26  28
ATOM     28  C   UNL A   1     -28.466 -12.709  21.045  0.00  0.00    +0.243 C 
ATOM     29  O   UNL A   1     -27.627 -12.407  20.302  0.00  0.00    -0.285 OA
ENDBRANCH  26  28
ENDBRANCH  24  26
ENDBRANCH   8  24
TORSDOF 4
ENDMDL
ENDMDL
