REMARK  Name = outputs/IAG933/test6/raw/output_5330_IAG933_linker_design_.xyz
REMARK  16 active torsions:
REMARK  status: ('A' for Active; 'I' for Inactive)
REMARK    1  A    between atoms: C_1  and  C_2
REMARK    2  A    between atoms: C_13  and  C_41
REMARK    3  A    between atoms: C_14  and  C_15
REMARK    4  A    between atoms: C_21  and  O_22
REMARK    5  A    between atoms: O_22  and  C_23
REMARK    6  A    between atoms: C_23  and  C_24
REMARK    7  A    between atoms: C_28  and  C_29
REMARK    8  A    between atoms: C_28  and  O_37
REMARK    9  A    between atoms: C_29  and  C_31
REMARK   10  A    between atoms: C_32  and  C_35
REMARK   11  A    between atoms: C_32  and  C_36
REMARK   12  A    between atoms: C_34  and  O_37
REMARK   13  A    between atoms: C_34  and  C_41
REMARK   14  A    between atoms: C_35  and  O_38
REMARK   15  A    between atoms: C_36  and  C_43
REMARK   16  A    between atoms: O_38  and  C_40
REMARK                            x       y       z     vdW  Elec       q    Type
REMARK                         _______ _______ _______ _____ _____    ______ ____
ROOT
ATOM      1  C   UNL A   1     -24.855  -1.012  30.143  0.00  0.00    +0.153 C 
ATOM      2  C   UNL A   1     -25.387  -0.679  31.571  0.00  0.00    +0.106 C 
ATOM      3  C   UNL A   1     -25.189   0.773  32.028  0.00  0.00    +0.045 C 
ATOM      4  C   UNL A   1     -25.336   0.684  33.544  0.00  0.00    +0.023 C 
ATOM      5  C   UNL A   1     -24.829  -0.715  33.905  0.00  0.00    +0.089 C 
ATOM      6  N   UNL A   1     -24.758  -1.481  32.646  0.00  0.00    -0.217 NA
ATOM      7  O   UNL A   1     -24.195  -0.318  29.046  0.00  0.00    -0.353 OA
ATOM      8  C   UNL A   1     -23.438   0.954  29.137  0.00  0.00    +0.120 C 
ATOM      9  C   UNL A   1     -25.214   1.961  31.063  0.00  0.00    +0.097 C 
ATOM     10  C   UNL A   1     -23.805   1.911  30.216  0.00  0.00    +0.057 C 
ENDROOT
BRANCH   1  11
ATOM     11  C   UNL A   1     -24.973  -2.505  29.788  0.00  0.00    +0.006 C 
ATOM     12  C   UNL A   1     -23.906  -3.173  29.146  0.00  0.00    -0.002 C 
ATOM     13  C   UNL A   1     -23.989  -4.549  28.853  0.00  0.00    -0.000 C 
ATOM     14  C   UNL A   1     -25.137  -5.280  29.205  0.00  0.00    -0.000 C 
ATOM     15  C   UNL A   1     -26.232  -4.611  29.784  0.00  0.00    -0.000 C 
ATOM     16  C   UNL A   1     -26.155  -3.232  30.065  0.00  0.00    -0.002 C 
ENDBRANCH   1  11
BRANCH   9  17
ATOM     17  O   UNL A   1     -25.317   3.195  31.865  0.00  0.00    -0.358 OA
BRANCH  17  19
ATOM     18  C   UNL A   1     -25.072   5.119  33.305  0.00  0.00    +0.035 C 
ATOM     19  C   UNL A   1     -24.676   4.244  32.258  0.00  0.00    +0.142 C 
ENDBRANCH  17  19
ENDBRANCH   9  17
BRANCH   9  20
ATOM     20  C   UNL A   1     -26.327   2.190  29.997  0.00  0.00    +0.030 C 
BRANCH  20  21
ATOM     21  C   UNL A   1     -27.715   1.274  30.141  0.00  0.00    +0.038 C 
BRANCH  21  23
ATOM     22  O   UNL A   1     -27.966  -0.682  29.072  0.00  0.00    -0.220 OA
ATOM     23  C   UNL A   1     -27.654   0.617  28.793  0.00  0.00    +0.182 C 
ENDBRANCH  21  23
ENDBRANCH  20  21
ENDBRANCH   9  20
BRANCH   8  24
ATOM     24  C   UNL A   1     -22.251   0.940  28.494  0.00  0.00    +0.062 C 
BRANCH  24  25
ATOM     25  C   UNL A   1     -21.430   1.634  27.418  0.00  0.00    +0.145 C 
BRANCH  25  26
ATOM     26  O   UNL A   1     -22.090   2.132  26.335  0.00  0.00    -0.354 OA
BRANCH  26  27
ATOM     27  C   UNL A   1     -23.324   1.711  26.258  0.00  0.00    +0.143 C 
BRANCH  27  28
ATOM     28  C   UNL A   1     -24.380   1.429  26.503  0.00  0.00    +0.040 C 
BRANCH  28  29
ATOM     29  C   UNL A   1     -25.688   1.614  26.461  0.00  0.00    +0.073 C 
ATOM     30  C   UNL A   1     -26.250   2.920  26.395  0.00  0.00    +0.055 C 
ATOM     31  C   UNL A   1     -27.438   3.091  25.645  0.00  0.00    +0.102 C 
ATOM     32  N   UNL A   1     -28.075   2.089  25.003  0.00  0.00    -0.212 NA
ATOM     33  C   UNL A   1     -27.543   0.849  25.079  0.00  0.00    +0.234 C 
ATOM     34  C   UNL A   1     -26.354   0.576  25.777  0.00  0.00    +0.240 C 
ATOM     35  F   UNL A   1     -25.860  -0.681  25.795  0.00  0.00    -0.227 F 
BRANCH  30  36
ATOM     36  C   UNL A   1     -25.642   4.093  27.123  0.00  0.00    +0.262 C 
ATOM     37  N   UNL A   1     -25.614   5.252  26.449  0.00  0.00    -0.200 NA
ATOM     38  C   UNL A   1     -25.026   6.479  26.963  0.00  0.00    +0.139 C 
ATOM     39  O   UNL A   1     -25.143   3.966  28.243  0.00  0.00    -0.269 OA
ENDBRANCH  30  36
BRANCH  33  40
ATOM     40  O   UNL A   1     -28.193  -0.208  24.477  0.00  0.00    -0.459 OA
BRANCH  40  41
ATOM     41  C   UNL A   1     -29.460   0.005  23.866  0.00  0.00    +0.242 C 
BRANCH  41  42
ATOM     42  C   UNL A   1     -30.065  -1.377  23.573  0.00  0.00    +0.229 C 
ATOM     43  O   UNL A   1     -30.729  -1.878  24.721  0.00  0.00    -0.216 OA
ENDBRANCH  41  42
ENDBRANCH  40  41
ENDBRANCH  33  40
ENDBRANCH  28  29
ENDBRANCH  27  28
ENDBRANCH  26  27
ENDBRANCH  25  26
ENDBRANCH  24  25
ENDBRANCH   8  24
TORSDOF 16
