MODEL 533
MODEL 1
REMARK VINA RESULT:    -6.348      0.000      0.000
REMARK INTER + INTRA:          -7.080
REMARK INTER:                  -6.719
REMARK INTRA:                  -0.361
REMARK UNBOUND:                -0.361
REMARK  Name = No_533-gen_results/8p0m/2024-11-27-11-27-31/
REMARK  1 active torsions:
REMARK  status: ('A' for Active; 'I' for Inactive)
REMARK    1  A    between atoms: C_3  and  C_8
REMARK                            x       y       z     vdW  Elec       q    Type
REMARK                         _______ _______ _______ _____ _____    ______ ____
ROOT
ATOM      1  C   UNL A   1     -27.465 -12.380  32.234  0.00  0.00    +0.042 A 
ATOM      2  C   UNL A   1     -28.006 -12.074  31.196  0.00  0.00    +0.003 A 
ATOM      3  C   UNL A   1     -28.936 -11.182  31.013  0.00  0.00    +0.000 A 
ATOM      4  C   UNL A   1     -29.413 -10.464  32.152  0.00  0.00    +0.003 A 
ATOM      5  C   UNL A   1     -27.814 -11.614  33.416  0.00  0.00    +0.196 A 
ATOM      6  C   UNL A   1     -28.773 -10.693  33.319  0.00  0.00    +0.042 A 
ATOM      7  O   UNL A   1     -27.120 -11.906  34.552  0.00  0.00    -0.287 OA
ENDROOT
BRANCH   3   8
ATOM      8  C   UNL A   1     -29.606 -10.935  29.667  0.00  0.00    +0.000 A 
ATOM      9  C   UNL A   1     -30.367 -10.221  29.365  0.00  0.00    +0.000 A 
ATOM     10  C   UNL A   1     -29.109 -11.839  28.594  0.00  0.00    +0.000 A 
ATOM     11  C   UNL A   1     -29.563 -11.614  27.287  0.00  0.00    +0.000 A 
ATOM     12  C   UNL A   1     -30.935  -9.847  28.062  0.00  0.00    +0.000 A 
ATOM     13  C   UNL A   1     -30.481 -10.625  26.973  0.00  0.00    +0.000 A 
ENDBRANCH   3   8
TORSDOF 1
ENDMDL
ENDMDL
