REMARK  Name = outputs/IAG933/test6/raw/output_5340_IAG933_linker_design_.xyz
REMARK  13 active torsions:
REMARK  status: ('A' for Active; 'I' for Inactive)
REMARK    1  A    between atoms: C_1  and  C_2
REMARK    2  A    between atoms: C_1  and  C_8
REMARK    3  A    between atoms: C_1  and  C_41
REMARK    4  A    between atoms: C_13  and  C_39
REMARK    5  A    between atoms: C_14  and  C_15
REMARK    6  A    between atoms: C_21  and  O_22
REMARK    7  A    between atoms: O_22  and  C_23
REMARK    8  A    between atoms: C_23  and  C_24
REMARK    9  A    between atoms: C_28  and  C_39
REMARK   10  A    between atoms: C_31  and  C_41
REMARK   11  A    between atoms: N_34  and  C_39
REMARK   12  A    between atoms: N_34  and  C_41
REMARK   13  A    between atoms: N_36  and  C_37
REMARK                            x       y       z     vdW  Elec       q    Type
REMARK                         _______ _______ _______ _____ _____    ______ ____
ROOT
ATOM      1  C   UNL A   1     -24.640   1.369  27.484  0.00  0.00    +0.092 C 
ENDROOT
BRANCH   1   2
ATOM      2  C   UNL A   1     -25.688   1.614  26.461  0.00  0.00    +0.087 C 
ATOM      3  C   UNL A   1     -26.250   2.920  26.395  0.00  0.00    +0.056 C 
ATOM      4  C   UNL A   1     -27.438   3.091  25.645  0.00  0.00    +0.102 C 
ATOM      5  N   UNL A   1     -28.075   2.089  25.003  0.00  0.00    -0.212 NA
ATOM      6  C   UNL A   1     -27.543   0.849  25.079  0.00  0.00    +0.234 C 
ATOM      7  C   UNL A   1     -26.354   0.576  25.777  0.00  0.00    +0.241 C 
ATOM      8  F   UNL A   1     -25.860  -0.681  25.795  0.00  0.00    -0.227 F 
BRANCH   3   9
ATOM      9  C   UNL A   1     -25.642   4.093  27.123  0.00  0.00    +0.263 C 
ATOM     10  N   UNL A   1     -25.614   5.252  26.449  0.00  0.00    -0.200 NA
ATOM     11  C   UNL A   1     -25.026   6.479  26.963  0.00  0.00    +0.139 C 
ATOM     12  O   UNL A   1     -25.143   3.966  28.243  0.00  0.00    -0.269 OA
ENDBRANCH   3   9
BRANCH   6  13
ATOM     13  O   UNL A   1     -28.193  -0.208  24.477  0.00  0.00    -0.459 OA
BRANCH  13  14
ATOM     14  C   UNL A   1     -29.460   0.005  23.866  0.00  0.00    +0.242 C 
BRANCH  14  15
ATOM     15  C   UNL A   1     -30.065  -1.377  23.573  0.00  0.00    +0.229 C 
ATOM     16  O   UNL A   1     -30.729  -1.878  24.721  0.00  0.00    -0.216 OA
ENDBRANCH  14  15
ENDBRANCH  13  14
ENDBRANCH   6  13
ENDBRANCH   1   2
BRANCH   1  17
ATOM     17  C   UNL A   1     -23.320   1.238  27.279  0.00  0.00    +0.126 C 
ATOM     18  N   UNL A   1     -21.128   1.172  28.008  0.00  0.00    -0.062 NA
ATOM     19  C   UNL A   1     -22.477   1.830  26.326  0.00  0.00    +0.154 C 
ATOM     20  C   UNL A   1     -22.861   2.430  24.977  0.00  0.00    +0.035 C 
ATOM     21  O   UNL A   1     -22.513  -0.000  29.407  0.00  0.00    -0.271 OA
ATOM     22  O   UNL A   1     -21.175   1.834  26.762  0.00  0.00    -0.246 OA
ATOM     23  C   UNL A   1     -22.353   0.744  28.297  0.00  0.00    +0.271 C 
ENDBRANCH   1  17
BRANCH   1  24
ATOM     24  N   UNL A   1     -24.867   1.403  28.823  0.00  0.00    -0.210 NA
BRANCH  24  25
ATOM     25  C   UNL A   1     -25.457  -0.031  29.227  0.00  0.00    +0.156 C 
BRANCH  25  27
ATOM     26  O   UNL A   1     -27.756  -0.781  29.100  0.00  0.00    -0.272 OA
ATOM     27  C   UNL A   1     -26.898   0.128  29.188  0.00  0.00    +0.258 C 
ATOM     28  N   UNL A   1     -27.283   1.516  29.355  0.00  0.00    -0.204 NA
BRANCH  28  29
ATOM     29  C   UNL A   1     -28.489   1.668  30.147  0.00  0.00    +0.115 C 
ATOM     30  C   UNL A   1     -29.679   1.696  29.186  0.00  0.00    +0.025 C 
ENDBRANCH  28  29
ENDBRANCH  25  27
BRANCH  25  31
ATOM     31  C   UNL A   1     -24.855  -1.012  30.143  0.00  0.00    +0.063 C 
BRANCH  31  32
ATOM     32  C   UNL A   1     -24.973  -2.505  29.788  0.00  0.00    -0.019 C 
ATOM     33  C   UNL A   1     -23.906  -3.173  29.146  0.00  0.00    -0.004 C 
ATOM     34  C   UNL A   1     -23.989  -4.549  28.853  0.00  0.00    -0.000 C 
ATOM     35  C   UNL A   1     -25.137  -5.280  29.205  0.00  0.00    -0.000 C 
ATOM     36  C   UNL A   1     -26.232  -4.611  29.784  0.00  0.00    -0.000 C 
ATOM     37  C   UNL A   1     -26.155  -3.232  30.065  0.00  0.00    -0.004 C 
ENDBRANCH  31  32
BRANCH  31  38
ATOM     38  C   UNL A   1     -25.387  -0.679  31.571  0.00  0.00    +0.079 C 
ATOM     39  C   UNL A   1     -25.189   0.773  32.028  0.00  0.00    +0.019 C 
ATOM     40  C   UNL A   1     -25.336   0.684  33.544  0.00  0.00    +0.020 C 
ATOM     41  C   UNL A   1     -24.829  -0.715  33.905  0.00  0.00    +0.089 C 
ATOM     42  N   UNL A   1     -24.758  -1.481  32.646  0.00  0.00    -0.219 NA
ENDBRANCH  31  38
ENDBRANCH  25  31
ENDBRANCH  24  25
ENDBRANCH   1  24
TORSDOF 13
