REMARK  Name = outputs/IAG933/test6/raw/output_5346_IAG933_linker_design_.xyz
REMARK  9 active torsions:
REMARK  status: ('A' for Active; 'I' for Inactive)
REMARK    1  A    between atoms: C_1  and  C_2
REMARK    2  A    between atoms: C_1  and  C_8
REMARK    3  A    between atoms: C_1  and  O_33
REMARK    4  A    between atoms: C_21  and  O_22
REMARK    5  A    between atoms: O_22  and  C_23
REMARK    6  A    between atoms: C_23  and  C_24
REMARK    7  A    between atoms: C_29  and  C_36
REMARK    8  A    between atoms: O_33  and  C_37
REMARK    9  A    between atoms: C_40  and  C_41
REMARK                            x       y       z     vdW  Elec       q    Type
REMARK                         _______ _______ _______ _____ _____    ______ ____
ROOT
ATOM      1  C   UNL A   1     -25.688   1.614  26.461  0.00  0.00    +0.022 C 
ATOM      2  C   UNL A   1     -26.250   2.920  26.395  0.00  0.00    +0.071 C 
ATOM      3  C   UNL A   1     -25.642   4.093  27.123  0.00  0.00    +0.224 C 
ATOM      4  N   UNL A   1     -25.614   5.252  26.449  0.00  0.00    -0.236 NA
ATOM      5  C   UNL A   1     -25.026   6.479  26.963  0.00  0.00    +0.155 C 
ATOM      6  O   UNL A   1     -25.143   3.966  28.243  0.00  0.00    -0.428 OA
ATOM      7  C   UNL A   1     -27.438   3.091  25.645  0.00  0.00    +0.106 C 
ATOM      8  N   UNL A   1     -28.075   2.089  25.003  0.00  0.00    -0.208 NA
ATOM      9  C   UNL A   1     -27.543   0.849  25.079  0.00  0.00    +0.253 C 
ATOM     10  C   UNL A   1     -26.354   0.576  25.777  0.00  0.00    +0.189 C 
ATOM     11  F   UNL A   1     -25.860  -0.681  25.795  0.00  0.00    -0.200 F 
ATOM     12  C   UNL A   1     -22.275   1.320  27.797  0.00  0.00    +0.249 C 
ATOM     13  C   UNL A   1     -25.425   3.083  29.288  0.00  0.00    +0.399 C 
ATOM     14  F   UNL A   1     -21.144   1.828  27.872  0.00  0.00    -0.217 F 
ATOM     15  C   UNL A   1     -24.586   1.280  27.277  0.00  0.00    +0.108 C 
ATOM     16  C   UNL A   1     -24.398   0.946  28.760  0.00  0.00    +0.265 C 
ATOM     17  N   UNL A   1     -22.943   0.743  28.884  0.00  0.00    -0.137 NA
ATOM     18  C   UNL A   1     -23.258   1.456  26.756  0.00  0.00    +0.151 C 
ATOM     19  O   UNL A   1     -24.637   2.070  29.507  0.00  0.00    -0.277 OA
ENDROOT
BRANCH  13  22
ATOM     20  O   UNL A   1     -27.330   3.635  30.640  0.00  0.00    -0.239 OA
ATOM     21  O   UNL A   1     -25.422   4.593  31.016  0.00  0.00    -0.239 OA
ATOM     22  C   UNL A   1     -26.146   3.869  30.369  0.00  0.00    +0.435 C 
ENDBRANCH  13  22
BRANCH  18  25
ATOM     23  F   UNL A   1     -23.769   0.863  24.469  0.00  0.00    -0.164 F 
ATOM     24  O   UNL A   1     -22.148   2.228  25.003  0.00  0.00    -0.259 OA
ATOM     25  C   UNL A   1     -23.076   1.570  25.359  0.00  0.00    +0.315 C 
ENDBRANCH  18  25
BRANCH   9  26
ATOM     26  O   UNL A   1     -28.193  -0.208  24.477  0.00  0.00    -0.456 OA
BRANCH  26  27
ATOM     27  C   UNL A   1     -29.460   0.005  23.866  0.00  0.00    +0.243 C 
BRANCH  27  28
ATOM     28  C   UNL A   1     -30.065  -1.377  23.573  0.00  0.00    +0.229 C 
ATOM     29  O   UNL A   1     -30.729  -1.878  24.721  0.00  0.00    -0.216 OA
ENDBRANCH  27  28
ENDBRANCH  26  27
ENDBRANCH   9  26
BRANCH  16  30
ATOM     30  O   UNL A   1     -25.182  -0.126  29.100  0.00  0.00    -0.318 OA
BRANCH  30  31
ATOM     31  C   UNL A   1     -24.855  -1.012  30.143  0.00  0.00    +0.157 C 
BRANCH  31  32
ATOM     32  C   UNL A   1     -24.973  -2.505  29.788  0.00  0.00    +0.006 C 
ATOM     33  C   UNL A   1     -23.906  -3.173  29.146  0.00  0.00    -0.002 C 
ATOM     34  C   UNL A   1     -23.989  -4.549  28.853  0.00  0.00    -0.000 C 
ATOM     35  C   UNL A   1     -25.137  -5.280  29.205  0.00  0.00    -0.000 C 
ATOM     36  C   UNL A   1     -26.232  -4.611  29.784  0.00  0.00    -0.000 C 
ATOM     37  C   UNL A   1     -26.155  -3.232  30.065  0.00  0.00    -0.002 C 
ENDBRANCH  31  32
BRANCH  31  38
ATOM     38  C   UNL A   1     -25.387  -0.679  31.571  0.00  0.00    +0.104 C 
ATOM     39  C   UNL A   1     -25.189   0.773  32.028  0.00  0.00    +0.022 C 
ATOM     40  C   UNL A   1     -25.336   0.684  33.544  0.00  0.00    +0.020 C 
ATOM     41  C   UNL A   1     -24.829  -0.715  33.905  0.00  0.00    +0.089 C 
ATOM     42  N   UNL A   1     -24.758  -1.481  32.646  0.00  0.00    -0.217 NA
ENDBRANCH  31  38
ENDBRANCH  30  31
ENDBRANCH  16  30
TORSDOF 9
