REMARK  Name = outputs/IAG933/test6/raw/output_5347_IAG933_linker_design_.xyz
REMARK  9 active torsions:
REMARK  status: ('A' for Active; 'I' for Inactive)
REMARK    1  A    between atoms: C_1  and  C_2
REMARK    2  A    between atoms: C_13  and  C_30
REMARK    3  A    between atoms: C_14  and  C_15
REMARK    4  A    between atoms: C_21  and  O_22
REMARK    5  A    between atoms: O_22  and  C_23
REMARK    6  A    between atoms: C_23  and  C_24
REMARK    7  A    between atoms: C_29  and  C_40
REMARK    8  A    between atoms: C_30  and  C_32
REMARK    9  A    between atoms: C_30  and  O_37
REMARK                            x       y       z     vdW  Elec       q    Type
REMARK                         _______ _______ _______ _____ _____    ______ ____
ROOT
ATOM      1  C   UNL A   1     -24.855  -1.012  30.143  0.00  0.00    +0.153 C 
ATOM      2  C   UNL A   1     -25.387  -0.679  31.571  0.00  0.00    +0.104 C 
ATOM      3  C   UNL A   1     -25.189   0.773  32.028  0.00  0.00    +0.023 C 
ATOM      4  C   UNL A   1     -25.336   0.684  33.544  0.00  0.00    +0.020 C 
ATOM      5  C   UNL A   1     -24.829  -0.715  33.905  0.00  0.00    +0.089 C 
ATOM      6  N   UNL A   1     -24.758  -1.481  32.646  0.00  0.00    -0.217 NA
ATOM      7  C   UNL A   1     -24.589   2.026  31.423  0.00  0.00    +0.034 C 
ATOM      8  C   UNL A   1     -23.665   1.273  27.627  0.00  0.00    +0.090 C 
ATOM      9  C   UNL A   1     -23.913   2.005  30.021  0.00  0.00    +0.033 C 
ATOM     10  F   UNL A   1     -21.330   1.276  27.508  0.00  0.00    -0.235 F 
ATOM     11  C   UNL A   1     -23.424   0.827  29.360  0.00  0.00    +0.128 C 
ATOM     12  C   UNL A   1     -22.506   0.696  28.102  0.00  0.00    +0.190 C 
ATOM     13  O   UNL A   1     -23.660  -0.407  29.718  0.00  0.00    -0.352 OA
ENDROOT
BRANCH   1  14
ATOM     14  C   UNL A   1     -24.973  -2.505  29.788  0.00  0.00    +0.006 C 
ATOM     15  C   UNL A   1     -23.906  -3.173  29.146  0.00  0.00    -0.002 C 
ATOM     16  C   UNL A   1     -23.989  -4.549  28.853  0.00  0.00    -0.000 C 
ATOM     17  C   UNL A   1     -25.137  -5.280  29.205  0.00  0.00    -0.000 C 
ATOM     18  C   UNL A   1     -26.232  -4.611  29.784  0.00  0.00    -0.000 C 
ATOM     19  C   UNL A   1     -26.155  -3.232  30.065  0.00  0.00    -0.002 C 
ENDBRANCH   1  14
BRANCH   7  22
ATOM     20  C   UNL A   1     -25.150   4.680  32.676  0.00  0.00    +0.172 C 
ATOM     21  O   UNL A   1     -25.709   4.008  31.317  0.00  0.00    -0.351 OA
ATOM     22  C   UNL A   1     -24.998   3.309  32.273  0.00  0.00    +0.145 C 
ENDBRANCH   7  22
BRANCH   8  23
ATOM     23  C   UNL A   1     -24.356   1.293  26.767  0.00  0.00    +0.128 C 
BRANCH  23  24
ATOM     24  C   UNL A   1     -25.688   1.614  26.461  0.00  0.00    +0.097 C 
ATOM     25  C   UNL A   1     -26.250   2.920  26.395  0.00  0.00    +0.057 C 
ATOM     26  C   UNL A   1     -27.438   3.091  25.645  0.00  0.00    +0.102 C 
ATOM     27  N   UNL A   1     -28.075   2.089  25.003  0.00  0.00    -0.212 NA
ATOM     28  C   UNL A   1     -27.543   0.849  25.079  0.00  0.00    +0.234 C 
ATOM     29  C   UNL A   1     -26.354   0.576  25.777  0.00  0.00    +0.242 C 
ATOM     30  F   UNL A   1     -25.860  -0.681  25.795  0.00  0.00    -0.227 F 
BRANCH  25  31
ATOM     31  C   UNL A   1     -25.642   4.093  27.123  0.00  0.00    +0.263 C 
ATOM     32  N   UNL A   1     -25.614   5.252  26.449  0.00  0.00    -0.200 NA
ATOM     33  C   UNL A   1     -25.026   6.479  26.963  0.00  0.00    +0.139 C 
ATOM     34  O   UNL A   1     -25.143   3.966  28.243  0.00  0.00    -0.269 OA
ENDBRANCH  25  31
BRANCH  28  35
ATOM     35  O   UNL A   1     -28.193  -0.208  24.477  0.00  0.00    -0.459 OA
BRANCH  35  36
ATOM     36  C   UNL A   1     -29.460   0.005  23.866  0.00  0.00    +0.242 C 
BRANCH  36  37
ATOM     37  C   UNL A   1     -30.065  -1.377  23.573  0.00  0.00    +0.229 C 
ATOM     38  O   UNL A   1     -30.729  -1.878  24.721  0.00  0.00    -0.216 OA
ENDBRANCH  36  37
ENDBRANCH  35  36
ENDBRANCH  28  35
ENDBRANCH  23  24
BRANCH  23  39
ATOM     39  O   UNL A   1     -23.472   1.173  25.727  0.00  0.00    -0.353 OA
ATOM     40  C   UNL A   1     -22.844   2.441  25.460  0.00  0.00    +0.174 C 
ENDBRANCH  23  39
ENDBRANCH   8  23
TORSDOF 9
