REMARK  Name = outputs/IAG933/test6/raw/output_5348_IAG933_linker_design_.xyz
REMARK  17 active torsions:
REMARK  status: ('A' for Active; 'I' for Inactive)
REMARK    1  A    between atoms: C_1  and  C_2
REMARK    2  A    between atoms: C_1  and  C_8
REMARK    3  A    between atoms: C_9  and  C_43
REMARK    4  A    between atoms: C_13  and  N_40
REMARK    5  A    between atoms: C_14  and  C_15
REMARK    6  A    between atoms: C_21  and  O_22
REMARK    7  A    between atoms: O_22  and  C_23
REMARK    8  A    between atoms: C_23  and  C_24
REMARK    9  A    between atoms: C_28  and  C_30
REMARK   10  A    between atoms: C_31  and  N_40
REMARK   11  A    between atoms: C_31  and  C_41
REMARK   12  A    between atoms: C_34  and  N_40
REMARK   13  A    between atoms: C_34  and  C_42
REMARK   14  A    between atoms: C_34  and  C_44
REMARK   15  A    between atoms: C_35  and  C_43
REMARK   16  A    between atoms: N_37  and  C_43
REMARK   17  A    between atoms: C_41  and  C_43
REMARK                            x       y       z     vdW  Elec       q    Type
REMARK                         _______ _______ _______ _____ _____    ______ ____
ROOT
ATOM      1  N   UNL A   1     -24.633   1.481  27.191  0.00  0.00    -0.301 N 
ENDROOT
BRANCH   1   2
ATOM      2  C   UNL A   1     -25.688   1.614  26.461  0.00  0.00    +0.086 C 
ATOM      3  C   UNL A   1     -26.250   2.920  26.395  0.00  0.00    +0.090 C 
ATOM      4  C   UNL A   1     -27.438   3.091  25.645  0.00  0.00    +0.108 C 
ATOM      5  N   UNL A   1     -28.075   2.089  25.003  0.00  0.00    -0.208 NA
ATOM      6  C   UNL A   1     -27.543   0.849  25.079  0.00  0.00    +0.255 C 
ATOM      7  C   UNL A   1     -26.354   0.576  25.777  0.00  0.00    +0.206 C 
ATOM      8  F   UNL A   1     -25.860  -0.681  25.795  0.00  0.00    -0.198 F 
BRANCH   3   9
ATOM      9  C   UNL A   1     -25.642   4.093  27.123  0.00  0.00    +0.268 C 
ATOM     10  N   UNL A   1     -25.614   5.252  26.449  0.00  0.00    -0.200 NA
ATOM     11  C   UNL A   1     -25.026   6.479  26.963  0.00  0.00    +0.139 C 
ATOM     12  O   UNL A   1     -25.143   3.966  28.243  0.00  0.00    -0.268 OA
ENDBRANCH   3   9
BRANCH   6  13
ATOM     13  O   UNL A   1     -28.193  -0.208  24.477  0.00  0.00    -0.456 OA
BRANCH  13  14
ATOM     14  C   UNL A   1     -29.460   0.005  23.866  0.00  0.00    +0.243 C 
BRANCH  14  15
ATOM     15  C   UNL A   1     -30.065  -1.377  23.573  0.00  0.00    +0.229 C 
ATOM     16  O   UNL A   1     -30.729  -1.878  24.721  0.00  0.00    -0.216 OA
ENDBRANCH  14  15
ENDBRANCH  13  14
ENDBRANCH   6  13
ENDBRANCH   1   2
BRANCH   1  17
ATOM     17  C   UNL A   1     -24.699   1.330  28.675  0.00  0.00    +0.093 C 
BRANCH  17  18
ATOM     18  C   UNL A   1     -24.113   2.128  29.897  0.00  0.00    +0.042 C 
BRANCH  18  19
ATOM     19  C   UNL A   1     -25.216   2.116  31.142  0.00  0.00    +0.082 C 
BRANCH  19  21
ATOM     20  C   UNL A   1     -25.387  -0.679  31.571  0.00  0.00    +0.079 C 
ATOM     21  C   UNL A   1     -25.189   0.773  32.028  0.00  0.00    +0.036 C 
ATOM     22  C   UNL A   1     -25.336   0.684  33.544  0.00  0.00    +0.022 C 
ATOM     23  C   UNL A   1     -24.829  -0.715  33.905  0.00  0.00    +0.089 C 
ATOM     24  N   UNL A   1     -24.758  -1.481  32.646  0.00  0.00    -0.219 NA
BRANCH  20  25
ATOM     25  C   UNL A   1     -24.855  -1.012  30.143  0.00  0.00    +0.044 C 
BRANCH  25  26
ATOM     26  C   UNL A   1     -24.973  -2.505  29.788  0.00  0.00    -0.021 C 
ATOM     27  C   UNL A   1     -23.906  -3.173  29.146  0.00  0.00    -0.004 C 
ATOM     28  C   UNL A   1     -23.989  -4.549  28.853  0.00  0.00    -0.000 C 
ATOM     29  C   UNL A   1     -25.137  -5.280  29.205  0.00  0.00    -0.000 C 
ATOM     30  C   UNL A   1     -26.232  -4.611  29.784  0.00  0.00    -0.000 C 
ATOM     31  C   UNL A   1     -26.155  -3.232  30.065  0.00  0.00    -0.004 C 
ENDBRANCH  25  26
ENDBRANCH  20  25
ENDBRANCH  19  21
BRANCH  19  34
ATOM     32  C   UNL A   1     -25.381   4.070  32.825  0.00  0.00    +0.241 C 
ATOM     33  O   UNL A   1     -26.455   3.738  33.497  0.00  0.00    -0.273 OA
ATOM     34  N   UNL A   1     -24.905   3.429  31.739  0.00  0.00    -0.209 NA
BRANCH  32  35
ATOM     35  C   UNL A   1     -24.707   5.375  33.246  0.00  0.00    +0.087 C 
ATOM     36  C   UNL A   1     -24.642   6.334  32.060  0.00  0.00    +0.010 C 
ENDBRANCH  32  35
ENDBRANCH  19  34
BRANCH  19  38
ATOM     37  C   UNL A   1     -27.650   1.168  30.306  0.00  0.00    +0.002 C 
ATOM     38  C   UNL A   1     -26.735   2.262  30.718  0.00  0.00    +0.020 C 
ENDBRANCH  19  38
ENDBRANCH  18  19
ENDBRANCH  17  18
ENDBRANCH   1  17
BRANCH   1  39
ATOM     39  C   UNL A   1     -23.493   1.439  26.581  0.00  0.00    +0.156 C 
BRANCH  39  43
ATOM     40  N   UNL A   1     -21.829   0.030  29.121  0.00  0.00    -0.108 NA
ATOM     41  C   UNL A   1     -21.780   1.003  28.353  0.00  0.00    +0.263 C 
ATOM     42  O   UNL A   1     -21.019   1.526  27.405  0.00  0.00    -0.452 OA
ATOM     43  C   UNL A   1     -22.542   1.987  27.747  0.00  0.00    +0.264 C 
ENDBRANCH  39  43
BRANCH  39  45
ATOM     44  O   UNL A   1     -21.861   2.303  25.330  0.00  0.00    -0.218 OA
ATOM     45  C   UNL A   1     -23.232   2.432  25.437  0.00  0.00    +0.206 C 
ENDBRANCH  39  45
ENDBRANCH   1  39
TORSDOF 17
