REMARK  Name = outputs/IAG933/test6/raw/output_5358_IAG933_linker_design_.xyz
REMARK  12 active torsions:
REMARK  status: ('A' for Active; 'I' for Inactive)
REMARK    1  A    between atoms: C_1  and  C_2
REMARK    2  A    between atoms: C_1  and  C_8
REMARK    3  A    between atoms: C_1  and  N_37
REMARK    4  A    between atoms: C_13  and  C_39
REMARK    5  A    between atoms: C_14  and  C_15
REMARK    6  A    between atoms: C_21  and  O_22
REMARK    7  A    between atoms: O_22  and  C_23
REMARK    8  A    between atoms: C_23  and  C_24
REMARK    9  A    between atoms: C_29  and  C_42
REMARK   10  A    between atoms: C_32  and  N_37
REMARK   11  A    between atoms: C_40  and  C_41
REMARK   12  A    between atoms: C_41  and  C_42
REMARK                            x       y       z     vdW  Elec       q    Type
REMARK                         _______ _______ _______ _____ _____    ______ ____
ROOT
ATOM      1  F   UNL A   1     -23.291   2.887  25.472  0.00  0.00    -0.202 F 
ATOM      2  C   UNL A   1     -24.010   0.748  28.256  0.00  0.00    +0.047 C 
ATOM      3  F   UNL A   1     -20.949   1.559  26.604  0.00  0.00    -0.206 F 
ATOM      4  C   UNL A   1     -23.224   2.070  26.447  0.00  0.00    +0.165 C 
ATOM      5  C   UNL A   1     -22.144   1.585  27.120  0.00  0.00    +0.157 C 
ATOM      6  C   UNL A   1     -24.401   1.452  27.006  0.00  0.00    +0.042 C 
ATOM      7  C   UNL A   1     -22.649   0.988  28.345  0.00  0.00    +0.146 C 
ENDROOT
BRANCH   6   8
ATOM      8  C   UNL A   1     -25.688   1.614  26.461  0.00  0.00    +0.041 C 
ATOM      9  C   UNL A   1     -26.250   2.920  26.395  0.00  0.00    +0.077 C 
ATOM     10  C   UNL A   1     -27.438   3.091  25.645  0.00  0.00    +0.107 C 
ATOM     11  N   UNL A   1     -28.075   2.089  25.003  0.00  0.00    -0.208 NA
ATOM     12  C   UNL A   1     -27.543   0.849  25.079  0.00  0.00    +0.253 C 
ATOM     13  C   UNL A   1     -26.354   0.576  25.777  0.00  0.00    +0.193 C 
ATOM     14  F   UNL A   1     -25.860  -0.681  25.795  0.00  0.00    -0.199 F 
BRANCH   9  15
ATOM     15  C   UNL A   1     -25.642   4.093  27.123  0.00  0.00    +0.266 C 
ATOM     16  N   UNL A   1     -25.614   5.252  26.449  0.00  0.00    -0.200 NA
ATOM     17  C   UNL A   1     -25.026   6.479  26.963  0.00  0.00    +0.139 C 
ATOM     18  O   UNL A   1     -25.143   3.966  28.243  0.00  0.00    -0.268 OA
ENDBRANCH   9  15
BRANCH  12  19
ATOM     19  O   UNL A   1     -28.193  -0.208  24.477  0.00  0.00    -0.456 OA
BRANCH  19  20
ATOM     20  C   UNL A   1     -29.460   0.005  23.866  0.00  0.00    +0.243 C 
BRANCH  20  21
ATOM     21  C   UNL A   1     -30.065  -1.377  23.573  0.00  0.00    +0.229 C 
ATOM     22  O   UNL A   1     -30.729  -1.878  24.721  0.00  0.00    -0.216 OA
ENDBRANCH  20  21
ENDBRANCH  19  20
ENDBRANCH  12  19
ENDBRANCH   6   8
BRANCH   2  25
ATOM     23  C   UNL A   1     -25.294  -0.196  28.439  0.00  0.00    +0.307 C 
ATOM     24  O   UNL A   1     -26.430   0.085  28.693  0.00  0.00    -0.265 OA
ATOM     25  N   UNL A   1     -24.549  -0.021  29.125  0.00  0.00    -0.251 N 
BRANCH  25  26
ATOM     26  C   UNL A   1     -24.855  -1.012  30.143  0.00  0.00    +0.118 C 
BRANCH  26  27
ATOM     27  C   UNL A   1     -24.973  -2.505  29.788  0.00  0.00    -0.003 C 
ATOM     28  C   UNL A   1     -23.906  -3.173  29.146  0.00  0.00    -0.003 C 
ATOM     29  C   UNL A   1     -23.989  -4.549  28.853  0.00  0.00    -0.000 C 
ATOM     30  C   UNL A   1     -25.137  -5.280  29.205  0.00  0.00    -0.000 C 
ATOM     31  C   UNL A   1     -26.232  -4.611  29.784  0.00  0.00    -0.000 C 
ATOM     32  C   UNL A   1     -26.155  -3.232  30.065  0.00  0.00    -0.003 C 
ENDBRANCH  26  27
BRANCH  26  33
ATOM     33  C   UNL A   1     -25.387  -0.679  31.571  0.00  0.00    +0.096 C 
ATOM     34  C   UNL A   1     -25.189   0.773  32.028  0.00  0.00    +0.021 C 
ATOM     35  C   UNL A   1     -25.336   0.684  33.544  0.00  0.00    +0.020 C 
ATOM     36  C   UNL A   1     -24.829  -0.715  33.905  0.00  0.00    +0.089 C 
ATOM     37  N   UNL A   1     -24.758  -1.481  32.646  0.00  0.00    -0.217 NA
ENDBRANCH  26  33
ENDBRANCH  25  26
ENDBRANCH   2  25
BRANCH   7  39
ATOM     38  O   UNL A   1     -22.516   0.620  30.690  0.00  0.00    -0.295 OA
ATOM     39  C   UNL A   1     -22.129   0.392  29.547  0.00  0.00    +0.165 C 
BRANCH  39  40
ATOM     40  C   UNL A   1     -21.122  -0.743  29.177  0.00  0.00    +0.101 C 
BRANCH  40  41
ATOM     41  C   UNL A   1     -20.174  -0.006  28.460  0.00  0.00    +0.190 C 
ATOM     42  O   UNL A   1     -19.676   1.182  28.767  0.00  0.00    -0.220 OA
ENDBRANCH  40  41
ENDBRANCH  39  40
ENDBRANCH   7  39
TORSDOF 12
