REMARK  Name = outputs/IAG933/test6/raw/output_536_IAG933_linker_design_.xyz
REMARK  14 active torsions:
REMARK  status: ('A' for Active; 'I' for Inactive)
REMARK    1  A    between atoms: C_1  and  C_2
REMARK    2  A    between atoms: C_1  and  C_8
REMARK    3  A    between atoms: C_1  and  C_33
REMARK    4  A    between atoms: C_13  and  C_34
REMARK    5  A    between atoms: C_14  and  C_15
REMARK    6  A    between atoms: C_21  and  O_22
REMARK    7  A    between atoms: O_22  and  C_23
REMARK    8  A    between atoms: C_23  and  C_24
REMARK    9  A    between atoms: C_28  and  C_32
REMARK   10  A    between atoms: C_30  and  C_42
REMARK   11  A    between atoms: N_31  and  C_33
REMARK   12  A    between atoms: N_31  and  C_34
REMARK   13  A    between atoms: C_33  and  C_36
REMARK   14  A    between atoms: C_34  and  C_42
REMARK                            x       y       z     vdW  Elec       q    Type
REMARK                         _______ _______ _______ _____ _____    ______ ____
ROOT
ATOM      1  C   UNL A   1     -25.541  -0.196  29.119  0.00  0.00    +0.078 C 
ENDROOT
BRANCH   1   3
ATOM      2  C   UNL A   1     -29.189   0.476  29.319  0.00  0.00    +0.007 C 
ATOM      3  C   UNL A   1     -26.979   0.154  29.119  0.00  0.00    +0.016 C 
ATOM      4  C   UNL A   1     -27.139   1.621  29.614  0.00  0.00    +0.001 C 
ATOM      5  C   UNL A   1     -28.178  -0.521  28.701  0.00  0.00    +0.002 C 
ATOM      6  C   UNL A   1     -28.617   1.907  29.685  0.00  0.00    +0.001 C 
BRANCH   2   8
ATOM      7  O   UNL A   1     -30.462  -0.922  26.963  0.00  0.00    -0.296 OA
ATOM      8  C   UNL A   1     -30.557   0.653  28.652  0.00  0.00    +0.058 C 
ATOM      9  C   UNL A   1     -30.771   0.216  27.261  0.00  0.00    +0.150 C 
ATOM     10  C   UNL A   1     -31.368   1.258  26.321  0.00  0.00    +0.065 C 
ATOM     11  C   UNL A   1     -31.286   2.060  28.660  0.00  0.00    +0.008 C 
ATOM     12  C   UNL A   1     -31.306   2.528  27.181  0.00  0.00    +0.008 C 
ENDBRANCH   2   8
ENDBRANCH   1   3
BRANCH   1  13
ATOM     13  C   UNL A   1     -24.855  -1.012  30.143  0.00  0.00    +0.054 C 
BRANCH  13  14
ATOM     14  C   UNL A   1     -24.973  -2.505  29.788  0.00  0.00    -0.020 C 
ATOM     15  C   UNL A   1     -23.906  -3.173  29.146  0.00  0.00    -0.004 C 
ATOM     16  C   UNL A   1     -23.989  -4.549  28.853  0.00  0.00    -0.000 C 
ATOM     17  C   UNL A   1     -25.137  -5.280  29.205  0.00  0.00    -0.000 C 
ATOM     18  C   UNL A   1     -26.232  -4.611  29.784  0.00  0.00    -0.000 C 
ATOM     19  C   UNL A   1     -26.155  -3.232  30.065  0.00  0.00    -0.004 C 
ENDBRANCH  13  14
BRANCH  13  20
ATOM     20  C   UNL A   1     -25.387  -0.679  31.571  0.00  0.00    +0.078 C 
ATOM     21  C   UNL A   1     -25.189   0.773  32.028  0.00  0.00    +0.019 C 
ATOM     22  C   UNL A   1     -25.336   0.684  33.544  0.00  0.00    +0.020 C 
ATOM     23  C   UNL A   1     -24.829  -0.715  33.905  0.00  0.00    +0.089 C 
ATOM     24  N   UNL A   1     -24.758  -1.481  32.646  0.00  0.00    -0.219 NA
ENDBRANCH  13  20
ENDBRANCH   1  13
BRANCH   1  25
ATOM     25  N   UNL A   1     -24.695   0.161  28.091  0.00  0.00    -0.215 NA
BRANCH  25  26
ATOM     26  C   UNL A   1     -24.586   1.235  27.396  0.00  0.00    +0.112 C 
BRANCH  26  27
ATOM     27  C   UNL A   1     -25.688   1.614  26.461  0.00  0.00    +0.033 C 
ATOM     28  C   UNL A   1     -26.250   2.920  26.395  0.00  0.00    +0.074 C 
ATOM     29  C   UNL A   1     -27.438   3.091  25.645  0.00  0.00    +0.106 C 
ATOM     30  N   UNL A   1     -28.075   2.089  25.003  0.00  0.00    -0.208 NA
ATOM     31  C   UNL A   1     -27.543   0.849  25.079  0.00  0.00    +0.253 C 
ATOM     32  C   UNL A   1     -26.354   0.576  25.777  0.00  0.00    +0.191 C 
ATOM     33  F   UNL A   1     -25.860  -0.681  25.795  0.00  0.00    -0.200 F 
BRANCH  28  34
ATOM     34  C   UNL A   1     -25.642   4.093  27.123  0.00  0.00    +0.266 C 
ATOM     35  N   UNL A   1     -25.614   5.252  26.449  0.00  0.00    -0.200 NA
ATOM     36  C   UNL A   1     -25.026   6.479  26.963  0.00  0.00    +0.139 C 
ATOM     37  O   UNL A   1     -25.143   3.966  28.243  0.00  0.00    -0.268 OA
ENDBRANCH  28  34
BRANCH  31  38
ATOM     38  O   UNL A   1     -28.193  -0.208  24.477  0.00  0.00    -0.456 OA
BRANCH  38  39
ATOM     39  C   UNL A   1     -29.460   0.005  23.866  0.00  0.00    +0.243 C 
BRANCH  39  40
ATOM     40  C   UNL A   1     -30.065  -1.377  23.573  0.00  0.00    +0.229 C 
ATOM     41  O   UNL A   1     -30.729  -1.878  24.721  0.00  0.00    -0.216 OA
ENDBRANCH  39  40
ENDBRANCH  38  39
ENDBRANCH  31  38
ENDBRANCH  26  27
BRANCH  26  42
ATOM     42  C   UNL A   1     -23.280   1.595  26.993  0.00  0.00    +0.100 C 
ATOM     43 CL   UNL A   1     -22.781   2.223  25.481  0.00  0.00    -0.113 Cl
BRANCH  42  44
ATOM     44  C   UNL A   1     -22.167   1.215  27.872  0.00  0.00    +0.018 C 
ATOM     45  C   UNL A   1     -20.910   2.029  27.695  0.00  0.00    +0.001 C 
ENDBRANCH  42  44
ENDBRANCH  26  42
ENDBRANCH  25  26
ENDBRANCH   1  25
TORSDOF 14
