REMARK  Name = outputs/IAG933/test6/raw/output_5363_IAG933_linker_design_.xyz
REMARK  13 active torsions:
REMARK  status: ('A' for Active; 'I' for Inactive)
REMARK    1  A    between atoms: C_1  and  C_2
REMARK    2  A    between atoms: C_1  and  C_8
REMARK    3  A    between atoms: C_1  and  N_34
REMARK    4  A    between atoms: C_13  and  C_38
REMARK    5  A    between atoms: C_14  and  C_15
REMARK    6  A    between atoms: C_21  and  O_22
REMARK    7  A    between atoms: O_22  and  C_23
REMARK    8  A    between atoms: C_23  and  C_24
REMARK    9  A    between atoms: C_29  and  N_34
REMARK   10  A    between atoms: C_30  and  N_34
REMARK   11  A    between atoms: C_30  and  C_37
REMARK   12  A    between atoms: C_31  and  C_37
REMARK   13  A    between atoms: C_31  and  O_39
REMARK                            x       y       z     vdW  Elec       q    Type
REMARK                         _______ _______ _______ _____ _____    ______ ____
ROOT
ATOM      1  C   UNL A   1     -23.569   2.187  26.456  0.00  0.00    +0.059 C 
ATOM      2  C   UNL A   1     -24.356   0.621  28.239  0.00  0.00    +0.054 C 
ATOM      3  O   UNL A   1     -22.854   0.613  30.092  0.00  0.00    -0.214 OA
ATOM      4  C   UNL A   1     -22.945   0.342  28.717  0.00  0.00    +0.216 C 
ATOM      5  C   UNL A   1     -22.393   2.080  25.549  0.00  0.00    +0.147 C 
ATOM      6  C   UNL A   1     -24.565   1.443  27.107  0.00  0.00    -0.005 C 
ATOM      7  C   UNL A   1     -21.828   1.121  28.018  0.00  0.00    +0.181 C 
ATOM      8  O   UNL A   1     -22.293   1.714  26.838  0.00  0.00    -0.350 OA
ENDROOT
BRANCH   6   9
ATOM      9  C   UNL A   1     -25.688   1.614  26.461  0.00  0.00    +0.035 C 
ATOM     10  C   UNL A   1     -26.250   2.920  26.395  0.00  0.00    +0.076 C 
ATOM     11  C   UNL A   1     -27.438   3.091  25.645  0.00  0.00    +0.107 C 
ATOM     12  N   UNL A   1     -28.075   2.089  25.003  0.00  0.00    -0.208 NA
ATOM     13  C   UNL A   1     -27.543   0.849  25.079  0.00  0.00    +0.253 C 
ATOM     14  C   UNL A   1     -26.354   0.576  25.777  0.00  0.00    +0.193 C 
ATOM     15  F   UNL A   1     -25.860  -0.681  25.795  0.00  0.00    -0.199 F 
BRANCH  10  16
ATOM     16  C   UNL A   1     -25.642   4.093  27.123  0.00  0.00    +0.266 C 
ATOM     17  N   UNL A   1     -25.614   5.252  26.449  0.00  0.00    -0.200 NA
ATOM     18  C   UNL A   1     -25.026   6.479  26.963  0.00  0.00    +0.139 C 
ATOM     19  O   UNL A   1     -25.143   3.966  28.243  0.00  0.00    -0.268 OA
ENDBRANCH  10  16
BRANCH  13  20
ATOM     20  O   UNL A   1     -28.193  -0.208  24.477  0.00  0.00    -0.456 OA
BRANCH  20  21
ATOM     21  C   UNL A   1     -29.460   0.005  23.866  0.00  0.00    +0.243 C 
BRANCH  21  22
ATOM     22  C   UNL A   1     -30.065  -1.377  23.573  0.00  0.00    +0.229 C 
ATOM     23  O   UNL A   1     -30.729  -1.878  24.721  0.00  0.00    -0.216 OA
ENDBRANCH  21  22
ENDBRANCH  20  21
ENDBRANCH  13  20
ENDBRANCH   6   9
BRANCH   2  24
ATOM     24  N   UNL A   1     -25.373  -0.017  29.091  0.00  0.00    -0.305 N 
BRANCH  24  25
ATOM     25  C   UNL A   1     -24.855  -1.012  30.143  0.00  0.00    +0.111 C 
BRANCH  25  26
ATOM     26  C   UNL A   1     -24.973  -2.505  29.788  0.00  0.00    -0.003 C 
ATOM     27  C   UNL A   1     -23.906  -3.173  29.146  0.00  0.00    -0.003 C 
ATOM     28  C   UNL A   1     -23.989  -4.549  28.853  0.00  0.00    -0.000 C 
ATOM     29  C   UNL A   1     -25.137  -5.280  29.205  0.00  0.00    -0.000 C 
ATOM     30  C   UNL A   1     -26.232  -4.611  29.784  0.00  0.00    -0.000 C 
ATOM     31  C   UNL A   1     -26.155  -3.232  30.065  0.00  0.00    -0.003 C 
ENDBRANCH  25  26
BRANCH  25  32
ATOM     32  C   UNL A   1     -25.387  -0.679  31.571  0.00  0.00    +0.095 C 
ATOM     33  C   UNL A   1     -25.189   0.773  32.028  0.00  0.00    +0.021 C 
ATOM     34  C   UNL A   1     -25.336   0.684  33.544  0.00  0.00    +0.020 C 
ATOM     35  C   UNL A   1     -24.829  -0.715  33.905  0.00  0.00    +0.089 C 
ATOM     36  N   UNL A   1     -24.758  -1.481  32.646  0.00  0.00    -0.217 NA
ENDBRANCH  25  32
ENDBRANCH  24  25
BRANCH  24  37
ATOM     37  C   UNL A   1     -26.849   0.407  29.099  0.00  0.00    +0.093 C 
BRANCH  37  38
ATOM     38  C   UNL A   1     -28.282   0.423  28.529  0.00  0.00    +0.053 C 
BRANCH  38  39
ATOM     39  C   UNL A   1     -29.320   1.053  29.459  0.00  0.00    +0.144 C 
BRANCH  39  41
ATOM     40  C   UNL A   1     -28.579   3.314  30.242  0.00  0.00    +0.174 C 
ATOM     41  O   UNL A   1     -29.233   2.466  29.359  0.00  0.00    -0.351 OA
ENDBRANCH  39  41
ENDBRANCH  38  39
ENDBRANCH  37  38
ENDBRANCH  24  37
ENDBRANCH   2  24
TORSDOF 13
