REMARK  Name = outputs/IAG933/test6/raw/output_5365_IAG933_linker_design_.xyz
REMARK  17 active torsions:
REMARK  status: ('A' for Active; 'I' for Inactive)
REMARK    1  A    between atoms: C_1  and  C_2
REMARK    2  A    between atoms: C_1  and  C_8
REMARK    3  A    between atoms: C_9  and  C_45
REMARK    4  A    between atoms: C_14  and  C_15
REMARK    5  A    between atoms: N_16  and  C_17
REMARK    6  A    between atoms: C_17  and  C_32
REMARK    7  A    between atoms: C_21  and  O_22
REMARK    8  A    between atoms: O_22  and  C_23
REMARK    9  A    between atoms: C_23  and  C_24
REMARK   10  A    between atoms: C_28  and  C_36
REMARK   11  A    between atoms: C_28  and  C_38
REMARK   12  A    between atoms: C_30  and  C_45
REMARK   13  A    between atoms: C_32  and  N_39
REMARK   14  A    between atoms: C_38  and  N_39
REMARK   15  A    between atoms: C_38  and  C_42
REMARK   16  A    between atoms: N_41  and  C_45
REMARK   17  A    between atoms: C_43  and  C_44
REMARK                            x       y       z     vdW  Elec       q    Type
REMARK                         _______ _______ _______ _____ _____    ______ ____
ROOT
ATOM      1  C   UNL A   1     -25.251   3.299  31.848  0.00  0.00    -0.003 C 
ATOM      2  C   UNL A   1     -25.250   3.689  33.234  0.00  0.00    -0.003 C 
ATOM      3  C   UNL A   1     -25.833   4.876  33.695  0.00  0.00    -0.001 C 
ATOM      4  C   UNL A   1     -25.932   4.197  30.984  0.00  0.00    -0.005 C 
ATOM      5  C   UNL A   1     -26.292   5.513  31.407  0.00  0.00    -0.006 C 
ATOM      6  C   UNL A   1     -26.375   5.790  32.794  0.00  0.00    -0.003 C 
ENDROOT
BRANCH   1   7
ATOM      7  C   UNL A   1     -24.455   1.974  31.275  0.00  0.00    +0.119 C 
BRANCH   7   9
ATOM      8  C   UNL A   1     -25.387  -0.679  31.571  0.00  0.00    +0.079 C 
ATOM      9  C   UNL A   1     -25.189   0.773  32.028  0.00  0.00    +0.042 C 
ATOM     10  C   UNL A   1     -25.336   0.684  33.544  0.00  0.00    +0.022 C 
ATOM     11  C   UNL A   1     -24.829  -0.715  33.905  0.00  0.00    +0.089 C 
ATOM     12  N   UNL A   1     -24.758  -1.481  32.646  0.00  0.00    -0.219 NA
BRANCH   8  13
ATOM     13  C   UNL A   1     -24.855  -1.012  30.143  0.00  0.00    +0.044 C 
BRANCH  13  14
ATOM     14  C   UNL A   1     -24.973  -2.505  29.788  0.00  0.00    -0.021 C 
ATOM     15  C   UNL A   1     -23.906  -3.173  29.146  0.00  0.00    -0.004 C 
ATOM     16  C   UNL A   1     -23.989  -4.549  28.853  0.00  0.00    -0.000 C 
ATOM     17  C   UNL A   1     -25.137  -5.280  29.205  0.00  0.00    -0.000 C 
ATOM     18  C   UNL A   1     -26.232  -4.611  29.784  0.00  0.00    -0.000 C 
ATOM     19  C   UNL A   1     -26.155  -3.232  30.065  0.00  0.00    -0.004 C 
ENDBRANCH  13  14
ENDBRANCH   8  13
ENDBRANCH   7   9
BRANCH   7  21
ATOM     20  O   UNL A   1     -22.611  -0.097  29.708  0.00  0.00    -0.271 OA
ATOM     21  N   UNL A   1     -24.132   1.695  29.800  0.00  0.00    -0.200 NA
ATOM     22  C   UNL A   1     -23.062   1.009  29.216  0.00  0.00    +0.275 C 
BRANCH  22  23
ATOM     23  C   UNL A   1     -22.497   1.551  28.044  0.00  0.00    +0.268 C 
ATOM     24  O   UNL A   1     -21.099   1.424  27.477  0.00  0.00    -0.210 OA
ENDBRANCH  22  23
ENDBRANCH   7  21
ENDBRANCH   1   7
BRANCH   5  25
ATOM     25  C   UNL A   1     -26.483   6.702  30.462  0.00  0.00    +0.107 C 
BRANCH  25  27
ATOM     26  N   UNL A   1     -27.927   5.920  28.659  0.00  0.00    -0.037 NA
ATOM     27  N   UNL A   1     -26.668   6.489  28.982  0.00  0.00    -0.182 NA
BRANCH  27  28
ATOM     28  C   UNL A   1     -25.796   7.326  28.066  0.00  0.00    +0.115 C 
BRANCH  28  29
ATOM     29  C   UNL A   1     -25.026   6.479  26.963  0.00  0.00    +0.134 C 
BRANCH  29  31
ATOM     30  C   UNL A   1     -25.642   4.093  27.123  0.00  0.00    +0.266 C 
ATOM     31  N   UNL A   1     -25.614   5.252  26.449  0.00  0.00    -0.200 NA
ATOM     32  O   UNL A   1     -25.143   3.966  28.243  0.00  0.00    -0.268 OA
BRANCH  30  34
ATOM     33  C   UNL A   1     -25.688   1.614  26.461  0.00  0.00    +0.041 C 
ATOM     34  C   UNL A   1     -26.250   2.920  26.395  0.00  0.00    +0.077 C 
ATOM     35  C   UNL A   1     -27.438   3.091  25.645  0.00  0.00    +0.107 C 
ATOM     36  N   UNL A   1     -28.075   2.089  25.003  0.00  0.00    -0.208 NA
ATOM     37  C   UNL A   1     -27.543   0.849  25.079  0.00  0.00    +0.253 C 
ATOM     38  C   UNL A   1     -26.354   0.576  25.777  0.00  0.00    +0.193 C 
ATOM     39  F   UNL A   1     -25.860  -0.681  25.795  0.00  0.00    -0.199 F 
BRANCH  37  40
ATOM     40  O   UNL A   1     -28.193  -0.208  24.477  0.00  0.00    -0.456 OA
BRANCH  40  41
ATOM     41  C   UNL A   1     -29.460   0.005  23.866  0.00  0.00    +0.243 C 
BRANCH  41  42
ATOM     42  C   UNL A   1     -30.065  -1.377  23.573  0.00  0.00    +0.229 C 
ATOM     43  O   UNL A   1     -30.729  -1.878  24.721  0.00  0.00    -0.216 OA
ENDBRANCH  41  42
ENDBRANCH  40  41
ENDBRANCH  37  40
ENDBRANCH  30  34
ENDBRANCH  29  31
ENDBRANCH  28  29
ENDBRANCH  27  28
ENDBRANCH  25  27
BRANCH  25  44
ATOM     44  C   UNL A   1     -27.142   7.901  31.230  0.00  0.00    +0.110 C 
BRANCH  44  47
ATOM     45  N   UNL A   1     -28.487   9.282  29.811  0.00  0.00    -0.088 NA
ATOM     46  O   UNL A   1     -26.515  10.064  30.604  0.00  0.00    -0.272 OA
ATOM     47  C   UNL A   1     -27.329   9.173  30.506  0.00  0.00    +0.263 C 
ENDBRANCH  44  47
ENDBRANCH  25  44
ENDBRANCH   5  25
TORSDOF 17
