MODEL 536
MODEL 1
REMARK VINA RESULT:    -5.554      0.000      0.000
REMARK INTER + INTRA:          -6.622
REMARK INTER:                  -6.529
REMARK INTRA:                  -0.093
REMARK UNBOUND:                -0.093
REMARK  Name = No_536-gen_results/8p0m/2024-11-27-11-27-31/
REMARK  3 active torsions:
REMARK  status: ('A' for Active; 'I' for Inactive)
REMARK    1  A    between atoms: C_2  and  C_7
REMARK    2  A    between atoms: N_8  and  C_10
REMARK    3  A    between atoms: C_10  and  C_11
REMARK                            x       y       z     vdW  Elec       q    Type
REMARK                         _______ _______ _______ _____ _____    ______ ____
ROOT
ATOM      1  C   UNL A   1     -24.499  -1.209  29.862  0.00  0.00    +0.275 C 
ATOM      2  N   UNL A   1     -24.259  -0.381  29.307  0.00  0.00    -0.224 NA
ATOM      3  O   UNL A   1     -24.558  -1.156  31.274  0.00  0.00    -0.266 OA
ENDROOT
BRANCH   1   5
ATOM      4  C   UNL A   1     -23.822  -3.436  28.922  0.00  0.00    +0.005 A 
ATOM      5  C   UNL A   1     -24.603  -2.676  29.447  0.00  0.00    +0.058 A 
ATOM      6  C   UNL A   1     -25.845  -3.116  29.891  0.00  0.00    +0.005 A 
ATOM      7  C   UNL A   1     -26.260  -4.481  29.697  0.00  0.00    +0.000 A 
ATOM      8  C   UNL A   1     -25.306  -5.285  29.060  0.00  0.00    +0.000 A 
ATOM      9  C   UNL A   1     -24.152  -4.817  28.644  0.00  0.00    +0.000 A 
ENDBRANCH   1   5
BRANCH   2  10
ATOM     10  C   UNL A   1     -24.222  -0.323  27.803  0.00  0.00    +0.215 C 
BRANCH  10  11
ATOM     11  C   UNL A   1     -23.940   0.807  27.259  0.00  0.00    +0.266 C 
ATOM     12  N   UNL A   1     -24.296   1.156  26.055  0.00  0.00    -0.202 NA
ATOM     13  O   UNL A   1     -23.263   1.732  27.904  0.00  0.00    -0.271 OA
ATOM     14  C   UNL A   1     -24.971   0.349  25.090  0.00  0.00    +0.139 C 
ENDBRANCH  10  11
ENDBRANCH   2  10
TORSDOF 3
ENDMDL
ENDMDL
