REMARK  Name = outputs/IAG933/test6/raw/output_5372_IAG933_linker_design_.xyz
REMARK  8 active torsions:
REMARK  status: ('A' for Active; 'I' for Inactive)
REMARK    1  A    between atoms: C_1  and  C_2
REMARK    2  A    between atoms: C_13  and  C_44
REMARK    3  A    between atoms: C_14  and  C_15
REMARK    4  A    between atoms: C_21  and  O_22
REMARK    5  A    between atoms: O_22  and  C_23
REMARK    6  A    between atoms: C_23  and  C_24
REMARK    7  A    between atoms: C_29  and  C_40
REMARK    8  A    between atoms: N_37  and  C_42
REMARK                            x       y       z     vdW  Elec       q    Type
REMARK                         _______ _______ _______ _____ _____    ______ ____
ROOT
ATOM      1  F   UNL A   1     -23.180   2.016  24.738  0.00  0.00    -0.184 F 
ATOM      2  C   UNL A   1     -23.132   1.676  26.030  0.00  0.00    +0.349 C 
ATOM      3  N   UNL A   1     -22.393  -0.586  29.439  0.00  0.00    -0.123 NA
ATOM      4  C   UNL A   1     -22.753   0.235  28.346  0.00  0.00    +0.148 C 
ATOM      5  F   UNL A   1     -20.625   0.768  28.091  0.00  0.00    -0.162 F 
ATOM      6  C   UNL A   1     -21.803   0.903  27.616  0.00  0.00    +0.302 C 
ATOM      7  C   UNL A   1     -24.094   0.482  28.017  0.00  0.00    +0.000 C 
ATOM      8  C   UNL A   1     -24.298   1.295  26.823  0.00  0.00    +0.035 C 
ATOM      9  O   UNL A   1     -21.897   1.707  26.510  0.00  0.00    -0.421 OA
ENDROOT
BRANCH   7  16
ATOM     10  C   UNL A   1     -24.855  -1.012  30.143  0.00  0.00    +0.044 C 
ATOM     11  C   UNL A   1     -25.387  -0.679  31.571  0.00  0.00    +0.077 C 
ATOM     12  C   UNL A   1     -25.189   0.773  32.028  0.00  0.00    +0.019 C 
ATOM     13  C   UNL A   1     -25.336   0.684  33.544  0.00  0.00    +0.020 C 
ATOM     14  C   UNL A   1     -24.829  -0.715  33.905  0.00  0.00    +0.089 C 
ATOM     15  N   UNL A   1     -24.758  -1.481  32.646  0.00  0.00    -0.219 NA
ATOM     16  C   UNL A   1     -25.028   0.223  29.201  0.00  0.00    +0.047 C 
ATOM     17  C   UNL A   1     -25.338   1.679  29.790  0.00  0.00    +0.079 C 
ATOM     18  C   UNL A   1     -24.849   2.151  31.321  0.00  0.00    +0.022 C 
BRANCH  10  19
ATOM     19  C   UNL A   1     -24.973  -2.505  29.788  0.00  0.00    -0.021 C 
ATOM     20  C   UNL A   1     -23.906  -3.173  29.146  0.00  0.00    -0.004 C 
ATOM     21  C   UNL A   1     -23.989  -4.549  28.853  0.00  0.00    -0.000 C 
ATOM     22  C   UNL A   1     -25.137  -5.280  29.205  0.00  0.00    -0.000 C 
ATOM     23  C   UNL A   1     -26.232  -4.611  29.784  0.00  0.00    -0.000 C 
ATOM     24  C   UNL A   1     -26.155  -3.232  30.065  0.00  0.00    -0.004 C 
ENDBRANCH  10  19
BRANCH  17  27
ATOM     25  C   UNL A   1     -29.086   1.769  29.392  0.00  0.00    -0.006 C 
ATOM     26  O   UNL A   1     -27.444   3.090  32.234  0.00  0.00    -0.200 OA
ATOM     27  N   UNL A   1     -26.776   1.902  29.979  0.00  0.00    -0.284 N 
ATOM     28  C   UNL A   1     -27.729   1.053  29.227  0.00  0.00    +0.059 C 
ATOM     29  C   UNL A   1     -29.110   2.955  30.380  0.00  0.00    +0.081 C 
ATOM     30  C   UNL A   1     -27.572   3.051  30.758  0.00  0.00    +0.233 C 
ENDBRANCH  17  27
ENDBRANCH   7  16
BRANCH   8  31
ATOM     31  C   UNL A   1     -25.688   1.614  26.461  0.00  0.00    +0.094 C 
ATOM     32  C   UNL A   1     -26.250   2.920  26.395  0.00  0.00    +0.059 C 
ATOM     33  C   UNL A   1     -27.438   3.091  25.645  0.00  0.00    +0.102 C 
ATOM     34  N   UNL A   1     -28.075   2.089  25.003  0.00  0.00    -0.212 NA
ATOM     35  C   UNL A   1     -27.543   0.849  25.079  0.00  0.00    +0.234 C 
ATOM     36  C   UNL A   1     -26.354   0.576  25.777  0.00  0.00    +0.244 C 
ATOM     37  F   UNL A   1     -25.860  -0.681  25.795  0.00  0.00    -0.227 F 
BRANCH  32  38
ATOM     38  C   UNL A   1     -25.642   4.093  27.123  0.00  0.00    +0.263 C 
ATOM     39  N   UNL A   1     -25.614   5.252  26.449  0.00  0.00    -0.200 NA
ATOM     40  C   UNL A   1     -25.026   6.479  26.963  0.00  0.00    +0.139 C 
ATOM     41  O   UNL A   1     -25.143   3.966  28.243  0.00  0.00    -0.269 OA
ENDBRANCH  32  38
BRANCH  35  42
ATOM     42  O   UNL A   1     -28.193  -0.208  24.477  0.00  0.00    -0.459 OA
BRANCH  42  43
ATOM     43  C   UNL A   1     -29.460   0.005  23.866  0.00  0.00    +0.242 C 
BRANCH  43  44
ATOM     44  C   UNL A   1     -30.065  -1.377  23.573  0.00  0.00    +0.229 C 
ATOM     45  O   UNL A   1     -30.729  -1.878  24.721  0.00  0.00    -0.216 OA
ENDBRANCH  43  44
ENDBRANCH  42  43
ENDBRANCH  35  42
ENDBRANCH   8  31
TORSDOF 8
