REMARK  Name = outputs/IAG933/test6/raw/output_5373_IAG933_linker_design_.xyz
REMARK  10 active torsions:
REMARK  status: ('A' for Active; 'I' for Inactive)
REMARK    1  A    between atoms: C_1  and  C_2
REMARK    2  A    between atoms: C_1  and  C_8
REMARK    3  A    between atoms: C_9  and  C_32
REMARK    4  A    between atoms: C_13  and  C_37
REMARK    5  A    between atoms: C_14  and  C_15
REMARK    6  A    between atoms: C_21  and  O_22
REMARK    7  A    between atoms: O_22  and  C_23
REMARK    8  A    between atoms: C_23  and  C_24
REMARK    9  A    between atoms: C_31  and  C_32
REMARK   10  A    between atoms: C_31  and  C_42
REMARK                            x       y       z     vdW  Elec       q    Type
REMARK                         _______ _______ _______ _____ _____    ______ ____
ROOT
ATOM      1  C   UNL A   1     -24.837   1.833  31.008  0.00  0.00    -0.009 C 
ATOM      2  C   UNL A   1     -21.552   1.908  26.849  0.00  0.00    +0.021 C 
ATOM      3  N   UNL A   1     -23.602   1.610  25.712  0.00  0.00    -0.265 NA
ATOM      4  C   UNL A   1     -22.208   1.748  28.073  0.00  0.00    +0.007 C 
ATOM      5  C   UNL A   1     -24.325   1.505  26.874  0.00  0.00    +0.140 C 
ATOM      6  C   UNL A   1     -23.650   1.580  28.193  0.00  0.00    +0.034 C 
ATOM      7  C   UNL A   1     -24.178   1.603  29.645  0.00  0.00    -0.113 C 
ATOM      8  C   UNL A   1     -22.293   1.844  25.661  0.00  0.00    +0.093 C 
ENDROOT
BRANCH   5   9
ATOM      9  C   UNL A   1     -25.688   1.614  26.461  0.00  0.00    +0.097 C 
ATOM     10  C   UNL A   1     -26.250   2.920  26.395  0.00  0.00    +0.057 C 
ATOM     11  C   UNL A   1     -27.438   3.091  25.645  0.00  0.00    +0.102 C 
ATOM     12  N   UNL A   1     -28.075   2.089  25.003  0.00  0.00    -0.212 NA
ATOM     13  C   UNL A   1     -27.543   0.849  25.079  0.00  0.00    +0.234 C 
ATOM     14  C   UNL A   1     -26.354   0.576  25.777  0.00  0.00    +0.242 C 
ATOM     15  F   UNL A   1     -25.860  -0.681  25.795  0.00  0.00    -0.227 F 
BRANCH  10  16
ATOM     16  C   UNL A   1     -25.642   4.093  27.123  0.00  0.00    +0.263 C 
ATOM     17  N   UNL A   1     -25.614   5.252  26.449  0.00  0.00    -0.200 NA
ATOM     18  C   UNL A   1     -25.026   6.479  26.963  0.00  0.00    +0.139 C 
ATOM     19  O   UNL A   1     -25.143   3.966  28.243  0.00  0.00    -0.269 OA
ENDBRANCH  10  16
BRANCH  13  20
ATOM     20  O   UNL A   1     -28.193  -0.208  24.477  0.00  0.00    -0.459 OA
BRANCH  20  21
ATOM     21  C   UNL A   1     -29.460   0.005  23.866  0.00  0.00    +0.242 C 
BRANCH  21  22
ATOM     22  C   UNL A   1     -30.065  -1.377  23.573  0.00  0.00    +0.229 C 
ATOM     23  O   UNL A   1     -30.729  -1.878  24.721  0.00  0.00    -0.216 OA
ENDBRANCH  21  22
ENDBRANCH  20  21
ENDBRANCH  13  20
ENDBRANCH   5   9
BRANCH   1  25
ATOM     24  C   UNL A   1     -25.387  -0.679  31.571  0.00  0.00    +0.081 C 
ATOM     25  C   UNL A   1     -25.189   0.773  32.028  0.00  0.00    +0.043 C 
ATOM     26  C   UNL A   1     -25.336   0.684  33.544  0.00  0.00    +0.025 C 
ATOM     27  C   UNL A   1     -24.829  -0.715  33.905  0.00  0.00    +0.089 C 
ATOM     28  N   UNL A   1     -24.758  -1.481  32.646  0.00  0.00    -0.219 NA
BRANCH  24  29
ATOM     29  C   UNL A   1     -24.855  -1.012  30.143  0.00  0.00    +0.044 C 
BRANCH  29  30
ATOM     30  C   UNL A   1     -24.973  -2.505  29.788  0.00  0.00    -0.021 C 
ATOM     31  C   UNL A   1     -23.906  -3.173  29.146  0.00  0.00    -0.004 C 
ATOM     32  C   UNL A   1     -23.989  -4.549  28.853  0.00  0.00    -0.000 C 
ATOM     33  C   UNL A   1     -25.137  -5.280  29.205  0.00  0.00    -0.000 C 
ATOM     34  C   UNL A   1     -26.232  -4.611  29.784  0.00  0.00    -0.000 C 
ATOM     35  C   UNL A   1     -26.155  -3.232  30.065  0.00  0.00    -0.004 C 
ENDBRANCH  29  30
ENDBRANCH  24  29
ENDBRANCH   1  25
BRANCH   1  36
ATOM     36  C   UNL A   1     -25.062   3.038  31.540  0.00  0.00    +0.032 C 
BRANCH  36  42
ATOM     37  C   UNL A   1     -26.151   5.575  31.537  0.00  0.00    +0.064 C 
ATOM     38  C   UNL A   1     -27.561   3.715  30.940  0.00  0.00    +0.148 C 
ATOM     39  C   UNL A   1     -28.277   4.656  29.826  0.00  0.00    +0.174 C 
ATOM     40  O   UNL A   1     -28.534   5.823  30.618  0.00  0.00    -0.328 OA
ATOM     41  C   UNL A   1     -27.697   5.510  31.858  0.00  0.00    +0.235 C 
ATOM     42  C   UNL A   1     -25.950   4.147  30.872  0.00  0.00    +0.040 C 
ATOM     43  O   UNL A   1     -27.968   4.213  32.140  0.00  0.00    -0.330 OA
ENDBRANCH  36  42
ENDBRANCH   1  36
TORSDOF 10
