REMARK  Name = outputs/IAG933/test6/raw/output_5377_IAG933_linker_design_.xyz
REMARK  10 active torsions:
REMARK  status: ('A' for Active; 'I' for Inactive)
REMARK    1  A    between atoms: C_1  and  C_2
REMARK    2  A    between atoms: C_1  and  C_8
REMARK    3  A    between atoms: C_1  and  C_37
REMARK    4  A    between atoms: C_13  and  C_35
REMARK    5  A    between atoms: C_14  and  C_15
REMARK    6  A    between atoms: C_21  and  O_22
REMARK    7  A    between atoms: O_22  and  C_23
REMARK    8  A    between atoms: C_23  and  C_24
REMARK    9  A    between atoms: O_34  and  C_39
REMARK   10  A    between atoms: C_40  and  N_41
REMARK                            x       y       z     vdW  Elec       q    Type
REMARK                         _______ _______ _______ _____ _____    ______ ____
ROOT
ATOM      1  C   UNL A   1     -22.008   1.129  27.827  0.00  0.00    +0.140 C 
ATOM      2  C   UNL A   1     -24.382   1.369  27.177  0.00  0.00    +0.020 C 
ATOM      3  C   UNL A   1     -22.419   0.194  28.826  0.00  0.00    +0.027 C 
ATOM      4  C   UNL A   1     -23.846  -0.025  29.038  0.00  0.00    +0.001 C 
ATOM      5  C   UNL A   1     -24.780   0.611  28.369  0.00  0.00    +0.071 C 
ATOM      6  F   UNL A   1     -20.666   1.405  27.724  0.00  0.00    -0.204 F 
ATOM      7  C   UNL A   1     -22.960   1.743  26.963  0.00  0.00    +0.031 C 
ENDROOT
BRANCH   5  14
ATOM      8  C   UNL A   1     -29.351   1.352  31.545  0.00  0.00    +0.053 C 
ATOM      9  C   UNL A   1     -28.870   0.210  30.660  0.00  0.00    +0.098 C 
ATOM     10  N   UNL A   1     -28.113   0.803  29.573  0.00  0.00    -0.260 N 
ATOM     11  O   UNL A   1     -27.264  -0.908  28.490  0.00  0.00    -0.250 OA
ATOM     12  C   UNL A   1     -28.618   2.157  29.355  0.00  0.00    +0.124 C 
ATOM     13  C   UNL A   1     -28.996   2.599  30.765  0.00  0.00    +0.137 C 
ATOM     14  N   UNL A   1     -25.969   0.976  28.997  0.00  0.00    -0.163 NA
ATOM     15  C   UNL A   1     -27.119   0.239  29.001  0.00  0.00    +0.328 C 
BRANCH  13  16
ATOM     16  O   UNL A   1     -27.812   3.109  31.376  0.00  0.00    -0.352 OA
ATOM     17  C   UNL A   1     -28.011   3.129  32.820  0.00  0.00    +0.174 C 
ENDBRANCH  13  16
ENDBRANCH   5  14
BRANCH   2  18
ATOM     18  C   UNL A   1     -25.688   1.614  26.461  0.00  0.00    +0.039 C 
ATOM     19  C   UNL A   1     -26.250   2.920  26.395  0.00  0.00    +0.077 C 
ATOM     20  C   UNL A   1     -27.438   3.091  25.645  0.00  0.00    +0.107 C 
ATOM     21  N   UNL A   1     -28.075   2.089  25.003  0.00  0.00    -0.208 NA
ATOM     22  C   UNL A   1     -27.543   0.849  25.079  0.00  0.00    +0.253 C 
ATOM     23  C   UNL A   1     -26.354   0.576  25.777  0.00  0.00    +0.193 C 
ATOM     24  F   UNL A   1     -25.860  -0.681  25.795  0.00  0.00    -0.199 F 
BRANCH  19  25
ATOM     25  C   UNL A   1     -25.642   4.093  27.123  0.00  0.00    +0.266 C 
ATOM     26  N   UNL A   1     -25.614   5.252  26.449  0.00  0.00    -0.200 NA
ATOM     27  C   UNL A   1     -25.026   6.479  26.963  0.00  0.00    +0.139 C 
ATOM     28  O   UNL A   1     -25.143   3.966  28.243  0.00  0.00    -0.268 OA
ENDBRANCH  19  25
BRANCH  22  29
ATOM     29  O   UNL A   1     -28.193  -0.208  24.477  0.00  0.00    -0.456 OA
BRANCH  29  30
ATOM     30  C   UNL A   1     -29.460   0.005  23.866  0.00  0.00    +0.243 C 
BRANCH  30  31
ATOM     31  C   UNL A   1     -30.065  -1.377  23.573  0.00  0.00    +0.229 C 
ATOM     32  O   UNL A   1     -30.729  -1.878  24.721  0.00  0.00    -0.216 OA
ENDBRANCH  30  31
ENDBRANCH  29  30
ENDBRANCH  22  29
ENDBRANCH   2  18
BRANCH   4  33
ATOM     33  C   UNL A   1     -24.855  -1.012  30.143  0.00  0.00    +0.062 C 
BRANCH  33  34
ATOM     34  C   UNL A   1     -24.973  -2.505  29.788  0.00  0.00    -0.017 C 
ATOM     35  C   UNL A   1     -23.906  -3.173  29.146  0.00  0.00    -0.004 C 
ATOM     36  C   UNL A   1     -23.989  -4.549  28.853  0.00  0.00    -0.000 C 
ATOM     37  C   UNL A   1     -25.137  -5.280  29.205  0.00  0.00    -0.000 C 
ATOM     38  C   UNL A   1     -26.232  -4.611  29.784  0.00  0.00    -0.000 C 
ATOM     39  C   UNL A   1     -26.155  -3.232  30.065  0.00  0.00    -0.004 C 
ENDBRANCH  33  34
BRANCH  33  40
ATOM     40  C   UNL A   1     -25.387  -0.679  31.571  0.00  0.00    +0.081 C 
ATOM     41  C   UNL A   1     -25.189   0.773  32.028  0.00  0.00    +0.019 C 
ATOM     42  C   UNL A   1     -25.336   0.684  33.544  0.00  0.00    +0.020 C 
ATOM     43  C   UNL A   1     -24.829  -0.715  33.905  0.00  0.00    +0.089 C 
ATOM     44  N   UNL A   1     -24.758  -1.481  32.646  0.00  0.00    -0.219 NA
ENDBRANCH  33  40
ENDBRANCH   4  33
TORSDOF 10
