MODEL 537
MODEL 1
REMARK VINA RESULT:    -7.730      0.000      0.000
REMARK INTER + INTRA:         -12.691
REMARK INTER:                 -11.346
REMARK INTRA:                  -1.345
REMARK UNBOUND:                -1.345
REMARK  Name = No_537-gen_results/8p0m/2024-11-27-11-27-31/
REMARK  8 active torsions:
REMARK  status: ('A' for Active; 'I' for Inactive)
REMARK    1  A    between atoms: C_2  and  C_7
REMARK    2  A    between atoms: C_4  and  C_21
REMARK    3  A    between atoms: C_5  and  C_14
REMARK    4  A    between atoms: C_7  and  C_8
REMARK    5  A    between atoms: C_9  and  C_17
REMARK    6  A    between atoms: C_21  and  N_22
REMARK    7  A    between atoms: C_23  and  C_25
REMARK    8  A    between atoms: C_26  and  C_27
REMARK                            x       y       z     vdW  Elec       q    Type
REMARK                         _______ _______ _______ _____ _____    ______ ____
ROOT
ATOM      1  C   UNL A   1     -23.766   0.542  27.940  0.00  0.00    +0.003 A 
ATOM      2  C   UNL A   1     -24.662  -0.251  28.115  0.00  0.00    -0.018 A 
ATOM      3  C   UNL A   1     -25.549  -0.617  27.154  0.00  0.00    -0.004 A 
ATOM      4  C   UNL A   1     -25.425  -0.040  25.876  0.00  0.00    +0.033 A 
ATOM      5  C   UNL A   1     -23.522   1.098  26.633  0.00  0.00    +0.079 A 
ATOM      6  C   UNL A   1     -24.402   0.785  25.641  0.00  0.00    +0.007 A 
ENDROOT
BRANCH   5   7
ATOM      7  C   UNL A   1     -22.376   2.009  26.422  0.00  0.00    +0.388 C 
ATOM      8  O   UNL A   1     -22.290   2.553  25.278  0.00  0.00    -0.241 OA
ATOM      9  O   UNL A   1     -21.370   1.857  27.106  0.00  0.00    -0.241 OA
ENDBRANCH   5   7
BRANCH   4  10
ATOM     10  C   UNL A   1     -26.415  -0.415  24.790  0.00  0.00    +0.287 C 
ATOM     11  F   UNL A   1     -26.164  -1.628  24.329  0.00  0.00    -0.205 F 
BRANCH  10  12
ATOM     12  N   UNL A   1     -27.284   0.233  24.397  0.00  0.00    -0.234 NA
ATOM     13  C   UNL A   1     -28.549  -0.137  24.175  0.00  0.00    +0.096 C 
BRANCH  13  14
ATOM     14  C   UNL A   1     -29.440  -0.098  23.614  0.00  0.00    +0.020 C 
ATOM     15  C   UNL A   1     -30.377   0.942  23.212  0.00  0.00    +0.002 C 
BRANCH  15  16
ATOM     16  C   UNL A   1     -30.089   2.164  23.792  0.00  0.00    +0.000 C 
ATOM     17  C   UNL A   1     -30.917   3.207  23.632  0.00  0.00    +0.000 C 
ENDBRANCH  15  16
ENDBRANCH  13  14
ENDBRANCH  10  12
ENDBRANCH   4  10
BRANCH   2  18
ATOM     18  C   UNL A   1     -24.889  -0.944  29.447  0.00  0.00    +0.053 C 
BRANCH  18  19
ATOM     19  C   UNL A   1     -24.970  -2.438  29.344  0.00  0.00    -0.014 A 
ATOM     20  C   UNL A   1     -26.105  -3.163  29.651  0.00  0.00    +0.068 A 
ATOM     21  C   UNL A   1     -26.067  -4.579  29.592  0.00  0.00    +0.004 A 
ATOM     22  C   UNL A   1     -23.940  -3.095  28.632  0.00  0.00    -0.004 A 
ATOM     23  C   UNL A   1     -23.956  -4.509  28.584  0.00  0.00    -0.000 A 
ATOM     24  C   UNL A   1     -25.056  -5.217  28.994  0.00  0.00    -0.000 A 
BRANCH  20  25
ATOM     25  C   UNL A   1     -27.263  -2.499  30.327  0.00  0.00    +0.418 C 
ATOM     26  F   UNL A   1     -27.856  -1.697  29.690  0.00  0.00    -0.166 F 
ATOM     27  F   UNL A   1     -26.716  -1.893  31.497  0.00  0.00    -0.166 F 
ATOM     28  F   UNL A   1     -28.207  -3.395  30.696  0.00  0.00    -0.166 F 
ENDBRANCH  20  25
ENDBRANCH  18  19
ENDBRANCH   2  18
TORSDOF 8
ENDMDL
ENDMDL
