REMARK  Name = No_538-gen_results/8p0m/2024-11-27-11-27-31/
REMARK  0 active torsions:
REMARK  status: ('A' for Active; 'I' for Inactive)
REMARK                            x       y       z     vdW  Elec       q    Type
REMARK                         _______ _______ _______ _____ _____    ______ ____
ROOT
ATOM      1  O   UNL A   1     -28.123  -1.335  28.487  0.00  0.00    -0.273 OA
ATOM      2  C   UNL A   1     -27.481  -0.404  28.709  0.00  0.00    +0.241 C 
ATOM      3  C   UNL A   1     -26.380  -0.087  27.939  0.00  0.00    +0.087 C 
ATOM      4  N   UNL A   1     -27.423   0.175  30.055  0.00  0.00    -0.205 NA
ATOM      5  C   UNL A   1     -25.848   1.005  27.994  0.00  0.00    +0.018 C 
ATOM      6  C   UNL A   1     -25.811   1.741  29.284  0.00  0.00    +0.080 C 
ATOM      7  C   UNL A   1     -26.748   1.315  30.232  0.00  0.00    +0.122 C 
ATOM      8  C   UNL A   1     -24.779   1.540  27.058  0.00  0.00    +0.001 C 
ATOM      9  C   UNL A   1     -23.999   2.515  27.209  0.00  0.00    +0.008 C 
ATOM     10  C   UNL A   1     -24.186   3.256  28.479  0.00  0.00    +0.065 C 
ATOM     11  C   UNL A   1     -25.001   2.902  29.433  0.00  0.00    +0.152 C 
ATOM     12  O   UNL A   1     -25.053   3.583  30.581  0.00  0.00    -0.296 OA
ENDROOT
TORSDOF 0
