REMARK  Name = outputs/IAG933/test6/raw/output_5383_IAG933_linker_design_.xyz
REMARK  12 active torsions:
REMARK  status: ('A' for Active; 'I' for Inactive)
REMARK    1  A    between atoms: C_1  and  C_2
REMARK    2  A    between atoms: C_1  and  C_8
REMARK    3  A    between atoms: C_1  and  N_28
REMARK    4  A    between atoms: C_13  and  C_32
REMARK    5  A    between atoms: C_14  and  C_15
REMARK    6  A    between atoms: C_21  and  O_22
REMARK    7  A    between atoms: O_22  and  C_23
REMARK    8  A    between atoms: C_23  and  C_24
REMARK    9  A    between atoms: C_31  and  C_43
REMARK   10  A    between atoms: N_34  and  C_35
REMARK   11  A    between atoms: C_35  and  C_41
REMARK   12  A    between atoms: C_36  and  C_41
REMARK                            x       y       z     vdW  Elec       q    Type
REMARK                         _______ _______ _______ _____ _____    ______ ____
ROOT
ATOM      1  N   UNL A   1     -24.431   0.050  29.304  0.00  0.00    -0.263 N 
ATOM      2  C   UNL A   1     -23.278   1.640  27.143  0.00  0.00    +0.023 C 
ATOM      3  C   UNL A   1     -24.681   1.371  27.464  0.00  0.00    +0.060 C 
ATOM      4  O   UNL A   1     -21.118   1.432  27.926  0.00  0.00    -0.282 OA
ATOM      5  C   UNL A   1     -23.024   0.283  29.134  0.00  0.00    +0.288 C 
ATOM      6  C   UNL A   1     -22.334   1.009  27.984  0.00  0.00    +0.245 C 
ATOM      7  O   UNL A   1     -22.260   0.012  29.917  0.00  0.00    -0.266 OA
ATOM      8  C   UNL A   1     -25.241   1.123  28.909  0.00  0.00    +0.159 C 
ENDROOT
BRANCH   3   9
ATOM      9  C   UNL A   1     -25.688   1.614  26.461  0.00  0.00    +0.076 C 
ATOM     10  C   UNL A   1     -26.250   2.920  26.395  0.00  0.00    +0.055 C 
ATOM     11  C   UNL A   1     -27.438   3.091  25.645  0.00  0.00    +0.102 C 
ATOM     12  N   UNL A   1     -28.075   2.089  25.003  0.00  0.00    -0.212 NA
ATOM     13  C   UNL A   1     -27.543   0.849  25.079  0.00  0.00    +0.234 C 
ATOM     14  C   UNL A   1     -26.354   0.576  25.777  0.00  0.00    +0.240 C 
ATOM     15  F   UNL A   1     -25.860  -0.681  25.795  0.00  0.00    -0.227 F 
BRANCH  10  16
ATOM     16  C   UNL A   1     -25.642   4.093  27.123  0.00  0.00    +0.263 C 
ATOM     17  N   UNL A   1     -25.614   5.252  26.449  0.00  0.00    -0.200 NA
ATOM     18  C   UNL A   1     -25.026   6.479  26.963  0.00  0.00    +0.139 C 
ATOM     19  O   UNL A   1     -25.143   3.966  28.243  0.00  0.00    -0.269 OA
ENDBRANCH  10  16
BRANCH  13  20
ATOM     20  O   UNL A   1     -28.193  -0.208  24.477  0.00  0.00    -0.459 OA
BRANCH  20  21
ATOM     21  C   UNL A   1     -29.460   0.005  23.866  0.00  0.00    +0.242 C 
BRANCH  21  22
ATOM     22  C   UNL A   1     -30.065  -1.377  23.573  0.00  0.00    +0.229 C 
ATOM     23  O   UNL A   1     -30.729  -1.878  24.721  0.00  0.00    -0.216 OA
ENDBRANCH  21  22
ENDBRANCH  20  21
ENDBRANCH  13  20
ENDBRANCH   3   9
BRANCH   8  24
ATOM     24  C   UNL A   1     -26.771   1.209  29.556  0.00  0.00    +0.260 C 
ATOM     25  O   UNL A   1     -27.377   0.181  29.502  0.00  0.00    -0.272 OA
ATOM     26  N   UNL A   1     -27.430   2.379  30.179  0.00  0.00    -0.204 NA
BRANCH  26  27
ATOM     27  C   UNL A   1     -28.845   2.607  30.583  0.00  0.00    +0.115 C 
BRANCH  27  28
ATOM     28  C   UNL A   1     -28.942   3.641  31.762  0.00  0.00    +0.023 C 
BRANCH  28  30
ATOM     29  C   UNL A   1     -26.698   4.196  32.782  0.00  0.00    +0.000 C 
ATOM     30  C   UNL A   1     -27.887   4.677  31.791  0.00  0.00    +0.002 C 
ATOM     31  C   UNL A   1     -27.605   5.061  30.286  0.00  0.00    +0.000 C 
ATOM     32  C   UNL A   1     -28.279   5.989  32.525  0.00  0.00    +0.000 C 
ENDBRANCH  28  30
ENDBRANCH  27  28
ENDBRANCH  26  27
ENDBRANCH   8  24
BRANCH   1  33
ATOM     33  C   UNL A   1     -24.855  -1.012  30.143  0.00  0.00    +0.115 C 
BRANCH  33  34
ATOM     34  C   UNL A   1     -24.973  -2.505  29.788  0.00  0.00    -0.003 C 
ATOM     35  C   UNL A   1     -23.906  -3.173  29.146  0.00  0.00    -0.003 C 
ATOM     36  C   UNL A   1     -23.989  -4.549  28.853  0.00  0.00    -0.000 C 
ATOM     37  C   UNL A   1     -25.137  -5.280  29.205  0.00  0.00    -0.000 C 
ATOM     38  C   UNL A   1     -26.232  -4.611  29.784  0.00  0.00    -0.000 C 
ATOM     39  C   UNL A   1     -26.155  -3.232  30.065  0.00  0.00    -0.003 C 
ENDBRANCH  33  34
BRANCH  33  40
ATOM     40  C   UNL A   1     -25.387  -0.679  31.571  0.00  0.00    +0.095 C 
ATOM     41  C   UNL A   1     -25.189   0.773  32.028  0.00  0.00    +0.021 C 
ATOM     42  C   UNL A   1     -25.336   0.684  33.544  0.00  0.00    +0.020 C 
ATOM     43  C   UNL A   1     -24.829  -0.715  33.905  0.00  0.00    +0.089 C 
ATOM     44  N   UNL A   1     -24.758  -1.481  32.646  0.00  0.00    -0.217 NA
ENDBRANCH  33  40
ENDBRANCH   1  33
TORSDOF 12
