REMARK  Name = outputs/IAG933/test6/raw/output_5384_IAG933_linker_design_.xyz
REMARK  13 active torsions:
REMARK  status: ('A' for Active; 'I' for Inactive)
REMARK    1  A    between atoms: C_1  and  C_2
REMARK    2  A    between atoms: C_1  and  C_8
REMARK    3  A    between atoms: C_1  and  N_28
REMARK    4  A    between atoms: C_13  and  C_47
REMARK    5  A    between atoms: C_14  and  C_15
REMARK    6  A    between atoms: C_21  and  O_22
REMARK    7  A    between atoms: O_22  and  C_23
REMARK    8  A    between atoms: C_23  and  C_24
REMARK    9  A    between atoms: N_28  and  C_34
REMARK   10  A    between atoms: N_28  and  C_47
REMARK   11  A    between atoms: C_33  and  C_43
REMARK   12  A    between atoms: C_34  and  C_43
REMARK   13  A    between atoms: C_36  and  C_40
REMARK                            x       y       z     vdW  Elec       q    Type
REMARK                         _______ _______ _______ _____ _____    ______ ____
ROOT
ATOM      1  N   UNL A   1     -25.454   0.019  29.064  0.00  0.00    -0.307 N 
ENDROOT
BRANCH   1   4
ATOM      2  C   UNL A   1     -23.705   1.117  27.376  0.00  0.00    -0.004 C 
ATOM      3  C   UNL A   1     -23.317   1.772  26.137  0.00  0.00    +0.030 C 
ATOM      4  C   UNL A   1     -25.012   1.016  27.642  0.00  0.00    +0.027 C 
BRANCH   4   5
ATOM      5  C   UNL A   1     -25.688   1.614  26.461  0.00  0.00    +0.105 C 
ATOM      6  C   UNL A   1     -26.250   2.920  26.395  0.00  0.00    +0.060 C 
ATOM      7  C   UNL A   1     -27.438   3.091  25.645  0.00  0.00    +0.102 C 
ATOM      8  N   UNL A   1     -28.075   2.089  25.003  0.00  0.00    -0.212 NA
ATOM      9  C   UNL A   1     -27.543   0.849  25.079  0.00  0.00    +0.234 C 
ATOM     10  C   UNL A   1     -26.354   0.576  25.777  0.00  0.00    +0.245 C 
ATOM     11  F   UNL A   1     -25.860  -0.681  25.795  0.00  0.00    -0.227 F 
BRANCH   6  12
ATOM     12  C   UNL A   1     -25.642   4.093  27.123  0.00  0.00    +0.263 C 
ATOM     13  N   UNL A   1     -25.614   5.252  26.449  0.00  0.00    -0.200 NA
ATOM     14  C   UNL A   1     -25.026   6.479  26.963  0.00  0.00    +0.139 C 
ATOM     15  O   UNL A   1     -25.143   3.966  28.243  0.00  0.00    -0.269 OA
ENDBRANCH   6  12
BRANCH   9  16
ATOM     16  O   UNL A   1     -28.193  -0.208  24.477  0.00  0.00    -0.459 OA
BRANCH  16  17
ATOM     17  C   UNL A   1     -29.460   0.005  23.866  0.00  0.00    +0.242 C 
BRANCH  17  18
ATOM     18  C   UNL A   1     -30.065  -1.377  23.573  0.00  0.00    +0.229 C 
ATOM     19  O   UNL A   1     -30.729  -1.878  24.721  0.00  0.00    -0.216 OA
ENDBRANCH  17  18
ENDBRANCH  16  17
ENDBRANCH   9  16
ENDBRANCH   4   5
BRANCH   2  22
ATOM     20  C   UNL A   1     -21.296   1.425  27.764  0.00  0.00    +0.040 C 
ATOM     21  O   UNL A   1     -22.500   0.048  29.275  0.00  0.00    -0.219 OA
ATOM     22  C   UNL A   1     -22.581   0.715  28.169  0.00  0.00    +0.171 C 
ENDBRANCH   2  22
ENDBRANCH   1   4
BRANCH   1  23
ATOM     23  C   UNL A   1     -24.855  -1.012  30.143  0.00  0.00    +0.111 C 
BRANCH  23  24
ATOM     24  C   UNL A   1     -24.973  -2.505  29.788  0.00  0.00    -0.003 C 
ATOM     25  C   UNL A   1     -23.906  -3.173  29.146  0.00  0.00    -0.003 C 
ATOM     26  C   UNL A   1     -23.989  -4.549  28.853  0.00  0.00    -0.000 C 
ATOM     27  C   UNL A   1     -25.137  -5.280  29.205  0.00  0.00    -0.000 C 
ATOM     28  C   UNL A   1     -26.232  -4.611  29.784  0.00  0.00    -0.000 C 
ATOM     29  C   UNL A   1     -26.155  -3.232  30.065  0.00  0.00    -0.003 C 
ENDBRANCH  23  24
BRANCH  23  30
ATOM     30  C   UNL A   1     -25.387  -0.679  31.571  0.00  0.00    +0.095 C 
ATOM     31  C   UNL A   1     -25.189   0.773  32.028  0.00  0.00    +0.021 C 
ATOM     32  C   UNL A   1     -25.336   0.684  33.544  0.00  0.00    +0.020 C 
ATOM     33  C   UNL A   1     -24.829  -0.715  33.905  0.00  0.00    +0.089 C 
ATOM     34  N   UNL A   1     -24.758  -1.481  32.646  0.00  0.00    -0.217 NA
ENDBRANCH  23  30
ENDBRANCH   1  23
BRANCH   1  35
ATOM     35  C   UNL A   1     -26.966   0.338  29.212  0.00  0.00    +0.091 C 
BRANCH  35  36
ATOM     36  C   UNL A   1     -28.462   0.584  29.915  0.00  0.00    +0.024 C 
BRANCH  36  40
ATOM     37  O   UNL A   1     -31.188  -0.641  27.658  0.00  0.00    -0.354 OA
ATOM     38  C   UNL A   1     -31.134  -2.484  29.946  0.00  0.00    +0.033 C 
ATOM     39  C   UNL A   1     -32.269  -1.412  29.839  0.00  0.00    +0.035 C 
ATOM     40  C   UNL A   1     -29.883  -0.023  29.725  0.00  0.00    +0.031 C 
ATOM     41  C   UNL A   1     -30.656  -3.591  30.973  0.00  0.00    +0.152 C 
ATOM     42  C   UNL A   1     -30.392   0.408  28.261  0.00  0.00    +0.142 C 
ATOM     43  C   UNL A   1     -32.340  -0.968  28.382  0.00  0.00    +0.142 C 
ATOM     44  O   UNL A   1     -31.354  -4.757  30.999  0.00  0.00    -0.223 OA
ATOM     45  C   UNL A   1     -29.186  -3.609  30.932  0.00  0.00    +0.033 C 
ATOM     46  C   UNL A   1     -29.958  -1.537  29.801  0.00  0.00    +0.005 C 
ATOM     47  C   UNL A   1     -28.729  -2.198  30.543  0.00  0.00    +0.003 C 
ENDBRANCH  36  40
ENDBRANCH  35  36
ENDBRANCH   1  35
TORSDOF 13
