REMARK  Name = outputs/IAG933/test6/raw/output_5389_IAG933_linker_design_.xyz
REMARK  11 active torsions:
REMARK  status: ('A' for Active; 'I' for Inactive)
REMARK    1  A    between atoms: C_1  and  C_2
REMARK    2  A    between atoms: C_1  and  C_8
REMARK    3  A    between atoms: C_1  and  O_32
REMARK    4  A    between atoms: C_13  and  C_40
REMARK    5  A    between atoms: C_14  and  C_15
REMARK    6  A    between atoms: C_21  and  O_22
REMARK    7  A    between atoms: O_22  and  C_23
REMARK    8  A    between atoms: C_23  and  C_24
REMARK    9  A    between atoms: C_28  and  O_31
REMARK   10  A    between atoms: C_30  and  C_34
REMARK   11  A    between atoms: O_32  and  C_38
REMARK                            x       y       z     vdW  Elec       q    Type
REMARK                         _______ _______ _______ _____ _____    ______ ____
ROOT
ATOM      1  C   UNL A   1     -23.191   1.687  26.662  0.00  0.00    +0.143 C 
ATOM      2  C   UNL A   1     -21.925   1.570  27.387  0.00  0.00    +0.067 C 
ATOM      3  C   UNL A   1     -21.651   0.766  28.322  0.00  0.00    +0.129 C 
ATOM      4  O   UNL A   1     -19.499   2.268  28.109  0.00  0.00    -0.283 OA
ATOM      5  O   UNL A   1     -22.407  -0.646  30.221  0.00  0.00    -0.272 OA
ATOM      6  N   UNL A   1     -23.622   1.270  29.476  0.00  0.00    -0.144 NA
ATOM      7  C   UNL A   1     -24.556   0.838  28.561  0.00  0.00    +0.219 C 
ATOM      8  C   UNL A   1     -24.465   1.354  27.233  0.00  0.00    +0.087 C 
ATOM      9  C   UNL A   1     -22.550   0.349  29.561  0.00  0.00    +0.256 C 
ATOM     10  C   UNL A   1     -20.744   2.255  27.279  0.00  0.00    +0.234 C 
ENDROOT
BRANCH   8  11
ATOM     11  C   UNL A   1     -25.688   1.614  26.461  0.00  0.00    +0.045 C 
ATOM     12  C   UNL A   1     -26.250   2.920  26.395  0.00  0.00    +0.077 C 
ATOM     13  C   UNL A   1     -27.438   3.091  25.645  0.00  0.00    +0.107 C 
ATOM     14  N   UNL A   1     -28.075   2.089  25.003  0.00  0.00    -0.208 NA
ATOM     15  C   UNL A   1     -27.543   0.849  25.079  0.00  0.00    +0.253 C 
ATOM     16  C   UNL A   1     -26.354   0.576  25.777  0.00  0.00    +0.193 C 
ATOM     17  F   UNL A   1     -25.860  -0.681  25.795  0.00  0.00    -0.199 F 
BRANCH  12  18
ATOM     18  C   UNL A   1     -25.642   4.093  27.123  0.00  0.00    +0.266 C 
ATOM     19  N   UNL A   1     -25.614   5.252  26.449  0.00  0.00    -0.200 NA
ATOM     20  C   UNL A   1     -25.026   6.479  26.963  0.00  0.00    +0.139 C 
ATOM     21  O   UNL A   1     -25.143   3.966  28.243  0.00  0.00    -0.268 OA
ENDBRANCH  12  18
BRANCH  15  22
ATOM     22  O   UNL A   1     -28.193  -0.208  24.477  0.00  0.00    -0.456 OA
BRANCH  22  23
ATOM     23  C   UNL A   1     -29.460   0.005  23.866  0.00  0.00    +0.243 C 
BRANCH  23  24
ATOM     24  C   UNL A   1     -30.065  -1.377  23.573  0.00  0.00    +0.229 C 
ATOM     25  O   UNL A   1     -30.729  -1.878  24.721  0.00  0.00    -0.216 OA
ENDBRANCH  23  24
ENDBRANCH  22  23
ENDBRANCH  15  22
ENDBRANCH   8  11
BRANCH   1  26
ATOM     26  O   UNL A   1     -23.138   2.201  25.446  0.00  0.00    -0.471 OA
ATOM     27  C   UNL A   1     -23.584   1.425  24.264  0.00  0.00    +0.253 C 
ENDBRANCH   1  26
BRANCH   3  28
ATOM     28  C   UNL A   1     -20.479   0.216  28.818  0.00  0.00    -0.013 C 
ATOM     29  C   UNL A   1     -19.536  -0.312  28.117  0.00  0.00    -0.004 C 
ENDBRANCH   3  28
BRANCH   7  30
ATOM     30  O   UNL A   1     -25.148  -0.257  28.994  0.00  0.00    -0.460 OA
BRANCH  30  31
ATOM     31  C   UNL A   1     -24.855  -1.012  30.143  0.00  0.00    +0.205 C 
BRANCH  31  32
ATOM     32  C   UNL A   1     -24.973  -2.505  29.788  0.00  0.00    +0.019 C 
ATOM     33  C   UNL A   1     -23.906  -3.173  29.146  0.00  0.00    -0.001 C 
ATOM     34  C   UNL A   1     -23.989  -4.549  28.853  0.00  0.00    -0.000 C 
ATOM     35  C   UNL A   1     -25.137  -5.280  29.205  0.00  0.00    -0.000 C 
ATOM     36  C   UNL A   1     -26.232  -4.611  29.784  0.00  0.00    -0.000 C 
ATOM     37  C   UNL A   1     -26.155  -3.232  30.065  0.00  0.00    -0.001 C 
ENDBRANCH  31  32
BRANCH  31  38
ATOM     38  C   UNL A   1     -25.387  -0.679  31.571  0.00  0.00    +0.117 C 
ATOM     39  C   UNL A   1     -25.189   0.773  32.028  0.00  0.00    +0.023 C 
ATOM     40  C   UNL A   1     -25.336   0.684  33.544  0.00  0.00    +0.020 C 
ATOM     41  C   UNL A   1     -24.829  -0.715  33.905  0.00  0.00    +0.089 C 
ATOM     42  N   UNL A   1     -24.758  -1.481  32.646  0.00  0.00    -0.215 NA
ENDBRANCH  31  38
ENDBRANCH  30  31
ENDBRANCH   7  30
TORSDOF 11
