MODEL 538
MODEL 1
REMARK VINA RESULT:    -5.664      0.000      0.000
REMARK INTER + INTRA:          -5.664
REMARK INTER:                  -5.664
REMARK INTRA:                   0.000
REMARK UNBOUND:                 0.000
REMARK  Name = No_538-gen_results/8p0m/2024-11-27-11-27-31/
REMARK  0 active torsions:
REMARK  status: ('A' for Active; 'I' for Inactive)
REMARK                            x       y       z     vdW  Elec       q    Type
REMARK                         _______ _______ _______ _____ _____    ______ ____
ROOT
ATOM      1  O   UNL A   1     -26.814 -12.756  33.950  0.00  0.00    -0.273 OA
ATOM      2  C   UNL A   1     -27.562 -12.129  33.337  0.00  0.00    +0.241 C 
ATOM      3  C   UNL A   1     -27.569 -12.162  31.957  0.00  0.00    +0.087 C 
ATOM      4  N   UNL A   1     -28.151 -10.902  33.882  0.00  0.00    -0.205 NA
ATOM      5  C   UNL A   1     -28.494 -11.717  31.306  0.00  0.00    +0.018 C 
ATOM      6  C   UNL A   1     -29.239 -10.531  31.802  0.00  0.00    +0.080 C 
ATOM      7  C   UNL A   1     -29.091 -10.273  33.170  0.00  0.00    +0.122 C 
ATOM      8  C   UNL A   1     -28.715 -11.883  29.813  0.00  0.00    +0.001 C 
ATOM      9  C   UNL A   1     -29.468 -11.238  29.039  0.00  0.00    +0.008 C 
ATOM     10  C   UNL A   1     -30.273 -10.187  29.706  0.00  0.00    +0.065 C 
ATOM     11  C   UNL A   1     -30.165  -9.852  30.961  0.00  0.00    +0.152 C 
ATOM     12  O   UNL A   1     -30.874  -8.838  31.466  0.00  0.00    -0.296 OA
ENDROOT
TORSDOF 0
ENDMDL
ENDMDL
