REMARK  Name = No_539-gen_results/8p0m/2024-11-27-11-27-31/
REMARK  4 active torsions:
REMARK  status: ('A' for Active; 'I' for Inactive)
REMARK    1  A    between atoms: C_1  and  C_2
REMARK    2  A    between atoms: C_1  and  N_10
REMARK    3  A    between atoms: C_5  and  C_6
REMARK    4  A    between atoms: N_10  and  C_11
REMARK                            x       y       z     vdW  Elec       q    Type
REMARK                         _______ _______ _______ _____ _____    ______ ____
ROOT
ATOM      1  C   UNL A   1     -27.064  -0.119  28.608  0.00  0.00    -0.001 A 
ATOM      2  C   UNL A   1     -26.972   0.714  27.506  0.00  0.00    -0.003 A 
ATOM      3  C   UNL A   1     -25.820   1.491  27.116  0.00  0.00    -0.004 A 
ATOM      4  C   UNL A   1     -24.656   1.424  27.918  0.00  0.00    -0.022 A 
ATOM      5  C   UNL A   1     -25.893  -0.065  29.577  0.00  0.00    -0.003 A 
ATOM      6  C   UNL A   1     -24.702   0.638  29.201  0.00  0.00    -0.004 A 
ENDROOT
BRANCH   4   7
ATOM      7  C   UNL A   1     -23.460   2.116  27.616  0.00  0.00    +0.022 C 
ATOM      8  C   UNL A   1     -23.507   2.708  26.294  0.00  0.00    +0.005 C 
ATOM      9  C   UNL A   1     -22.240   1.879  28.223  0.00  0.00    +0.005 C 
ENDBRANCH   4   7
BRANCH   1  10
ATOM     10  C   UNL A   1     -28.016  -0.814  28.878  0.00  0.00    +0.139 C 
BRANCH  10  11
ATOM     11  N   UNL A   1     -28.687  -0.535  30.085  0.00  0.00    -0.232 NA
BRANCH  11  12
ATOM     12  C   UNL A   1     -29.573  -1.406  30.682  0.00  0.00    +0.081 C 
ATOM     13  C   UNL A   1     -30.168  -1.040  31.918  0.00  0.00    +0.019 C 
ENDBRANCH  11  12
ENDBRANCH  10  11
ENDBRANCH   1  10
TORSDOF 4
