REMARK  Name = outputs/IAG933/test6/raw/output_5393_IAG933_linker_design_.xyz
REMARK  11 active torsions:
REMARK  status: ('A' for Active; 'I' for Inactive)
REMARK    1  A    between atoms: C_1  and  C_2
REMARK    2  A    between atoms: C_1  and  C_8
REMARK    3  A    between atoms: C_1  and  C_32
REMARK    4  A    between atoms: C_13  and  C_39
REMARK    5  A    between atoms: C_14  and  C_15
REMARK    6  A    between atoms: C_21  and  O_22
REMARK    7  A    between atoms: O_22  and  C_23
REMARK    8  A    between atoms: C_23  and  C_24
REMARK    9  A    between atoms: C_46  and  C_59
REMARK   10  A    between atoms: C_52  and  C_59
REMARK   11  A    between atoms: O_53  and  C_55
REMARK                            x       y       z     vdW  Elec       q    Type
REMARK                         _______ _______ _______ _____ _____    ______ ____
ROOT
ATOM      1  C   UNL A   1     -22.106   0.930  28.256  0.00  0.00    +0.165 C 
ATOM      2  C   UNL A   1     -30.723  -0.207  28.641  0.00  0.00    +0.031 C 
ATOM      3  C   UNL A   1     -28.181   0.062  29.115  0.00  0.00    +0.030 C 
ATOM      4  C   UNL A   1     -24.177   0.144  29.449  0.00  0.00    +0.150 C 
ATOM      5  C   UNL A   1     -28.415  -0.959  30.039  0.00  0.00    +0.001 C 
ATOM      6  C   UNL A   1     -29.503   0.447  28.378  0.00  0.00    -0.015 C 
ATOM      7  C   UNL A   1     -29.738   1.367  27.507  0.00  0.00    -0.004 C 
ATOM      8  C   UNL A   1     -23.314   1.287  27.288  0.00  0.00    -0.018 C 
ATOM      9  C   UNL A   1     -24.778   1.199  27.595  0.00  0.00    -0.015 C 
ATOM     10  C   UNL A   1     -29.679  -1.404  30.359  0.00  0.00    -0.017 C 
ATOM     11  C   UNL A   1     -25.323   0.669  28.647  0.00  0.00    +0.035 C 
ATOM     12  C   UNL A   1     -30.641  -1.931  32.415  0.00  0.00    +0.034 C 
ATOM     13  C   UNL A   1     -22.792   2.056  25.979  0.00  0.00    +0.029 C 
ATOM     14  C   UNL A   1     -31.954  -0.803  30.780  0.00  0.00    +0.008 C 
ATOM     15  C   UNL A   1     -30.833  -0.799  29.912  0.00  0.00    +0.025 C 
ATOM     16  O   UNL A   1     -23.005  -0.229  28.900  0.00  0.00    -0.346 OA
ATOM     17  C   UNL A   1     -26.818   0.634  28.938  0.00  0.00    -0.104 C 
ATOM     18  C   UNL A   1     -31.714  -1.096  32.130  0.00  0.00    +0.003 C 
ATOM     19  C   UNL A   1     -29.984  -2.378  31.290  0.00  0.00    +0.134 C 
ENDROOT
BRANCH   9  20
ATOM     20  C   UNL A   1     -25.688   1.614  26.461  0.00  0.00    +0.092 C 
ATOM     21  C   UNL A   1     -26.250   2.920  26.395  0.00  0.00    +0.059 C 
ATOM     22  C   UNL A   1     -27.438   3.091  25.645  0.00  0.00    +0.102 C 
ATOM     23  N   UNL A   1     -28.075   2.089  25.003  0.00  0.00    -0.212 NA
ATOM     24  C   UNL A   1     -27.543   0.849  25.079  0.00  0.00    +0.234 C 
ATOM     25  C   UNL A   1     -26.354   0.576  25.777  0.00  0.00    +0.244 C 
ATOM     26  F   UNL A   1     -25.860  -0.681  25.795  0.00  0.00    -0.227 F 
BRANCH  21  27
ATOM     27  C   UNL A   1     -25.642   4.093  27.123  0.00  0.00    +0.263 C 
ATOM     28  N   UNL A   1     -25.614   5.252  26.449  0.00  0.00    -0.200 NA
ATOM     29  C   UNL A   1     -25.026   6.479  26.963  0.00  0.00    +0.139 C 
ATOM     30  O   UNL A   1     -25.143   3.966  28.243  0.00  0.00    -0.269 OA
ENDBRANCH  21  27
BRANCH  24  31
ATOM     31  O   UNL A   1     -28.193  -0.208  24.477  0.00  0.00    -0.459 OA
BRANCH  31  32
ATOM     32  C   UNL A   1     -29.460   0.005  23.866  0.00  0.00    +0.242 C 
BRANCH  32  33
ATOM     33  C   UNL A   1     -30.065  -1.377  23.573  0.00  0.00    +0.229 C 
ATOM     34  O   UNL A   1     -30.729  -1.878  24.721  0.00  0.00    -0.216 OA
ENDBRANCH  32  33
ENDBRANCH  31  32
ENDBRANCH  24  31
ENDBRANCH   9  20
BRANCH  19  36
ATOM     35  C   UNL A   1     -30.892  -4.479  31.641  0.00  0.00    +0.174 C 
ATOM     36  O   UNL A   1     -29.842  -3.693  31.014  0.00  0.00    -0.349 OA
ENDBRANCH  19  36
BRANCH   4  37
ATOM     37  C   UNL A   1     -24.855  -1.012  30.143  0.00  0.00    +0.070 C 
BRANCH  37  38
ATOM     38  C   UNL A   1     -24.973  -2.505  29.788  0.00  0.00    -0.018 C 
ATOM     39  C   UNL A   1     -23.906  -3.173  29.146  0.00  0.00    -0.004 C 
ATOM     40  C   UNL A   1     -23.989  -4.549  28.853  0.00  0.00    -0.000 C 
ATOM     41  C   UNL A   1     -25.137  -5.280  29.205  0.00  0.00    -0.000 C 
ATOM     42  C   UNL A   1     -26.232  -4.611  29.784  0.00  0.00    -0.000 C 
ATOM     43  C   UNL A   1     -26.155  -3.232  30.065  0.00  0.00    -0.004 C 
ENDBRANCH  37  38
BRANCH  37  44
ATOM     44  C   UNL A   1     -25.387  -0.679  31.571  0.00  0.00    +0.080 C 
ATOM     45  C   UNL A   1     -25.189   0.773  32.028  0.00  0.00    +0.019 C 
ATOM     46  C   UNL A   1     -25.336   0.684  33.544  0.00  0.00    +0.020 C 
ATOM     47  C   UNL A   1     -24.829  -0.715  33.905  0.00  0.00    +0.089 C 
ATOM     48  N   UNL A   1     -24.758  -1.481  32.646  0.00  0.00    -0.219 NA
ENDBRANCH  37  44
ENDBRANCH   4  37
BRANCH  14  49
ATOM     49  C   UNL A   1     -33.392  -0.581  30.372  0.00  0.00    +0.048 C 
BRANCH  49  56
ATOM     50  N   UNL A   1     -32.198   3.502  32.409  0.00  0.00    -0.207 NA
ATOM     51  C   UNL A   1     -35.305   1.050  30.970  0.00  0.00    +0.249 C 
ATOM     52  O   UNL A   1     -35.636   2.120  31.899  0.00  0.00    -0.467 OA
ATOM     53  C   UNL A   1     -33.725   5.137  32.900  0.00  0.00    +0.024 C 
ATOM     54  C   UNL A   1     -33.155   2.640  32.113  0.00  0.00    +0.260 C 
ATOM     55  O   UNL A   1     -32.828   1.490  31.440  0.00  0.00    -0.458 OA
ATOM     56  C   UNL A   1     -33.870   0.594  31.231  0.00  0.00    +0.211 C 
ATOM     57  C   UNL A   1     -32.417   4.711  32.762  0.00  0.00    +0.102 C 
ATOM     58  C   UNL A   1     -34.730   4.237  32.737  0.00  0.00    +0.043 C 
ATOM     59  C   UNL A   1     -34.509   2.911  32.387  0.00  0.00    +0.192 C 
ENDBRANCH  49  56
ENDBRANCH  14  49
TORSDOF 11
