REMARK  Name = outputs/IAG933/test6/raw/output_5394_IAG933_linker_design_.xyz
REMARK  9 active torsions:
REMARK  status: ('A' for Active; 'I' for Inactive)
REMARK    1  A    between atoms: C_1  and  C_2
REMARK    2  A    between atoms: C_1  and  C_8
REMARK    3  A    between atoms: C_1  and  N_28
REMARK    4  A    between atoms: C_13  and  C_39
REMARK    5  A    between atoms: C_14  and  C_15
REMARK    6  A    between atoms: C_21  and  O_22
REMARK    7  A    between atoms: O_22  and  C_23
REMARK    8  A    between atoms: C_23  and  C_24
REMARK    9  A    between atoms: C_33  and  C_34
REMARK                            x       y       z     vdW  Elec       q    Type
REMARK                         _______ _______ _______ _____ _____    ______ ____
ROOT
ATOM      1  N   UNL A   1     -24.205  -0.250  29.075  0.00  0.00    -0.261 N 
ATOM      2  C   UNL A   1     -22.882   0.055  29.044  0.00  0.00    +0.248 C 
ATOM      3  O   UNL A   1     -21.475   1.925  25.918  0.00  0.00    -0.298 OA
ATOM      4  C   UNL A   1     -22.903   1.893  25.679  0.00  0.00    +0.384 C 
ATOM      5  O   UNL A   1     -22.087  -0.338  29.851  0.00  0.00    -0.270 OA
ATOM      6  C   UNL A   1     -25.171   0.072  28.121  0.00  0.00    +0.176 C 
ATOM      7  F   UNL A   1     -23.393   1.325  24.544  0.00  0.00    -0.171 F 
ATOM      8  F   UNL A   1     -23.379   3.229  25.593  0.00  0.00    -0.171 F 
ATOM      9  C   UNL A   1     -21.226   1.499  27.323  0.00  0.00    +0.178 C 
ATOM     10  C   UNL A   1     -23.386   1.284  26.882  0.00  0.00    +0.054 C 
ATOM     11  C   UNL A   1     -24.604   1.060  27.085  0.00  0.00    +0.084 C 
ATOM     12  C   UNL A   1     -22.417   0.933  27.859  0.00  0.00    +0.061 C 
ENDROOT
BRANCH  11  13
ATOM     13  C   UNL A   1     -25.688   1.614  26.461  0.00  0.00    +0.022 C 
ATOM     14  C   UNL A   1     -26.250   2.920  26.395  0.00  0.00    +0.073 C 
ATOM     15  C   UNL A   1     -27.438   3.091  25.645  0.00  0.00    +0.106 C 
ATOM     16  N   UNL A   1     -28.075   2.089  25.003  0.00  0.00    -0.208 NA
ATOM     17  C   UNL A   1     -27.543   0.849  25.079  0.00  0.00    +0.253 C 
ATOM     18  C   UNL A   1     -26.354   0.576  25.777  0.00  0.00    +0.190 C 
ATOM     19  F   UNL A   1     -25.860  -0.681  25.795  0.00  0.00    -0.200 F 
BRANCH  14  20
ATOM     20  C   UNL A   1     -25.642   4.093  27.123  0.00  0.00    +0.266 C 
ATOM     21  N   UNL A   1     -25.614   5.252  26.449  0.00  0.00    -0.200 NA
ATOM     22  C   UNL A   1     -25.026   6.479  26.963  0.00  0.00    +0.139 C 
ATOM     23  O   UNL A   1     -25.143   3.966  28.243  0.00  0.00    -0.268 OA
ENDBRANCH  14  20
BRANCH  17  24
ATOM     24  O   UNL A   1     -28.193  -0.208  24.477  0.00  0.00    -0.456 OA
BRANCH  24  25
ATOM     25  C   UNL A   1     -29.460   0.005  23.866  0.00  0.00    +0.243 C 
BRANCH  25  26
ATOM     26  C   UNL A   1     -30.065  -1.377  23.573  0.00  0.00    +0.229 C 
ATOM     27  O   UNL A   1     -30.729  -1.878  24.721  0.00  0.00    -0.216 OA
ENDBRANCH  25  26
ENDBRANCH  24  25
ENDBRANCH  17  24
ENDBRANCH  11  13
BRANCH   6  28
ATOM     28  C   UNL A   1     -26.051   1.096  28.968  0.00  0.00    +0.093 C 
ATOM     29  N   UNL A   1     -26.688   1.893  29.564  0.00  0.00    -0.194 NA
ENDBRANCH   6  28
BRANCH   1  30
ATOM     30  C   UNL A   1     -24.855  -1.012  30.143  0.00  0.00    +0.115 C 
BRANCH  30  31
ATOM     31  C   UNL A   1     -24.973  -2.505  29.788  0.00  0.00    -0.003 C 
ATOM     32  C   UNL A   1     -23.906  -3.173  29.146  0.00  0.00    -0.003 C 
ATOM     33  C   UNL A   1     -23.989  -4.549  28.853  0.00  0.00    -0.000 C 
ATOM     34  C   UNL A   1     -25.137  -5.280  29.205  0.00  0.00    -0.000 C 
ATOM     35  C   UNL A   1     -26.232  -4.611  29.784  0.00  0.00    -0.000 C 
ATOM     36  C   UNL A   1     -26.155  -3.232  30.065  0.00  0.00    -0.003 C 
ENDBRANCH  30  31
BRANCH  30  37
ATOM     37  C   UNL A   1     -25.387  -0.679  31.571  0.00  0.00    +0.095 C 
ATOM     38  C   UNL A   1     -25.189   0.773  32.028  0.00  0.00    +0.021 C 
ATOM     39  C   UNL A   1     -25.336   0.684  33.544  0.00  0.00    +0.020 C 
ATOM     40  C   UNL A   1     -24.829  -0.715  33.905  0.00  0.00    +0.089 C 
ATOM     41  N   UNL A   1     -24.758  -1.481  32.646  0.00  0.00    -0.217 NA
ENDBRANCH  30  37
ENDBRANCH   1  30
TORSDOF 9
