REMARK  Name = outputs/IAG933/test6/raw/output_5396_IAG933_linker_design_.xyz
REMARK  9 active torsions:
REMARK  status: ('A' for Active; 'I' for Inactive)
REMARK    1  A    between atoms: C_1  and  C_2
REMARK    2  A    between atoms: C_1  and  C_8
REMARK    3  A    between atoms: C_1  and  N_41
REMARK    4  A    between atoms: C_13  and  C_39
REMARK    5  A    between atoms: C_14  and  C_15
REMARK    6  A    between atoms: C_21  and  O_22
REMARK    7  A    between atoms: O_22  and  C_23
REMARK    8  A    between atoms: C_23  and  C_24
REMARK    9  A    between atoms: C_32  and  C_42
REMARK                            x       y       z     vdW  Elec       q    Type
REMARK                         _______ _______ _______ _____ _____    ______ ____
ROOT
ATOM      1  C   UNL A   1     -20.420  -0.425  29.671  0.00  0.00    +0.012 C 
ATOM      2  C   UNL A   1     -22.972   0.220  29.513  0.00  0.00    +0.232 C 
ATOM      3  O   UNL A   1     -22.574   1.323  29.153  0.00  0.00    -0.274 OA
ATOM      4  C   UNL A   1     -21.748   1.683  27.063  0.00  0.00    +0.168 C 
ATOM      5  C   UNL A   1     -20.378  -0.077  28.612  0.00  0.00    +0.033 C 
ATOM      6  C   UNL A   1     -21.969  -0.505  30.228  0.00  0.00    +0.086 C 
ATOM      7  O   UNL A   1     -20.356   1.889  27.599  0.00  0.00    -0.349 OA
ATOM      8  C   UNL A   1     -24.472   1.281  27.204  0.00  0.00    +0.059 C 
ATOM      9  C   UNL A   1     -20.697   0.650  27.685  0.00  0.00    +0.147 C 
ATOM     10  N   UNL A   1     -24.277  -0.124  29.406  0.00  0.00    -0.223 N 
ATOM     11  C   UNL A   1     -23.182   1.748  26.633  0.00  0.00    +0.083 C 
ATOM     12  C   UNL A   1     -24.799   0.376  28.366  0.00  0.00    +0.255 C 
ATOM     13  O   UNL A   1     -26.199  -0.205  28.225  0.00  0.00    -0.270 OA
ENDROOT
BRANCH   8  14
ATOM     14  C   UNL A   1     -25.688   1.614  26.461  0.00  0.00    +0.042 C 
ATOM     15  C   UNL A   1     -26.250   2.920  26.395  0.00  0.00    +0.077 C 
ATOM     16  C   UNL A   1     -27.438   3.091  25.645  0.00  0.00    +0.107 C 
ATOM     17  N   UNL A   1     -28.075   2.089  25.003  0.00  0.00    -0.208 NA
ATOM     18  C   UNL A   1     -27.543   0.849  25.079  0.00  0.00    +0.253 C 
ATOM     19  C   UNL A   1     -26.354   0.576  25.777  0.00  0.00    +0.193 C 
ATOM     20  F   UNL A   1     -25.860  -0.681  25.795  0.00  0.00    -0.199 F 
BRANCH  15  21
ATOM     21  C   UNL A   1     -25.642   4.093  27.123  0.00  0.00    +0.266 C 
ATOM     22  N   UNL A   1     -25.614   5.252  26.449  0.00  0.00    -0.200 NA
ATOM     23  C   UNL A   1     -25.026   6.479  26.963  0.00  0.00    +0.139 C 
ATOM     24  O   UNL A   1     -25.143   3.966  28.243  0.00  0.00    -0.268 OA
ENDBRANCH  15  21
BRANCH  18  25
ATOM     25  O   UNL A   1     -28.193  -0.208  24.477  0.00  0.00    -0.456 OA
BRANCH  25  26
ATOM     26  C   UNL A   1     -29.460   0.005  23.866  0.00  0.00    +0.243 C 
BRANCH  26  27
ATOM     27  C   UNL A   1     -30.065  -1.377  23.573  0.00  0.00    +0.229 C 
ATOM     28  O   UNL A   1     -30.729  -1.878  24.721  0.00  0.00    -0.216 OA
ENDBRANCH  26  27
ENDBRANCH  25  26
ENDBRANCH  18  25
ENDBRANCH   8  14
BRANCH  11  30
ATOM     29  F   UNL A   1     -23.723   3.530  25.354  0.00  0.00    -0.166 F 
ATOM     30  C   UNL A   1     -23.112   2.321  25.314  0.00  0.00    +0.417 C 
ATOM     31  F   UNL A   1     -21.943   2.429  24.870  0.00  0.00    -0.166 F 
ATOM     32  F   UNL A   1     -23.749   1.525  24.400  0.00  0.00    -0.166 F 
ENDBRANCH  11  30
BRANCH  10  33
ATOM     33  C   UNL A   1     -24.855  -1.012  30.143  0.00  0.00    +0.121 C 
BRANCH  33  34
ATOM     34  C   UNL A   1     -24.973  -2.505  29.788  0.00  0.00    -0.003 C 
ATOM     35  C   UNL A   1     -23.906  -3.173  29.146  0.00  0.00    -0.003 C 
ATOM     36  C   UNL A   1     -23.989  -4.549  28.853  0.00  0.00    -0.000 C 
ATOM     37  C   UNL A   1     -25.137  -5.280  29.205  0.00  0.00    -0.000 C 
ATOM     38  C   UNL A   1     -26.232  -4.611  29.784  0.00  0.00    -0.000 C 
ATOM     39  C   UNL A   1     -26.155  -3.232  30.065  0.00  0.00    -0.003 C 
ENDBRANCH  33  34
BRANCH  33  40
ATOM     40  C   UNL A   1     -25.387  -0.679  31.571  0.00  0.00    +0.096 C 
ATOM     41  C   UNL A   1     -25.189   0.773  32.028  0.00  0.00    +0.021 C 
ATOM     42  C   UNL A   1     -25.336   0.684  33.544  0.00  0.00    +0.020 C 
ATOM     43  C   UNL A   1     -24.829  -0.715  33.905  0.00  0.00    +0.089 C 
ATOM     44  N   UNL A   1     -24.758  -1.481  32.646  0.00  0.00    -0.217 NA
ENDBRANCH  33  40
ENDBRANCH  10  33
TORSDOF 9
