MODEL 539
MODEL 1
REMARK VINA RESULT:    -5.645      0.000      0.000
REMARK INTER + INTRA:          -7.211
REMARK INTER:                  -6.965
REMARK INTRA:                  -0.246
REMARK UNBOUND:                -0.246
REMARK  Name = No_539-gen_results/8p0m/2024-11-27-11-27-31/
REMARK  4 active torsions:
REMARK  status: ('A' for Active; 'I' for Inactive)
REMARK    1  A    between atoms: C_1  and  C_2
REMARK    2  A    between atoms: C_1  and  N_10
REMARK    3  A    between atoms: C_5  and  C_6
REMARK    4  A    between atoms: N_10  and  C_11
REMARK                            x       y       z     vdW  Elec       q    Type
REMARK                         _______ _______ _______ _____ _____    ______ ____
ROOT
ATOM      1  C   UNL A   1     -23.625  -0.932  28.653  0.00  0.00    -0.001 A 
ATOM      2  C   UNL A   1     -24.682  -0.689  27.793  0.00  0.00    -0.003 A 
ATOM      3  C   UNL A   1     -24.776   0.390  26.839  0.00  0.00    -0.004 A 
ATOM      4  C   UNL A   1     -23.705   1.310  26.750  0.00  0.00    -0.022 A 
ATOM      5  C   UNL A   1     -22.550   0.143  28.701  0.00  0.00    -0.003 A 
ATOM      6  C   UNL A   1     -22.566   1.196  27.728  0.00  0.00    -0.004 A 
ENDROOT
BRANCH   4   7
ATOM      7  C   UNL A   1     -23.675   2.386  25.832  0.00  0.00    +0.022 C 
ATOM      8  C   UNL A   1     -22.477   2.355  25.017  0.00  0.00    +0.005 C 
ATOM      9  C   UNL A   1     -24.378   3.567  25.981  0.00  0.00    +0.005 C 
ENDBRANCH   4   7
BRANCH   1  10
ATOM     10  C   UNL A   1     -23.536  -1.882  29.396  0.00  0.00    +0.139 C 
BRANCH  10  11
ATOM     11  N   UNL A   1     -23.747  -3.155  28.832  0.00  0.00    -0.232 NA
BRANCH  11  12
ATOM     12  C   UNL A   1     -24.822  -3.959  29.146  0.00  0.00    +0.081 C 
ATOM     13  C   UNL A   1     -24.705  -5.362  28.967  0.00  0.00    +0.019 C 
ENDBRANCH  11  12
ENDBRANCH  10  11
ENDBRANCH   1  10
TORSDOF 4
ENDMDL
ENDMDL
