MODEL 53
MODEL 1
REMARK VINA RESULT:    -4.691      0.000      0.000
REMARK INTER + INTRA:          -5.734
REMARK INTER:                  -5.514
REMARK INTRA:                  -0.220
REMARK UNBOUND:                -0.220
REMARK  Name = No_53-gen_results/8p0m/2024-11-27-11-27-31/
REMARK  3 active torsions:
REMARK  status: ('A' for Active; 'I' for Inactive)
REMARK    1  A    between atoms: C_2  and  C_3
REMARK    2  A    between atoms: C_5  and  C_6
REMARK    3  A    between atoms: C_7  and  C_8
REMARK                            x       y       z     vdW  Elec       q    Type
REMARK                         _______ _______ _______ _____ _____    ______ ____
ROOT
ATOM      1  C   UNL A   1     -27.590 -12.220  32.166  0.00  0.00    +0.012 C 
ATOM      2  C   UNL A   1     -28.092 -11.963  31.211  0.00  0.00    -0.054 C 
ENDROOT
BRANCH   1   4
ATOM      3  O   UNL A   1     -26.786 -12.666  34.065  0.00  0.00    -0.244 OA
ATOM      4  C   UNL A   1     -27.240 -12.080  33.182  0.00  0.00    +0.376 C 
ATOM      5  F   UNL A   1     -27.526 -10.684  33.741  0.00  0.00    -0.149 F 
ENDBRANCH   1   4
BRANCH   2   6
ATOM      6  C   UNL A   1     -29.142 -11.065  30.679  0.00  0.00    +0.050 C 
ATOM      7  C   UNL A   1     -29.651 -10.996  29.398  0.00  0.00    +0.009 C 
BRANCH   7   8
ATOM      8  C   UNL A   1     -29.128 -11.902  28.400  0.00  0.00    +0.001 C 
ATOM      9  C   UNL A   1     -29.486 -11.721  27.047  0.00  0.00    +0.000 C 
ENDBRANCH   7   8
ENDBRANCH   2   6
TORSDOF 3
ENDMDL
ENDMDL
