REMARK  Name = outputs/IAG933/test6/raw/output_540_IAG933_linker_design_.xyz
REMARK  9 active torsions:
REMARK  status: ('A' for Active; 'I' for Inactive)
REMARK    1  A    between atoms: C_1  and  C_2
REMARK    2  A    between atoms: C_1  and  C_8
REMARK    3  A    between atoms: C_1  and  N_40
REMARK    4  A    between atoms: C_13  and  C_41
REMARK    5  A    between atoms: C_14  and  C_15
REMARK    6  A    between atoms: C_21  and  O_22
REMARK    7  A    between atoms: O_22  and  C_23
REMARK    8  A    between atoms: C_23  and  C_24
REMARK    9  A    between atoms: C_37  and  N_40
REMARK                            x       y       z     vdW  Elec       q    Type
REMARK                         _______ _______ _______ _____ _____    ______ ____
ROOT
ATOM      1  C   UNL A   1     -22.758   0.786  28.722  0.00  0.00    +0.196 C 
ATOM      2  C   UNL A   1     -23.408   1.765  25.754  0.00  0.00    +0.147 C 
ATOM      3  O   UNL A   1     -22.212   2.185  25.849  0.00  0.00    -0.353 OA
ATOM      4  C   UNL A   1     -21.437   1.974  26.890  0.00  0.00    +0.150 C 
ATOM      5  C   UNL A   1     -21.578   1.236  28.074  0.00  0.00    +0.101 C 
ATOM      6  C   UNL A   1     -24.007   0.745  28.123  0.00  0.00    +0.220 C 
ATOM      7  C   UNL A   1     -24.285   1.385  26.780  0.00  0.00    +0.087 C 
ATOM      8  O   UNL A   1     -22.572   0.455  29.900  0.00  0.00    -0.292 OA
ENDROOT
BRANCH   7   9
ATOM      9  C   UNL A   1     -25.688   1.614  26.461  0.00  0.00    +0.077 C 
ATOM     10  C   UNL A   1     -26.250   2.920  26.395  0.00  0.00    +0.055 C 
ATOM     11  C   UNL A   1     -27.438   3.091  25.645  0.00  0.00    +0.102 C 
ATOM     12  N   UNL A   1     -28.075   2.089  25.003  0.00  0.00    -0.212 NA
ATOM     13  C   UNL A   1     -27.543   0.849  25.079  0.00  0.00    +0.234 C 
ATOM     14  C   UNL A   1     -26.354   0.576  25.777  0.00  0.00    +0.240 C 
ATOM     15  F   UNL A   1     -25.860  -0.681  25.795  0.00  0.00    -0.227 F 
BRANCH  10  16
ATOM     16  C   UNL A   1     -25.642   4.093  27.123  0.00  0.00    +0.262 C 
ATOM     17  N   UNL A   1     -25.614   5.252  26.449  0.00  0.00    -0.200 NA
ATOM     18  C   UNL A   1     -25.026   6.479  26.963  0.00  0.00    +0.139 C 
ATOM     19  O   UNL A   1     -25.143   3.966  28.243  0.00  0.00    -0.269 OA
ENDBRANCH  10  16
BRANCH  13  20
ATOM     20  O   UNL A   1     -28.193  -0.208  24.477  0.00  0.00    -0.459 OA
BRANCH  20  21
ATOM     21  C   UNL A   1     -29.460   0.005  23.866  0.00  0.00    +0.242 C 
BRANCH  21  22
ATOM     22  C   UNL A   1     -30.065  -1.377  23.573  0.00  0.00    +0.229 C 
ATOM     23  O   UNL A   1     -30.729  -1.878  24.721  0.00  0.00    -0.216 OA
ENDBRANCH  21  22
ENDBRANCH  20  21
ENDBRANCH  13  20
ENDBRANCH   7   9
BRANCH   6  30
ATOM     24  C   UNL A   1     -27.460   1.291  28.940  0.00  0.00    +0.151 C 
ATOM     25  C   UNL A   1     -26.553   0.098  28.785  0.00  0.00    +0.351 C 
ATOM     26  O   UNL A   1     -28.299  -1.426  28.920  0.00  0.00    -0.252 OA
ATOM     27  N   UNL A   1     -27.021  -1.133  28.447  0.00  0.00    +0.155 NA
ATOM     28  C   UNL A   1     -29.097  -0.437  29.388  0.00  0.00    +0.238 C 
ATOM     29  C   UNL A   1     -28.742   0.932  29.282  0.00  0.00    +0.033 C 
ATOM     30  N   UNL A   1     -25.126   0.020  29.018  0.00  0.00    -0.186 N 
BRANCH  30  31
ATOM     31  C   UNL A   1     -24.855  -1.012  30.143  0.00  0.00    +0.199 C 
BRANCH  31  32
ATOM     32  C   UNL A   1     -24.973  -2.505  29.788  0.00  0.00    +0.021 C 
ATOM     33  C   UNL A   1     -23.906  -3.173  29.146  0.00  0.00    -0.000 C 
ATOM     34  C   UNL A   1     -23.989  -4.549  28.853  0.00  0.00    -0.000 C 
ATOM     35  C   UNL A   1     -25.137  -5.280  29.205  0.00  0.00    -0.000 C 
ATOM     36  C   UNL A   1     -26.232  -4.611  29.784  0.00  0.00    -0.000 C 
ATOM     37  C   UNL A   1     -26.155  -3.232  30.065  0.00  0.00    -0.000 C 
ENDBRANCH  31  32
BRANCH  31  38
ATOM     38  C   UNL A   1     -25.387  -0.679  31.571  0.00  0.00    +0.120 C 
ATOM     39  C   UNL A   1     -25.189   0.773  32.028  0.00  0.00    +0.023 C 
ATOM     40  C   UNL A   1     -25.336   0.684  33.544  0.00  0.00    +0.020 C 
ATOM     41  C   UNL A   1     -24.829  -0.715  33.905  0.00  0.00    +0.089 C 
ATOM     42  N   UNL A   1     -24.758  -1.481  32.646  0.00  0.00    -0.215 NA
ENDBRANCH  31  38
ENDBRANCH  30  31
ENDBRANCH   6  30
TORSDOF 9
