REMARK  Name = outputs/IAG933/test6/raw/output_5403_IAG933_linker_design_.xyz
REMARK  19 active torsions:
REMARK  status: ('A' for Active; 'I' for Inactive)
REMARK    1  A    between atoms: C_1  and  C_2
REMARK    2  A    between atoms: C_1  and  C_8
REMARK    3  A    between atoms: C_9  and  O_46
REMARK    4  A    between atoms: C_14  and  C_15
REMARK    5  A    between atoms: C_15  and  O_18
REMARK    6  A    between atoms: O_18  and  C_47
REMARK    7  A    between atoms: C_21  and  O_22
REMARK    8  A    between atoms: O_22  and  C_23
REMARK    9  A    between atoms: C_23  and  C_24
REMARK   10  A    between atoms: C_28  and  N_33
REMARK   11  A    between atoms: C_28  and  O_46
REMARK   12  A    between atoms: C_28  and  C_47
REMARK   13  A    between atoms: C_29  and  C_45
REMARK   14  A    between atoms: O_30  and  C_42
REMARK   15  A    between atoms: O_30  and  C_43
REMARK   16  A    between atoms: C_31  and  C_39
REMARK   17  A    between atoms: N_33  and  C_42
REMARK   18  A    between atoms: C_39  and  C_45
REMARK   19  A    between atoms: C_45  and  C_47
REMARK                            x       y       z     vdW  Elec       q    Type
REMARK                         _______ _______ _______ _____ _____    ______ ____
ROOT
ATOM      1  C   UNL A   1     -25.613   3.920  29.549  0.00  0.00    +0.221 C 
ENDROOT
BRANCH   1   2
ATOM      2  C   UNL A   1     -26.364   4.757  30.443  0.00  0.00    +0.138 C 
BRANCH   2   3
ATOM      3  C   UNL A   1     -27.700   4.856  30.341  0.00  0.00    +0.253 C 
ATOM      4  C   UNL A   1     -30.267   5.779  29.171  0.00  0.00    +0.117 C 
ATOM      5  O   UNL A   1     -28.514   7.941  31.191  0.00  0.00    -0.250 OA
ATOM      6  C   UNL A   1     -28.770   6.939  30.597  0.00  0.00    +0.330 C 
ATOM      7  O   UNL A   1     -28.261   4.117  29.529  0.00  0.00    -0.273 OA
ATOM      8  N   UNL A   1     -29.469   6.969  29.475  0.00  0.00    -0.259 N 
ATOM      9  N   UNL A   1     -28.396   5.750  31.091  0.00  0.00    -0.127 NA
ATOM     10  C   UNL A   1     -28.802   7.754  28.413  0.00  0.00    +0.117 C 
ENDBRANCH   2   3
BRANCH   2  11
ATOM     11  C   UNL A   1     -25.797   5.471  31.463  0.00  0.00    +0.118 C 
BRANCH  11  12
ATOM     12  C   UNL A   1     -25.843   6.816  31.613  0.00  0.00    +0.074 C 
ATOM     13  N   UNL A   1     -25.989   7.857  31.473  0.00  0.00    -0.196 NA
ENDBRANCH  11  12
ENDBRANCH   2  11
ENDBRANCH   1   2
BRANCH   1  14
ATOM     14  C   UNL A   1     -25.450   2.475  30.123  0.00  0.00    +0.234 C 
BRANCH  14  15
ATOM     15  O   UNL A   1     -25.767   2.035  31.526  0.00  0.00    -0.338 OA
BRANCH  15  17
ATOM     16  C   UNL A   1     -25.387  -0.679  31.571  0.00  0.00    +0.104 C 
ATOM     17  C   UNL A   1     -25.189   0.773  32.028  0.00  0.00    +0.135 C 
ATOM     18  C   UNL A   1     -25.336   0.684  33.544  0.00  0.00    +0.050 C 
ATOM     19  C   UNL A   1     -24.829  -0.715  33.905  0.00  0.00    +0.091 C 
ATOM     20  N   UNL A   1     -24.758  -1.481  32.646  0.00  0.00    -0.217 NA
BRANCH  16  21
ATOM     21  C   UNL A   1     -24.855  -1.012  30.143  0.00  0.00    +0.046 C 
BRANCH  21  22
ATOM     22  C   UNL A   1     -24.973  -2.505  29.788  0.00  0.00    -0.021 C 
ATOM     23  C   UNL A   1     -23.906  -3.173  29.146  0.00  0.00    -0.004 C 
ATOM     24  C   UNL A   1     -23.989  -4.549  28.853  0.00  0.00    -0.000 C 
ATOM     25  C   UNL A   1     -25.137  -5.280  29.205  0.00  0.00    -0.000 C 
ATOM     26  C   UNL A   1     -26.232  -4.611  29.784  0.00  0.00    -0.000 C 
ATOM     27  C   UNL A   1     -26.155  -3.232  30.065  0.00  0.00    -0.004 C 
ENDBRANCH  21  22
ENDBRANCH  16  21
ENDBRANCH  15  17
ENDBRANCH  14  15
BRANCH  14  28
ATOM     28  N   UNL A   1     -24.171   2.014  29.737  0.00  0.00    -0.145 NA
BRANCH  28  29
ATOM     29  C   UNL A   1     -23.756   0.791  29.225  0.00  0.00    +0.304 C 
BRANCH  29  30
ATOM     30  O   UNL A   1     -22.400   0.792  28.837  0.00  0.00    -0.429 OA
BRANCH  30  33
ATOM     31  C   UNL A   1     -20.610   1.343  27.446  0.00  0.00    +0.121 C 
ATOM     32  O   UNL A   1     -22.678   2.397  27.268  0.00  0.00    -0.250 OA
ATOM     33  C   UNL A   1     -21.995   1.579  27.858  0.00  0.00    +0.319 C 
ENDBRANCH  30  33
ENDBRANCH  29  30
ENDBRANCH  28  29
ENDBRANCH  14  28
ENDBRANCH   1  14
BRANCH   1  34
ATOM     34  O   UNL A   1     -25.143   3.966  28.243  0.00  0.00    -0.460 OA
BRANCH  34  35
ATOM     35  C   UNL A   1     -25.642   4.093  27.123  0.00  0.00    +0.222 C 
ATOM     36  N   UNL A   1     -25.614   5.252  26.449  0.00  0.00    -0.236 NA
ATOM     37  C   UNL A   1     -25.026   6.479  26.963  0.00  0.00    +0.155 C 
BRANCH  35  39
ATOM     38  C   UNL A   1     -25.688   1.614  26.461  0.00  0.00    +0.041 C 
ATOM     39  C   UNL A   1     -26.250   2.920  26.395  0.00  0.00    +0.074 C 
ATOM     40  C   UNL A   1     -27.438   3.091  25.645  0.00  0.00    +0.107 C 
ATOM     41  N   UNL A   1     -28.075   2.089  25.003  0.00  0.00    -0.208 NA
ATOM     42  C   UNL A   1     -27.543   0.849  25.079  0.00  0.00    +0.253 C 
ATOM     43  C   UNL A   1     -26.354   0.576  25.777  0.00  0.00    +0.193 C 
ATOM     44  F   UNL A   1     -25.860  -0.681  25.795  0.00  0.00    -0.199 F 
BRANCH  42  45
ATOM     45  O   UNL A   1     -28.193  -0.208  24.477  0.00  0.00    -0.456 OA
BRANCH  45  46
ATOM     46  C   UNL A   1     -29.460   0.005  23.866  0.00  0.00    +0.243 C 
BRANCH  46  47
ATOM     47  C   UNL A   1     -30.065  -1.377  23.573  0.00  0.00    +0.229 C 
ATOM     48  O   UNL A   1     -30.729  -1.878  24.721  0.00  0.00    -0.216 OA
ENDBRANCH  46  47
ENDBRANCH  45  46
ENDBRANCH  42  45
ENDBRANCH  35  39
ENDBRANCH  34  35
ENDBRANCH   1  34
TORSDOF 19
