REMARK  Name = outputs/IAG933/test6/raw/output_5404_IAG933_linker_design_.xyz
REMARK  19 active torsions:
REMARK  status: ('A' for Active; 'I' for Inactive)
REMARK    1  A    between atoms: C_1  and  C_2
REMARK    2  A    between atoms: C_1  and  C_8
REMARK    3  A    between atoms: C_1  and  C_29
REMARK    4  A    between atoms: C_13  and  C_33
REMARK    5  A    between atoms: C_14  and  C_15
REMARK    6  A    between atoms: C_21  and  O_22
REMARK    7  A    between atoms: O_22  and  C_23
REMARK    8  A    between atoms: C_23  and  C_24
REMARK    9  A    between atoms: C_28  and  C_45
REMARK   10  A    between atoms: C_28  and  C_46
REMARK   11  A    between atoms: C_29  and  C_43
REMARK   12  A    between atoms: O_30  and  C_45
REMARK   13  A    between atoms: O_30  and  C_47
REMARK   14  A    between atoms: N_32  and  C_43
REMARK   15  A    between atoms: C_34  and  O_38
REMARK   16  A    between atoms: C_34  and  C_43
REMARK   17  A    between atoms: O_38  and  C_47
REMARK   18  A    between atoms: C_39  and  O_44
REMARK   19  A    between atoms: O_44  and  C_46
REMARK                            x       y       z     vdW  Elec       q    Type
REMARK                         _______ _______ _______ _____ _____    ______ ____
ROOT
ATOM      1  C   UNL A   1     -25.902   1.179  28.965  0.00  0.00    +0.088 C 
ENDROOT
BRANCH   1   2
ATOM      2  N   UNL A   1     -24.384   1.256  28.583  0.00  0.00    -0.269 NA
ATOM      3  C   UNL A   1     -24.340   1.366  27.115  0.00  0.00    +0.083 C 
ATOM      4  C   UNL A   1     -22.441   2.263  25.602  0.00  0.00    +0.002 C 
ATOM      5  C   UNL A   1     -22.954   0.739  28.765  0.00  0.00    +0.072 C 
ATOM      6  C   UNL A   1     -22.963   2.118  26.979  0.00  0.00    +0.020 C 
ATOM      7  C   UNL A   1     -22.212   1.643  28.154  0.00  0.00    +0.019 C 
BRANCH   3   8
ATOM      8  C   UNL A   1     -25.688   1.614  26.461  0.00  0.00    +0.030 C 
ATOM      9  C   UNL A   1     -26.250   2.920  26.395  0.00  0.00    +0.074 C 
ATOM     10  C   UNL A   1     -27.438   3.091  25.645  0.00  0.00    +0.106 C 
ATOM     11  N   UNL A   1     -28.075   2.089  25.003  0.00  0.00    -0.208 NA
ATOM     12  C   UNL A   1     -27.543   0.849  25.079  0.00  0.00    +0.253 C 
ATOM     13  C   UNL A   1     -26.354   0.576  25.777  0.00  0.00    +0.190 C 
ATOM     14  F   UNL A   1     -25.860  -0.681  25.795  0.00  0.00    -0.200 F 
BRANCH   9  15
ATOM     15  C   UNL A   1     -25.642   4.093  27.123  0.00  0.00    +0.266 C 
ATOM     16  N   UNL A   1     -25.614   5.252  26.449  0.00  0.00    -0.200 NA
ATOM     17  C   UNL A   1     -25.026   6.479  26.963  0.00  0.00    +0.139 C 
ATOM     18  O   UNL A   1     -25.143   3.966  28.243  0.00  0.00    -0.268 OA
ENDBRANCH   9  15
BRANCH  12  19
ATOM     19  O   UNL A   1     -28.193  -0.208  24.477  0.00  0.00    -0.456 OA
BRANCH  19  20
ATOM     20  C   UNL A   1     -29.460   0.005  23.866  0.00  0.00    +0.243 C 
BRANCH  20  21
ATOM     21  C   UNL A   1     -30.065  -1.377  23.573  0.00  0.00    +0.229 C 
ATOM     22  O   UNL A   1     -30.729  -1.878  24.721  0.00  0.00    -0.216 OA
ENDBRANCH  20  21
ENDBRANCH  19  20
ENDBRANCH  12  19
ENDBRANCH   3   8
ENDBRANCH   1   2
BRANCH   1  23
ATOM     23  C   UNL A   1     -27.123   1.881  29.653  0.00  0.00    +0.163 C 
BRANCH  23  24
ATOM     24  O   UNL A   1     -27.453   3.162  30.266  0.00  0.00    -0.310 OA
BRANCH  24  26
ATOM     25  S   UNL A   1     -30.034   3.287  32.240  0.00  0.00    -0.002 S 
ATOM     26  C   UNL A   1     -28.508   3.275  31.164  0.00  0.00    +0.355 C 
BRANCH  26  27
ATOM     27  O   UNL A   1     -28.532   4.348  31.927  0.00  0.00    -0.414 OA
BRANCH  27  29
ATOM     28  O   UNL A   1     -27.026   4.236  33.695  0.00  0.00    -0.250 OA
ATOM     29  C   UNL A   1     -27.126   4.407  32.563  0.00  0.00    +0.322 C 
BRANCH  29  30
ATOM     30  C   UNL A   1     -25.846   4.799  31.688  0.00  0.00    +0.142 C 
BRANCH  30  31
ATOM     31  C   UNL A   1     -24.630   5.236  32.596  0.00  0.00    +0.157 C 
BRANCH  31  32
ATOM     32  O   UNL A   1     -24.777   5.903  33.910  0.00  0.00    -0.324 OA
BRANCH  32  34
ATOM     33  O   UNL A   1     -22.581   6.527  33.282  0.00  0.00    -0.184 OA
ATOM     34  C   UNL A   1     -23.489   6.483  34.339  0.00  0.00    +0.329 C 
ENDBRANCH  32  34
ENDBRANCH  31  32
ENDBRANCH  30  31
ENDBRANCH  29  30
ENDBRANCH  27  29
ENDBRANCH  26  27
ENDBRANCH  24  26
ENDBRANCH  23  24
ENDBRANCH   1  23
BRANCH   1  35
ATOM     35  C   UNL A   1     -25.906  -0.408  29.128  0.00  0.00    +0.024 C 
BRANCH  35  36
ATOM     36  C   UNL A   1     -24.855  -1.012  30.143  0.00  0.00    +0.040 C 
BRANCH  36  37
ATOM     37  C   UNL A   1     -24.973  -2.505  29.788  0.00  0.00    -0.021 C 
ATOM     38  C   UNL A   1     -23.906  -3.173  29.146  0.00  0.00    -0.004 C 
ATOM     39  C   UNL A   1     -23.989  -4.549  28.853  0.00  0.00    -0.000 C 
ATOM     40  C   UNL A   1     -25.137  -5.280  29.205  0.00  0.00    -0.000 C 
ATOM     41  C   UNL A   1     -26.232  -4.611  29.784  0.00  0.00    -0.000 C 
ATOM     42  C   UNL A   1     -26.155  -3.232  30.065  0.00  0.00    -0.004 C 
ENDBRANCH  36  37
BRANCH  36  43
ATOM     43  C   UNL A   1     -25.387  -0.679  31.571  0.00  0.00    +0.077 C 
ATOM     44  C   UNL A   1     -25.189   0.773  32.028  0.00  0.00    +0.019 C 
ATOM     45  C   UNL A   1     -25.336   0.684  33.544  0.00  0.00    +0.020 C 
ATOM     46  C   UNL A   1     -24.829  -0.715  33.905  0.00  0.00    +0.089 C 
ATOM     47  N   UNL A   1     -24.758  -1.481  32.646  0.00  0.00    -0.219 NA
ENDBRANCH  36  43
ENDBRANCH  35  36
ENDBRANCH   1  35
TORSDOF 19
