MODEL 540
MODEL 1
REMARK VINA RESULT:    -8.683      0.000      0.000
REMARK INTER + INTRA:         -12.491
REMARK INTER:                 -11.728
REMARK INTRA:                  -0.763
REMARK UNBOUND:                -0.763
REMARK  Name = No_540-gen_results/8p0m/2024-11-27-11-27-31/
REMARK  6 active torsions:
REMARK  status: ('A' for Active; 'I' for Inactive)
REMARK    1  A    between atoms: C_2  and  C_7
REMARK    2  A    between atoms: N_9  and  C_10
REMARK    3  A    between atoms: N_9  and  C_11
REMARK    4  A    between atoms: C_16  and  C_23
REMARK    5  A    between atoms: C_19  and  C_21
REMARK    6  A    between atoms: C_30  and  C_31
REMARK                            x       y       z     vdW  Elec       q    Type
REMARK                         _______ _______ _______ _____ _____    ______ ____
ROOT
ATOM      1  C   UNL A   1      -9.257   1.422  34.701  0.00  0.00    +0.257 C 
ATOM      2  O   UNL A   1      -8.705   1.741  33.786  0.00  0.00    -0.269 OA
ATOM      3  N   UNL A   1      -8.655   0.668  35.712  0.00  0.00    -0.234 N 
ENDROOT
BRANCH   1   5
ATOM      4  C   UNL A   1     -10.697   2.597  36.036  0.00  0.00    +0.004 A 
ATOM      5  C   UNL A   1     -10.672   1.979  35.183  0.00  0.00    +0.054 A 
ATOM      6  C   UNL A   1     -12.022   3.078  36.462  0.00  0.00    +0.000 A 
ATOM      7  C   UNL A   1     -13.205   2.602  35.824  0.00  0.00    +0.001 A 
ATOM      8  C   UNL A   1     -11.735   1.304  34.389  0.00  0.00    +0.004 A 
ATOM      9  C   UNL A   1     -12.978   1.732  34.749  0.00  0.00    +0.000 A 
ATOM     10  C   UNL A   1     -12.429   4.071  37.513  0.00  0.00    +0.001 A 
ATOM     11  C   UNL A   1     -13.573   4.709  37.469  0.00  0.00    +0.010 A 
ATOM     12  C   UNL A   1     -14.712   4.103  36.850  0.00  0.00    +0.068 A 
ATOM     13  C   UNL A   1     -14.509   3.143  35.980  0.00  0.00    +0.010 A 
BRANCH  12  14
ATOM     14  C   UNL A   1     -16.072   4.658  37.104  0.00  0.00    +0.100 C 
ATOM     15  N   UNL A   1     -17.099   5.049  36.731  0.00  0.00    -0.191 NA
ENDBRANCH  12  14
ENDBRANCH   1   5
BRANCH   3  16
ATOM     16  C   UNL A   1      -7.433   0.009  35.406  0.00  0.00    +0.058 A 
ATOM     17  C   UNL A   1      -6.279   0.601  35.713  0.00  0.00    +0.015 A 
ATOM     18  C   UNL A   1      -5.074   0.054  35.581  0.00  0.00    +0.008 A 
ATOM     19  C   UNL A   1      -7.467  -1.215  34.788  0.00  0.00    +0.015 A 
ATOM     20  C   UNL A   1      -6.264  -1.862  34.544  0.00  0.00    +0.008 A 
ATOM     21  C   UNL A   1      -5.062  -1.222  34.927  0.00  0.00    +0.080 A 
BRANCH  21  22
ATOM     22  C   UNL A   1      -3.775  -1.933  34.641  0.00  0.00    +0.388 C 
ATOM     23  O   UNL A   1      -3.347  -2.211  33.580  0.00  0.00    -0.241 OA
ATOM     24  O   UNL A   1      -3.111  -2.284  35.737  0.00  0.00    -0.241 OA
ENDBRANCH  21  22
ENDBRANCH   3  16
BRANCH   3  25
ATOM     25  C   UNL A   1      -9.284   0.330  36.973  0.00  0.00    +0.059 A 
ATOM     26  C   UNL A   1      -9.019   0.713  38.073  0.00  0.00    +0.015 A 
ATOM     27  C   UNL A   1      -9.650   0.225  39.271  0.00  0.00    +0.002 A 
ATOM     28  C   UNL A   1     -10.583  -0.850  39.131  0.00  0.00    +0.007 A 
ATOM     29  C   UNL A   1     -10.186  -0.850  36.877  0.00  0.00    +0.022 A 
ATOM     30  C   UNL A   1     -10.872  -1.321  37.927  0.00  0.00    +0.081 A 
BRANCH  30  31
ATOM     31  C   UNL A   1     -11.733  -2.527  38.024  0.00  0.00    +0.388 C 
ATOM     32  O   UNL A   1     -11.783  -3.381  37.332  0.00  0.00    -0.241 OA
ATOM     33  O   UNL A   1     -12.308  -2.581  39.289  0.00  0.00    -0.241 OA
ENDBRANCH  30  31
ENDBRANCH   3  25
TORSDOF 6
ENDMDL
ENDMDL
