REMARK  Name = outputs/IAG933/test6/raw/output_5417_IAG933_linker_design_.xyz
REMARK  15 active torsions:
REMARK  status: ('A' for Active; 'I' for Inactive)
REMARK    1  A    between atoms: C_1  and  C_2
REMARK    2  A    between atoms: C_1  and  C_8
REMARK    3  A    between atoms: C_1  and  C_40
REMARK    4  A    between atoms: C_13  and  C_33
REMARK    5  A    between atoms: C_14  and  C_15
REMARK    6  A    between atoms: C_21  and  O_22
REMARK    7  A    between atoms: O_22  and  C_23
REMARK    8  A    between atoms: C_23  and  C_24
REMARK    9  A    between atoms: S_30  and  C_39
REMARK   10  A    between atoms: C_33  and  C_39
REMARK   11  A    between atoms: C_37  and  C_38
REMARK   12  A    between atoms: C_38  and  C_44
REMARK   13  A    between atoms: C_39  and  C_40
REMARK   14  A    between atoms: C_40  and  C_43
REMARK   15  A    between atoms: C_43  and  C_44
REMARK                            x       y       z     vdW  Elec       q    Type
REMARK                         _______ _______ _______ _____ _____    ______ ____
ROOT
ATOM      1  C   UNL A   1     -25.364  -0.100  28.995  0.00  0.00    +0.027 C 
ENDROOT
BRANCH   1   2
ATOM      2  C   UNL A   1     -24.855  -1.012  30.143  0.00  0.00    +0.040 C 
BRANCH   2   3
ATOM      3  C   UNL A   1     -24.973  -2.505  29.788  0.00  0.00    -0.021 C 
ATOM      4  C   UNL A   1     -23.906  -3.173  29.146  0.00  0.00    -0.004 C 
ATOM      5  C   UNL A   1     -23.989  -4.549  28.853  0.00  0.00    -0.000 C 
ATOM      6  C   UNL A   1     -25.137  -5.280  29.205  0.00  0.00    -0.000 C 
ATOM      7  C   UNL A   1     -26.232  -4.611  29.784  0.00  0.00    -0.000 C 
ATOM      8  C   UNL A   1     -26.155  -3.232  30.065  0.00  0.00    -0.004 C 
ENDBRANCH   2   3
BRANCH   2   9
ATOM      9  C   UNL A   1     -25.387  -0.679  31.571  0.00  0.00    +0.077 C 
ATOM     10  C   UNL A   1     -25.189   0.773  32.028  0.00  0.00    +0.019 C 
ATOM     11  C   UNL A   1     -25.336   0.684  33.544  0.00  0.00    +0.020 C 
ATOM     12  C   UNL A   1     -24.829  -0.715  33.905  0.00  0.00    +0.089 C 
ATOM     13  N   UNL A   1     -24.758  -1.481  32.646  0.00  0.00    -0.219 NA
ENDBRANCH   2   9
ENDBRANCH   1   2
BRANCH   1  14
ATOM     14  C   UNL A   1     -24.479   0.904  28.251  0.00  0.00    +0.130 C 
BRANCH  14  15
ATOM     15  S   UNL A   1     -22.722   1.046  28.879  0.00  0.00    -0.010 S 
ATOM     16  C   UNL A   1     -21.757   1.708  27.649  0.00  0.00    +0.176 C 
ATOM     17  O   UNL A   1     -22.251  -0.319  29.167  0.00  0.00    -0.173 OA
ATOM     18  O   UNL A   1     -23.050   1.852  30.131  0.00  0.00    -0.173 OA
ENDBRANCH  14  15
BRANCH  14  19
ATOM     19  C   UNL A   1     -24.235   1.345  26.849  0.00  0.00    +0.031 C 
BRANCH  19  20
ATOM     20  C   UNL A   1     -25.688   1.614  26.461  0.00  0.00    +0.072 C 
ATOM     21  C   UNL A   1     -26.250   2.920  26.395  0.00  0.00    +0.055 C 
ATOM     22  C   UNL A   1     -27.438   3.091  25.645  0.00  0.00    +0.102 C 
ATOM     23  N   UNL A   1     -28.075   2.089  25.003  0.00  0.00    -0.212 NA
ATOM     24  C   UNL A   1     -27.543   0.849  25.079  0.00  0.00    +0.234 C 
ATOM     25  C   UNL A   1     -26.354   0.576  25.777  0.00  0.00    +0.240 C 
ATOM     26  F   UNL A   1     -25.860  -0.681  25.795  0.00  0.00    -0.227 F 
BRANCH  21  27
ATOM     27  C   UNL A   1     -25.642   4.093  27.123  0.00  0.00    +0.262 C 
ATOM     28  N   UNL A   1     -25.614   5.252  26.449  0.00  0.00    -0.200 NA
ATOM     29  C   UNL A   1     -25.026   6.479  26.963  0.00  0.00    +0.139 C 
ATOM     30  O   UNL A   1     -25.143   3.966  28.243  0.00  0.00    -0.269 OA
ENDBRANCH  21  27
BRANCH  24  31
ATOM     31  O   UNL A   1     -28.193  -0.208  24.477  0.00  0.00    -0.459 OA
BRANCH  31  32
ATOM     32  C   UNL A   1     -29.460   0.005  23.866  0.00  0.00    +0.242 C 
BRANCH  32  33
ATOM     33  C   UNL A   1     -30.065  -1.377  23.573  0.00  0.00    +0.229 C 
ATOM     34  O   UNL A   1     -30.729  -1.878  24.721  0.00  0.00    -0.216 OA
ENDBRANCH  32  33
ENDBRANCH  31  32
ENDBRANCH  24  31
ENDBRANCH  19  20
ENDBRANCH  14  19
ENDBRANCH   1  14
BRANCH   1  35
ATOM     35  C   UNL A   1     -26.752   0.629  28.950  0.00  0.00    +0.002 C 
BRANCH  35  36
ATOM     36  C   UNL A   1     -27.864  -0.080  29.681  0.00  0.00    +0.004 C 
BRANCH  36  37
ATOM     37  C   UNL A   1     -29.061   0.856  29.928  0.00  0.00    +0.022 C 
BRANCH  37  44
ATOM     38  C   UNL A   1     -31.131   2.229  26.903  0.00  0.00    +0.020 C 
ATOM     39  O   UNL A   1     -32.500   1.737  25.003  0.00  0.00    -0.287 OA
ATOM     40  C   UNL A   1     -32.024  -0.086  26.552  0.00  0.00    +0.042 C 
ATOM     41  C   UNL A   1     -30.502  -0.399  28.515  0.00  0.00    -0.008 C 
ATOM     42  C   UNL A   1     -30.340   2.060  28.039  0.00  0.00    +0.051 C 
ATOM     43  C   UNL A   1     -31.930   1.277  26.154  0.00  0.00    +0.192 C 
ATOM     44  C   UNL A   1     -30.006   0.843  28.812  0.00  0.00    -0.040 C 
ATOM     45  C   UNL A   1     -31.416  -0.852  27.568  0.00  0.00    +0.003 C 
ENDBRANCH  37  44
ENDBRANCH  36  37
ENDBRANCH  35  36
ENDBRANCH   1  35
TORSDOF 15
