MODEL 541
MODEL 1
REMARK VINA RESULT:    -4.641      0.000      0.000
REMARK INTER + INTRA:          -4.641
REMARK INTER:                  -4.641
REMARK INTRA:                   0.000
REMARK UNBOUND:                 0.000
REMARK  Name = No_541-gen_results/8p0m/2024-11-27-11-27-31/
REMARK  0 active torsions:
REMARK  status: ('A' for Active; 'I' for Inactive)
REMARK                            x       y       z     vdW  Elec       q    Type
REMARK                         _______ _______ _______ _____ _____    ______ ____
ROOT
ATOM      1  C   UNL A   1     -26.400  -3.569  29.921  0.00  0.00    +0.014 A 
ATOM      2  C   UNL A   1     -26.170  -4.556  29.631  0.00  0.00    +0.030 A 
ATOM      3  C   UNL A   1     -25.340  -2.565  29.737  0.00  0.00    +0.058 A 
ATOM      4  C   UNL A   1     -24.128  -2.905  29.068  0.00  0.00    +0.014 A 
ATOM      5  C   UNL A   1     -23.996  -4.218  28.692  0.00  0.00    +0.030 A 
ATOM      6  C   UNL A   1     -25.007  -5.100  28.908  0.00  0.00    +0.140 A 
ATOM      7 CL   UNL A   1     -25.353  -0.886  30.154  0.00  0.00    -0.082 Cl
ATOM      8  F   UNL A   1     -24.866  -6.386  28.566  0.00  0.00    -0.204 F 
ENDROOT
TORSDOF 0
ENDMDL
ENDMDL
