REMARK  Name = outputs/IAG933/test6/raw/output_5422_IAG933_linker_design_.xyz
REMARK  6 active torsions:
REMARK  status: ('A' for Active; 'I' for Inactive)
REMARK    1  A    between atoms: C_1  and  C_2
REMARK    2  A    between atoms: C_13  and  C_40
REMARK    3  A    between atoms: C_14  and  C_15
REMARK    4  A    between atoms: C_21  and  O_22
REMARK    5  A    between atoms: O_22  and  C_23
REMARK    6  A    between atoms: C_23  and  C_24
REMARK                            x       y       z     vdW  Elec       q    Type
REMARK                         _______ _______ _______ _____ _____    ______ ____
ROOT
ATOM      1  C   UNL A   1     -24.855  -1.012  30.143  0.00  0.00    +0.042 C 
ATOM      2  C   UNL A   1     -25.387  -0.679  31.571  0.00  0.00    +0.084 C 
ATOM      3  C   UNL A   1     -25.189   0.773  32.028  0.00  0.00    +0.075 C 
ATOM      4  C   UNL A   1     -25.336   0.684  33.544  0.00  0.00    +0.028 C 
ATOM      5  C   UNL A   1     -24.829  -0.715  33.905  0.00  0.00    +0.089 C 
ATOM      6  N   UNL A   1     -24.758  -1.481  32.646  0.00  0.00    -0.219 NA
ATOM      7  O   UNL A   1     -21.032   1.841  25.784  0.00  0.00    -0.418 OA
ATOM      8  O   UNL A   1     -23.485   2.122  25.570  0.00  0.00    -0.314 OA
ATOM      9  C   UNL A   1     -25.930   1.712  31.326  0.00  0.00    +0.154 C 
ATOM     10  C   UNL A   1     -22.889   1.703  29.850  0.00  0.00    +0.173 C 
ATOM     11  O   UNL A   1     -20.409   1.347  27.950  0.00  0.00    -0.397 OA
ATOM     12  O   UNL A   1     -21.630  -0.741  28.607  0.00  0.00    -0.291 OA
ATOM     13  C   UNL A   1     -23.594   1.345  26.858  0.00  0.00    +0.146 C 
ATOM     14  C   UNL A   1     -24.304   3.490  31.383  0.00  0.00    +0.149 C 
ATOM     15  C   UNL A   1     -24.257  -0.255  28.877  0.00  0.00    +0.040 C 
ATOM     16  C   UNL A   1     -22.224   2.125  24.935  0.00  0.00    +0.363 C 
ATOM     17  O   UNL A   1     -26.628   1.468  30.346  0.00  0.00    -0.296 OA
ATOM     18  C   UNL A   1     -20.679  -0.027  28.216  0.00  0.00    +0.472 C 
ATOM     19  C   UNL A   1     -24.817   1.069  27.648  0.00  0.00    +0.042 C 
ATOM     20  C   UNL A   1     -22.752   0.445  28.803  0.00  0.00    +0.149 C 
ATOM     21  C   UNL A   1     -25.743   3.189  31.865  0.00  0.00    +0.087 C 
ATOM     22  C   UNL A   1     -25.633   4.293  33.032  0.00  0.00    +0.010 C 
ATOM     23  F   UNL A   1     -19.769  -0.793  27.535  0.00  0.00    -0.159 F 
ATOM     24  O   UNL A   1     -23.648   2.632  30.331  0.00  0.00    -0.350 OA
ATOM     25  C   UNL A   1     -22.634   1.154  27.410  0.00  0.00    +0.081 C 
ATOM     26  C   UNL A   1     -21.250   1.484  26.916  0.00  0.00    +0.294 C 
ENDROOT
BRANCH  19  27
ATOM     27  C   UNL A   1     -25.688   1.614  26.461  0.00  0.00    +0.073 C 
ATOM     28  C   UNL A   1     -26.250   2.920  26.395  0.00  0.00    +0.055 C 
ATOM     29  C   UNL A   1     -27.438   3.091  25.645  0.00  0.00    +0.102 C 
ATOM     30  N   UNL A   1     -28.075   2.089  25.003  0.00  0.00    -0.212 NA
ATOM     31  C   UNL A   1     -27.543   0.849  25.079  0.00  0.00    +0.234 C 
ATOM     32  C   UNL A   1     -26.354   0.576  25.777  0.00  0.00    +0.240 C 
ATOM     33  F   UNL A   1     -25.860  -0.681  25.795  0.00  0.00    -0.227 F 
BRANCH  28  34
ATOM     34  C   UNL A   1     -25.642   4.093  27.123  0.00  0.00    +0.262 C 
ATOM     35  N   UNL A   1     -25.614   5.252  26.449  0.00  0.00    -0.200 NA
ATOM     36  C   UNL A   1     -25.026   6.479  26.963  0.00  0.00    +0.139 C 
ATOM     37  O   UNL A   1     -25.143   3.966  28.243  0.00  0.00    -0.269 OA
ENDBRANCH  28  34
BRANCH  31  38
ATOM     38  O   UNL A   1     -28.193  -0.208  24.477  0.00  0.00    -0.459 OA
BRANCH  38  39
ATOM     39  C   UNL A   1     -29.460   0.005  23.866  0.00  0.00    +0.242 C 
BRANCH  39  40
ATOM     40  C   UNL A   1     -30.065  -1.377  23.573  0.00  0.00    +0.229 C 
ATOM     41  O   UNL A   1     -30.729  -1.878  24.721  0.00  0.00    -0.216 OA
ENDBRANCH  39  40
ENDBRANCH  38  39
ENDBRANCH  31  38
ENDBRANCH  19  27
BRANCH   1  42
ATOM     42  C   UNL A   1     -24.973  -2.505  29.788  0.00  0.00    -0.021 C 
ATOM     43  C   UNL A   1     -23.906  -3.173  29.146  0.00  0.00    -0.004 C 
ATOM     44  C   UNL A   1     -23.989  -4.549  28.853  0.00  0.00    -0.000 C 
ATOM     45  C   UNL A   1     -25.137  -5.280  29.205  0.00  0.00    -0.000 C 
ATOM     46  C   UNL A   1     -26.232  -4.611  29.784  0.00  0.00    -0.000 C 
ATOM     47  C   UNL A   1     -26.155  -3.232  30.065  0.00  0.00    -0.004 C 
ENDBRANCH   1  42
TORSDOF 6
