REMARK  Name = outputs/IAG933/test6/raw/output_5426_IAG933_linker_design_.xyz
REMARK  16 active torsions:
REMARK  status: ('A' for Active; 'I' for Inactive)
REMARK    1  A    between atoms: C_1  and  C_2
REMARK    2  A    between atoms: C_1  and  C_8
REMARK    3  A    between atoms: C_9  and  S_31
REMARK    4  A    between atoms: C_13  and  C_44
REMARK    5  A    between atoms: C_14  and  C_15
REMARK    6  A    between atoms: C_21  and  O_22
REMARK    7  A    between atoms: O_22  and  C_23
REMARK    8  A    between atoms: C_23  and  C_24
REMARK    9  A    between atoms: O_28  and  C_35
REMARK   10  A    between atoms: O_28  and  C_42
REMARK   11  A    between atoms: S_31  and  N_34
REMARK   12  A    between atoms: S_31  and  C_45
REMARK   13  A    between atoms: N_34  and  C_38
REMARK   14  A    between atoms: C_36  and  C_45
REMARK   15  A    between atoms: N_37  and  C_42
REMARK   16  A    between atoms: C_38  and  C_42
REMARK                            x       y       z     vdW  Elec       q    Type
REMARK                         _______ _______ _______ _____ _____    ______ ____
ROOT
ATOM      1  N   UNL A   1     -24.336   2.022  30.095  0.00  0.00    -0.150 NA
ENDROOT
BRANCH   1   2
ATOM      2  S   UNL A   1     -25.612   2.016  31.042  0.00  0.00    -0.004 S 
ATOM      3  O   UNL A   1     -26.829   1.676  30.209  0.00  0.00    -0.155 OA
BRANCH   2   5
ATOM      4  C   UNL A   1     -25.387  -0.679  31.571  0.00  0.00    +0.089 C 
ATOM      5  C   UNL A   1     -25.189   0.773  32.028  0.00  0.00    +0.089 C 
ATOM      6  C   UNL A   1     -25.336   0.684  33.544  0.00  0.00    +0.033 C 
ATOM      7  C   UNL A   1     -24.829  -0.715  33.905  0.00  0.00    +0.090 C 
ATOM      8  N   UNL A   1     -24.758  -1.481  32.646  0.00  0.00    -0.218 NA
BRANCH   4   9
ATOM      9  C   UNL A   1     -24.855  -1.012  30.143  0.00  0.00    +0.045 C 
BRANCH   9  10
ATOM     10  C   UNL A   1     -24.973  -2.505  29.788  0.00  0.00    -0.021 C 
ATOM     11  C   UNL A   1     -23.906  -3.173  29.146  0.00  0.00    -0.004 C 
ATOM     12  C   UNL A   1     -23.989  -4.549  28.853  0.00  0.00    -0.000 C 
ATOM     13  C   UNL A   1     -25.137  -5.280  29.205  0.00  0.00    -0.000 C 
ATOM     14  C   UNL A   1     -26.232  -4.611  29.784  0.00  0.00    -0.000 C 
ATOM     15  C   UNL A   1     -26.155  -3.232  30.065  0.00  0.00    -0.004 C 
ENDBRANCH   9  10
ENDBRANCH   4   9
ENDBRANCH   2   5
BRANCH   2  16
ATOM     16  C   UNL A   1     -26.046   3.234  31.976  0.00  0.00    +0.109 C 
BRANCH  16  20
ATOM     17  C   UNL A   1     -24.846   5.203  32.158  0.00  0.00    -0.003 C 
ATOM     18  C   UNL A   1     -25.432   7.186  30.887  0.00  0.00    -0.004 C 
ATOM     19  C   UNL A   1     -26.775   5.188  30.615  0.00  0.00    -0.008 C 
ATOM     20  C   UNL A   1     -25.895   4.518  31.547  0.00  0.00    -0.010 C 
ATOM     21  C   UNL A   1     -24.596   6.520  31.771  0.00  0.00    -0.001 C 
ATOM     22  C   UNL A   1     -26.546   6.541  30.340  0.00  0.00    -0.022 C 
ATOM     23  C   UNL A   1     -27.549   7.320  29.549  0.00  0.00    +0.031 C 
ENDBRANCH  16  20
ENDBRANCH   2  16
ENDBRANCH   1   2
BRANCH   1  24
ATOM     24  C   UNL A   1     -22.782   1.499  29.708  0.00  0.00    +0.158 C 
BRANCH  24  25
ATOM     25  C   UNL A   1     -22.692   1.564  28.219  0.00  0.00    +0.238 C 
BRANCH  25  26
ATOM     26  N   UNL A   1     -23.716   1.603  27.644  0.00  0.00    -0.240 NA
ATOM     27  C   UNL A   1     -24.543   1.152  27.224  0.00  0.00    +0.098 C 
BRANCH  27  28
ATOM     28  C   UNL A   1     -25.688   1.614  26.461  0.00  0.00    +0.057 C 
ATOM     29  C   UNL A   1     -26.250   2.920  26.395  0.00  0.00    +0.078 C 
ATOM     30  C   UNL A   1     -27.438   3.091  25.645  0.00  0.00    +0.107 C 
ATOM     31  N   UNL A   1     -28.075   2.089  25.003  0.00  0.00    -0.208 NA
ATOM     32  C   UNL A   1     -27.543   0.849  25.079  0.00  0.00    +0.253 C 
ATOM     33  C   UNL A   1     -26.354   0.576  25.777  0.00  0.00    +0.195 C 
ATOM     34  F   UNL A   1     -25.860  -0.681  25.795  0.00  0.00    -0.199 F 
BRANCH  29  35
ATOM     35  C   UNL A   1     -25.642   4.093  27.123  0.00  0.00    +0.267 C 
ATOM     36  N   UNL A   1     -25.614   5.252  26.449  0.00  0.00    -0.200 NA
ATOM     37  C   UNL A   1     -25.026   6.479  26.963  0.00  0.00    +0.139 C 
ATOM     38  O   UNL A   1     -25.143   3.966  28.243  0.00  0.00    -0.268 OA
ENDBRANCH  29  35
BRANCH  32  39
ATOM     39  O   UNL A   1     -28.193  -0.208  24.477  0.00  0.00    -0.456 OA
BRANCH  39  40
ATOM     40  C   UNL A   1     -29.460   0.005  23.866  0.00  0.00    +0.243 C 
BRANCH  40  41
ATOM     41  C   UNL A   1     -30.065  -1.377  23.573  0.00  0.00    +0.229 C 
ATOM     42  O   UNL A   1     -30.729  -1.878  24.721  0.00  0.00    -0.216 OA
ENDBRANCH  40  41
ENDBRANCH  39  40
ENDBRANCH  32  39
ENDBRANCH  27  28
ENDBRANCH  25  26
BRANCH  25  43
ATOM     43  O   UNL A   1     -21.650   1.605  27.354  0.00  0.00    -0.333 OA
BRANCH  43  44
ATOM     44  C   UNL A   1     -21.910   1.675  26.010  0.00  0.00    +0.144 C 
ATOM     45  C   UNL A   1     -22.683   2.534  25.052  0.00  0.00    +0.035 C 
ENDBRANCH  43  44
ENDBRANCH  25  43
ENDBRANCH  24  25
ENDBRANCH   1  24
TORSDOF 16
