MODEL 542
MODEL 1
REMARK VINA RESULT:    -5.218      0.000      0.000
REMARK INTER + INTRA:          -6.048
REMARK INTER:                  -5.829
REMARK INTRA:                  -0.219
REMARK UNBOUND:                -0.219
REMARK  Name = No_542-gen_results/8p0m/2024-11-27-11-27-31/
REMARK  2 active torsions:
REMARK  status: ('A' for Active; 'I' for Inactive)
REMARK    1  A    between atoms: C_4  and  C_5
REMARK    2  A    between atoms: C_5  and  C_9
REMARK                            x       y       z     vdW  Elec       q    Type
REMARK                         _______ _______ _______ _____ _____    ______ ____
ROOT
ATOM      1  C   UNL A   1     -26.483  -3.907  29.884  0.00  0.00    -0.000 A 
ATOM      2  C   UNL A   1     -26.098  -4.838  29.574  0.00  0.00    -0.000 A 
ATOM      3  C   UNL A   1     -25.682  -2.762  29.682  0.00  0.00    -0.003 A 
ATOM      4  C   UNL A   1     -24.427  -2.840  29.112  0.00  0.00    -0.001 A 
ATOM      5  C   UNL A   1     -24.861  -5.258  28.930  0.00  0.00    -0.000 A 
ATOM      6  C   UNL A   1     -23.984  -4.123  28.698  0.00  0.00    -0.003 A 
ENDROOT
BRANCH   4   7
ATOM      7  C   UNL A   1     -23.572  -1.685  28.885  0.00  0.00    +0.136 C 
ATOM      8  N   UNL A   1     -22.457  -1.611  29.114  0.00  0.00    -0.123 NA
BRANCH   7   9
ATOM      9  C   UNL A   1     -24.207  -0.478  28.362  0.00  0.00    -0.003 C 
ATOM     10  C   UNL A   1     -24.552  -0.073  27.419  0.00  0.00    -0.003 C 
ENDBRANCH   7   9
ENDBRANCH   4   7
TORSDOF 2
ENDMDL
ENDMDL
