MODEL 543
MODEL 1
REMARK VINA RESULT:    -7.005      0.000      0.000
REMARK INTER + INTRA:         -11.937
REMARK INTER:                 -10.281
REMARK INTRA:                  -1.656
REMARK UNBOUND:                -1.656
REMARK  Name = No_543-gen_results/8p0m/2024-11-27-11-27-31/
REMARK  8 active torsions:
REMARK  status: ('A' for Active; 'I' for Inactive)
REMARK    1  A    between atoms: C_1  and  C_2
REMARK    2  A    between atoms: C_5  and  C_12
REMARK    3  A    between atoms: N_8  and  C_10
REMARK    4  A    between atoms: C_10  and  C_15
REMARK    5  A    between atoms: C_15  and  O_17
REMARK    6  A    between atoms: O_17  and  C_20
REMARK    7  A    between atoms: C_22  and  C_32
REMARK    8  A    between atoms: C_23  and  C_26
REMARK                            x       y       z     vdW  Elec       q    Type
REMARK                         _______ _______ _______ _____ _____    ______ ____
ROOT
ATOM      1  C   UNL A   1     -25.811 -19.676   6.364  0.00  0.00    +0.265 C 
ATOM      2 CL   UNL A   1     -26.356 -20.255   7.649  0.00  0.00    -0.066 Cl
ENDROOT
BRANCH   1   3
ATOM      3  C   UNL A   1     -26.393 -18.613   5.741  0.00  0.00    +0.155 C 
BRANCH   3   5
ATOM      4  C   UNL A   1     -25.179 -16.387   6.190  0.00  0.00    +0.249 C 
ATOM      5  N   UNL A   1     -25.495 -17.543   5.368  0.00  0.00    -0.269 N 
ATOM      6  O   UNL A   1     -25.435 -16.576   7.418  0.00  0.00    -0.270 OA
ATOM      7  C   UNL A   1     -25.151 -17.535   3.924  0.00  0.00    +0.115 C 
BRANCH   4   8
ATOM      8  C   UNL A   1     -24.404 -15.557   5.775  0.00  0.00    +0.054 A 
ATOM      9  C   UNL A   1     -24.771 -14.321   5.352  0.00  0.00    +0.005 A 
ATOM     10  C   UNL A   1     -23.835 -13.293   4.844  0.00  0.00    +0.003 A 
ATOM     11  C   UNL A   1     -22.443 -13.637   4.824  0.00  0.00    +0.038 A 
ATOM     12  C   UNL A   1     -22.094 -14.905   5.340  0.00  0.00    +0.003 A 
ATOM     13  C   UNL A   1     -23.019 -15.808   5.796  0.00  0.00    +0.005 A 
BRANCH  11  14
ATOM     14  C   UNL A   1     -21.411 -12.733   4.373  0.00  0.00    +0.185 A 
ATOM     15  N   UNL A   1     -20.296 -12.386   4.611  0.00  0.00    -0.127 NA
ATOM     16  N   UNL A   1     -21.859 -12.110   3.109  0.00  0.00    -0.202 NA
ATOM     17  N   UNL A   1     -19.648 -11.967   3.514  0.00  0.00    -0.124 NA
ATOM     18  C   UNL A   1     -20.612 -11.802   2.614  0.00  0.00    +0.223 A 
ENDBRANCH  11  14
ENDBRANCH   4   8
ENDBRANCH   3   5
ENDBRANCH   1   3
BRANCH   1  19
ATOM     19  O   UNL A   1     -25.140 -20.581   5.624  0.00  0.00    -0.461 OA
BRANCH  19  20
ATOM     20  C   UNL A   1     -23.831 -20.601   5.882  0.00  0.00    +0.140 A 
ATOM     21  C   UNL A   1     -22.994 -19.581   6.034  0.00  0.00    +0.043 A 
ATOM     22  C   UNL A   1     -21.677 -19.734   6.360  0.00  0.00    +0.083 A 
ATOM     23  C   UNL A   1     -21.164 -21.052   6.534  0.00  0.00    +0.007 A 
ATOM     24  C   UNL A   1     -21.989 -22.169   6.318  0.00  0.00    +0.003 A 
ATOM     25  C   UNL A   1     -23.296 -21.921   5.924  0.00  0.00    +0.037 A 
BRANCH  23  26
ATOM     26  C   UNL A   1     -19.732 -21.273   6.811  0.00  0.00    +0.000 A 
ATOM     27  C   UNL A   1     -19.391 -21.567   8.056  0.00  0.00    +0.000 A 
ATOM     28  C   UNL A   1     -18.071 -21.755   8.336  0.00  0.00    +0.000 A 
ATOM     29  C   UNL A   1     -17.058 -21.715   7.305  0.00  0.00    +0.000 A 
ATOM     30  C   UNL A   1     -17.450 -21.426   5.988  0.00  0.00    +0.000 A 
ATOM     31  C   UNL A   1     -18.838 -21.231   5.663  0.00  0.00    +0.000 A 
ENDBRANCH  23  26
BRANCH  22  32
ATOM     32  C   UNL A   1     -20.841 -18.546   6.581  0.00  0.00    +0.388 C 
ATOM     33  O   UNL A   1     -20.871 -17.953   7.559  0.00  0.00    -0.241 OA
ATOM     34  O   UNL A   1     -20.273 -18.102   5.468  0.00  0.00    -0.241 OA
ENDBRANCH  22  32
ENDBRANCH  19  20
ENDBRANCH   1  19
TORSDOF 8
ENDMDL
ENDMDL
