REMARK  Name = outputs/IAG933/test6/raw/output_5442_IAG933_linker_design_.xyz
REMARK  13 active torsions:
REMARK  status: ('A' for Active; 'I' for Inactive)
REMARK    1  A    between atoms: C_1  and  C_2
REMARK    2  A    between atoms: C_1  and  C_8
REMARK    3  A    between atoms: C_9  and  N_30
REMARK    4  A    between atoms: C_13  and  N_29
REMARK    5  A    between atoms: C_14  and  C_15
REMARK    6  A    between atoms: C_21  and  O_22
REMARK    7  A    between atoms: O_22  and  C_23
REMARK    8  A    between atoms: C_23  and  C_24
REMARK    9  A    between atoms: N_30  and  O_34
REMARK   10  A    between atoms: N_30  and  C_42
REMARK   11  A    between atoms: C_31  and  C_41
REMARK   12  A    between atoms: O_34  and  C_38
REMARK   13  A    between atoms: C_36  and  C_41
REMARK                            x       y       z     vdW  Elec       q    Type
REMARK                         _______ _______ _______ _____ _____    ______ ____
ROOT
ATOM      1  C   UNL A   1     -23.038   1.679  29.395  0.00  0.00    -0.049 C 
ATOM      2  C   UNL A   1     -23.848   2.124  30.294  0.00  0.00    +0.109 C 
ENDROOT
BRANCH   1   4
ATOM      3  C   UNL A   1     -21.068   1.625  27.559  0.00  0.00    +0.024 C 
ATOM      4  C   UNL A   1     -22.485   1.593  28.118  0.00  0.00    +0.144 C 
BRANCH   4   7
ATOM      5  N   UNL A   1     -24.639   1.240  27.145  0.00  0.00    -0.176 NA
ATOM      6  O   UNL A   1     -23.071   2.569  26.006  0.00  0.00    -0.272 OA
ATOM      7  C   UNL A   1     -23.461   1.887  26.991  0.00  0.00    +0.257 C 
BRANCH   5   8
ATOM      8  C   UNL A   1     -25.688   1.614  26.461  0.00  0.00    +0.111 C 
ATOM      9  C   UNL A   1     -26.250   2.920  26.395  0.00  0.00    +0.092 C 
ATOM     10  C   UNL A   1     -27.438   3.091  25.645  0.00  0.00    +0.108 C 
ATOM     11  N   UNL A   1     -28.075   2.089  25.003  0.00  0.00    -0.208 NA
ATOM     12  C   UNL A   1     -27.543   0.849  25.079  0.00  0.00    +0.255 C 
ATOM     13  C   UNL A   1     -26.354   0.576  25.777  0.00  0.00    +0.208 C 
ATOM     14  F   UNL A   1     -25.860  -0.681  25.795  0.00  0.00    -0.198 F 
BRANCH   9  15
ATOM     15  C   UNL A   1     -25.642   4.093  27.123  0.00  0.00    +0.268 C 
ATOM     16  N   UNL A   1     -25.614   5.252  26.449  0.00  0.00    -0.200 NA
ATOM     17  C   UNL A   1     -25.026   6.479  26.963  0.00  0.00    +0.139 C 
ATOM     18  O   UNL A   1     -25.143   3.966  28.243  0.00  0.00    -0.268 OA
ENDBRANCH   9  15
BRANCH  12  19
ATOM     19  O   UNL A   1     -28.193  -0.208  24.477  0.00  0.00    -0.456 OA
BRANCH  19  20
ATOM     20  C   UNL A   1     -29.460   0.005  23.866  0.00  0.00    +0.243 C 
BRANCH  20  21
ATOM     21  C   UNL A   1     -30.065  -1.377  23.573  0.00  0.00    +0.229 C 
ATOM     22  O   UNL A   1     -30.729  -1.878  24.721  0.00  0.00    -0.216 OA
ENDBRANCH  20  21
ENDBRANCH  19  20
ENDBRANCH  12  19
ENDBRANCH   5   8
ENDBRANCH   4   7
ENDBRANCH   1   4
BRANCH   2  23
ATOM     23  O   UNL A   1     -24.909   2.560  30.806  0.00  0.00    -0.101 OA
BRANCH  23  24
ATOM     24  N   UNL A   1     -25.875   2.041  31.574  0.00  0.00    -0.087 N 
BRANCH  24  30
ATOM     25  N   UNL A   1     -27.316   3.652  32.935  0.00  0.00    -0.164 N 
ATOM     26  C   UNL A   1     -28.306   2.729  33.569  0.00  0.00    +0.259 C 
ATOM     27  C   UNL A   1     -25.688   4.532  31.724  0.00  0.00    +0.092 C 
ATOM     28  C   UNL A   1     -27.352   4.953  33.193  0.00  0.00    +0.176 C 
ATOM     29  C   UNL A   1     -26.392   5.607  32.411  0.00  0.00    +0.051 C 
ATOM     30  C   UNL A   1     -26.313   3.317  32.075  0.00  0.00    +0.314 C 
ENDBRANCH  24  30
BRANCH  24  32
ATOM     31  C   UNL A   1     -25.387  -0.679  31.571  0.00  0.00    +0.125 C 
ATOM     32  C   UNL A   1     -25.189   0.773  32.028  0.00  0.00    +0.221 C 
ATOM     33  C   UNL A   1     -25.336   0.684  33.544  0.00  0.00    +0.072 C 
ATOM     34  C   UNL A   1     -24.829  -0.715  33.905  0.00  0.00    +0.093 C 
ATOM     35  N   UNL A   1     -24.758  -1.481  32.646  0.00  0.00    -0.215 NA
BRANCH  31  36
ATOM     36  C   UNL A   1     -24.855  -1.012  30.143  0.00  0.00    +0.048 C 
BRANCH  36  37
ATOM     37  C   UNL A   1     -24.973  -2.505  29.788  0.00  0.00    -0.021 C 
ATOM     38  C   UNL A   1     -23.906  -3.173  29.146  0.00  0.00    -0.004 C 
ATOM     39  C   UNL A   1     -23.989  -4.549  28.853  0.00  0.00    -0.000 C 
ATOM     40  C   UNL A   1     -25.137  -5.280  29.205  0.00  0.00    -0.000 C 
ATOM     41  C   UNL A   1     -26.232  -4.611  29.784  0.00  0.00    -0.000 C 
ATOM     42  C   UNL A   1     -26.155  -3.232  30.065  0.00  0.00    -0.004 C 
ENDBRANCH  36  37
ENDBRANCH  31  36
ENDBRANCH  24  32
ENDBRANCH  23  24
ENDBRANCH   2  23
TORSDOF 13
