REMARK  Name = outputs/IAG933/test6/raw/output_5443_IAG933_linker_design_.xyz
REMARK  11 active torsions:
REMARK  status: ('A' for Active; 'I' for Inactive)
REMARK    1  A    between atoms: C_1  and  C_2
REMARK    2  A    between atoms: C_1  and  C_8
REMARK    3  A    between atoms: C_1  and  N_41
REMARK    4  A    between atoms: C_13  and  C_40
REMARK    5  A    between atoms: C_14  and  C_15
REMARK    6  A    between atoms: C_21  and  O_22
REMARK    7  A    between atoms: O_22  and  C_23
REMARK    8  A    between atoms: C_23  and  C_24
REMARK    9  A    between atoms: C_28  and  O_32
REMARK   10  A    between atoms: C_33  and  C_37
REMARK   11  A    between atoms: C_37  and  C_42
REMARK                            x       y       z     vdW  Elec       q    Type
REMARK                         _______ _______ _______ _____ _____    ______ ____
ROOT
ATOM      1  C   UNL A   1     -22.705   1.732  26.675  0.00  0.00    +0.314 C 
ATOM      2  C   UNL A   1     -23.485   0.454  28.675  0.00  0.00    +0.104 A 
ATOM      3  O   UNL A   1     -21.426   1.453  27.064  0.00  0.00    -0.443 OA
ATOM      4  C   UNL A   1     -21.211   0.707  28.177  0.00  0.00    +0.219 C 
ATOM      5  O   UNL A   1     -21.954  -0.668  30.000  0.00  0.00    -0.282 OA
ATOM      6  C   UNL A   1     -22.219   0.211  28.936  0.00  0.00    +0.248 C 
ATOM      7  C   UNL A   1     -23.729   1.279  27.537  0.00  0.00    +0.064 A 
ATOM      8  C   UNL A   1     -24.970   1.330  27.631  0.00  0.00    +0.000 A 
ATOM      9  N   UNL A   1     -24.676   0.036  29.166  0.00  0.00    -0.325 N 
ATOM     10  C   UNL A   1     -25.646   0.642  28.525  0.00  0.00    +0.036 A 
ENDROOT
BRANCH   8  11
ATOM     11  C   UNL A   1     -25.688   1.614  26.461  0.00  0.00    +0.093 C 
ATOM     12  C   UNL A   1     -26.250   2.920  26.395  0.00  0.00    +0.059 C 
ATOM     13  C   UNL A   1     -27.438   3.091  25.645  0.00  0.00    +0.102 C 
ATOM     14  N   UNL A   1     -28.075   2.089  25.003  0.00  0.00    -0.212 NA
ATOM     15  C   UNL A   1     -27.543   0.849  25.079  0.00  0.00    +0.234 C 
ATOM     16  C   UNL A   1     -26.354   0.576  25.777  0.00  0.00    +0.244 C 
ATOM     17  F   UNL A   1     -25.860  -0.681  25.795  0.00  0.00    -0.227 F 
BRANCH  12  18
ATOM     18  C   UNL A   1     -25.642   4.093  27.123  0.00  0.00    +0.263 C 
ATOM     19  N   UNL A   1     -25.614   5.252  26.449  0.00  0.00    -0.200 NA
ATOM     20  C   UNL A   1     -25.026   6.479  26.963  0.00  0.00    +0.139 C 
ATOM     21  O   UNL A   1     -25.143   3.966  28.243  0.00  0.00    -0.269 OA
ENDBRANCH  12  18
BRANCH  15  22
ATOM     22  O   UNL A   1     -28.193  -0.208  24.477  0.00  0.00    -0.459 OA
BRANCH  22  23
ATOM     23  C   UNL A   1     -29.460   0.005  23.866  0.00  0.00    +0.242 C 
BRANCH  23  24
ATOM     24  C   UNL A   1     -30.065  -1.377  23.573  0.00  0.00    +0.229 C 
ATOM     25  O   UNL A   1     -30.729  -1.878  24.721  0.00  0.00    -0.216 OA
ENDBRANCH  23  24
ENDBRANCH  22  23
ENDBRANCH  15  22
ENDBRANCH   8  11
BRANCH   1  26
ATOM     26  O   UNL A   1     -22.911   2.445  25.559  0.00  0.00    -0.314 OA
ATOM     27  C   UNL A   1     -22.187   1.982  24.412  0.00  0.00    +0.178 C 
ENDBRANCH   1  26
BRANCH   9  28
ATOM     28  C   UNL A   1     -24.855  -1.012  30.143  0.00  0.00    +0.124 C 
BRANCH  28  29
ATOM     29  C   UNL A   1     -24.973  -2.505  29.788  0.00  0.00    -0.000 C 
ATOM     30  C   UNL A   1     -23.906  -3.173  29.146  0.00  0.00    -0.002 C 
ATOM     31  C   UNL A   1     -23.989  -4.549  28.853  0.00  0.00    -0.000 C 
ATOM     32  C   UNL A   1     -25.137  -5.280  29.205  0.00  0.00    -0.000 C 
ATOM     33  C   UNL A   1     -26.232  -4.611  29.784  0.00  0.00    -0.000 C 
ATOM     34  C   UNL A   1     -26.155  -3.232  30.065  0.00  0.00    -0.002 C 
ENDBRANCH  28  29
BRANCH  28  35
ATOM     35  C   UNL A   1     -25.387  -0.679  31.571  0.00  0.00    +0.098 C 
ATOM     36  C   UNL A   1     -25.189   0.773  32.028  0.00  0.00    +0.021 C 
ATOM     37  C   UNL A   1     -25.336   0.684  33.544  0.00  0.00    +0.020 C 
ATOM     38  C   UNL A   1     -24.829  -0.715  33.905  0.00  0.00    +0.089 C 
ATOM     39  N   UNL A   1     -24.758  -1.481  32.646  0.00  0.00    -0.217 NA
ENDBRANCH  28  35
ENDBRANCH   9  28
BRANCH  10  40
ATOM     40  C   UNL A   1     -27.162   0.544  28.734  0.00  0.00    +0.079 C 
BRANCH  40  41
ATOM     41  C   UNL A   1     -27.725   1.902  29.066  0.00  0.00    +0.188 C 
ATOM     42  O   UNL A   1     -29.046   1.923  29.422  0.00  0.00    -0.220 OA
ENDBRANCH  40  41
ENDBRANCH  10  40
TORSDOF 11
