REMARK  Name = outputs/IAG933/test6/raw/output_5446_IAG933_linker_design_.xyz
REMARK  14 active torsions:
REMARK  status: ('A' for Active; 'I' for Inactive)
REMARK    1  A    between atoms: C_1  and  C_2
REMARK    2  A    between atoms: C_1  and  C_8
REMARK    3  A    between atoms: C_1  and  N_32
REMARK    4  A    between atoms: C_13  and  C_31
REMARK    5  A    between atoms: C_14  and  C_15
REMARK    6  A    between atoms: C_21  and  O_22
REMARK    7  A    between atoms: O_22  and  C_23
REMARK    8  A    between atoms: C_23  and  C_24
REMARK    9  A    between atoms: C_28  and  C_38
REMARK   10  A    between atoms: N_32  and  C_36
REMARK   11  A    between atoms: N_32  and  C_37
REMARK   12  A    between atoms: C_35  and  C_38
REMARK   13  A    between atoms: C_35  and  O_41
REMARK   14  A    between atoms: C_36  and  O_41
REMARK                            x       y       z     vdW  Elec       q    Type
REMARK                         _______ _______ _______ _____ _____    ______ ____
ROOT
ATOM      1  N   UNL A   1     -25.277  -0.176  28.863  0.00  0.00    -0.222 NA
ENDROOT
BRANCH   1   5
ATOM      2 CL   UNL A   1     -22.847   2.854  25.328  0.00  0.00    -0.081 Cl
ATOM      3  C   UNL A   1     -24.398   1.318  27.143  0.00  0.00    +0.030 C 
ATOM      4  C   UNL A   1     -22.157   1.317  27.662  0.00  0.00    +0.106 C 
ATOM      5  C   UNL A   1     -24.240   0.489  28.213  0.00  0.00    +0.189 C 
ATOM      6  N   UNL A   1     -22.792   0.391  28.507  0.00  0.00    -0.249 NA
ATOM      7  C   UNL A   1     -23.105   1.829  26.735  0.00  0.00    +0.076 C 
BRANCH   3   8
ATOM      8  C   UNL A   1     -25.688   1.614  26.461  0.00  0.00    +0.038 C 
ATOM      9  C   UNL A   1     -26.250   2.920  26.395  0.00  0.00    +0.076 C 
ATOM     10  C   UNL A   1     -27.438   3.091  25.645  0.00  0.00    +0.107 C 
ATOM     11  N   UNL A   1     -28.075   2.089  25.003  0.00  0.00    -0.208 NA
ATOM     12  C   UNL A   1     -27.543   0.849  25.079  0.00  0.00    +0.253 C 
ATOM     13  C   UNL A   1     -26.354   0.576  25.777  0.00  0.00    +0.193 C 
ATOM     14  F   UNL A   1     -25.860  -0.681  25.795  0.00  0.00    -0.199 F 
BRANCH   9  15
ATOM     15  C   UNL A   1     -25.642   4.093  27.123  0.00  0.00    +0.266 C 
ATOM     16  N   UNL A   1     -25.614   5.252  26.449  0.00  0.00    -0.200 NA
ATOM     17  C   UNL A   1     -25.026   6.479  26.963  0.00  0.00    +0.139 C 
ATOM     18  O   UNL A   1     -25.143   3.966  28.243  0.00  0.00    -0.268 OA
ENDBRANCH   9  15
BRANCH  12  19
ATOM     19  O   UNL A   1     -28.193  -0.208  24.477  0.00  0.00    -0.456 OA
BRANCH  19  20
ATOM     20  C   UNL A   1     -29.460   0.005  23.866  0.00  0.00    +0.243 C 
BRANCH  20  21
ATOM     21  C   UNL A   1     -30.065  -1.377  23.573  0.00  0.00    +0.229 C 
ATOM     22  O   UNL A   1     -30.729  -1.878  24.721  0.00  0.00    -0.216 OA
ENDBRANCH  20  21
ENDBRANCH  19  20
ENDBRANCH  12  19
ENDBRANCH   3   8
ENDBRANCH   1   5
BRANCH   1  23
ATOM     23  C   UNL A   1     -24.855  -1.012  30.143  0.00  0.00    +0.100 C 
BRANCH  23  24
ATOM     24  C   UNL A   1     -24.973  -2.505  29.788  0.00  0.00    -0.006 C 
ATOM     25  C   UNL A   1     -23.906  -3.173  29.146  0.00  0.00    -0.003 C 
ATOM     26  C   UNL A   1     -23.989  -4.549  28.853  0.00  0.00    -0.000 C 
ATOM     27  C   UNL A   1     -25.137  -5.280  29.205  0.00  0.00    -0.000 C 
ATOM     28  C   UNL A   1     -26.232  -4.611  29.784  0.00  0.00    -0.000 C 
ATOM     29  C   UNL A   1     -26.155  -3.232  30.065  0.00  0.00    -0.003 C 
ENDBRANCH  23  24
BRANCH  23  30
ATOM     30  C   UNL A   1     -25.387  -0.679  31.571  0.00  0.00    +0.092 C 
ATOM     31  C   UNL A   1     -25.189   0.773  32.028  0.00  0.00    +0.021 C 
ATOM     32  C   UNL A   1     -25.336   0.684  33.544  0.00  0.00    +0.020 C 
ATOM     33  C   UNL A   1     -24.829  -0.715  33.905  0.00  0.00    +0.089 C 
ATOM     34  N   UNL A   1     -24.758  -1.481  32.646  0.00  0.00    -0.218 NA
ENDBRANCH  23  30
ENDBRANCH   1  23
BRANCH   1  35
ATOM     35  C   UNL A   1     -26.640  -0.527  28.793  0.00  0.00    +0.222 C 
BRANCH  35  36
ATOM     36  O   UNL A   1     -27.515  -1.440  28.078  0.00  0.00    -0.337 OA
BRANCH  36  37
ATOM     37  C   UNL A   1     -28.935  -1.096  28.266  0.00  0.00    +0.145 C 
BRANCH  37  38
ATOM     38  C   UNL A   1     -29.597  -1.765  29.462  0.00  0.00    +0.053 C 
BRANCH  38  39
ATOM     39  C   UNL A   1     -29.975  -3.216  29.097  0.00  0.00    +0.119 C 
ATOM     40  C   UNL A   1     -31.023  -3.604  28.009  0.00  0.00    +0.200 C 
ATOM     41  C   UNL A   1     -32.013  -4.556  28.910  0.00  0.00    +0.201 C 
ATOM     42  O   UNL A   1     -31.081  -4.555  27.088  0.00  0.00    -0.219 OA
ATOM     43  O   UNL A   1     -31.570  -4.791  29.498  0.00  0.00    -0.279 OA
ATOM     44  C   UNL A   1     -30.948  -3.593  31.597  0.00  0.00    +0.121 C 
ATOM     45  N   UNL A   1     -30.436  -4.017  30.263  0.00  0.00    -0.163 NA
ENDBRANCH  38  39
ENDBRANCH  37  38
ENDBRANCH  36  37
ENDBRANCH  35  36
ENDBRANCH   1  35
TORSDOF 14
