REMARK  Name = outputs/IAG933/test6/raw/output_5447_IAG933_linker_design_.xyz
REMARK  12 active torsions:
REMARK  status: ('A' for Active; 'I' for Inactive)
REMARK    1  A    between atoms: C_1  and  C_2
REMARK    2  A    between atoms: C_1  and  C_8
REMARK    3  A    between atoms: C_9  and  C_46
REMARK    4  A    between atoms: C_13  and  C_33
REMARK    5  A    between atoms: C_14  and  C_15
REMARK    6  A    between atoms: C_21  and  O_22
REMARK    7  A    between atoms: O_22  and  C_23
REMARK    8  A    between atoms: C_23  and  C_24
REMARK    9  A    between atoms: C_29  and  N_43
REMARK   10  A    between atoms: C_31  and  N_42
REMARK   11  A    between atoms: C_33  and  N_36
REMARK   12  A    between atoms: C_33  and  N_43
REMARK                            x       y       z     vdW  Elec       q    Type
REMARK                         _______ _______ _______ _____ _____    ______ ____
ROOT
ATOM      1  C   UNL A   1     -28.146   4.046  32.178  0.00  0.00    -0.004 C 
ATOM      2  C   UNL A   1     -26.838   1.760  30.400  0.00  0.00    +0.065 C 
ATOM      3  C   UNL A   1     -28.139   2.287  30.291  0.00  0.00    +0.016 C 
ATOM      4  C   UNL A   1     -26.723   4.142  32.436  0.00  0.00    +0.128 C 
ATOM      5  C   UNL A   1     -28.821   3.338  31.051  0.00  0.00    -0.002 C 
ATOM      6  C   UNL A   1     -25.843   3.036  32.285  0.00  0.00    -0.007 C 
ATOM      7  C   UNL A   1     -25.988   1.941  31.487  0.00  0.00    -0.009 C 
ENDROOT
BRANCH   7   9
ATOM      8  C   UNL A   1     -25.387  -0.679  31.571  0.00  0.00    +0.081 C 
ATOM      9  C   UNL A   1     -25.189   0.773  32.028  0.00  0.00    +0.041 C 
ATOM     10  C   UNL A   1     -25.336   0.684  33.544  0.00  0.00    +0.025 C 
ATOM     11  C   UNL A   1     -24.829  -0.715  33.905  0.00  0.00    +0.089 C 
ATOM     12  N   UNL A   1     -24.758  -1.481  32.646  0.00  0.00    -0.219 NA
BRANCH   8  13
ATOM     13  C   UNL A   1     -24.855  -1.012  30.143  0.00  0.00    +0.044 C 
BRANCH  13  14
ATOM     14  C   UNL A   1     -24.973  -2.505  29.788  0.00  0.00    -0.021 C 
ATOM     15  C   UNL A   1     -23.906  -3.173  29.146  0.00  0.00    -0.004 C 
ATOM     16  C   UNL A   1     -23.989  -4.549  28.853  0.00  0.00    -0.000 C 
ATOM     17  C   UNL A   1     -25.137  -5.280  29.205  0.00  0.00    -0.000 C 
ATOM     18  C   UNL A   1     -26.232  -4.611  29.784  0.00  0.00    -0.000 C 
ATOM     19  C   UNL A   1     -26.155  -3.232  30.065  0.00  0.00    -0.004 C 
ENDBRANCH  13  14
ENDBRANCH   8  13
ENDBRANCH   7   9
BRANCH   4  23
ATOM     20  C   UNL A   1     -26.531   5.322  34.460  0.00  0.00    +0.104 C 
ATOM     21  O   UNL A   1     -25.087   5.835  32.841  0.00  0.00    -0.282 OA
ATOM     22  C   UNL A   1     -25.214   7.078  33.559  0.00  0.00    +0.168 C 
ATOM     23  N   UNL A   1     -26.138   5.069  33.157  0.00  0.00    -0.159 NA
ATOM     24  C   UNL A   1     -26.325   6.860  34.565  0.00  0.00    +0.054 C 
ENDBRANCH   4  23
BRANCH   2  25
ATOM     25  N   UNL A   1     -25.840   1.385  29.183  0.00  0.00    -0.197 NA
BRANCH  25  26
ATOM     26  C   UNL A   1     -24.838   1.283  27.617  0.00  0.00    +0.263 C 
BRANCH  26  27
ATOM     27  C   UNL A   1     -25.688   1.614  26.461  0.00  0.00    +0.135 C 
ATOM     28  C   UNL A   1     -26.250   2.920  26.395  0.00  0.00    +0.061 C 
ATOM     29  C   UNL A   1     -27.438   3.091  25.645  0.00  0.00    +0.102 C 
ATOM     30  N   UNL A   1     -28.075   2.089  25.003  0.00  0.00    -0.212 NA
ATOM     31  C   UNL A   1     -27.543   0.849  25.079  0.00  0.00    +0.234 C 
ATOM     32  C   UNL A   1     -26.354   0.576  25.777  0.00  0.00    +0.246 C 
ATOM     33  F   UNL A   1     -25.860  -0.681  25.795  0.00  0.00    -0.227 F 
BRANCH  28  34
ATOM     34  C   UNL A   1     -25.642   4.093  27.123  0.00  0.00    +0.263 C 
ATOM     35  N   UNL A   1     -25.614   5.252  26.449  0.00  0.00    -0.200 NA
ATOM     36  C   UNL A   1     -25.026   6.479  26.963  0.00  0.00    +0.139 C 
ATOM     37  O   UNL A   1     -25.143   3.966  28.243  0.00  0.00    -0.269 OA
ENDBRANCH  28  34
BRANCH  31  38
ATOM     38  O   UNL A   1     -28.193  -0.208  24.477  0.00  0.00    -0.459 OA
BRANCH  38  39
ATOM     39  C   UNL A   1     -29.460   0.005  23.866  0.00  0.00    +0.242 C 
BRANCH  39  40
ATOM     40  C   UNL A   1     -30.065  -1.377  23.573  0.00  0.00    +0.229 C 
ATOM     41  O   UNL A   1     -30.729  -1.878  24.721  0.00  0.00    -0.216 OA
ENDBRANCH  39  40
ENDBRANCH  38  39
ENDBRANCH  31  38
ENDBRANCH  26  27
BRANCH  26  44
ATOM     42  C   UNL A   1     -22.432   1.213  28.018  0.00  0.00    +0.354 C 
ATOM     43  N   UNL A   1     -22.401   0.430  29.113  0.00  0.00    +0.188 NA
ATOM     44  N   UNL A   1     -23.513   1.665  27.320  0.00  0.00    -0.172 N 
ATOM     45  C   UNL A   1     -23.172   2.303  25.988  0.00  0.00    +0.255 C 
ATOM     46  C   UNL A   1     -21.060   1.766  27.546  0.00  0.00    +0.135 C 
ENDBRANCH  26  44
ENDBRANCH  25  26
ENDBRANCH   2  25
TORSDOF 12
