REMARK  Name = outputs/IAG933/test6/raw/output_5449_IAG933_linker_design_.xyz
REMARK  13 active torsions:
REMARK  status: ('A' for Active; 'I' for Inactive)
REMARK    1  A    between atoms: C_1  and  C_2
REMARK    2  A    between atoms: C_1  and  C_8
REMARK    3  A    between atoms: C_9  and  C_42
REMARK    4  A    between atoms: C_13  and  C_33
REMARK    5  A    between atoms: C_14  and  C_15
REMARK    6  A    between atoms: C_21  and  O_22
REMARK    7  A    between atoms: O_22  and  C_23
REMARK    8  A    between atoms: C_23  and  C_24
REMARK    9  A    between atoms: C_29  and  C_35
REMARK   10  A    between atoms: C_29  and  C_37
REMARK   11  A    between atoms: C_32  and  C_37
REMARK   12  A    between atoms: C_34  and  O_36
REMARK   13  A    between atoms: C_35  and  O_36
REMARK                            x       y       z     vdW  Elec       q    Type
REMARK                         _______ _______ _______ _____ _____    ______ ____
ROOT
ATOM      1  C   UNL A   1     -27.330   3.340  30.224  0.00  0.00    +0.028 C 
ATOM      2  C   UNL A   1     -26.124   3.322  30.971  0.00  0.00    +0.050 C 
ATOM      3  C   UNL A   1     -28.142   4.423  30.012  0.00  0.00    -0.026 C 
ATOM      4  C   UNL A   1     -25.278   1.869  30.042  0.00  0.00    +0.119 C 
ATOM      5  C   UNL A   1     -28.016   5.550  30.828  0.00  0.00    -0.005 C 
ATOM      6  C   UNL A   1     -27.645   1.983  29.766  0.00  0.00    +0.005 C 
ATOM      7  C   UNL A   1     -25.952   4.597  31.678  0.00  0.00    -0.024 C 
ATOM      8  C   UNL A   1     -26.887   5.632  31.636  0.00  0.00    -0.005 C 
ATOM      9  C   UNL A   1     -25.849   2.001  31.428  0.00  0.00    +0.035 C 
ENDROOT
BRANCH   9  11
ATOM     10  C   UNL A   1     -25.387  -0.679  31.571  0.00  0.00    +0.077 C 
ATOM     11  C   UNL A   1     -25.189   0.773  32.028  0.00  0.00    +0.021 C 
ATOM     12  C   UNL A   1     -25.336   0.684  33.544  0.00  0.00    +0.020 C 
ATOM     13  C   UNL A   1     -24.829  -0.715  33.905  0.00  0.00    +0.089 C 
ATOM     14  N   UNL A   1     -24.758  -1.481  32.646  0.00  0.00    -0.219 NA
BRANCH  10  15
ATOM     15  C   UNL A   1     -24.855  -1.012  30.143  0.00  0.00    +0.044 C 
BRANCH  15  16
ATOM     16  C   UNL A   1     -24.973  -2.505  29.788  0.00  0.00    -0.021 C 
ATOM     17  C   UNL A   1     -23.906  -3.173  29.146  0.00  0.00    -0.004 C 
ATOM     18  C   UNL A   1     -23.989  -4.549  28.853  0.00  0.00    -0.000 C 
ATOM     19  C   UNL A   1     -25.137  -5.280  29.205  0.00  0.00    -0.000 C 
ATOM     20  C   UNL A   1     -26.232  -4.611  29.784  0.00  0.00    -0.000 C 
ATOM     21  C   UNL A   1     -26.155  -3.232  30.065  0.00  0.00    -0.004 C 
ENDBRANCH  15  16
ENDBRANCH  10  15
ENDBRANCH   9  11
BRANCH   4  22
ATOM     22  O   UNL A   1     -23.916   2.098  30.000  0.00  0.00    -0.356 OA
BRANCH  22  23
ATOM     23  C   UNL A   1     -22.991   1.700  29.217  0.00  0.00    +0.142 C 
BRANCH  23  24
ATOM     24  C   UNL A   1     -21.804   1.265  28.487  0.00  0.00    +0.037 C 
BRANCH  24  25
ATOM     25  C   UNL A   1     -21.841   1.718  27.013  0.00  0.00    +0.029 C 
BRANCH  25  26
ATOM     26  C   UNL A   1     -23.297   2.135  26.677  0.00  0.00    -0.026 C 
ATOM     27  C   UNL A   1     -24.535   1.360  27.012  0.00  0.00    -0.002 C 
BRANCH  27  28
ATOM     28  C   UNL A   1     -25.688   1.614  26.461  0.00  0.00    +0.038 C 
ATOM     29  C   UNL A   1     -26.250   2.920  26.395  0.00  0.00    +0.076 C 
ATOM     30  C   UNL A   1     -27.438   3.091  25.645  0.00  0.00    +0.107 C 
ATOM     31  N   UNL A   1     -28.075   2.089  25.003  0.00  0.00    -0.208 NA
ATOM     32  C   UNL A   1     -27.543   0.849  25.079  0.00  0.00    +0.253 C 
ATOM     33  C   UNL A   1     -26.354   0.576  25.777  0.00  0.00    +0.193 C 
ATOM     34  F   UNL A   1     -25.860  -0.681  25.795  0.00  0.00    -0.199 F 
BRANCH  29  35
ATOM     35  C   UNL A   1     -25.642   4.093  27.123  0.00  0.00    +0.266 C 
ATOM     36  N   UNL A   1     -25.614   5.252  26.449  0.00  0.00    -0.200 NA
ATOM     37  C   UNL A   1     -25.026   6.479  26.963  0.00  0.00    +0.139 C 
ATOM     38  O   UNL A   1     -25.143   3.966  28.243  0.00  0.00    -0.268 OA
ENDBRANCH  29  35
BRANCH  32  39
ATOM     39  O   UNL A   1     -28.193  -0.208  24.477  0.00  0.00    -0.456 OA
BRANCH  39  40
ATOM     40  C   UNL A   1     -29.460   0.005  23.866  0.00  0.00    +0.243 C 
BRANCH  40  41
ATOM     41  C   UNL A   1     -30.065  -1.377  23.573  0.00  0.00    +0.229 C 
ATOM     42  O   UNL A   1     -30.729  -1.878  24.721  0.00  0.00    -0.216 OA
ENDBRANCH  40  41
ENDBRANCH  39  40
ENDBRANCH  32  39
ENDBRANCH  27  28
ENDBRANCH  25  26
ENDBRANCH  24  25
ENDBRANCH  23  24
ENDBRANCH  22  23
ENDBRANCH   4  22
TORSDOF 13
