MODEL 544
MODEL 1
REMARK VINA RESULT:    -7.988      0.000      0.000
REMARK INTER + INTRA:         -12.354
REMARK INTER:                 -10.323
REMARK INTRA:                  -2.031
REMARK UNBOUND:                -2.031
REMARK  Name = No_544-gen_results/8p0m/2024-11-27-11-27-31/
REMARK  5 active torsions:
REMARK  status: ('A' for Active; 'I' for Inactive)
REMARK    1  A    between atoms: C_3  and  C_4
REMARK    2  A    between atoms: C_6  and  C_7
REMARK    3  A    between atoms: C_10  and  C_21
REMARK    4  A    between atoms: C_17  and  C_27
REMARK    5  A    between atoms: C_21  and  N_22
REMARK                            x       y       z     vdW  Elec       q    Type
REMARK                         _______ _______ _______ _____ _____    ______ ____
ROOT
ATOM      1  C   UNL A   1     -24.824  -0.673  30.377  0.00  0.00    +0.063 C 
ATOM      2  C   UNL A   1     -24.258   0.048  29.828  0.00  0.00    -0.032 C 
ATOM      3  C   UNL A   1     -24.119   0.801  28.852  0.00  0.00    -0.007 C 
ATOM      4  C   UNL A   1     -25.509  -0.282  31.654  0.00  0.00    -0.014 C 
ATOM      5  C   UNL A   1     -24.807  -0.656  32.890  0.00  0.00    +0.068 C 
ATOM      6  C   UNL A   1     -22.732  -0.029  30.366  0.00  0.00    +0.049 C 
ATOM      7  C   UNL A   1     -23.617  -1.109  32.914  0.00  0.00    -0.001 C 
ATOM      8  C   UNL A   1     -22.747  -1.176  31.931  0.00  0.00    -0.022 C 
ENDROOT
BRANCH   1  11
ATOM      9  C   UNL A   1     -24.283  -2.925  29.350  0.00  0.00    -0.004 A 
ATOM     10  C   UNL A   1     -24.553  -3.943  29.293  0.00  0.00    -0.001 A 
ATOM     11  C   UNL A   1     -25.192  -2.067  30.054  0.00  0.00    -0.015 A 
ATOM     12  C   UNL A   1     -25.816  -4.606  29.494  0.00  0.00    -0.002 A 
ATOM     13  C   UNL A   1     -26.756  -3.812  30.067  0.00  0.00    +0.000 A 
ATOM     14  C   UNL A   1     -26.468  -2.520  30.361  0.00  0.00    -0.006 A 
BRANCH  13  15
ATOM     15  C   UNL A   1     -28.114  -4.373  30.418  0.00  0.00    +0.133 C 
BRANCH  15  16
ATOM     16  N   UNL A   1     -28.899  -3.730  31.180  0.00  0.00    -0.321 N 
ATOM     17  C   UNL A   1     -29.161  -3.999  32.248  0.00  0.00    +0.076 A 
ATOM     18  C   UNL A   1     -30.363  -3.395  32.770  0.00  0.00    +0.020 A 
ATOM     19  C   UNL A   1     -30.068  -2.942  30.576  0.00  0.00    +0.076 A 
ATOM     20  C   UNL A   1     -30.786  -2.608  31.667  0.00  0.00    +0.020 A 
ENDBRANCH  15  16
ENDBRANCH  13  15
ENDBRANCH   1  11
BRANCH   3  21
ATOM     21  C   UNL A   1     -23.662   1.295  27.645  0.00  0.00    -0.001 A 
ATOM     22  C   UNL A   1     -24.457   1.246  26.503  0.00  0.00    -0.000 A 
ATOM     23  C   UNL A   1     -23.923   1.634  25.226  0.00  0.00    -0.000 A 
ATOM     24  C   UNL A   1     -22.624   2.121  25.214  0.00  0.00    -0.000 A 
ATOM     25  C   UNL A   1     -22.281   1.613  27.418  0.00  0.00    -0.000 A 
ATOM     26  C   UNL A   1     -21.794   2.039  26.218  0.00  0.00    -0.000 A 
ENDBRANCH   3  21
BRANCH   5  27
ATOM     27  C   UNL A   1     -25.620  -0.548  34.092  0.00  0.00    +0.418 C 
ATOM     28  F   UNL A   1     -26.649  -1.065  34.124  0.00  0.00    -0.166 F 
ATOM     29  F   UNL A   1     -25.695   0.765  34.429  0.00  0.00    -0.166 F 
ATOM     30  F   UNL A   1     -24.872  -1.101  35.173  0.00  0.00    -0.166 F 
ENDBRANCH   5  27
TORSDOF 5
ENDMDL
ENDMDL
