REMARK  Name = No_545-gen_results/8p0m/2024-11-27-11-27-31/
REMARK  5 active torsions:
REMARK  status: ('A' for Active; 'I' for Inactive)
REMARK    1  A    between atoms: C_3  and  C_7
REMARK    2  A    between atoms: C_6  and  C_19
REMARK    3  A    between atoms: C_7  and  C_8
REMARK    4  A    between atoms: C_7  and  C_14
REMARK    5  A    between atoms: C_19  and  N_20
REMARK                            x       y       z     vdW  Elec       q    Type
REMARK                         _______ _______ _______ _____ _____    ______ ____
ROOT
ATOM      1  C   UNL A   1     -26.388   0.291  27.233  0.00  0.00    +0.101 C 
ENDROOT
BRANCH   1   2
ATOM      2  C   UNL A   1     -25.151   0.303  27.256  0.00  0.00    +0.020 C 
ATOM      3  C   UNL A   1     -24.340   0.205  28.429  0.00  0.00    +0.065 C 
ATOM      4  C   UNL A   1     -23.459   1.145  28.841  0.00  0.00    +0.151 C 
ATOM      5  C   UNL A   1     -23.085   2.215  27.938  0.00  0.00    +0.065 C 
ATOM      6  C   UNL A   1     -23.634   2.186  26.625  0.00  0.00    +0.008 C 
ATOM      7  C   UNL A   1     -24.667   1.383  26.273  0.00  0.00    +0.002 C 
ATOM      8  O   UNL A   1     -22.825   1.022  29.989  0.00  0.00    -0.296 OA
ENDBRANCH   1   2
BRANCH   1  11
ATOM      9  C   UNL A   1     -28.016  -0.814  28.878  0.00  0.00    -0.004 A 
ATOM     10  C   UNL A   1     -28.469  -0.785  29.829  0.00  0.00    -0.001 A 
ATOM     11  C   UNL A   1     -27.136   0.236  28.535  0.00  0.00    -0.014 A 
ATOM     12  C   UNL A   1     -26.875   1.282  29.398  0.00  0.00    -0.006 A 
ATOM     13  C   UNL A   1     -28.361   0.199  30.924  0.00  0.00    -0.002 A 
ATOM     14  C   UNL A   1     -27.528   1.223  30.636  0.00  0.00    +0.002 A 
BRANCH  14  15
ATOM     15  C   UNL A   1     -27.293   2.336  31.640  0.00  0.00    +0.152 C 
BRANCH  15  16
ATOM     16  N   UNL A   1     -26.266   2.322  32.356  0.00  0.00    -0.263 NA
ATOM     17  C   UNL A   1     -25.670   3.375  32.920  0.00  0.00    +0.114 C 
ENDBRANCH  15  16
ENDBRANCH  14  15
ENDBRANCH   1  11
BRANCH   1  18
ATOM     18  C   UNL A   1     -27.151   0.099  26.047  0.00  0.00    +0.245 C 
ATOM     19  N   UNL A   1     -28.156   0.882  25.757  0.00  0.00    -0.203 NA
ATOM     20  C   UNL A   1     -28.899   0.695  24.669  0.00  0.00    +0.139 C 
ATOM     21  O   UNL A   1     -26.581  -0.350  25.088  0.00  0.00    -0.273 OA
ENDBRANCH   1  18
TORSDOF 5
