REMARK  Name = outputs/IAG933/test6/raw/output_5456_IAG933_linker_design_.xyz
REMARK  14 active torsions:
REMARK  status: ('A' for Active; 'I' for Inactive)
REMARK    1  A    between atoms: C_1  and  C_2
REMARK    2  A    between atoms: C_1  and  C_8
REMARK    3  A    between atoms: C_1  and  C_40
REMARK    4  A    between atoms: C_13  and  C_41
REMARK    5  A    between atoms: C_14  and  C_15
REMARK    6  A    between atoms: C_21  and  O_22
REMARK    7  A    between atoms: O_22  and  C_23
REMARK    8  A    between atoms: C_23  and  C_24
REMARK    9  A    between atoms: N_28  and  C_40
REMARK   10  A    between atoms: N_28  and  C_41
REMARK   11  A    between atoms: N_28  and  C_42
REMARK   12  A    between atoms: N_29  and  C_39
REMARK   13  A    between atoms: N_29  and  C_40
REMARK   14  A    between atoms: O_36  and  C_42
REMARK                            x       y       z     vdW  Elec       q    Type
REMARK                         _______ _______ _______ _____ _____    ______ ____
ROOT
ATOM      1  O   UNL A   1     -21.200   1.951  28.277  0.00  0.00    -0.241 OA
ATOM      2  C   UNL A   1     -21.860   1.935  27.223  0.00  0.00    +0.380 C 
ATOM      3  O   UNL A   1     -21.296   2.115  26.097  0.00  0.00    -0.403 OA
ATOM      4  C   UNL A   1     -23.370   1.716  26.918  0.00  0.00    +0.227 C 
ATOM      5  O   UNL A   1     -23.389   1.980  25.586  0.00  0.00    -0.430 OA
ATOM      6  C   UNL A   1     -22.264   2.389  25.189  0.00  0.00    +0.432 C 
ATOM      7  C   UNL A   1     -24.656   1.344  27.515  0.00  0.00    +0.076 C 
ENDROOT
BRANCH   7   8
ATOM      8  C   UNL A   1     -25.688   1.614  26.461  0.00  0.00    +0.109 C 
ATOM      9  C   UNL A   1     -26.250   2.920  26.395  0.00  0.00    +0.060 C 
ATOM     10  C   UNL A   1     -27.438   3.091  25.645  0.00  0.00    +0.102 C 
ATOM     11  N   UNL A   1     -28.075   2.089  25.003  0.00  0.00    -0.212 NA
ATOM     12  C   UNL A   1     -27.543   0.849  25.079  0.00  0.00    +0.234 C 
ATOM     13  C   UNL A   1     -26.354   0.576  25.777  0.00  0.00    +0.245 C 
ATOM     14  F   UNL A   1     -25.860  -0.681  25.795  0.00  0.00    -0.227 F 
BRANCH   9  15
ATOM     15  C   UNL A   1     -25.642   4.093  27.123  0.00  0.00    +0.263 C 
ATOM     16  N   UNL A   1     -25.614   5.252  26.449  0.00  0.00    -0.200 NA
ATOM     17  C   UNL A   1     -25.026   6.479  26.963  0.00  0.00    +0.139 C 
ATOM     18  O   UNL A   1     -25.143   3.966  28.243  0.00  0.00    -0.269 OA
ENDBRANCH   9  15
BRANCH  12  19
ATOM     19  O   UNL A   1     -28.193  -0.208  24.477  0.00  0.00    -0.459 OA
BRANCH  19  20
ATOM     20  C   UNL A   1     -29.460   0.005  23.866  0.00  0.00    +0.242 C 
BRANCH  20  21
ATOM     21  C   UNL A   1     -30.065  -1.377  23.573  0.00  0.00    +0.229 C 
ATOM     22  O   UNL A   1     -30.729  -1.878  24.721  0.00  0.00    -0.216 OA
ENDBRANCH  20  21
ENDBRANCH  19  20
ENDBRANCH  12  19
ENDBRANCH   7   8
BRANCH   7  23
ATOM     23  N   UNL A   1     -25.064   1.020  28.627  0.00  0.00    -0.267 N 
BRANCH  23  24
ATOM     24  C   UNL A   1     -24.359   0.153  29.380  0.00  0.00    +0.157 C 
BRANCH  24  25
ATOM     25  C   UNL A   1     -24.855  -1.012  30.143  0.00  0.00    +0.073 C 
BRANCH  25  26
ATOM     26  C   UNL A   1     -24.973  -2.505  29.788  0.00  0.00    -0.018 C 
ATOM     27  C   UNL A   1     -23.906  -3.173  29.146  0.00  0.00    -0.004 C 
ATOM     28  C   UNL A   1     -23.989  -4.549  28.853  0.00  0.00    -0.000 C 
ATOM     29  C   UNL A   1     -25.137  -5.280  29.205  0.00  0.00    -0.000 C 
ATOM     30  C   UNL A   1     -26.232  -4.611  29.784  0.00  0.00    -0.000 C 
ATOM     31  C   UNL A   1     -26.155  -3.232  30.065  0.00  0.00    -0.004 C 
ENDBRANCH  25  26
BRANCH  25  32
ATOM     32  C   UNL A   1     -25.387  -0.679  31.571  0.00  0.00    +0.080 C 
ATOM     33  C   UNL A   1     -25.189   0.773  32.028  0.00  0.00    +0.019 C 
ATOM     34  C   UNL A   1     -25.336   0.684  33.544  0.00  0.00    +0.020 C 
ATOM     35  C   UNL A   1     -24.829  -0.715  33.905  0.00  0.00    +0.089 C 
ATOM     36  N   UNL A   1     -24.758  -1.481  32.646  0.00  0.00    -0.219 NA
ENDBRANCH  25  32
ENDBRANCH  24  25
BRANCH  24  37
ATOM     37  N   UNL A   1     -23.238   0.526  29.853  0.00  0.00    -0.167 NA
BRANCH  37  39
ATOM     38  O   UNL A   1     -22.039  -0.809  28.682  0.00  0.00    -0.199 OA
ATOM     39  C   UNL A   1     -22.072  -0.147  29.657  0.00  0.00    +0.275 C 
ENDBRANCH  37  39
ENDBRANCH  24  37
ENDBRANCH  23  24
BRANCH  23  40
ATOM     40  C   UNL A   1     -26.208   1.649  29.309  0.00  0.00    +0.282 C 
BRANCH  40  42
ATOM     41  O   UNL A   1     -26.645   3.833  30.381  0.00  0.00    -0.033 OA
ATOM     42  O   UNL A   1     -25.730   2.822  29.951  0.00  0.00    -0.166 OA
ENDBRANCH  40  42
ENDBRANCH  23  40
ENDBRANCH   7  23
TORSDOF 14
