MODEL 545
MODEL 1
REMARK VINA RESULT:    -6.817      0.000      0.000
REMARK INTER + INTRA:          -9.606
REMARK INTER:                  -8.810
REMARK INTRA:                  -0.795
REMARK UNBOUND:                -0.795
REMARK  Name = No_545-gen_results/8p0m/2024-11-27-11-27-31/
REMARK  5 active torsions:
REMARK  status: ('A' for Active; 'I' for Inactive)
REMARK    1  A    between atoms: C_3  and  C_7
REMARK    2  A    between atoms: C_6  and  C_19
REMARK    3  A    between atoms: C_7  and  C_8
REMARK    4  A    between atoms: C_7  and  C_14
REMARK    5  A    between atoms: C_19  and  N_20
REMARK                            x       y       z     vdW  Elec       q    Type
REMARK                         _______ _______ _______ _____ _____    ______ ____
ROOT
ATOM      1  C   UNL A   1     -24.528  -1.119  29.185  0.00  0.00    +0.101 C 
ENDROOT
BRANCH   1   2
ATOM      2  C   UNL A   1     -23.926  -0.695  28.191  0.00  0.00    +0.020 C 
ATOM      3  C   UNL A   1     -22.840   0.235  28.210  0.00  0.00    +0.065 C 
ATOM      4  C   UNL A   1     -22.847   1.445  27.605  0.00  0.00    +0.151 C 
ATOM      5  C   UNL A   1     -23.890   1.757  26.648  0.00  0.00    +0.065 C 
ATOM      6  C   UNL A   1     -24.835   0.734  26.353  0.00  0.00    +0.008 C 
ATOM      7  C   UNL A   1     -24.965  -0.390  27.098  0.00  0.00    +0.002 C 
ATOM      8  O   UNL A   1     -21.844   2.284  27.757  0.00  0.00    -0.296 OA
ENDBRANCH   1   2
BRANCH   1  11
ATOM      9  C   UNL A   1     -24.092  -3.614  28.779  0.00  0.00    -0.004 A 
ATOM     10  C   UNL A   1     -24.444  -4.601  28.880  0.00  0.00    -0.001 A 
ATOM     11  C   UNL A   1     -24.928  -2.567  29.225  0.00  0.00    -0.014 A 
ATOM     12  C   UNL A   1     -26.175  -2.808  29.767  0.00  0.00    -0.006 A 
ATOM     13  C   UNL A   1     -25.714  -5.127  29.418  0.00  0.00    -0.002 A 
ATOM     14  C   UNL A   1     -26.546  -4.156  29.856  0.00  0.00    +0.002 A 
BRANCH  14  15
ATOM     15  C   UNL A   1     -27.902  -4.504  30.440  0.00  0.00    +0.152 C 
BRANCH  15  16
ATOM     16  N   UNL A   1     -28.908  -4.548  29.696  0.00  0.00    -0.263 NA
ATOM     17  C   UNL A   1     -30.084  -5.117  29.972  0.00  0.00    +0.114 C 
ENDBRANCH  15  16
ENDBRANCH  14  15
ENDBRANCH   1  11
BRANCH   1  18
ATOM     18  C   UNL A   1     -25.067  -0.276  30.197  0.00  0.00    +0.245 C 
ATOM     19  N   UNL A   1     -24.423  -0.066  31.314  0.00  0.00    -0.203 NA
ATOM     20  C   UNL A   1     -24.929   0.693  32.283  0.00  0.00    +0.139 C 
ATOM     21  O   UNL A   1     -25.757   0.643  29.843  0.00  0.00    -0.273 OA
ENDBRANCH   1  18
TORSDOF 5
ENDMDL
ENDMDL
