REMARK  Name = No_546-gen_results/8p0m/2024-11-27-11-27-31/
REMARK  2 active torsions:
REMARK  status: ('A' for Active; 'I' for Inactive)
REMARK    1  A    between atoms: C_2  and  C_5
REMARK    2  A    between atoms: C_5  and  N_6
REMARK                            x       y       z     vdW  Elec       q    Type
REMARK                         _______ _______ _______ _____ _____    ______ ____
ROOT
ATOM      1  N   UNL A   1     -25.591  -1.959  29.343  0.00  0.00    -0.240 NA
ATOM      2  C   UNL A   1     -24.684  -2.214  28.323  0.00  0.00    +0.083 C 
ATOM      3  C   UNL A   1     -26.511  -3.133  29.434  0.00  0.00    +0.083 C 
ATOM      4  C   UNL A   1     -25.785  -4.434  29.600  0.00  0.00    +0.082 C 
ATOM      5  C   UNL A   1     -24.763  -4.698  28.715  0.00  0.00    +0.153 C 
ATOM      6  C   UNL A   1     -23.945  -3.517  28.389  0.00  0.00    +0.082 C 
ATOM      7  O   UNL A   1     -24.211  -5.781  28.633  0.00  0.00    -0.296 OA
ENDROOT
BRANCH   1   8
ATOM      8  C   UNL A   1     -26.099  -0.923  29.506  0.00  0.00    +0.294 C 
ATOM      9  F   UNL A   1     -25.371  -0.156  30.370  0.00  0.00    -0.212 F 
BRANCH   8  11
ATOM     10  F   UNL A   1     -28.073  -1.254  28.532  0.00  0.00    -0.188 F 
ATOM     11  C   UNL A   1     -27.359  -0.379  28.722  0.00  0.00    +0.353 C 
ATOM     12  F   UNL A   1     -26.976  -0.093  27.662  0.00  0.00    -0.188 F 
ATOM     13 BR   UNL A   1     -28.004   1.043  29.653  0.00  0.00    -0.006 Br
ENDBRANCH   8  11
ENDBRANCH   1   8
TORSDOF 2
