REMARK  Name = outputs/IAG933/test6/raw/output_5461_IAG933_linker_design_.xyz
REMARK  14 active torsions:
REMARK  status: ('A' for Active; 'I' for Inactive)
REMARK    1  A    between atoms: C_1  and  C_2
REMARK    2  A    between atoms: C_1  and  C_8
REMARK    3  A    between atoms: C_1  and  N_32
REMARK    4  A    between atoms: C_13  and  S_43
REMARK    5  A    between atoms: C_14  and  C_15
REMARK    6  A    between atoms: C_21  and  O_22
REMARK    7  A    between atoms: O_22  and  C_23
REMARK    8  A    between atoms: C_23  and  C_24
REMARK    9  A    between atoms: C_28  and  C_31
REMARK   10  A    between atoms: C_28  and  C_37
REMARK   11  A    between atoms: C_30  and  C_41
REMARK   12  A    between atoms: C_35  and  S_43
REMARK   13  A    between atoms: C_37  and  C_39
REMARK   14  A    between atoms: C_37  and  C_41
REMARK                            x       y       z     vdW  Elec       q    Type
REMARK                         _______ _______ _______ _____ _____    ______ ____
ROOT
ATOM      1  C   UNL A   1     -24.710   0.429  28.377  0.00  0.00    +0.068 C 
ATOM      2  N   UNL A   1     -23.953  -0.054  29.432  0.00  0.00    -0.270 NA
ATOM      3  C   UNL A   1     -23.634   0.897  27.623  0.00  0.00    +0.064 C 
ATOM      4  C   UNL A   1     -22.552   0.000  29.489  0.00  0.00    +0.073 C 
ATOM      5  C   UNL A   1     -21.219   1.442  27.713  0.00  0.00    +0.002 C 
ATOM      6  C   UNL A   1     -22.499   1.248  28.536  0.00  0.00    +0.027 C 
ENDROOT
BRANCH   2   7
ATOM      7  C   UNL A   1     -24.855  -1.012  30.143  0.00  0.00    +0.096 C 
BRANCH   7   8
ATOM      8  C   UNL A   1     -24.973  -2.505  29.788  0.00  0.00    -0.006 C 
ATOM      9  C   UNL A   1     -23.906  -3.173  29.146  0.00  0.00    -0.003 C 
ATOM     10  C   UNL A   1     -23.989  -4.549  28.853  0.00  0.00    -0.000 C 
ATOM     11  C   UNL A   1     -25.137  -5.280  29.205  0.00  0.00    -0.000 C 
ATOM     12  C   UNL A   1     -26.232  -4.611  29.784  0.00  0.00    -0.000 C 
ATOM     13  C   UNL A   1     -26.155  -3.232  30.065  0.00  0.00    -0.003 C 
ENDBRANCH   7   8
BRANCH   7  14
ATOM     14  C   UNL A   1     -25.387  -0.679  31.571  0.00  0.00    +0.092 C 
ATOM     15  C   UNL A   1     -25.189   0.773  32.028  0.00  0.00    +0.021 C 
ATOM     16  C   UNL A   1     -25.336   0.684  33.544  0.00  0.00    +0.020 C 
ATOM     17  C   UNL A   1     -24.829  -0.715  33.905  0.00  0.00    +0.089 C 
ATOM     18  N   UNL A   1     -24.758  -1.481  32.646  0.00  0.00    -0.218 NA
ENDBRANCH   7  14
ENDBRANCH   2   7
BRANCH   1  19
ATOM     19  C   UNL A   1     -26.268   0.022  28.654  0.00  0.00    +0.020 C 
BRANCH  19  20
ATOM     20  C   UNL A   1     -27.652   0.244  29.417  0.00  0.00    +0.039 C 
BRANCH  20  22
ATOM     21  O   UNL A   1     -29.344   0.188  27.816  0.00  0.00    -0.220 OA
ATOM     22  C   UNL A   1     -28.694  -0.509  28.594  0.00  0.00    +0.182 C 
ENDBRANCH  20  22
BRANCH  20  23
ATOM     23  C   UNL A   1     -28.043   1.484  30.184  0.00  0.00    +0.029 C 
BRANCH  23  25
ATOM     24  C   UNL A   1     -29.791   2.670  28.827  0.00  0.00    -0.004 C 
ATOM     25  C   UNL A   1     -28.688   2.670  29.716  0.00  0.00    -0.022 C 
ATOM     26  C   UNL A   1     -30.143   3.824  28.166  0.00  0.00    -0.000 C 
ATOM     27  C   UNL A   1     -29.394   4.966  28.400  0.00  0.00    -0.000 C 
ATOM     28  C   UNL A   1     -28.131   3.859  30.106  0.00  0.00    -0.004 C 
ATOM     29  C   UNL A   1     -28.391   4.996  29.370  0.00  0.00    -0.000 C 
ENDBRANCH  23  25
ENDBRANCH  20  23
ENDBRANCH  19  20
ENDBRANCH   1  19
BRANCH   3  30
ATOM     30  S   UNL A   1     -24.006   1.867  26.150  0.00  0.00    -0.133 S 
BRANCH  30  31
ATOM     31  C   UNL A   1     -25.688   1.614  26.461  0.00  0.00    +0.117 C 
ATOM     32  C   UNL A   1     -26.250   2.920  26.395  0.00  0.00    +0.065 C 
ATOM     33  C   UNL A   1     -27.438   3.091  25.645  0.00  0.00    +0.103 C 
ATOM     34  N   UNL A   1     -28.075   2.089  25.003  0.00  0.00    -0.212 NA
ATOM     35  C   UNL A   1     -27.543   0.849  25.079  0.00  0.00    +0.235 C 
ATOM     36  C   UNL A   1     -26.354   0.576  25.777  0.00  0.00    +0.250 C 
ATOM     37  F   UNL A   1     -25.860  -0.681  25.795  0.00  0.00    -0.226 F 
BRANCH  32  38
ATOM     38  C   UNL A   1     -25.642   4.093  27.123  0.00  0.00    +0.263 C 
ATOM     39  N   UNL A   1     -25.614   5.252  26.449  0.00  0.00    -0.200 NA
ATOM     40  C   UNL A   1     -25.026   6.479  26.963  0.00  0.00    +0.139 C 
ATOM     41  O   UNL A   1     -25.143   3.966  28.243  0.00  0.00    -0.269 OA
ENDBRANCH  32  38
BRANCH  35  42
ATOM     42  O   UNL A   1     -28.193  -0.208  24.477  0.00  0.00    -0.459 OA
BRANCH  42  43
ATOM     43  C   UNL A   1     -29.460   0.005  23.866  0.00  0.00    +0.242 C 
BRANCH  43  44
ATOM     44  C   UNL A   1     -30.065  -1.377  23.573  0.00  0.00    +0.229 C 
ATOM     45  O   UNL A   1     -30.729  -1.878  24.721  0.00  0.00    -0.216 OA
ENDBRANCH  43  44
ENDBRANCH  42  43
ENDBRANCH  35  42
ENDBRANCH  30  31
ENDBRANCH   3  30
TORSDOF 14
