REMARK  Name = outputs/IAG933/test6/raw/output_5464_IAG933_linker_design_.xyz
REMARK  9 active torsions:
REMARK  status: ('A' for Active; 'I' for Inactive)
REMARK    1  A    between atoms: C_1  and  C_2
REMARK    2  A    between atoms: C_13  and  N_37
REMARK    3  A    between atoms: C_14  and  C_15
REMARK    4  A    between atoms: C_21  and  O_22
REMARK    5  A    between atoms: O_22  and  C_23
REMARK    6  A    between atoms: C_23  and  C_24
REMARK    7  A    between atoms: C_31  and  C_33
REMARK    8  A    between atoms: C_35  and  C_44
REMARK    9  A    between atoms: C_35  and  N_47
REMARK                            x       y       z     vdW  Elec       q    Type
REMARK                         _______ _______ _______ _____ _____    ______ ____
ROOT
ATOM      1  C   UNL A   1     -24.855  -1.012  30.143  0.00  0.00    +0.154 C 
ATOM      2  C   UNL A   1     -25.387  -0.679  31.571  0.00  0.00    +0.109 C 
ATOM      3  C   UNL A   1     -25.189   0.773  32.028  0.00  0.00    +0.075 C 
ATOM      4  C   UNL A   1     -25.336   0.684  33.544  0.00  0.00    +0.025 C 
ATOM      5  C   UNL A   1     -24.829  -0.715  33.905  0.00  0.00    +0.089 C 
ATOM      6  N   UNL A   1     -24.758  -1.481  32.646  0.00  0.00    -0.216 NA
ATOM      7  C   UNL A   1     -23.109   1.099  28.966  0.00  0.00    +0.195 C 
ATOM      8  O   UNL A   1     -23.556  -0.191  29.701  0.00  0.00    -0.346 OA
ATOM      9  C   UNL A   1     -25.169   2.178  31.152  0.00  0.00    +0.223 C 
ATOM     10  O   UNL A   1     -24.378   3.051  31.914  0.00  0.00    -0.195 OA
ATOM     11  C   UNL A   1     -22.433   1.057  27.716  0.00  0.00    +0.217 C 
ATOM     12  N   UNL A   1     -24.497   1.320  27.065  0.00  0.00    -0.268 N 
ATOM     13  C   UNL A   1     -24.506   1.704  28.678  0.00  0.00    +0.226 C 
ATOM     14  O   UNL A   1     -21.070   0.997  27.429  0.00  0.00    -0.217 OA
ATOM     15  C   UNL A   1     -23.278   2.081  26.834  0.00  0.00    +0.189 C 
ATOM     16 CL   UNL A   1     -22.690   2.194  25.212  0.00  0.00    -0.090 Cl
ATOM     17  O   UNL A   1     -25.190   1.655  29.728  0.00  0.00    -0.313 OA
ENDROOT
BRANCH  12  18
ATOM     18  C   UNL A   1     -25.688   1.614  26.461  0.00  0.00    +0.089 C 
ATOM     19  C   UNL A   1     -26.250   2.920  26.395  0.00  0.00    +0.090 C 
ATOM     20  C   UNL A   1     -27.438   3.091  25.645  0.00  0.00    +0.108 C 
ATOM     21  N   UNL A   1     -28.075   2.089  25.003  0.00  0.00    -0.208 NA
ATOM     22  C   UNL A   1     -27.543   0.849  25.079  0.00  0.00    +0.255 C 
ATOM     23  C   UNL A   1     -26.354   0.576  25.777  0.00  0.00    +0.206 C 
ATOM     24  F   UNL A   1     -25.860  -0.681  25.795  0.00  0.00    -0.198 F 
BRANCH  19  25
ATOM     25  C   UNL A   1     -25.642   4.093  27.123  0.00  0.00    +0.268 C 
ATOM     26  N   UNL A   1     -25.614   5.252  26.449  0.00  0.00    -0.200 NA
ATOM     27  C   UNL A   1     -25.026   6.479  26.963  0.00  0.00    +0.139 C 
ATOM     28  O   UNL A   1     -25.143   3.966  28.243  0.00  0.00    -0.268 OA
ENDBRANCH  19  25
BRANCH  22  29
ATOM     29  O   UNL A   1     -28.193  -0.208  24.477  0.00  0.00    -0.456 OA
BRANCH  29  30
ATOM     30  C   UNL A   1     -29.460   0.005  23.866  0.00  0.00    +0.243 C 
BRANCH  30  31
ATOM     31  C   UNL A   1     -30.065  -1.377  23.573  0.00  0.00    +0.229 C 
ATOM     32  O   UNL A   1     -30.729  -1.878  24.721  0.00  0.00    -0.216 OA
ENDBRANCH  30  31
ENDBRANCH  29  30
ENDBRANCH  22  29
ENDBRANCH  12  18
BRANCH   1  33
ATOM     33  C   UNL A   1     -24.973  -2.505  29.788  0.00  0.00    +0.006 C 
ATOM     34  C   UNL A   1     -23.906  -3.173  29.146  0.00  0.00    -0.002 C 
ATOM     35  C   UNL A   1     -23.989  -4.549  28.853  0.00  0.00    -0.000 C 
ATOM     36  C   UNL A   1     -25.137  -5.280  29.205  0.00  0.00    -0.000 C 
ATOM     37  C   UNL A   1     -26.232  -4.611  29.784  0.00  0.00    -0.000 C 
ATOM     38  C   UNL A   1     -26.155  -3.232  30.065  0.00  0.00    -0.002 C 
ENDBRANCH   1  33
BRANCH   9  40
ATOM     39  C   UNL A   1     -26.837   4.305  31.927  0.00  0.00    +0.078 C 
ATOM     40  C   UNL A   1     -26.281   3.320  31.091  0.00  0.00    +0.072 C 
ATOM     41  C   UNL A   1     -28.332   3.688  30.399  0.00  0.00    +0.073 C 
ATOM     42  C   UNL A   1     -27.255   3.149  30.032  0.00  0.00    +0.024 C 
ATOM     43  N   UNL A   1     -28.152   4.523  31.463  0.00  0.00    -0.259 NA
BRANCH  43  44
ATOM     44  C   UNL A   1     -29.264   5.479  31.837  0.00  0.00    +0.151 C 
ATOM     45  N   UNL A   1     -30.136   5.420  30.623  0.00  0.00    -0.115 NA
BRANCH  44  47
ATOM     46  C   UNL A   1     -30.554   7.628  32.559  0.00  0.00    +0.003 C 
ATOM     47  C   UNL A   1     -29.217   7.026  32.062  0.00  0.00    +0.036 C 
ENDBRANCH  44  47
ENDBRANCH  43  44
ENDBRANCH   9  40
TORSDOF 9
