MODEL 546
MODEL 1
REMARK VINA RESULT:    -5.254      0.000      0.000
REMARK INTER + INTRA:          -6.078
REMARK INTER:                  -5.868
REMARK INTRA:                  -0.210
REMARK UNBOUND:                -0.210
REMARK  Name = No_546-gen_results/8p0m/2024-11-27-11-27-31/
REMARK  2 active torsions:
REMARK  status: ('A' for Active; 'I' for Inactive)
REMARK    1  A    between atoms: C_2  and  C_5
REMARK    2  A    between atoms: C_5  and  N_6
REMARK                            x       y       z     vdW  Elec       q    Type
REMARK                         _______ _______ _______ _____ _____    ______ ____
ROOT
ATOM      1  N   UNL A   1     -23.444  -1.441  29.148  0.00  0.00    -0.240 NA
ATOM      2  C   UNL A   1     -22.268  -0.880  29.627  0.00  0.00    +0.083 C 
ATOM      3  C   UNL A   1     -24.296  -0.329  28.626  0.00  0.00    +0.083 C 
ATOM      4  C   UNL A   1     -23.591   0.522  27.613  0.00  0.00    +0.082 C 
ATOM      5  C   UNL A   1     -22.344   0.997  27.954  0.00  0.00    +0.153 C 
ATOM      6  C   UNL A   1     -21.521   0.022  28.691  0.00  0.00    +0.082 C 
ATOM      7  O   UNL A   1     -21.742   1.830  27.299  0.00  0.00    -0.296 OA
ENDROOT
BRANCH   1   8
ATOM      8  C   UNL A   1     -24.025  -2.286  29.702  0.00  0.00    +0.294 C 
ATOM      9  F   UNL A   1     -24.246  -1.948  31.007  0.00  0.00    -0.212 F 
BRANCH   8  11
ATOM     10  F   UNL A   1     -23.880  -4.429  29.121  0.00  0.00    -0.188 F 
ATOM     11  C   UNL A   1     -24.640  -3.577  29.030  0.00  0.00    +0.353 C 
ATOM     12  F   UNL A   1     -24.680  -3.355  27.890  0.00  0.00    -0.188 F 
ATOM     13 BR   UNL A   1     -26.284  -3.839  29.762  0.00  0.00    -0.006 Br
ENDBRANCH   8  11
ENDBRANCH   1   8
TORSDOF 2
ENDMDL
ENDMDL
