REMARK  Name = outputs/IAG933/test6/raw/output_5471_IAG933_linker_design_.xyz
REMARK  15 active torsions:
REMARK  status: ('A' for Active; 'I' for Inactive)
REMARK    1  A    between atoms: C_1  and  C_2
REMARK    2  A    between atoms: C_1  and  C_8
REMARK    3  A    between atoms: C_1  and  N_28
REMARK    4  A    between atoms: C_13  and  N_36
REMARK    5  A    between atoms: C_14  and  C_15
REMARK    6  A    between atoms: C_21  and  O_22
REMARK    7  A    between atoms: O_22  and  C_23
REMARK    8  A    between atoms: C_23  and  C_24
REMARK    9  A    between atoms: N_28  and  C_33
REMARK   10  A    between atoms: N_28  and  C_43
REMARK   11  A    between atoms: C_35  and  C_38
REMARK   12  A    between atoms: C_37  and  O_40
REMARK   13  A    between atoms: C_37  and  C_41
REMARK   14  A    between atoms: C_38  and  C_41
REMARK   15  A    between atoms: O_40  and  C_43
REMARK                            x       y       z     vdW  Elec       q    Type
REMARK                         _______ _______ _______ _____ _____    ______ ____
ROOT
ATOM      1  N   UNL A   1     -25.188   0.104  29.152  0.00  0.00    -0.214 NA
ENDROOT
BRANCH   1   3
ATOM      2  C   UNL A   1     -21.078   0.892  27.580  0.00  0.00    +0.170 C 
ATOM      3  C   UNL A   1     -24.170   0.490  28.306  0.00  0.00    +0.182 C 
ATOM      4  C   UNL A   1     -23.064   0.785  29.244  0.00  0.00    +0.242 C 
ATOM      5  N   UNL A   1     -24.500   1.321  27.311  0.00  0.00    -0.287 N 
ATOM      6  C   UNL A   1     -23.452   1.587  26.286  0.00  0.00    +0.122 C 
ATOM      7  C   UNL A   1     -21.894   1.491  26.372  0.00  0.00    +0.035 C 
ATOM      8  O   UNL A   1     -21.771   0.378  28.689  0.00  0.00    -0.469 OA
BRANCH   5   9
ATOM      9  C   UNL A   1     -25.688   1.614  26.461  0.00  0.00    +0.087 C 
ATOM     10  C   UNL A   1     -26.250   2.920  26.395  0.00  0.00    +0.090 C 
ATOM     11  C   UNL A   1     -27.438   3.091  25.645  0.00  0.00    +0.108 C 
ATOM     12  N   UNL A   1     -28.075   2.089  25.003  0.00  0.00    -0.208 NA
ATOM     13  C   UNL A   1     -27.543   0.849  25.079  0.00  0.00    +0.255 C 
ATOM     14  C   UNL A   1     -26.354   0.576  25.777  0.00  0.00    +0.206 C 
ATOM     15  F   UNL A   1     -25.860  -0.681  25.795  0.00  0.00    -0.198 F 
BRANCH  10  16
ATOM     16  C   UNL A   1     -25.642   4.093  27.123  0.00  0.00    +0.268 C 
ATOM     17  N   UNL A   1     -25.614   5.252  26.449  0.00  0.00    -0.200 NA
ATOM     18  C   UNL A   1     -25.026   6.479  26.963  0.00  0.00    +0.139 C 
ATOM     19  O   UNL A   1     -25.143   3.966  28.243  0.00  0.00    -0.268 OA
ENDBRANCH  10  16
BRANCH  13  20
ATOM     20  O   UNL A   1     -28.193  -0.208  24.477  0.00  0.00    -0.456 OA
BRANCH  20  21
ATOM     21  C   UNL A   1     -29.460   0.005  23.866  0.00  0.00    +0.243 C 
BRANCH  21  22
ATOM     22  C   UNL A   1     -30.065  -1.377  23.573  0.00  0.00    +0.229 C 
ATOM     23  O   UNL A   1     -30.729  -1.878  24.721  0.00  0.00    -0.216 OA
ENDBRANCH  21  22
ENDBRANCH  20  21
ENDBRANCH  13  20
ENDBRANCH   5   9
ENDBRANCH   1   3
BRANCH   1  24
ATOM     24  C   UNL A   1     -24.855  -1.012  30.143  0.00  0.00    +0.101 C 
BRANCH  24  25
ATOM     25  C   UNL A   1     -24.973  -2.505  29.788  0.00  0.00    -0.006 C 
ATOM     26  C   UNL A   1     -23.906  -3.173  29.146  0.00  0.00    -0.003 C 
ATOM     27  C   UNL A   1     -23.989  -4.549  28.853  0.00  0.00    -0.000 C 
ATOM     28  C   UNL A   1     -25.137  -5.280  29.205  0.00  0.00    -0.000 C 
ATOM     29  C   UNL A   1     -26.232  -4.611  29.784  0.00  0.00    -0.000 C 
ATOM     30  C   UNL A   1     -26.155  -3.232  30.065  0.00  0.00    -0.003 C 
ENDBRANCH  24  25
BRANCH  24  31
ATOM     31  C   UNL A   1     -25.387  -0.679  31.571  0.00  0.00    +0.092 C 
ATOM     32  C   UNL A   1     -25.189   0.773  32.028  0.00  0.00    +0.021 C 
ATOM     33  C   UNL A   1     -25.336   0.684  33.544  0.00  0.00    +0.020 C 
ATOM     34  C   UNL A   1     -24.829  -0.715  33.905  0.00  0.00    +0.089 C 
ATOM     35  N   UNL A   1     -24.758  -1.481  32.646  0.00  0.00    -0.218 NA
ENDBRANCH  24  31
ENDBRANCH   1  24
BRANCH   1  36
ATOM     36  C   UNL A   1     -26.537   0.243  29.038  0.00  0.00    +0.289 C 
BRANCH  36  37
ATOM     37  O   UNL A   1     -27.921  -0.252  29.722  0.00  0.00    -0.430 OA
BRANCH  37  39
ATOM     38  O   UNL A   1     -29.004  -0.292  27.683  0.00  0.00    -0.250 OA
ATOM     39  C   UNL A   1     -28.922  -0.200  28.953  0.00  0.00    +0.318 C 
BRANCH  39  40
ATOM     40  C   UNL A   1     -30.265  -0.143  29.654  0.00  0.00    +0.112 C 
BRANCH  40  42
ATOM     41  C   UNL A   1     -29.290   0.622  32.036  0.00  0.00    +0.003 C 
ATOM     42  C   UNL A   1     -29.974  -0.446  31.134  0.00  0.00    +0.044 C 
BRANCH  42  44
ATOM     43  O   UNL A   1     -29.319  -2.873  30.447  0.00  0.00    -0.220 OA
ATOM     44  C   UNL A   1     -29.601  -1.958  31.552  0.00  0.00    +0.183 C 
ENDBRANCH  42  44
ENDBRANCH  40  42
ENDBRANCH  39  40
ENDBRANCH  37  39
ENDBRANCH  36  37
ENDBRANCH   1  36
TORSDOF 15
