REMARK  Name = outputs/IAG933/test6/raw/output_5472_IAG933_linker_design_.xyz
REMARK  13 active torsions:
REMARK  status: ('A' for Active; 'I' for Inactive)
REMARK    1  A    between atoms: C_1  and  C_2
REMARK    2  A    between atoms: C_1  and  C_8
REMARK    3  A    between atoms: C_1  and  C_44
REMARK    4  A    between atoms: C_13  and  N_32
REMARK    5  A    between atoms: C_14  and  C_15
REMARK    6  A    between atoms: C_21  and  O_22
REMARK    7  A    between atoms: O_22  and  C_23
REMARK    8  A    between atoms: C_23  and  C_24
REMARK    9  A    between atoms: C_30  and  N_32
REMARK   10  A    between atoms: N_32  and  C_44
REMARK   11  A    between atoms: C_35  and  O_38
REMARK   12  A    between atoms: C_35  and  C_40
REMARK   13  A    between atoms: O_38  and  C_44
REMARK                            x       y       z     vdW  Elec       q    Type
REMARK                         _______ _______ _______ _____ _____    ______ ____
ROOT
ATOM      1  N   UNL A   1     -25.071   1.058  27.706  0.00  0.00    -0.265 N 
ENDROOT
BRANCH   1   4
ATOM      2  O   UNL A   1     -22.853   2.543  26.291  0.00  0.00    -0.243 OA
ATOM      3  C   UNL A   1     -22.043  -0.338  29.062  0.00  0.00    +0.115 C 
ATOM      4  C   UNL A   1     -23.698   0.947  27.780  0.00  0.00    +0.124 C 
ATOM      5  C   UNL A   1     -20.939   0.152  28.581  0.00  0.00    +0.233 C 
ATOM      6  C   UNL A   1     -23.280   0.126  28.648  0.00  0.00    +0.005 C 
ATOM      7  N   UNL A   1     -19.870   0.107  28.912  0.00  0.00    -0.111 NA
ATOM      8  O   UNL A   1     -21.313   1.239  27.542  0.00  0.00    -0.404 OA
ATOM      9  C   UNL A   1     -22.526   1.677  27.172  0.00  0.00    +0.360 C 
ENDBRANCH   1   4
BRANCH   1  10
ATOM     10  C   UNL A   1     -25.688   1.614  26.461  0.00  0.00    +0.146 C 
ATOM     11  C   UNL A   1     -26.250   2.920  26.395  0.00  0.00    +0.073 C 
ATOM     12  C   UNL A   1     -27.438   3.091  25.645  0.00  0.00    +0.104 C 
ATOM     13  N   UNL A   1     -28.075   2.089  25.003  0.00  0.00    -0.212 NA
ATOM     14  C   UNL A   1     -27.543   0.849  25.079  0.00  0.00    +0.236 C 
ATOM     15  C   UNL A   1     -26.354   0.576  25.777  0.00  0.00    +0.258 C 
ATOM     16  F   UNL A   1     -25.860  -0.681  25.795  0.00  0.00    -0.225 F 
BRANCH  11  17
ATOM     17  C   UNL A   1     -25.642   4.093  27.123  0.00  0.00    +0.264 C 
ATOM     18  N   UNL A   1     -25.614   5.252  26.449  0.00  0.00    -0.200 NA
ATOM     19  C   UNL A   1     -25.026   6.479  26.963  0.00  0.00    +0.139 C 
ATOM     20  O   UNL A   1     -25.143   3.966  28.243  0.00  0.00    -0.269 OA
ENDBRANCH  11  17
BRANCH  14  21
ATOM     21  O   UNL A   1     -28.193  -0.208  24.477  0.00  0.00    -0.459 OA
BRANCH  21  22
ATOM     22  C   UNL A   1     -29.460   0.005  23.866  0.00  0.00    +0.242 C 
BRANCH  22  23
ATOM     23  C   UNL A   1     -30.065  -1.377  23.573  0.00  0.00    +0.229 C 
ATOM     24  O   UNL A   1     -30.729  -1.878  24.721  0.00  0.00    -0.216 OA
ENDBRANCH  22  23
ENDBRANCH  21  22
ENDBRANCH  14  21
ENDBRANCH   1  10
BRANCH   1  25
ATOM     25  C   UNL A   1     -25.467   0.071  28.955  0.00  0.00    +0.253 C 
BRANCH  25  26
ATOM     26  C   UNL A   1     -24.855  -1.012  30.143  0.00  0.00    +0.099 C 
BRANCH  26  27
ATOM     27  C   UNL A   1     -24.973  -2.505  29.788  0.00  0.00    -0.016 C 
ATOM     28  C   UNL A   1     -23.906  -3.173  29.146  0.00  0.00    -0.004 C 
ATOM     29  C   UNL A   1     -23.989  -4.549  28.853  0.00  0.00    -0.000 C 
ATOM     30  C   UNL A   1     -25.137  -5.280  29.205  0.00  0.00    -0.000 C 
ATOM     31  C   UNL A   1     -26.232  -4.611  29.784  0.00  0.00    -0.000 C 
ATOM     32  C   UNL A   1     -26.155  -3.232  30.065  0.00  0.00    -0.004 C 
ENDBRANCH  26  27
BRANCH  26  33
ATOM     33  C   UNL A   1     -25.387  -0.679  31.571  0.00  0.00    +0.082 C 
ATOM     34  C   UNL A   1     -25.189   0.773  32.028  0.00  0.00    +0.019 C 
ATOM     35  C   UNL A   1     -25.336   0.684  33.544  0.00  0.00    +0.020 C 
ATOM     36  C   UNL A   1     -24.829  -0.715  33.905  0.00  0.00    +0.089 C 
ATOM     37  N   UNL A   1     -24.758  -1.481  32.646  0.00  0.00    -0.219 NA
ENDBRANCH  26  33
ENDBRANCH  25  26
BRANCH  25  38
ATOM     38  O   UNL A   1     -26.831   0.013  29.304  0.00  0.00    -0.429 OA
BRANCH  38  40
ATOM     39  O   UNL A   1     -28.844   0.070  27.596  0.00  0.00    -0.245 OA
ATOM     40  C   UNL A   1     -28.188   0.383  28.534  0.00  0.00    +0.365 C 
BRANCH  40  43
ATOM     41  C   UNL A   1     -29.446   1.593  30.297  0.00  0.00    +0.067 C 
ATOM     42  F   UNL A   1     -27.542   2.584  30.076  0.00  0.00    -0.209 F 
ATOM     43  C   UNL A   1     -28.403   1.708  29.309  0.00  0.00    +0.297 C 
ATOM     44  N   UNL A   1     -28.883   2.745  28.356  0.00  0.00    -0.088 NA
ENDBRANCH  40  43
ENDBRANCH  38  40
ENDBRANCH  25  38
ENDBRANCH   1  25
TORSDOF 13
