REMARK  Name = outputs/IAG933/test6/raw/output_5474_IAG933_linker_design_.xyz
REMARK  11 active torsions:
REMARK  status: ('A' for Active; 'I' for Inactive)
REMARK    1  A    between atoms: C_1  and  C_2
REMARK    2  A    between atoms: C_1  and  C_8
REMARK    3  A    between atoms: C_1  and  N_30
REMARK    4  A    between atoms: C_13  and  C_29
REMARK    5  A    between atoms: C_14  and  C_15
REMARK    6  A    between atoms: C_21  and  O_22
REMARK    7  A    between atoms: O_22  and  C_23
REMARK    8  A    between atoms: C_23  and  C_24
REMARK    9  A    between atoms: N_30  and  C_39
REMARK   10  A    between atoms: C_34  and  N_40
REMARK   11  A    between atoms: O_35  and  C_43
REMARK                            x       y       z     vdW  Elec       q    Type
REMARK                         _______ _______ _______ _____ _____    ______ ____
ROOT
ATOM      1  C   UNL A   1     -24.532   1.236  27.257  0.00  0.00    +0.056 C 
ATOM      2  O   UNL A   1     -22.509  -0.166  29.775  0.00  0.00    -0.283 OA
ATOM      3  C   UNL A   1     -22.383   1.125  27.833  0.00  0.00    +0.214 C 
ATOM      4  F   UNL A   1     -21.063   1.239  27.779  0.00  0.00    -0.198 F 
ATOM      5  C   UNL A   1     -23.023   0.483  28.806  0.00  0.00    +0.239 C 
ATOM      6  C   UNL A   1     -24.481   0.539  28.448  0.00  0.00    +0.100 C 
ATOM      7  C   UNL A   1     -23.245   1.519  26.887  0.00  0.00    +0.171 C 
ENDROOT
BRANCH   1   8
ATOM      8  C   UNL A   1     -25.688   1.614  26.461  0.00  0.00    +0.042 C 
ATOM      9  C   UNL A   1     -26.250   2.920  26.395  0.00  0.00    +0.077 C 
ATOM     10  C   UNL A   1     -27.438   3.091  25.645  0.00  0.00    +0.107 C 
ATOM     11  N   UNL A   1     -28.075   2.089  25.003  0.00  0.00    -0.208 NA
ATOM     12  C   UNL A   1     -27.543   0.849  25.079  0.00  0.00    +0.253 C 
ATOM     13  C   UNL A   1     -26.354   0.576  25.777  0.00  0.00    +0.193 C 
ATOM     14  F   UNL A   1     -25.860  -0.681  25.795  0.00  0.00    -0.199 F 
BRANCH   9  15
ATOM     15  C   UNL A   1     -25.642   4.093  27.123  0.00  0.00    +0.266 C 
ATOM     16  N   UNL A   1     -25.614   5.252  26.449  0.00  0.00    -0.200 NA
ATOM     17  C   UNL A   1     -25.026   6.479  26.963  0.00  0.00    +0.139 C 
ATOM     18  O   UNL A   1     -25.143   3.966  28.243  0.00  0.00    -0.268 OA
ENDBRANCH   9  15
BRANCH  12  19
ATOM     19  O   UNL A   1     -28.193  -0.208  24.477  0.00  0.00    -0.456 OA
BRANCH  19  20
ATOM     20  C   UNL A   1     -29.460   0.005  23.866  0.00  0.00    +0.243 C 
BRANCH  20  21
ATOM     21  C   UNL A   1     -30.065  -1.377  23.573  0.00  0.00    +0.229 C 
ATOM     22  O   UNL A   1     -30.729  -1.878  24.721  0.00  0.00    -0.216 OA
ENDBRANCH  20  21
ENDBRANCH  19  20
ENDBRANCH  12  19
ENDBRANCH   1   8
BRANCH   6  24
ATOM     23  O   UNL A   1     -27.170   1.419  29.644  0.00  0.00    -0.250 OA
ATOM     24  N   UNL A   1     -25.443  -0.044  29.206  0.00  0.00    -0.235 N 
ATOM     25  N   UNL A   1     -27.785  -0.483  28.562  0.00  0.00    -0.157 NA
ATOM     26  C   UNL A   1     -26.827   0.328  29.163  0.00  0.00    +0.330 C 
BRANCH  25  28
ATOM     27  C   UNL A   1     -29.830  -1.264  29.520  0.00  0.00    +0.060 C 
ATOM     28  C   UNL A   1     -29.286  -0.160  28.669  0.00  0.00    +0.248 C 
ATOM     29  O   UNL A   1     -29.838  -0.095  27.465  0.00  0.00    -0.199 OA
ENDBRANCH  25  28
BRANCH  24  30
ATOM     30  C   UNL A   1     -24.855  -1.012  30.143  0.00  0.00    +0.120 C 
BRANCH  30  31
ATOM     31  C   UNL A   1     -24.973  -2.505  29.788  0.00  0.00    -0.003 C 
ATOM     32  C   UNL A   1     -23.906  -3.173  29.146  0.00  0.00    -0.003 C 
ATOM     33  C   UNL A   1     -23.989  -4.549  28.853  0.00  0.00    -0.000 C 
ATOM     34  C   UNL A   1     -25.137  -5.280  29.205  0.00  0.00    -0.000 C 
ATOM     35  C   UNL A   1     -26.232  -4.611  29.784  0.00  0.00    -0.000 C 
ATOM     36  C   UNL A   1     -26.155  -3.232  30.065  0.00  0.00    -0.003 C 
ENDBRANCH  30  31
BRANCH  30  37
ATOM     37  C   UNL A   1     -25.387  -0.679  31.571  0.00  0.00    +0.096 C 
ATOM     38  C   UNL A   1     -25.189   0.773  32.028  0.00  0.00    +0.021 C 
ATOM     39  C   UNL A   1     -25.336   0.684  33.544  0.00  0.00    +0.020 C 
ATOM     40  C   UNL A   1     -24.829  -0.715  33.905  0.00  0.00    +0.089 C 
ATOM     41  N   UNL A   1     -24.758  -1.481  32.646  0.00  0.00    -0.217 NA
ENDBRANCH  30  37
ENDBRANCH  24  30
ENDBRANCH   6  24
BRANCH   7  42
ATOM     42  O   UNL A   1     -22.680   2.115  25.675  0.00  0.00    -0.469 OA
ATOM     43  C   UNL A   1     -22.950   2.121  24.460  0.00  0.00    +0.253 C 
ENDBRANCH   7  42
TORSDOF 11
