REMARK  Name = outputs/IAG933/test6/raw/output_5476_IAG933_linker_design_.xyz
REMARK  11 active torsions:
REMARK  status: ('A' for Active; 'I' for Inactive)
REMARK    1  A    between atoms: C_1  and  C_2
REMARK    2  A    between atoms: C_1  and  C_8
REMARK    3  A    between atoms: C_1  and  N_41
REMARK    4  A    between atoms: C_13  and  N_29
REMARK    5  A    between atoms: C_14  and  C_15
REMARK    6  A    between atoms: C_21  and  O_22
REMARK    7  A    between atoms: O_22  and  C_23
REMARK    8  A    between atoms: C_23  and  C_24
REMARK    9  A    between atoms: C_30  and  C_37
REMARK   10  A    between atoms: C_32  and  O_35
REMARK   11  A    between atoms: C_37  and  C_39
REMARK                            x       y       z     vdW  Elec       q    Type
REMARK                         _______ _______ _______ _____ _____    ______ ____
ROOT
ATOM      1  N   UNL A   1     -25.215   1.061  27.438  0.00  0.00    -0.232 NA
ATOM      2  C   UNL A   1     -23.872   1.357  27.154  0.00  0.00    +0.083 C 
ATOM      3  C   UNL A   1     -22.931   1.063  28.044  0.00  0.00    +0.174 C 
ATOM      4  C   UNL A   1     -26.003   0.194  28.442  0.00  0.00    +0.248 C 
ATOM      5  C   UNL A   1     -23.616   0.621  29.281  0.00  0.00    +0.261 C 
ATOM      6  O   UNL A   1     -21.037   1.943  26.817  0.00  0.00    -0.250 OA
ATOM      7  N   UNL A   1     -22.486  -0.265  29.822  0.00  0.00    -0.133 NA
ATOM      8  N   UNL A   1     -24.768   0.040  29.165  0.00  0.00    -0.196 NA
ATOM      9  C   UNL A   1     -21.497   1.106  27.786  0.00  0.00    +0.325 C 
ATOM     10  C   UNL A   1     -21.401  -0.606  29.026  0.00  0.00    +0.305 C 
ATOM     11  O   UNL A   1     -20.686   0.248  28.352  0.00  0.00    -0.429 OA
ATOM     12  F   UNL A   1     -23.913   1.782  29.942  0.00  0.00    -0.204 F 
ENDROOT
BRANCH   1  13
ATOM     13  C   UNL A   1     -25.688   1.614  26.461  0.00  0.00    +0.131 C 
ATOM     14  C   UNL A   1     -26.250   2.920  26.395  0.00  0.00    +0.070 C 
ATOM     15  C   UNL A   1     -27.438   3.091  25.645  0.00  0.00    +0.103 C 
ATOM     16  N   UNL A   1     -28.075   2.089  25.003  0.00  0.00    -0.212 NA
ATOM     17  C   UNL A   1     -27.543   0.849  25.079  0.00  0.00    +0.235 C 
ATOM     18  C   UNL A   1     -26.354   0.576  25.777  0.00  0.00    +0.255 C 
ATOM     19  F   UNL A   1     -25.860  -0.681  25.795  0.00  0.00    -0.225 F 
BRANCH  14  20
ATOM     20  C   UNL A   1     -25.642   4.093  27.123  0.00  0.00    +0.264 C 
ATOM     21  N   UNL A   1     -25.614   5.252  26.449  0.00  0.00    -0.200 NA
ATOM     22  C   UNL A   1     -25.026   6.479  26.963  0.00  0.00    +0.139 C 
ATOM     23  O   UNL A   1     -25.143   3.966  28.243  0.00  0.00    -0.269 OA
ENDBRANCH  14  20
BRANCH  17  24
ATOM     24  O   UNL A   1     -28.193  -0.208  24.477  0.00  0.00    -0.459 OA
BRANCH  24  25
ATOM     25  C   UNL A   1     -29.460   0.005  23.866  0.00  0.00    +0.242 C 
BRANCH  25  26
ATOM     26  C   UNL A   1     -30.065  -1.377  23.573  0.00  0.00    +0.229 C 
ATOM     27  O   UNL A   1     -30.729  -1.878  24.721  0.00  0.00    -0.216 OA
ENDBRANCH  25  26
ENDBRANCH  24  25
ENDBRANCH  17  24
ENDBRANCH   1  13
BRANCH   4  29
ATOM     28  C   UNL A   1     -28.392  -0.207  28.118  0.00  0.00    +0.177 C 
ATOM     29  O   UNL A   1     -27.070   0.061  28.253  0.00  0.00    -0.325 OA
ENDBRANCH   4  29
BRANCH   8  30
ATOM     30  C   UNL A   1     -24.855  -1.012  30.143  0.00  0.00    +0.103 C 
BRANCH  30  31
ATOM     31  C   UNL A   1     -24.973  -2.505  29.788  0.00  0.00    -0.006 C 
ATOM     32  C   UNL A   1     -23.906  -3.173  29.146  0.00  0.00    -0.003 C 
ATOM     33  C   UNL A   1     -23.989  -4.549  28.853  0.00  0.00    -0.000 C 
ATOM     34  C   UNL A   1     -25.137  -5.280  29.205  0.00  0.00    -0.000 C 
ATOM     35  C   UNL A   1     -26.232  -4.611  29.784  0.00  0.00    -0.000 C 
ATOM     36  C   UNL A   1     -26.155  -3.232  30.065  0.00  0.00    -0.003 C 
ENDBRANCH  30  31
BRANCH  30  37
ATOM     37  C   UNL A   1     -25.387  -0.679  31.571  0.00  0.00    +0.092 C 
ATOM     38  C   UNL A   1     -25.189   0.773  32.028  0.00  0.00    +0.021 C 
ATOM     39  C   UNL A   1     -25.336   0.684  33.544  0.00  0.00    +0.020 C 
ATOM     40  C   UNL A   1     -24.829  -0.715  33.905  0.00  0.00    +0.089 C 
ATOM     41  N   UNL A   1     -24.758  -1.481  32.646  0.00  0.00    -0.218 NA
ENDBRANCH  30  37
ENDBRANCH   8  30
BRANCH   2  42
ATOM     42  C   UNL A   1     -23.337   2.333  26.296  0.00  0.00    +0.089 C 
BRANCH  42  45
ATOM     43  F   UNL A   1     -21.983   2.163  24.504  0.00  0.00    -0.198 F 
ATOM     44  F   UNL A   1     -23.747   0.933  24.573  0.00  0.00    -0.198 F 
ATOM     45  C   UNL A   1     -23.050   1.807  25.154  0.00  0.00    +0.320 C 
ENDBRANCH  42  45
ENDBRANCH   2  42
TORSDOF 11
