REMARK  Name = outputs/IAG933/test6/raw/output_548_IAG933_linker_design_.xyz
REMARK  9 active torsions:
REMARK  status: ('A' for Active; 'I' for Inactive)
REMARK    1  A    between atoms: C_1  and  C_2
REMARK    2  A    between atoms: C_1  and  C_8
REMARK    3  A    between atoms: C_1  and  N_31
REMARK    4  A    between atoms: C_13  and  N_37
REMARK    5  A    between atoms: C_14  and  C_15
REMARK    6  A    between atoms: C_21  and  O_22
REMARK    7  A    between atoms: O_22  and  C_23
REMARK    8  A    between atoms: C_23  and  C_24
REMARK    9  A    between atoms: C_35  and  N_37
REMARK                            x       y       z     vdW  Elec       q    Type
REMARK                         _______ _______ _______ _____ _____    ______ ____
ROOT
ATOM      1  O   UNL A   1     -25.332  -0.633  27.851  0.00  0.00    -0.267 OA
ATOM      2  F   UNL A   1     -21.259   1.895  27.241  0.00  0.00    -0.204 F 
ATOM      3  N   UNL A   1     -23.775  -0.375  29.534  0.00  0.00    -0.197 N 
ATOM      4  C   UNL A   1     -22.134   0.975  27.851  0.00  0.00    +0.172 C 
ATOM      5  N   UNL A   1     -22.513  -0.318  29.804  0.00  0.00    -0.102 NA
ATOM      6  C   UNL A   1     -21.670   0.172  28.846  0.00  0.00    +0.235 C 
ATOM      7  C   UNL A   1     -23.517   0.841  27.598  0.00  0.00    +0.144 C 
ATOM      8  C   UNL A   1     -24.233  -0.080  28.364  0.00  0.00    +0.280 C 
ATOM      9  N   UNL A   1     -20.357  -0.166  28.785  0.00  0.00    -0.104 NA
ENDROOT
BRANCH   7  11
ATOM     10 CL   UNL A   1     -23.346   2.551  25.423  0.00  0.00    +0.003 Cl
ATOM     11  N   UNL A   1     -24.280   1.540  26.654  0.00  0.00    -0.220 N 
BRANCH  11  12
ATOM     12  C   UNL A   1     -25.688   1.614  26.461  0.00  0.00    +0.159 C 
ATOM     13  C   UNL A   1     -26.250   2.920  26.395  0.00  0.00    +0.074 C 
ATOM     14  C   UNL A   1     -27.438   3.091  25.645  0.00  0.00    +0.104 C 
ATOM     15  N   UNL A   1     -28.075   2.089  25.003  0.00  0.00    -0.212 NA
ATOM     16  C   UNL A   1     -27.543   0.849  25.079  0.00  0.00    +0.236 C 
ATOM     17  C   UNL A   1     -26.354   0.576  25.777  0.00  0.00    +0.259 C 
ATOM     18  F   UNL A   1     -25.860  -0.681  25.795  0.00  0.00    -0.225 F 
BRANCH  13  19
ATOM     19  C   UNL A   1     -25.642   4.093  27.123  0.00  0.00    +0.264 C 
ATOM     20  N   UNL A   1     -25.614   5.252  26.449  0.00  0.00    -0.200 NA
ATOM     21  C   UNL A   1     -25.026   6.479  26.963  0.00  0.00    +0.139 C 
ATOM     22  O   UNL A   1     -25.143   3.966  28.243  0.00  0.00    -0.269 OA
ENDBRANCH  13  19
BRANCH  16  23
ATOM     23  O   UNL A   1     -28.193  -0.208  24.477  0.00  0.00    -0.459 OA
BRANCH  23  24
ATOM     24  C   UNL A   1     -29.460   0.005  23.866  0.00  0.00    +0.242 C 
BRANCH  24  25
ATOM     25  C   UNL A   1     -30.065  -1.377  23.573  0.00  0.00    +0.229 C 
ATOM     26  O   UNL A   1     -30.729  -1.878  24.721  0.00  0.00    -0.216 OA
ENDBRANCH  24  25
ENDBRANCH  23  24
ENDBRANCH  16  23
ENDBRANCH  11  12
ENDBRANCH   7  11
BRANCH   3  27
ATOM     27  C   UNL A   1     -24.855  -1.012  30.143  0.00  0.00    +0.132 C 
BRANCH  27  28
ATOM     28  C   UNL A   1     -24.973  -2.505  29.788  0.00  0.00    -0.001 C 
ATOM     29  C   UNL A   1     -23.906  -3.173  29.146  0.00  0.00    -0.003 C 
ATOM     30  C   UNL A   1     -23.989  -4.549  28.853  0.00  0.00    -0.000 C 
ATOM     31  C   UNL A   1     -25.137  -5.280  29.205  0.00  0.00    -0.000 C 
ATOM     32  C   UNL A   1     -26.232  -4.611  29.784  0.00  0.00    -0.000 C 
ATOM     33  C   UNL A   1     -26.155  -3.232  30.065  0.00  0.00    -0.003 C 
ENDBRANCH  27  28
BRANCH  27  34
ATOM     34  C   UNL A   1     -25.387  -0.679  31.571  0.00  0.00    +0.097 C 
ATOM     35  C   UNL A   1     -25.189   0.773  32.028  0.00  0.00    +0.021 C 
ATOM     36  C   UNL A   1     -25.336   0.684  33.544  0.00  0.00    +0.020 C 
ATOM     37  C   UNL A   1     -24.829  -0.715  33.905  0.00  0.00    +0.089 C 
ATOM     38  N   UNL A   1     -24.758  -1.481  32.646  0.00  0.00    -0.217 NA
ENDBRANCH  27  34
ENDBRANCH   3  27
TORSDOF 9
