REMARK  Name = outputs/IAG933/test6/raw/output_5480_IAG933_linker_design_.xyz
REMARK  17 active torsions:
REMARK  status: ('A' for Active; 'I' for Inactive)
REMARK    1  A    between atoms: C_1  and  C_2
REMARK    2  A    between atoms: C_1  and  C_8
REMARK    3  A    between atoms: C_1  and  C_31
REMARK    4  A    between atoms: C_13  and  C_43
REMARK    5  A    between atoms: C_14  and  C_15
REMARK    6  A    between atoms: C_21  and  O_22
REMARK    7  A    between atoms: O_22  and  C_23
REMARK    8  A    between atoms: C_23  and  C_24
REMARK    9  A    between atoms: C_28  and  C_34
REMARK   10  A    between atoms: C_28  and  O_40
REMARK   11  A    between atoms: C_29  and  O_40
REMARK   12  A    between atoms: C_29  and  C_42
REMARK   13  A    between atoms: C_31  and  N_33
REMARK   14  A    between atoms: C_31  and  N_36
REMARK   15  A    between atoms: C_34  and  N_36
REMARK   16  A    between atoms: C_42  and  O_46
REMARK   17  A    between atoms: O_46  and  C_48
REMARK                            x       y       z     vdW  Elec       q    Type
REMARK                         _______ _______ _______ _____ _____    ______ ____
ROOT
ATOM      1  C   UNL A   1     -25.032  -0.105  28.939  0.00  0.00    +0.138 C 
ENDROOT
BRANCH   1   2
ATOM      2  N   UNL A   1     -24.178   0.812  28.404  0.00  0.00    -0.257 NA
ATOM      3  C   UNL A   1     -22.226   1.486  27.479  0.00  0.00    +0.019 C 
ATOM      4  C   UNL A   1     -22.845   1.220  28.704  0.00  0.00    +0.074 C 
ATOM      5  C   UNL A   1     -23.203   1.558  26.442  0.00  0.00    +0.020 C 
ATOM      6  C   UNL A   1     -24.415   1.346  27.203  0.00  0.00    +0.084 C 
ATOM      7  C   UNL A   1     -23.185   1.625  24.805  0.00  0.00    +0.002 C 
BRANCH   6   8
ATOM      8  C   UNL A   1     -25.688   1.614  26.461  0.00  0.00    +0.030 C 
ATOM      9  C   UNL A   1     -26.250   2.920  26.395  0.00  0.00    +0.074 C 
ATOM     10  C   UNL A   1     -27.438   3.091  25.645  0.00  0.00    +0.106 C 
ATOM     11  N   UNL A   1     -28.075   2.089  25.003  0.00  0.00    -0.208 NA
ATOM     12  C   UNL A   1     -27.543   0.849  25.079  0.00  0.00    +0.253 C 
ATOM     13  C   UNL A   1     -26.354   0.576  25.777  0.00  0.00    +0.190 C 
ATOM     14  F   UNL A   1     -25.860  -0.681  25.795  0.00  0.00    -0.200 F 
BRANCH   9  15
ATOM     15  C   UNL A   1     -25.642   4.093  27.123  0.00  0.00    +0.266 C 
ATOM     16  N   UNL A   1     -25.614   5.252  26.449  0.00  0.00    -0.200 NA
ATOM     17  C   UNL A   1     -25.026   6.479  26.963  0.00  0.00    +0.139 C 
ATOM     18  O   UNL A   1     -25.143   3.966  28.243  0.00  0.00    -0.268 OA
ENDBRANCH   9  15
BRANCH  12  19
ATOM     19  O   UNL A   1     -28.193  -0.208  24.477  0.00  0.00    -0.456 OA
BRANCH  19  20
ATOM     20  C   UNL A   1     -29.460   0.005  23.866  0.00  0.00    +0.243 C 
BRANCH  20  21
ATOM     21  C   UNL A   1     -30.065  -1.377  23.573  0.00  0.00    +0.229 C 
ATOM     22  O   UNL A   1     -30.729  -1.878  24.721  0.00  0.00    -0.216 OA
ENDBRANCH  20  21
ENDBRANCH  19  20
ENDBRANCH  12  19
ENDBRANCH   6   8
ENDBRANCH   1   2
BRANCH   1  23
ATOM     23  C   UNL A   1     -24.855  -1.012  30.143  0.00  0.00    +0.070 C 
BRANCH  23  24
ATOM     24  C   UNL A   1     -24.973  -2.505  29.788  0.00  0.00    -0.018 C 
ATOM     25  C   UNL A   1     -23.906  -3.173  29.146  0.00  0.00    -0.004 C 
ATOM     26  C   UNL A   1     -23.989  -4.549  28.853  0.00  0.00    -0.000 C 
ATOM     27  C   UNL A   1     -25.137  -5.280  29.205  0.00  0.00    -0.000 C 
ATOM     28  C   UNL A   1     -26.232  -4.611  29.784  0.00  0.00    -0.000 C 
ATOM     29  C   UNL A   1     -26.155  -3.232  30.065  0.00  0.00    -0.004 C 
ENDBRANCH  23  24
BRANCH  23  30
ATOM     30  C   UNL A   1     -25.387  -0.679  31.571  0.00  0.00    +0.080 C 
ATOM     31  C   UNL A   1     -25.189   0.773  32.028  0.00  0.00    +0.019 C 
ATOM     32  C   UNL A   1     -25.336   0.684  33.544  0.00  0.00    +0.020 C 
ATOM     33  C   UNL A   1     -24.829  -0.715  33.905  0.00  0.00    +0.089 C 
ATOM     34  N   UNL A   1     -24.758  -1.481  32.646  0.00  0.00    -0.219 NA
ENDBRANCH  23  30
ENDBRANCH   1  23
BRANCH   1  35
ATOM     35  N   UNL A   1     -26.367  -0.363  28.371  0.00  0.00    -0.193 NA
BRANCH  35  36
ATOM     36  C   UNL A   1     -27.478  -0.872  28.911  0.00  0.00    +0.176 C 
BRANCH  36  37
ATOM     37  C   UNL A   1     -28.557  -0.283  29.317  0.00  0.00    +0.238 C 
ATOM     38  N   UNL A   1     -28.615   0.260  30.500  0.00  0.00    -0.111 NA
BRANCH  37  39
ATOM     39  O   UNL A   1     -29.761  -0.182  28.522  0.00  0.00    -0.453 OA
BRANCH  39  40
ATOM     40  C   UNL A   1     -30.906  -0.116  29.338  0.00  0.00    +0.270 C 
BRANCH  40  41
ATOM     41  C   UNL A   1     -31.213  -1.435  29.838  0.00  0.00    +0.160 C 
ATOM     42  C   UNL A   1     -30.297  -2.291  30.202  0.00  0.00    +0.039 C 
BRANCH  41  43
ATOM     43  O   UNL A   1     -32.059  -2.396  29.804  0.00  0.00    -0.479 OA
BRANCH  43  48
ATOM     44  C   UNL A   1     -33.635  -2.314  27.519  0.00  0.00    +0.159 C 
ATOM     45  C   UNL A   1     -34.291  -2.978  28.802  0.00  0.00    +0.076 C 
ATOM     46  O   UNL A   1     -32.611  -1.371  26.939  0.00  0.00    -0.223 OA
ATOM     47  C   UNL A   1     -34.065  -1.604  28.678  0.00  0.00    +0.076 C 
ATOM     48  C   UNL A   1     -33.469  -2.492  30.102  0.00  0.00    +0.171 C 
ENDBRANCH  43  48
ENDBRANCH  41  43
ENDBRANCH  40  41
ENDBRANCH  39  40
ENDBRANCH  37  39
ENDBRANCH  36  37
ENDBRANCH  35  36
ENDBRANCH   1  35
TORSDOF 17
