REMARK  Name = outputs/IAG933/test6/raw/output_5485_IAG933_linker_design_.xyz
REMARK  13 active torsions:
REMARK  status: ('A' for Active; 'I' for Inactive)
REMARK    1  A    between atoms: C_1  and  C_2
REMARK    2  A    between atoms: C_1  and  C_8
REMARK    3  A    between atoms: C_1  and  N_38
REMARK    4  A    between atoms: C_13  and  C_37
REMARK    5  A    between atoms: C_14  and  C_15
REMARK    6  A    between atoms: C_21  and  O_22
REMARK    7  A    between atoms: O_22  and  C_23
REMARK    8  A    between atoms: C_23  and  C_24
REMARK    9  A    between atoms: C_29  and  O_32
REMARK   10  A    between atoms: C_31  and  C_35
REMARK   11  A    between atoms: O_32  and  C_44
REMARK   12  A    between atoms: C_35  and  N_38
REMARK   13  A    between atoms: C_42  and  C_44
REMARK                            x       y       z     vdW  Elec       q    Type
REMARK                         _______ _______ _______ _____ _____    ______ ____
ROOT
ATOM      1  C   UNL A   1     -24.740   0.413  28.301  0.00  0.00    +0.125 C 
ENDROOT
BRANCH   1   3
ATOM      2 CL   UNL A   1     -23.430   1.492  24.334  0.00  0.00    -0.082 Cl
ATOM      3  C   UNL A   1     -23.871   0.775  28.120  0.00  0.00    +0.015 C 
ATOM      4  C   UNL A   1     -21.820   1.776  26.472  0.00  0.00    +0.013 C 
ATOM      5  C   UNL A   1     -24.297   1.290  26.981  0.00  0.00    +0.012 C 
ATOM      6  N   UNL A   1     -22.051  -0.008  29.772  0.00  0.00    -0.128 NA
ATOM      7  C   UNL A   1     -23.160   1.605  25.940  0.00  0.00    +0.058 C 
ATOM      8  C   UNL A   1     -21.456   1.331  27.790  0.00  0.00    +0.019 C 
ATOM      9  C   UNL A   1     -22.439   0.664  28.662  0.00  0.00    +0.087 C 
BRANCH   5  10
ATOM     10  C   UNL A   1     -25.688   1.614  26.461  0.00  0.00    +0.039 C 
ATOM     11  C   UNL A   1     -26.250   2.920  26.395  0.00  0.00    +0.077 C 
ATOM     12  C   UNL A   1     -27.438   3.091  25.645  0.00  0.00    +0.107 C 
ATOM     13  N   UNL A   1     -28.075   2.089  25.003  0.00  0.00    -0.208 NA
ATOM     14  C   UNL A   1     -27.543   0.849  25.079  0.00  0.00    +0.253 C 
ATOM     15  C   UNL A   1     -26.354   0.576  25.777  0.00  0.00    +0.193 C 
ATOM     16  F   UNL A   1     -25.860  -0.681  25.795  0.00  0.00    -0.199 F 
BRANCH  11  17
ATOM     17  C   UNL A   1     -25.642   4.093  27.123  0.00  0.00    +0.266 C 
ATOM     18  N   UNL A   1     -25.614   5.252  26.449  0.00  0.00    -0.200 NA
ATOM     19  C   UNL A   1     -25.026   6.479  26.963  0.00  0.00    +0.139 C 
ATOM     20  O   UNL A   1     -25.143   3.966  28.243  0.00  0.00    -0.268 OA
ENDBRANCH  11  17
BRANCH  14  21
ATOM     21  O   UNL A   1     -28.193  -0.208  24.477  0.00  0.00    -0.456 OA
BRANCH  21  22
ATOM     22  C   UNL A   1     -29.460   0.005  23.866  0.00  0.00    +0.243 C 
BRANCH  22  23
ATOM     23  C   UNL A   1     -30.065  -1.377  23.573  0.00  0.00    +0.229 C 
ATOM     24  O   UNL A   1     -30.729  -1.878  24.721  0.00  0.00    -0.216 OA
ENDBRANCH  22  23
ENDBRANCH  21  22
ENDBRANCH  14  21
ENDBRANCH   5  10
ENDBRANCH   1   3
BRANCH   1  26
ATOM     25  C   UNL A   1     -26.960   0.058  29.209  0.00  0.00    +0.405 C 
ATOM     26  N   UNL A   1     -25.528  -0.146  29.235  0.00  0.00    -0.238 N 
ATOM     27  O   UNL A   1     -27.174   1.389  29.138  0.00  0.00    -0.226 OA
BRANCH  26  28
ATOM     28  C   UNL A   1     -24.855  -1.012  30.143  0.00  0.00    +0.117 C 
BRANCH  28  29
ATOM     29  C   UNL A   1     -24.973  -2.505  29.788  0.00  0.00    -0.003 C 
ATOM     30  C   UNL A   1     -23.906  -3.173  29.146  0.00  0.00    -0.003 C 
ATOM     31  C   UNL A   1     -23.989  -4.549  28.853  0.00  0.00    -0.000 C 
ATOM     32  C   UNL A   1     -25.137  -5.280  29.205  0.00  0.00    -0.000 C 
ATOM     33  C   UNL A   1     -26.232  -4.611  29.784  0.00  0.00    -0.000 C 
ATOM     34  C   UNL A   1     -26.155  -3.232  30.065  0.00  0.00    -0.003 C 
ENDBRANCH  28  29
BRANCH  28  35
ATOM     35  C   UNL A   1     -25.387  -0.679  31.571  0.00  0.00    +0.095 C 
ATOM     36  C   UNL A   1     -25.189   0.773  32.028  0.00  0.00    +0.021 C 
ATOM     37  C   UNL A   1     -25.336   0.684  33.544  0.00  0.00    +0.020 C 
ATOM     38  C   UNL A   1     -24.829  -0.715  33.905  0.00  0.00    +0.089 C 
ATOM     39  N   UNL A   1     -24.758  -1.481  32.646  0.00  0.00    -0.217 NA
ENDBRANCH  28  35
ENDBRANCH  26  28
BRANCH  25  40
ATOM     40  O   UNL A   1     -27.832  -0.779  29.543  0.00  0.00    -0.434 OA
BRANCH  40  41
ATOM     41  C   UNL A   1     -29.113  -0.610  30.101  0.00  0.00    +0.212 C 
BRANCH  41  46
ATOM     42  C   UNL A   1     -31.503  -1.228  27.883  0.00  0.00    +0.032 C 
ATOM     43  C   UNL A   1     -31.977  -1.727  29.210  0.00  0.00    +0.142 C 
ATOM     44  C   UNL A   1     -30.162  -0.456  27.966  0.00  0.00    +0.009 C 
ATOM     45  O   UNL A   1     -31.955  -0.828  30.244  0.00  0.00    -0.354 OA
ATOM     46  C   UNL A   1     -29.972   0.296  29.285  0.00  0.00    +0.074 C 
ATOM     47  C   UNL A   1     -31.309   0.471  29.973  0.00  0.00    +0.146 C 
ENDBRANCH  41  46
ENDBRANCH  40  41
ENDBRANCH  25  40
ENDBRANCH   1  26
TORSDOF 13
