REMARK  Name = outputs/IAG933/test6/raw/output_5488_IAG933_linker_design_.xyz
REMARK  10 active torsions:
REMARK  status: ('A' for Active; 'I' for Inactive)
REMARK    1  A    between atoms: C_1  and  C_2
REMARK    2  A    between atoms: C_1  and  C_8
REMARK    3  A    between atoms: C_1  and  C_32
REMARK    4  A    between atoms: C_13  and  C_28
REMARK    5  A    between atoms: C_14  and  C_15
REMARK    6  A    between atoms: C_21  and  O_22
REMARK    7  A    between atoms: O_22  and  C_23
REMARK    8  A    between atoms: C_23  and  C_24
REMARK    9  A    between atoms: C_32  and  N_34
REMARK   10  A    between atoms: C_32  and  C_41
REMARK                            x       y       z     vdW  Elec       q    Type
REMARK                         _______ _______ _______ _____ _____    ______ ____
ROOT
ATOM      1  C   UNL A   1     -24.976   0.155  29.101  0.00  0.00    +0.103 C 
ENDROOT
BRANCH   1   6
ATOM      2  C   UNL A   1     -29.311   2.225  28.424  0.00  0.00    +0.102 C 
ATOM      3  O   UNL A   1     -27.658  -0.396  28.764  0.00  0.00    -0.250 OA
ATOM      4  C   UNL A   1     -27.891   2.733  30.348  0.00  0.00    +0.233 C 
ATOM      5  C   UNL A   1     -28.976   3.443  31.136  0.00  0.00    +0.086 C 
ATOM      6  N   UNL A   1     -26.066   1.170  29.194  0.00  0.00    -0.190 NA
ATOM      7  C   UNL A   1     -30.038   3.463  28.907  0.00  0.00    +0.022 C 
ATOM      8  C   UNL A   1     -27.337   0.755  29.058  0.00  0.00    +0.329 C 
ATOM      9  N   UNL A   1     -28.232   1.768  29.314  0.00  0.00    -0.213 N 
ATOM     10  C   UNL A   1     -30.192   3.522  30.326  0.00  0.00    +0.011 C 
ATOM     11  O   UNL A   1     -26.706   3.291  30.327  0.00  0.00    -0.274 OA
ENDBRANCH   1   6
BRANCH   1  15
ATOM     12  C   UNL A   1     -24.365   1.276  26.908  0.00  0.00    +0.038 C 
ATOM     13  C   UNL A   1     -23.218   1.902  26.317  0.00  0.00    +0.062 C 
ATOM     14  S   UNL A   1     -21.877   1.612  27.442  0.00  0.00    -0.140 S 
ATOM     15  C   UNL A   1     -24.088   0.498  27.942  0.00  0.00    +0.036 C 
ATOM     16  C   UNL A   1     -22.549   0.268  28.210  0.00  0.00    +0.060 C 
BRANCH  12  17
ATOM     17  C   UNL A   1     -25.688   1.614  26.461  0.00  0.00    +0.017 C 
ATOM     18  C   UNL A   1     -26.250   2.920  26.395  0.00  0.00    +0.073 C 
ATOM     19  C   UNL A   1     -27.438   3.091  25.645  0.00  0.00    +0.106 C 
ATOM     20  N   UNL A   1     -28.075   2.089  25.003  0.00  0.00    -0.208 NA
ATOM     21  C   UNL A   1     -27.543   0.849  25.079  0.00  0.00    +0.253 C 
ATOM     22  C   UNL A   1     -26.354   0.576  25.777  0.00  0.00    +0.189 C 
ATOM     23  F   UNL A   1     -25.860  -0.681  25.795  0.00  0.00    -0.200 F 
BRANCH  18  24
ATOM     24  C   UNL A   1     -25.642   4.093  27.123  0.00  0.00    +0.266 C 
ATOM     25  N   UNL A   1     -25.614   5.252  26.449  0.00  0.00    -0.200 NA
ATOM     26  C   UNL A   1     -25.026   6.479  26.963  0.00  0.00    +0.139 C 
ATOM     27  O   UNL A   1     -25.143   3.966  28.243  0.00  0.00    -0.268 OA
ENDBRANCH  18  24
BRANCH  21  28
ATOM     28  O   UNL A   1     -28.193  -0.208  24.477  0.00  0.00    -0.456 OA
BRANCH  28  29
ATOM     29  C   UNL A   1     -29.460   0.005  23.866  0.00  0.00    +0.243 C 
BRANCH  29  30
ATOM     30  C   UNL A   1     -30.065  -1.377  23.573  0.00  0.00    +0.229 C 
ATOM     31  O   UNL A   1     -30.729  -1.878  24.721  0.00  0.00    -0.216 OA
ENDBRANCH  29  30
ENDBRANCH  28  29
ENDBRANCH  21  28
ENDBRANCH  12  17
ENDBRANCH   1  15
BRANCH   1  32
ATOM     32  C   UNL A   1     -24.855  -1.012  30.143  0.00  0.00    +0.058 C 
BRANCH  32  33
ATOM     33  C   UNL A   1     -24.973  -2.505  29.788  0.00  0.00    -0.019 C 
ATOM     34  C   UNL A   1     -23.906  -3.173  29.146  0.00  0.00    -0.004 C 
ATOM     35  C   UNL A   1     -23.989  -4.549  28.853  0.00  0.00    -0.000 C 
ATOM     36  C   UNL A   1     -25.137  -5.280  29.205  0.00  0.00    -0.000 C 
ATOM     37  C   UNL A   1     -26.232  -4.611  29.784  0.00  0.00    -0.000 C 
ATOM     38  C   UNL A   1     -26.155  -3.232  30.065  0.00  0.00    -0.004 C 
ENDBRANCH  32  33
BRANCH  32  39
ATOM     39  C   UNL A   1     -25.387  -0.679  31.571  0.00  0.00    +0.079 C 
ATOM     40  C   UNL A   1     -25.189   0.773  32.028  0.00  0.00    +0.019 C 
ATOM     41  C   UNL A   1     -25.336   0.684  33.544  0.00  0.00    +0.020 C 
ATOM     42  C   UNL A   1     -24.829  -0.715  33.905  0.00  0.00    +0.089 C 
ATOM     43  N   UNL A   1     -24.758  -1.481  32.646  0.00  0.00    -0.219 NA
ENDBRANCH  32  39
ENDBRANCH   1  32
TORSDOF 10
