REMARK  Name = No_549-gen_results/8p0m/2024-11-27-11-27-31/
REMARK  1 active torsions:
REMARK  status: ('A' for Active; 'I' for Inactive)
REMARK    1  A    between atoms: C_2  and  C_7
REMARK                            x       y       z     vdW  Elec       q    Type
REMARK                         _______ _______ _______ _____ _____    ______ ____
ROOT
ATOM      1  C   UNL A   1     -28.016  -0.814  28.878  0.00  0.00    +0.009 A 
ATOM      2  C   UNL A   1     -28.469  -0.785  29.829  0.00  0.00    +0.054 A 
ATOM      3  C   UNL A   1     -26.546  -0.876  28.850  0.00  0.00    +0.035 A 
ATOM      4  C   UNL A   1     -25.804  -1.032  30.057  0.00  0.00    +0.007 A 
ATOM      5  C   UNL A   1     -27.944  -0.987  31.207  0.00  0.00    +0.002 A 
ATOM      6  C   UNL A   1     -26.582  -1.039  31.223  0.00  0.00    +0.000 A 
ATOM      7 BR   UNL A   1     -25.451  -0.777  27.300  0.00  0.00    -0.049 Br
ENDROOT
BRANCH   2   8
ATOM      8  C   UNL A   1     -30.061  -0.737  29.902  0.00  0.00    +0.350 C 
ATOM      9 CL   UNL A   1     -30.838   0.363  30.604  0.00  0.00    -0.042 Cl
ATOM     10  F   UNL A   1     -30.391  -0.709  28.545  0.00  0.00    -0.182 F 
ATOM     11  F   UNL A   1     -30.467  -1.986  30.318  0.00  0.00    -0.182 F 
ENDBRANCH   2   8
TORSDOF 1
