REMARK  Name = outputs/IAG933/test6/raw/output_5490_IAG933_linker_design_.xyz
REMARK  16 active torsions:
REMARK  status: ('A' for Active; 'I' for Inactive)
REMARK    1  A    between atoms: C_1  and  C_2
REMARK    2  A    between atoms: C_1  and  C_8
REMARK    3  A    between atoms: C_1  and  O_32
REMARK    4  A    between atoms: C_13  and  C_31
REMARK    5  A    between atoms: C_14  and  C_15
REMARK    6  A    between atoms: C_21  and  O_22
REMARK    7  A    between atoms: O_22  and  C_23
REMARK    8  A    between atoms: C_23  and  C_24
REMARK    9  A    between atoms: C_29  and  C_31
REMARK   10  A    between atoms: C_29  and  O_32
REMARK   11  A    between atoms: C_29  and  C_44
REMARK   12  A    between atoms: C_30  and  C_39
REMARK   13  A    between atoms: C_30  and  C_44
REMARK   14  A    between atoms: C_31  and  C_46
REMARK   15  A    between atoms: O_34  and  S_38
REMARK   16  A    between atoms: C_36  and  S_38
REMARK                            x       y       z     vdW  Elec       q    Type
REMARK                         _______ _______ _______ _____ _____    ______ ____
ROOT
ATOM      1  C   UNL A   1     -24.617   0.277  28.001  0.00  0.00    +0.120 C 
ENDROOT
BRANCH   1   2
ATOM      2  C   UNL A   1     -24.223   1.237  26.943  0.00  0.00    +0.052 C 
BRANCH   2   3
ATOM      3  C   UNL A   1     -25.688   1.614  26.461  0.00  0.00    +0.018 C 
ATOM      4  C   UNL A   1     -26.250   2.920  26.395  0.00  0.00    +0.073 C 
ATOM      5  C   UNL A   1     -27.438   3.091  25.645  0.00  0.00    +0.106 C 
ATOM      6  N   UNL A   1     -28.075   2.089  25.003  0.00  0.00    -0.208 NA
ATOM      7  C   UNL A   1     -27.543   0.849  25.079  0.00  0.00    +0.253 C 
ATOM      8  C   UNL A   1     -26.354   0.576  25.777  0.00  0.00    +0.189 C 
ATOM      9  F   UNL A   1     -25.860  -0.681  25.795  0.00  0.00    -0.200 F 
BRANCH   4  10
ATOM     10  C   UNL A   1     -25.642   4.093  27.123  0.00  0.00    +0.266 C 
ATOM     11  N   UNL A   1     -25.614   5.252  26.449  0.00  0.00    -0.200 NA
ATOM     12  C   UNL A   1     -25.026   6.479  26.963  0.00  0.00    +0.139 C 
ATOM     13  O   UNL A   1     -25.143   3.966  28.243  0.00  0.00    -0.268 OA
ENDBRANCH   4  10
BRANCH   7  14
ATOM     14  O   UNL A   1     -28.193  -0.208  24.477  0.00  0.00    -0.456 OA
BRANCH  14  15
ATOM     15  C   UNL A   1     -29.460   0.005  23.866  0.00  0.00    +0.243 C 
BRANCH  15  16
ATOM     16  C   UNL A   1     -30.065  -1.377  23.573  0.00  0.00    +0.229 C 
ATOM     17  O   UNL A   1     -30.729  -1.878  24.721  0.00  0.00    -0.216 OA
ENDBRANCH  15  16
ENDBRANCH  14  15
ENDBRANCH   7  14
ENDBRANCH   2   3
BRANCH   2  20
ATOM     18  C   UNL A   1     -21.878   1.300  28.251  0.00  0.00    +0.000 C 
ATOM     19  C   UNL A   1     -22.028   2.398  25.977  0.00  0.00    +0.000 C 
ATOM     20  C   UNL A   1     -22.595   1.275  26.891  0.00  0.00    +0.006 C 
ENDBRANCH   2  20
ENDBRANCH   1   2
BRANCH   1  21
ATOM     21  O   UNL A   1     -24.459   0.075  29.340  0.00  0.00    -0.353 OA
BRANCH  21  22
ATOM     22  C   UNL A   1     -24.855  -1.012  30.143  0.00  0.00    +0.153 C 
BRANCH  22  23
ATOM     23  C   UNL A   1     -24.973  -2.505  29.788  0.00  0.00    +0.006 C 
ATOM     24  C   UNL A   1     -23.906  -3.173  29.146  0.00  0.00    -0.002 C 
ATOM     25  C   UNL A   1     -23.989  -4.549  28.853  0.00  0.00    -0.000 C 
ATOM     26  C   UNL A   1     -25.137  -5.280  29.205  0.00  0.00    -0.000 C 
ATOM     27  C   UNL A   1     -26.232  -4.611  29.784  0.00  0.00    -0.000 C 
ATOM     28  C   UNL A   1     -26.155  -3.232  30.065  0.00  0.00    -0.002 C 
ENDBRANCH  22  23
BRANCH  22  29
ATOM     29  C   UNL A   1     -25.387  -0.679  31.571  0.00  0.00    +0.104 C 
ATOM     30  C   UNL A   1     -25.189   0.773  32.028  0.00  0.00    +0.022 C 
ATOM     31  C   UNL A   1     -25.336   0.684  33.544  0.00  0.00    +0.020 C 
ATOM     32  C   UNL A   1     -24.829  -0.715  33.905  0.00  0.00    +0.089 C 
ATOM     33  N   UNL A   1     -24.758  -1.481  32.646  0.00  0.00    -0.217 NA
ENDBRANCH  22  29
ENDBRANCH  21  22
ENDBRANCH   1  21
BRANCH   1  34
ATOM     34  C   UNL A   1     -25.716   0.677  28.792  0.00  0.00    +0.035 C 
BRANCH  34  35
ATOM     35  C   UNL A   1     -26.951  -0.149  29.045  0.00  0.00    +0.032 C 
BRANCH  35  38
ATOM     36  C   UNL A   1     -28.125   1.771  30.197  0.00  0.00    -0.001 C 
ATOM     37  C   UNL A   1     -30.193   2.779  29.567  0.00  0.00    +0.061 C 
ATOM     38  C   UNL A   1     -28.272   0.803  29.144  0.00  0.00    +0.017 C 
ATOM     39  C   UNL A   1     -29.405   0.814  28.304  0.00  0.00    +0.192 C 
ATOM     40  O   UNL A   1     -29.561  -0.227  27.525  0.00  0.00    -0.287 OA
ATOM     41  C   UNL A   1     -29.087   2.719  30.403  0.00  0.00    +0.009 C 
ATOM     42  C   UNL A   1     -30.360   1.869  28.479  0.00  0.00    +0.051 C 
BRANCH  37  44
ATOM     43  C   UNL A   1     -32.849   4.184  30.271  0.00  0.00    +0.113 C 
ATOM     44  S   UNL A   1     -31.128   4.244  30.068  0.00  0.00    +0.048 S 
ATOM     45  O   UNL A   1     -30.684   5.325  29.109  0.00  0.00    -0.141 OA
BRANCH  44  47
ATOM     46  C   UNL A   1     -31.985   4.985  32.762  0.00  0.00    +0.192 C 
ATOM     47  O   UNL A   1     -30.997   4.459  31.805  0.00  0.00    -0.288 OA
ENDBRANCH  44  47
ENDBRANCH  37  44
ENDBRANCH  35  38
ENDBRANCH  34  35
ENDBRANCH   1  34
TORSDOF 16
