REMARK  Name = outputs/IAG933/test6/raw/output_5495_IAG933_linker_design_.xyz
REMARK  14 active torsions:
REMARK  status: ('A' for Active; 'I' for Inactive)
REMARK    1  A    between atoms: C_1  and  C_2
REMARK    2  A    between atoms: C_1  and  C_8
REMARK    3  A    between atoms: C_1  and  N_33
REMARK    4  A    between atoms: C_13  and  C_44
REMARK    5  A    between atoms: C_14  and  C_15
REMARK    6  A    between atoms: C_21  and  O_22
REMARK    7  A    between atoms: O_22  and  C_23
REMARK    8  A    between atoms: C_23  and  C_24
REMARK    9  A    between atoms: C_29  and  C_37
REMARK   10  A    between atoms: C_29  and  C_43
REMARK   11  A    between atoms: C_30  and  C_42
REMARK   12  A    between atoms: O_31  and  N_33
REMARK   13  A    between atoms: O_31  and  C_38
REMARK   14  A    between atoms: C_38  and  C_43
REMARK                            x       y       z     vdW  Elec       q    Type
REMARK                         _______ _______ _______ _____ _____    ______ ____
ROOT
ATOM      1  C   UNL A   1     -23.442   0.452  28.928  0.00  0.00    +0.275 C 
ATOM      2  N   UNL A   1     -24.690   0.005  29.134  0.00  0.00    -0.160 N 
ATOM      3  O   UNL A   1     -22.486   0.351  29.752  0.00  0.00    -0.268 OA
ENDROOT
BRANCH   1   8
ATOM      4  C   UNL A   1     -21.948   1.413  27.303  0.00  0.00    +0.351 C 
ATOM      5  F   UNL A   1     -20.799   1.108  27.909  0.00  0.00    -0.194 F 
ATOM      6  O   UNL A   1     -23.356   2.312  25.833  0.00  0.00    -0.335 OA
ATOM      7  O   UNL A   1     -22.067   2.133  26.108  0.00  0.00    -0.134 OA
ATOM      8  C   UNL A   1     -23.263   1.082  27.693  0.00  0.00    +0.132 C 
ATOM      9  C   UNL A   1     -24.165   1.632  26.700  0.00  0.00    +0.173 C 
BRANCH   9  10
ATOM     10  C   UNL A   1     -25.688   1.614  26.461  0.00  0.00    +0.131 C 
ATOM     11  C   UNL A   1     -26.250   2.920  26.395  0.00  0.00    +0.062 C 
ATOM     12  C   UNL A   1     -27.438   3.091  25.645  0.00  0.00    +0.103 C 
ATOM     13  N   UNL A   1     -28.075   2.089  25.003  0.00  0.00    -0.212 NA
ATOM     14  C   UNL A   1     -27.543   0.849  25.079  0.00  0.00    +0.234 C 
ATOM     15  C   UNL A   1     -26.354   0.576  25.777  0.00  0.00    +0.247 C 
ATOM     16  F   UNL A   1     -25.860  -0.681  25.795  0.00  0.00    -0.226 F 
BRANCH  11  17
ATOM     17  C   UNL A   1     -25.642   4.093  27.123  0.00  0.00    +0.263 C 
ATOM     18  N   UNL A   1     -25.614   5.252  26.449  0.00  0.00    -0.200 NA
ATOM     19  C   UNL A   1     -25.026   6.479  26.963  0.00  0.00    +0.139 C 
ATOM     20  O   UNL A   1     -25.143   3.966  28.243  0.00  0.00    -0.269 OA
ENDBRANCH  11  17
BRANCH  14  21
ATOM     21  O   UNL A   1     -28.193  -0.208  24.477  0.00  0.00    -0.459 OA
BRANCH  21  22
ATOM     22  C   UNL A   1     -29.460   0.005  23.866  0.00  0.00    +0.242 C 
BRANCH  22  23
ATOM     23  C   UNL A   1     -30.065  -1.377  23.573  0.00  0.00    +0.229 C 
ATOM     24  O   UNL A   1     -30.729  -1.878  24.721  0.00  0.00    -0.216 OA
ENDBRANCH  22  23
ENDBRANCH  21  22
ENDBRANCH  14  21
ENDBRANCH   9  10
ENDBRANCH   1   8
BRANCH   2  25
ATOM     25  C   UNL A   1     -24.855  -1.012  30.143  0.00  0.00    +0.142 C 
BRANCH  25  26
ATOM     26  C   UNL A   1     -24.973  -2.505  29.788  0.00  0.00    -0.001 C 
ATOM     27  C   UNL A   1     -23.906  -3.173  29.146  0.00  0.00    -0.003 C 
ATOM     28  C   UNL A   1     -23.989  -4.549  28.853  0.00  0.00    -0.000 C 
ATOM     29  C   UNL A   1     -25.137  -5.280  29.205  0.00  0.00    -0.000 C 
ATOM     30  C   UNL A   1     -26.232  -4.611  29.784  0.00  0.00    -0.000 C 
ATOM     31  C   UNL A   1     -26.155  -3.232  30.065  0.00  0.00    -0.003 C 
ENDBRANCH  25  26
BRANCH  25  32
ATOM     32  C   UNL A   1     -25.387  -0.679  31.571  0.00  0.00    +0.098 C 
ATOM     33  C   UNL A   1     -25.189   0.773  32.028  0.00  0.00    +0.021 C 
ATOM     34  C   UNL A   1     -25.336   0.684  33.544  0.00  0.00    +0.020 C 
ATOM     35  C   UNL A   1     -24.829  -0.715  33.905  0.00  0.00    +0.089 C 
ATOM     36  N   UNL A   1     -24.758  -1.481  32.646  0.00  0.00    -0.217 NA
ENDBRANCH  25  32
ENDBRANCH   2  25
BRANCH   2  37
ATOM     37  O   UNL A   1     -25.749  -0.157  28.239  0.00  0.00    -0.255 OA
BRANCH  37  38
ATOM     38  C   UNL A   1     -27.187  -0.235  28.736  0.00  0.00    +0.235 C 
BRANCH  38  40
ATOM     39  O   UNL A   1     -28.421   1.200  30.211  0.00  0.00    -0.293 OA
ATOM     40  C   UNL A   1     -28.260   0.096  29.800  0.00  0.00    +0.183 C 
BRANCH  40  41
ATOM     41  C   UNL A   1     -29.148  -1.103  30.180  0.00  0.00    +0.067 C 
BRANCH  41  43
ATOM     42  C   UNL A   1     -31.254  -2.170  29.133  0.00  0.00    +0.000 C 
ATOM     43  C   UNL A   1     -30.402  -0.875  29.217  0.00  0.00    +0.007 C 
ATOM     44  C   UNL A   1     -30.104  -0.031  27.942  0.00  0.00    +0.000 C 
ENDBRANCH  41  43
ENDBRANCH  40  41
ENDBRANCH  38  40
ENDBRANCH  37  38
ENDBRANCH   2  37
TORSDOF 14
