MODEL 549
MODEL 1
REMARK VINA RESULT:    -5.298      0.000      0.000
REMARK INTER + INTRA:          -5.740
REMARK INTER:                  -5.608
REMARK INTRA:                  -0.133
REMARK UNBOUND:                -0.133
REMARK  Name = No_549-gen_results/8p0m/2024-11-27-11-27-31/
REMARK  1 active torsions:
REMARK  status: ('A' for Active; 'I' for Inactive)
REMARK    1  A    between atoms: C_2  and  C_7
REMARK                            x       y       z     vdW  Elec       q    Type
REMARK                         _______ _______ _______ _____ _____    ______ ____
ROOT
ATOM      1  C   UNL A   1     -25.697  -2.680  29.535  0.00  0.00    +0.009 A 
ATOM      2  C   UNL A   1     -24.776  -2.666  29.023  0.00  0.00    +0.054 A 
ATOM      3  C   UNL A   1     -26.320  -3.998  29.735  0.00  0.00    +0.035 A 
ATOM      4  C   UNL A   1     -25.626  -5.190  29.374  0.00  0.00    +0.007 A 
ATOM      5  C   UNL A   1     -23.835  -3.740  28.603  0.00  0.00    +0.002 A 
ATOM      6  C   UNL A   1     -24.381  -4.978  28.765  0.00  0.00    +0.000 A 
ATOM      7 BR   UNL A   1     -28.041  -4.323  30.472  0.00  0.00    -0.049 Br
ENDROOT
BRANCH   2   8
ATOM      8  C   UNL A   1     -24.060  -1.259  28.803  0.00  0.00    +0.350 C 
ATOM      9 CL   UNL A   1     -24.408  -0.305  27.673  0.00  0.00    -0.042 Cl
ATOM     10  F   UNL A   1     -24.340  -0.623  30.015  0.00  0.00    -0.182 F 
ATOM     11  F   UNL A   1     -22.705  -1.501  28.860  0.00  0.00    -0.182 F 
ENDBRANCH   2   8
TORSDOF 1
ENDMDL
ENDMDL
