REMARK  Name = No_55-gen_results/8p0m/2024-11-27-11-27-31/
REMARK  4 active torsions:
REMARK  status: ('A' for Active; 'I' for Inactive)
REMARK    1  A    between atoms: C_3  and  C_7
REMARK    2  A    between atoms: C_8  and  C_10
REMARK    3  A    between atoms: C_13  and  C_26
REMARK    4  A    between atoms: C_26  and  C_27
REMARK                            x       y       z     vdW  Elec       q    Type
REMARK                         _______ _______ _______ _____ _____    ______ ____
ROOT
ATOM      1  C   UNL A   1     -28.170   1.432  26.285  0.00  0.00    -0.018 A 
ATOM      2  C   UNL A   1     -28.848   1.756  27.186  0.00  0.00    -0.004 A 
ATOM      3  C   UNL A   1     -30.220   2.380  26.955  0.00  0.00    +0.003 A 
ATOM      4  C   UNL A   1     -31.075   2.735  27.994  0.00  0.00    +0.039 A 
ATOM      5  C   UNL A   1     -32.295   3.144  27.777  0.00  0.00    +0.003 A 
ATOM      6  C   UNL A   1     -32.714   3.302  26.432  0.00  0.00    +0.000 A 
ATOM      7  C   UNL A   1     -31.916   3.002  25.392  0.00  0.00    +0.000 A 
ATOM      8  C   UNL A   1     -30.678   2.526  25.654  0.00  0.00    +0.000 A 
ATOM      9  C   UNL A   1     -28.960   1.089  25.037  0.00  0.00    -0.004 A 
ATOM     10  C   UNL A   1     -29.907   1.415  24.854  0.00  0.00    -0.000 A 
ENDROOT
BRANCH   1  12
ATOM     11  C   UNL A   1     -26.317   0.399  27.365  0.00  0.00    +0.052 C 
ATOM     12  C   UNL A   1     -26.881   0.971  26.372  0.00  0.00    +0.052 C 
ATOM     13  C   UNL A   1     -25.009  -0.057  27.383  0.00  0.00    -0.023 C 
ATOM     14  C   UNL A   1     -25.989   1.316  25.213  0.00  0.00    -0.023 C 
ATOM     15  C   UNL A   1     -23.950   0.849  27.289  0.00  0.00    +0.009 C 
ATOM     16  C   UNL A   1     -23.690   1.663  26.075  0.00  0.00    +0.204 C 
ATOM     17  C   UNL A   1     -24.515   1.963  25.245  0.00  0.00    +0.009 C 
ATOM     18  F   UNL A   1     -22.544   2.229  26.053  0.00  0.00    -0.228 F 
BRANCH  11  21
ATOM     19  C   UNL A   1     -28.016  -0.814  28.878  0.00  0.00    +0.007 A 
ATOM     20  C   UNL A   1     -28.469  -0.785  29.829  0.00  0.00    +0.057 A 
ATOM     21  C   UNL A   1     -27.087   0.290  28.638  0.00  0.00    -0.017 A 
ATOM     22  C   UNL A   1     -26.832   1.249  29.587  0.00  0.00    -0.004 A 
ATOM     23  C   UNL A   1     -28.391   0.080  31.006  0.00  0.00    +0.011 A 
ATOM     24  C   UNL A   1     -27.494   1.152  30.784  0.00  0.00    +0.001 A 
ATOM     25 CL   UNL A   1     -29.644  -2.134  30.251  0.00  0.00    -0.082 Cl
ENDBRANCH  11  21
ENDBRANCH   1  12
BRANCH   4  26
ATOM     26  C   UNL A   1     -30.609   2.629  29.446  0.00  0.00    +0.196 C 
ATOM     27  O   UNL A   1     -30.988   1.579  30.113  0.00  0.00    -0.287 OA
BRANCH  26  28
ATOM     28  C   UNL A   1     -29.962   3.732  30.079  0.00  0.00    +0.039 A 
ATOM     29  C   UNL A   1     -29.068   4.464  29.518  0.00  0.00    +0.003 A 
ATOM     30  C   UNL A   1     -28.438   5.527  30.181  0.00  0.00    +0.000 A 
ATOM     31  C   UNL A   1     -30.224   3.952  31.506  0.00  0.00    +0.003 A 
ATOM     32  C   UNL A   1     -29.616   4.992  32.190  0.00  0.00    +0.000 A 
ATOM     33  C   UNL A   1     -28.697   5.792  31.538  0.00  0.00    +0.000 A 
ENDBRANCH  26  28
ENDBRANCH   4  26
TORSDOF 4
