REMARK  Name = outputs/IAG933/test6/raw/output_5501_IAG933_linker_design_.xyz
REMARK  13 active torsions:
REMARK  status: ('A' for Active; 'I' for Inactive)
REMARK    1  A    between atoms: C_1  and  C_2
REMARK    2  A    between atoms: C_1  and  C_8
REMARK    3  A    between atoms: C_9  and  C_40
REMARK    4  A    between atoms: C_14  and  C_15
REMARK    5  A    between atoms: C_15  and  O_18
REMARK    6  A    between atoms: O_18  and  C_36
REMARK    7  A    between atoms: C_21  and  O_22
REMARK    8  A    between atoms: O_22  and  C_23
REMARK    9  A    between atoms: C_23  and  C_24
REMARK   10  A    between atoms: C_29  and  C_32
REMARK   11  A    between atoms: C_29  and  C_34
REMARK   12  A    between atoms: C_34  and  C_40
REMARK   13  A    between atoms: C_40  and  N_42
REMARK                            x       y       z     vdW  Elec       q    Type
REMARK                         _______ _______ _______ _____ _____    ______ ____
ROOT
ATOM      1  C   UNL A   1     -24.770   2.155  31.272  0.00  0.00    +0.062 C 
ENDROOT
BRANCH   1   3
ATOM      2  C   UNL A   1     -25.387  -0.679  31.571  0.00  0.00    +0.078 C 
ATOM      3  C   UNL A   1     -25.189   0.773  32.028  0.00  0.00    +0.033 C 
ATOM      4  C   UNL A   1     -25.336   0.684  33.544  0.00  0.00    +0.021 C 
ATOM      5  C   UNL A   1     -24.829  -0.715  33.905  0.00  0.00    +0.089 C 
ATOM      6  N   UNL A   1     -24.758  -1.481  32.646  0.00  0.00    -0.219 NA
BRANCH   2   7
ATOM      7  C   UNL A   1     -24.855  -1.012  30.143  0.00  0.00    +0.044 C 
BRANCH   7   8
ATOM      8  C   UNL A   1     -24.973  -2.505  29.788  0.00  0.00    -0.021 C 
ATOM      9  C   UNL A   1     -23.906  -3.173  29.146  0.00  0.00    -0.004 C 
ATOM     10  C   UNL A   1     -23.989  -4.549  28.853  0.00  0.00    -0.000 C 
ATOM     11  C   UNL A   1     -25.137  -5.280  29.205  0.00  0.00    -0.000 C 
ATOM     12  C   UNL A   1     -26.232  -4.611  29.784  0.00  0.00    -0.000 C 
ATOM     13  C   UNL A   1     -26.155  -3.232  30.065  0.00  0.00    -0.004 C 
ENDBRANCH   7   8
ENDBRANCH   2   7
ENDBRANCH   1   3
BRANCH   1  18
ATOM     14  C   UNL A   1     -28.003   3.244  29.475  0.00  0.00    +0.023 C 
ATOM     15  C   UNL A   1     -25.703   4.194  29.551  0.00  0.00    +0.230 C 
ATOM     16  C   UNL A   1     -27.206   4.559  29.370  0.00  0.00    +0.063 C 
ATOM     17  C   UNL A   1     -27.037   2.280  29.998  0.00  0.00    +0.075 C 
ATOM     18  N   UNL A   1     -25.742   2.897  30.304  0.00  0.00    -0.241 NA
BRANCH  15  19
ATOM     19  O   UNL A   1     -25.143   3.966  28.243  0.00  0.00    -0.448 OA
BRANCH  19  20
ATOM     20  C   UNL A   1     -25.642   4.093  27.123  0.00  0.00    +0.223 C 
ATOM     21  N   UNL A   1     -25.614   5.252  26.449  0.00  0.00    -0.236 NA
ATOM     22  C   UNL A   1     -25.026   6.479  26.963  0.00  0.00    +0.155 C 
BRANCH  20  24
ATOM     23  C   UNL A   1     -25.688   1.614  26.461  0.00  0.00    +0.041 C 
ATOM     24  C   UNL A   1     -26.250   2.920  26.395  0.00  0.00    +0.074 C 
ATOM     25  C   UNL A   1     -27.438   3.091  25.645  0.00  0.00    +0.107 C 
ATOM     26  N   UNL A   1     -28.075   2.089  25.003  0.00  0.00    -0.208 NA
ATOM     27  C   UNL A   1     -27.543   0.849  25.079  0.00  0.00    +0.253 C 
ATOM     28  C   UNL A   1     -26.354   0.576  25.777  0.00  0.00    +0.193 C 
ATOM     29  F   UNL A   1     -25.860  -0.681  25.795  0.00  0.00    -0.199 F 
BRANCH  27  30
ATOM     30  O   UNL A   1     -28.193  -0.208  24.477  0.00  0.00    -0.456 OA
BRANCH  30  31
ATOM     31  C   UNL A   1     -29.460   0.005  23.866  0.00  0.00    +0.243 C 
BRANCH  31  32
ATOM     32  C   UNL A   1     -30.065  -1.377  23.573  0.00  0.00    +0.229 C 
ATOM     33  O   UNL A   1     -30.729  -1.878  24.721  0.00  0.00    -0.216 OA
ENDBRANCH  31  32
ENDBRANCH  30  31
ENDBRANCH  27  30
ENDBRANCH  20  24
ENDBRANCH  19  20
ENDBRANCH  15  19
ENDBRANCH   1  18
BRANCH   1  34
ATOM     34  C   UNL A   1     -23.601   1.773  30.446  0.00  0.00    +0.024 C 
BRANCH  34  35
ATOM     35  C   UNL A   1     -22.742   1.175  29.654  0.00  0.00    +0.062 C 
ATOM     36  C   UNL A   1     -21.973  -0.089  29.607  0.00  0.00    +0.008 C 
BRANCH  35  39
ATOM     37  C   UNL A   1     -22.503   2.249  26.100  0.00  0.00    +0.347 C 
ATOM     38  F   UNL A   1     -22.879   2.881  24.995  0.00  0.00    -0.195 F 
ATOM     39  C   UNL A   1     -22.364   1.380  28.179  0.00  0.00    +0.161 C 
ATOM     40  O   UNL A   1     -21.163   1.084  27.427  0.00  0.00    -0.335 OA
ATOM     41  C   UNL A   1     -23.141   2.145  27.295  0.00  0.00    +0.080 C 
ATOM     42  O   UNL A   1     -21.256   1.524  26.133  0.00  0.00    -0.135 OA
ENDBRANCH  35  39
ENDBRANCH  34  35
ENDBRANCH   1  34
TORSDOF 13
