REMARK  Name = outputs/IAG933/test6/raw/output_5505_IAG933_linker_design_.xyz
REMARK  15 active torsions:
REMARK  status: ('A' for Active; 'I' for Inactive)
REMARK    1  A    between atoms: C_1  and  C_2
REMARK    2  A    between atoms: C_1  and  C_8
REMARK    3  A    between atoms: C_1  and  C_45
REMARK    4  A    between atoms: C_13  and  C_38
REMARK    5  A    between atoms: C_14  and  C_15
REMARK    6  A    between atoms: C_21  and  O_22
REMARK    7  A    between atoms: O_22  and  C_23
REMARK    8  A    between atoms: C_23  and  C_24
REMARK    9  A    between atoms: C_30  and  C_33
REMARK   10  A    between atoms: C_31  and  C_33
REMARK   11  A    between atoms: C_31  and  N_36
REMARK   12  A    between atoms: C_32  and  C_34
REMARK   13  A    between atoms: C_38  and  C_43
REMARK   14  A    between atoms: C_40  and  C_43
REMARK   15  A    between atoms: C_40  and  C_45
REMARK                            x       y       z     vdW  Elec       q    Type
REMARK                         _______ _______ _______ _____ _____    ______ ____
ROOT
ATOM      1  N   UNL A   1     -25.110   0.119  28.289  0.00  0.00    -0.276 NA
ATOM      2  C   UNL A   1     -23.959  -0.113  29.157  0.00  0.00    +0.068 C 
ENDROOT
BRANCH   2   4
ATOM      3  O   UNL A   1     -22.987   1.810  29.705  0.00  0.00    -0.216 OA
ATOM      4  C   UNL A   1     -22.766   0.610  28.859  0.00  0.00    +0.202 C 
BRANCH   4   6
ATOM      5 CL   UNL A   1     -21.212   1.654  27.007  0.00  0.00    -0.112 Cl
ATOM      6  C   UNL A   1     -22.841   1.441  27.498  0.00  0.00    +0.116 C 
BRANCH   6   7
ATOM      7  C   UNL A   1     -24.116   1.694  26.453  0.00  0.00    +0.027 C 
BRANCH   7   8
ATOM      8  C   UNL A   1     -25.688   1.614  26.461  0.00  0.00    +0.071 C 
ATOM      9  C   UNL A   1     -26.250   2.920  26.395  0.00  0.00    +0.055 C 
ATOM     10  C   UNL A   1     -27.438   3.091  25.645  0.00  0.00    +0.102 C 
ATOM     11  N   UNL A   1     -28.075   2.089  25.003  0.00  0.00    -0.212 NA
ATOM     12  C   UNL A   1     -27.543   0.849  25.079  0.00  0.00    +0.234 C 
ATOM     13  C   UNL A   1     -26.354   0.576  25.777  0.00  0.00    +0.240 C 
ATOM     14  F   UNL A   1     -25.860  -0.681  25.795  0.00  0.00    -0.227 F 
BRANCH   9  15
ATOM     15  C   UNL A   1     -25.642   4.093  27.123  0.00  0.00    +0.262 C 
ATOM     16  N   UNL A   1     -25.614   5.252  26.449  0.00  0.00    -0.200 NA
ATOM     17  C   UNL A   1     -25.026   6.479  26.963  0.00  0.00    +0.139 C 
ATOM     18  O   UNL A   1     -25.143   3.966  28.243  0.00  0.00    -0.269 OA
ENDBRANCH   9  15
BRANCH  12  19
ATOM     19  O   UNL A   1     -28.193  -0.208  24.477  0.00  0.00    -0.459 OA
BRANCH  19  20
ATOM     20  C   UNL A   1     -29.460   0.005  23.866  0.00  0.00    +0.242 C 
BRANCH  20  21
ATOM     21  C   UNL A   1     -30.065  -1.377  23.573  0.00  0.00    +0.229 C 
ATOM     22  O   UNL A   1     -30.729  -1.878  24.721  0.00  0.00    -0.216 OA
ENDBRANCH  20  21
ENDBRANCH  19  20
ENDBRANCH  12  19
ENDBRANCH   7   8
ENDBRANCH   6   7
ENDBRANCH   4   6
ENDBRANCH   2   4
BRANCH   2  23
ATOM     23  C   UNL A   1     -24.855  -1.012  30.143  0.00  0.00    +0.076 C 
BRANCH  23  24
ATOM     24  C   UNL A   1     -24.973  -2.505  29.788  0.00  0.00    -0.016 C 
ATOM     25  C   UNL A   1     -23.906  -3.173  29.146  0.00  0.00    -0.004 C 
ATOM     26  C   UNL A   1     -23.989  -4.549  28.853  0.00  0.00    -0.000 C 
ATOM     27  C   UNL A   1     -25.137  -5.280  29.205  0.00  0.00    -0.000 C 
ATOM     28  C   UNL A   1     -26.232  -4.611  29.784  0.00  0.00    -0.000 C 
ATOM     29  C   UNL A   1     -26.155  -3.232  30.065  0.00  0.00    -0.004 C 
ENDBRANCH  23  24
BRANCH  23  30
ATOM     30  C   UNL A   1     -25.387  -0.679  31.571  0.00  0.00    +0.082 C 
ATOM     31  C   UNL A   1     -25.189   0.773  32.028  0.00  0.00    +0.020 C 
ATOM     32  C   UNL A   1     -25.336   0.684  33.544  0.00  0.00    +0.020 C 
ATOM     33  C   UNL A   1     -24.829  -0.715  33.905  0.00  0.00    +0.089 C 
ATOM     34  N   UNL A   1     -24.758  -1.481  32.646  0.00  0.00    -0.219 NA
ENDBRANCH  23  30
ENDBRANCH   2  23
BRANCH   1  35
ATOM     35  C   UNL A   1     -26.367  -0.247  28.599  0.00  0.00    +0.125 C 
BRANCH  35  36
ATOM     36  C   UNL A   1     -27.420   0.263  29.164  0.00  0.00    +0.026 C 
BRANCH  36  37
ATOM     37  C   UNL A   1     -27.250   1.707  29.381  0.00  0.00    +0.004 C 
ATOM     38  C   UNL A   1     -27.403   2.994  29.893  0.00  0.00    +0.022 C 
ATOM     39  C   UNL A   1     -28.446   2.185  29.418  0.00  0.00    +0.002 C 
BRANCH  38  41
ATOM     40  C   UNL A   1     -26.358   6.212  32.206  0.00  0.00    +0.006 C 
ATOM     41  C   UNL A   1     -27.855   4.382  30.260  0.00  0.00    +0.103 C 
ATOM     42  N   UNL A   1     -27.515   5.273  29.414  0.00  0.00    -0.276 NA
ATOM     43  C   UNL A   1     -28.406   4.706  31.653  0.00  0.00    +0.024 C 
ATOM     44  C   UNL A   1     -27.118   7.115  31.194  0.00  0.00    +0.047 C 
ATOM     45  C   UNL A   1     -27.153   4.925  32.565  0.00  0.00    +0.002 C 
ATOM     46  C   UNL A   1     -26.993   6.598  29.729  0.00  0.00    +0.067 C 
ENDBRANCH  38  41
ENDBRANCH  36  37
ENDBRANCH  35  36
ENDBRANCH   1  35
TORSDOF 15
