REMARK  Name = outputs/IAG933/test6/raw/output_5507_IAG933_linker_design_.xyz
REMARK  12 active torsions:
REMARK  status: ('A' for Active; 'I' for Inactive)
REMARK    1  A    between atoms: C_1  and  C_2
REMARK    2  A    between atoms: C_1  and  C_8
REMARK    3  A    between atoms: C_1  and  C_42
REMARK    4  A    between atoms: C_13  and  C_28
REMARK    5  A    between atoms: C_14  and  C_15
REMARK    6  A    between atoms: C_21  and  O_22
REMARK    7  A    between atoms: O_22  and  C_23
REMARK    8  A    between atoms: C_23  and  C_24
REMARK    9  A    between atoms: C_30  and  C_35
REMARK   10  A    between atoms: N_31  and  C_42
REMARK   11  A    between atoms: C_33  and  C_42
REMARK   12  A    between atoms: C_35  and  C_43
REMARK                            x       y       z     vdW  Elec       q    Type
REMARK                         _______ _______ _______ _____ _____    ______ ____
ROOT
ATOM      1  C   UNL A   1     -25.291  -0.031  29.039  0.00  0.00    +0.123 C 
ENDROOT
BRANCH   1   3
ATOM      2  C   UNL A   1     -24.434   1.340  27.058  0.00  0.00    +0.000 C 
ATOM      3  C   UNL A   1     -24.277   0.464  28.222  0.00  0.00    -0.002 C 
ATOM      4  C   UNL A   1     -21.836   0.923  28.029  0.00  0.00    -0.000 C 
ATOM      5  C   UNL A   1     -22.048   1.858  26.992  0.00  0.00    -0.000 C 
ATOM      6  C   UNL A   1     -22.911   0.264  28.620  0.00  0.00    -0.003 C 
ATOM      7  C   UNL A   1     -23.328   2.080  26.497  0.00  0.00    -0.000 C 
BRANCH   2   8
ATOM      8  C   UNL A   1     -25.688   1.614  26.461  0.00  0.00    +0.038 C 
ATOM      9  C   UNL A   1     -26.250   2.920  26.395  0.00  0.00    +0.076 C 
ATOM     10  C   UNL A   1     -27.438   3.091  25.645  0.00  0.00    +0.107 C 
ATOM     11  N   UNL A   1     -28.075   2.089  25.003  0.00  0.00    -0.208 NA
ATOM     12  C   UNL A   1     -27.543   0.849  25.079  0.00  0.00    +0.253 C 
ATOM     13  C   UNL A   1     -26.354   0.576  25.777  0.00  0.00    +0.193 C 
ATOM     14  F   UNL A   1     -25.860  -0.681  25.795  0.00  0.00    -0.199 F 
BRANCH   9  15
ATOM     15  C   UNL A   1     -25.642   4.093  27.123  0.00  0.00    +0.266 C 
ATOM     16  N   UNL A   1     -25.614   5.252  26.449  0.00  0.00    -0.200 NA
ATOM     17  C   UNL A   1     -25.026   6.479  26.963  0.00  0.00    +0.139 C 
ATOM     18  O   UNL A   1     -25.143   3.966  28.243  0.00  0.00    -0.268 OA
ENDBRANCH   9  15
BRANCH  12  19
ATOM     19  O   UNL A   1     -28.193  -0.208  24.477  0.00  0.00    -0.456 OA
BRANCH  19  20
ATOM     20  C   UNL A   1     -29.460   0.005  23.866  0.00  0.00    +0.243 C 
BRANCH  20  21
ATOM     21  C   UNL A   1     -30.065  -1.377  23.573  0.00  0.00    +0.229 C 
ATOM     22  O   UNL A   1     -30.729  -1.878  24.721  0.00  0.00    -0.216 OA
ENDBRANCH  20  21
ENDBRANCH  19  20
ENDBRANCH  12  19
ENDBRANCH   2   8
ENDBRANCH   1   3
BRANCH   1  24
ATOM     23  C   UNL A   1     -27.901   0.374  28.584  0.00  0.00    +0.242 C 
ATOM     24  N   UNL A   1     -26.587  -0.422  28.521  0.00  0.00    -0.202 NA
ATOM     25  O   UNL A   1     -27.984   1.385  29.247  0.00  0.00    -0.273 OA
BRANCH  23  26
ATOM     26  C   UNL A   1     -29.165  -0.136  27.787  0.00  0.00    +0.089 C 
BRANCH  26  32
ATOM     27  O   UNL A   1     -31.403  -2.139  28.222  0.00  0.00    -0.223 OA
ATOM     28  C   UNL A   1     -31.419  -0.923  28.993  0.00  0.00    +0.152 C 
ATOM     29  C   UNL A   1     -31.435   0.943  27.424  0.00  0.00    +0.003 C 
ATOM     30  C   UNL A   1     -32.847  -0.368  29.003  0.00  0.00    +0.033 C 
ATOM     31  C   UNL A   1     -32.883   0.704  27.890  0.00  0.00    +0.003 C 
ATOM     32  C   UNL A   1     -30.527   0.224  28.438  0.00  0.00    +0.040 C 
ENDBRANCH  26  32
ENDBRANCH  23  26
ENDBRANCH   1  24
BRANCH   1  33
ATOM     33  C   UNL A   1     -24.855  -1.012  30.143  0.00  0.00    +0.062 C 
BRANCH  33  34
ATOM     34  C   UNL A   1     -24.973  -2.505  29.788  0.00  0.00    -0.019 C 
ATOM     35  C   UNL A   1     -23.906  -3.173  29.146  0.00  0.00    -0.004 C 
ATOM     36  C   UNL A   1     -23.989  -4.549  28.853  0.00  0.00    -0.000 C 
ATOM     37  C   UNL A   1     -25.137  -5.280  29.205  0.00  0.00    -0.000 C 
ATOM     38  C   UNL A   1     -26.232  -4.611  29.784  0.00  0.00    -0.000 C 
ATOM     39  C   UNL A   1     -26.155  -3.232  30.065  0.00  0.00    -0.004 C 
ENDBRANCH  33  34
BRANCH  33  40
ATOM     40  C   UNL A   1     -25.387  -0.679  31.571  0.00  0.00    +0.079 C 
ATOM     41  C   UNL A   1     -25.189   0.773  32.028  0.00  0.00    +0.019 C 
ATOM     42  C   UNL A   1     -25.336   0.684  33.544  0.00  0.00    +0.020 C 
ATOM     43  C   UNL A   1     -24.829  -0.715  33.905  0.00  0.00    +0.089 C 
ATOM     44  N   UNL A   1     -24.758  -1.481  32.646  0.00  0.00    -0.219 NA
ENDBRANCH  33  40
ENDBRANCH   1  33
TORSDOF 12
