MODEL 550
MODEL 1
REMARK VINA RESULT:    -5.677      0.000      0.000
REMARK INTER + INTRA:          -7.317
REMARK INTER:                  -6.672
REMARK INTRA:                  -0.644
REMARK UNBOUND:                -0.644
REMARK  Name = No_550-gen_results/8p0m/2024-11-27-11-27-31/
REMARK  3 active torsions:
REMARK  status: ('A' for Active; 'I' for Inactive)
REMARK    1  A    between atoms: C_2  and  C_7
REMARK    2  A    between atoms: C_7  and  C_9
REMARK    3  A    between atoms: C_9  and  C_11
REMARK                            x       y       z     vdW  Elec       q    Type
REMARK                         _______ _______ _______ _____ _____    ______ ____
ROOT
ATOM      1  C   UNL A   1     -25.750  -2.853  29.562  0.00  0.00    -0.004 A 
ATOM      2  C   UNL A   1     -24.702  -2.664  28.989  0.00  0.00    -0.022 A 
ATOM      3  C   UNL A   1     -23.891  -3.658  28.545  0.00  0.00    -0.004 A 
ATOM      4  C   UNL A   1     -24.288  -4.991  28.761  0.00  0.00    -0.000 A 
ATOM      5  C   UNL A   1     -26.264  -4.189  29.731  0.00  0.00    -0.000 A 
ATOM      6  C   UNL A   1     -25.473  -5.223  29.328  0.00  0.00    -0.000 A 
ENDROOT
BRANCH   2   7
ATOM      7  C   UNL A   1     -24.175  -1.271  28.691  0.00  0.00    +0.022 C 
ATOM      8  C   UNL A   1     -25.080  -0.226  28.497  0.00  0.00    +0.005 C 
BRANCH   7   9
ATOM      9  C   UNL A   1     -23.119  -0.734  29.692  0.00  0.00    +0.004 C 
ATOM     10  C   UNL A   1     -21.787  -0.707  29.241  0.00  0.00    +0.000 C 
BRANCH   9  11
ATOM     11  C   UNL A   1     -23.370  -0.399  31.006  0.00  0.00    +0.000 C 
ATOM     12  C   UNL A   1     -22.979  -1.206  32.133  0.00  0.00    +0.000 C 
ENDBRANCH   9  11
ENDBRANCH   7   9
ENDBRANCH   2   7
TORSDOF 3
ENDMDL
ENDMDL
