REMARK  Name = No_551-gen_results/8p0m/2024-11-27-11-27-31/
REMARK  2 active torsions:
REMARK  status: ('A' for Active; 'I' for Inactive)
REMARK    1  A    between atoms: C_5  and  C_15
REMARK    2  A    between atoms: C_7  and  C_12
REMARK                            x       y       z     vdW  Elec       q    Type
REMARK                         _______ _______ _______ _____ _____    ______ ____
ROOT
ATOM      1  O   UNL A   1     -28.123  -1.335  28.487  0.00  0.00    -0.275 OA
ATOM      2  C   UNL A   1     -27.481  -0.404  28.709  0.00  0.00    +0.229 C 
ATOM      3  N   UNL A   1     -26.460  -0.110  28.005  0.00  0.00    -0.280 N 
ATOM      4  C   UNL A   1     -26.148  -0.495  26.876  0.00  0.00    +0.093 C 
ATOM      5  C   UNL A   1     -27.642   0.498  29.978  0.00  0.00    +0.100 C 
ATOM      6  C   UNL A   1     -27.226   1.580  30.090  0.00  0.00    +0.026 C 
ATOM      7  C   UNL A   1     -25.996   1.888  29.220  0.00  0.00    +0.122 C 
ATOM      8  C   UNL A   1     -25.663   1.206  28.138  0.00  0.00    +0.086 C 
ATOM      9  C   UNL A   1     -24.662   1.540  27.300  0.00  0.00    +0.020 C 
ATOM     10  C   UNL A   1     -24.303   1.067  26.137  0.00  0.00    +0.004 C 
ATOM     11  C   UNL A   1     -25.072  -0.125  25.862  0.00  0.00    +0.022 C 
ENDROOT
BRANCH   5  12
ATOM     12  C   UNL A   1     -28.796   0.003  30.848  0.00  0.00    -0.014 A 
ATOM     13  C   UNL A   1     -28.951   0.597  31.773  0.00  0.00    -0.004 A 
ATOM     14  C   UNL A   1     -29.901   0.162  32.863  0.00  0.00    -0.000 A 
ATOM     15  C   UNL A   1     -30.579  -1.042  32.565  0.00  0.00    -0.000 A 
ATOM     16  C   UNL A   1     -30.307  -1.769  31.423  0.00  0.00    -0.000 A 
ATOM     17  C   UNL A   1     -29.340  -1.298  30.584  0.00  0.00    -0.004 A 
ENDBRANCH   5  12
BRANCH   7  18
ATOM     18  C   UNL A   1     -25.243   3.174  29.473  0.00  0.00    +0.366 C 
ATOM     19  O   UNL A   1     -25.772   4.101  29.375  0.00  0.00    -0.246 OA
ATOM     20  O   UNL A   1     -23.898   2.987  29.686  0.00  0.00    -0.246 OA
ENDBRANCH   7  18
TORSDOF 2
