REMARK  Name = outputs/IAG933/test6/raw/output_5515_IAG933_linker_design_.xyz
REMARK  14 active torsions:
REMARK  status: ('A' for Active; 'I' for Inactive)
REMARK    1  A    between atoms: C_1  and  C_2
REMARK    2  A    between atoms: C_1  and  C_8
REMARK    3  A    between atoms: C_1  and  C_45
REMARK    4  A    between atoms: C_13  and  C_40
REMARK    5  A    between atoms: C_14  and  C_15
REMARK    6  A    between atoms: C_21  and  O_22
REMARK    7  A    between atoms: O_22  and  C_23
REMARK    8  A    between atoms: C_23  and  C_24
REMARK    9  A    between atoms: N_28  and  C_41
REMARK   10  A    between atoms: N_28  and  C_44
REMARK   11  A    between atoms: N_29  and  C_35
REMARK   12  A    between atoms: N_29  and  C_44
REMARK   13  A    between atoms: C_30  and  C_39
REMARK   14  A    between atoms: C_33  and  C_35
REMARK                            x       y       z     vdW  Elec       q    Type
REMARK                         _______ _______ _______ _____ _____    ______ ____
ROOT
ATOM      1  C   UNL A   1     -23.292   1.504  26.962  0.00  0.00    +0.072 C 
ATOM      2  F   UNL A   1     -21.067   1.821  27.873  0.00  0.00    -0.204 F 
ATOM      3  C   UNL A   1     -22.642   0.466  29.019  0.00  0.00    +0.027 C 
ATOM      4  C   UNL A   1     -22.292   1.272  27.951  0.00  0.00    +0.141 C 
ATOM      5  C   UNL A   1     -24.669   1.266  27.221  0.00  0.00    +0.021 C 
ATOM      6  C   UNL A   1     -25.074   0.508  28.327  0.00  0.00    +0.063 C 
ATOM      7  C   UNL A   1     -24.008   0.038  29.098  0.00  0.00    +0.000 C 
ENDROOT
BRANCH   5   8
ATOM      8  C   UNL A   1     -25.688   1.614  26.461  0.00  0.00    +0.039 C 
ATOM      9  C   UNL A   1     -26.250   2.920  26.395  0.00  0.00    +0.077 C 
ATOM     10  C   UNL A   1     -27.438   3.091  25.645  0.00  0.00    +0.107 C 
ATOM     11  N   UNL A   1     -28.075   2.089  25.003  0.00  0.00    -0.208 NA
ATOM     12  C   UNL A   1     -27.543   0.849  25.079  0.00  0.00    +0.253 C 
ATOM     13  C   UNL A   1     -26.354   0.576  25.777  0.00  0.00    +0.193 C 
ATOM     14  F   UNL A   1     -25.860  -0.681  25.795  0.00  0.00    -0.199 F 
BRANCH   9  15
ATOM     15  C   UNL A   1     -25.642   4.093  27.123  0.00  0.00    +0.266 C 
ATOM     16  N   UNL A   1     -25.614   5.252  26.449  0.00  0.00    -0.200 NA
ATOM     17  C   UNL A   1     -25.026   6.479  26.963  0.00  0.00    +0.139 C 
ATOM     18  O   UNL A   1     -25.143   3.966  28.243  0.00  0.00    -0.268 OA
ENDBRANCH   9  15
BRANCH  12  19
ATOM     19  O   UNL A   1     -28.193  -0.208  24.477  0.00  0.00    -0.456 OA
BRANCH  19  20
ATOM     20  C   UNL A   1     -29.460   0.005  23.866  0.00  0.00    +0.243 C 
BRANCH  20  21
ATOM     21  C   UNL A   1     -30.065  -1.377  23.573  0.00  0.00    +0.229 C 
ATOM     22  O   UNL A   1     -30.729  -1.878  24.721  0.00  0.00    -0.216 OA
ENDBRANCH  20  21
ENDBRANCH  19  20
ENDBRANCH  12  19
ENDBRANCH   5   8
BRANCH   1  24
ATOM     23  F   UNL A   1     -21.901   2.472  25.433  0.00  0.00    -0.193 F 
ATOM     24  C   UNL A   1     -22.957   1.833  25.732  0.00  0.00    +0.343 C 
ATOM     25  F   UNL A   1     -23.667   1.384  24.760  0.00  0.00    -0.193 F 
ENDBRANCH   1  24
BRANCH   7  26
ATOM     26  C   UNL A   1     -24.855  -1.012  30.143  0.00  0.00    +0.062 C 
BRANCH  26  27
ATOM     27  C   UNL A   1     -24.973  -2.505  29.788  0.00  0.00    -0.017 C 
ATOM     28  C   UNL A   1     -23.906  -3.173  29.146  0.00  0.00    -0.004 C 
ATOM     29  C   UNL A   1     -23.989  -4.549  28.853  0.00  0.00    -0.000 C 
ATOM     30  C   UNL A   1     -25.137  -5.280  29.205  0.00  0.00    -0.000 C 
ATOM     31  C   UNL A   1     -26.232  -4.611  29.784  0.00  0.00    -0.000 C 
ATOM     32  C   UNL A   1     -26.155  -3.232  30.065  0.00  0.00    -0.004 C 
ENDBRANCH  26  27
BRANCH  26  33
ATOM     33  C   UNL A   1     -25.387  -0.679  31.571  0.00  0.00    +0.081 C 
ATOM     34  C   UNL A   1     -25.189   0.773  32.028  0.00  0.00    +0.019 C 
ATOM     35  C   UNL A   1     -25.336   0.684  33.544  0.00  0.00    +0.020 C 
ATOM     36  C   UNL A   1     -24.829  -0.715  33.905  0.00  0.00    +0.089 C 
ATOM     37  N   UNL A   1     -24.758  -1.481  32.646  0.00  0.00    -0.219 NA
ENDBRANCH  26  33
ENDBRANCH   7  26
BRANCH   6  38
ATOM     38  N   UNL A   1     -26.303   0.257  28.643  0.00  0.00    -0.222 NA
BRANCH  38  40
ATOM     39  C   UNL A   1     -27.970   0.455  29.955  0.00  0.00    +0.043 C 
ATOM     40  C   UNL A   1     -27.338  -0.362  28.850  0.00  0.00    +0.165 C 
BRANCH  40  41
ATOM     41  N   UNL A   1     -27.968  -1.726  29.142  0.00  0.00    -0.196 NA
BRANCH  41  42
ATOM     42  C   UNL A   1     -29.501  -1.446  29.371  0.00  0.00    +0.122 C 
BRANCH  42  43
ATOM     43  C   UNL A   1     -30.082  -0.455  28.407  0.00  0.00    +0.162 C 
ATOM     44  C   UNL A   1     -30.428   0.616  27.584  0.00  0.00    +0.173 C 
ATOM     45  O   UNL A   1     -29.790  -0.524  27.079  0.00  0.00    -0.350 OA
ENDBRANCH  42  43
ENDBRANCH  41  42
ENDBRANCH  40  41
ENDBRANCH  38  40
ENDBRANCH   6  38
TORSDOF 14
