MODEL 551
MODEL 1
REMARK VINA RESULT:    -6.766      0.000      0.000
REMARK INTER + INTRA:          -7.559
REMARK INTER:                  -7.558
REMARK INTRA:                  -0.002
REMARK UNBOUND:                -0.002
REMARK  Name = No_551-gen_results/8p0m/2024-11-27-11-27-31/
REMARK  2 active torsions:
REMARK  status: ('A' for Active; 'I' for Inactive)
REMARK    1  A    between atoms: C_5  and  C_15
REMARK    2  A    between atoms: C_7  and  C_12
REMARK                            x       y       z     vdW  Elec       q    Type
REMARK                         _______ _______ _______ _____ _____    ______ ____
ROOT
ATOM      1  O   UNL A   1     -31.656 -12.753  30.563  0.00  0.00    -0.275 OA
ATOM      2  C   UNL A   1     -30.735 -12.563  31.229  0.00  0.00    +0.229 C 
ATOM      3  N   UNL A   1     -30.751 -12.803  32.480  0.00  0.00    -0.280 N 
ATOM      4  C   UNL A   1     -31.521 -13.511  33.134  0.00  0.00    +0.093 C 
ATOM      5  C   UNL A   1     -29.439 -11.824  30.754  0.00  0.00    +0.100 C 
ATOM      6  C   UNL A   1     -28.406 -11.870  31.289  0.00  0.00    +0.026 C 
ATOM      7  C   UNL A   1     -28.476 -12.165  32.797  0.00  0.00    +0.122 C 
ATOM      8  C   UNL A   1     -29.508 -12.736  33.394  0.00  0.00    +0.086 C 
ATOM      9  C   UNL A   1     -29.533 -13.111  34.688  0.00  0.00    +0.020 C 
ATOM     10  C   UNL A   1     -30.398 -13.801  35.380  0.00  0.00    +0.004 C 
ATOM     11  C   UNL A   1     -31.577 -14.014  34.571  0.00  0.00    +0.022 C 
ENDROOT
BRANCH   5  12
ATOM     12  C   UNL A   1     -29.548 -11.440  29.280  0.00  0.00    -0.014 A 
ATOM     13  C   UNL A   1     -30.213 -10.573  29.087  0.00  0.00    -0.004 A 
ATOM     14  C   UNL A   1     -30.615 -10.158  27.692  0.00  0.00    -0.000 A 
ATOM     15  C   UNL A   1     -30.035 -10.959  26.682  0.00  0.00    -0.000 A 
ATOM     16  C   UNL A   1     -29.257 -12.060  26.981  0.00  0.00    -0.000 A 
ATOM     17  C   UNL A   1     -29.073 -12.371  28.296  0.00  0.00    -0.004 A 
ENDBRANCH   5  12
BRANCH   7  18
ATOM     18  C   UNL A   1     -27.217 -12.006  33.618  0.00  0.00    +0.366 C 
ATOM     19  O   UNL A   1     -26.474 -12.777  33.565  0.00  0.00    -0.246 OA
ATOM     20  O   UNL A   1     -27.241 -10.911  34.449  0.00  0.00    -0.246 OA
ENDBRANCH   7  18
TORSDOF 2
ENDMDL
ENDMDL
