REMARK  Name = outputs/IAG933/test6/raw/output_5524_IAG933_linker_design_.xyz
REMARK  12 active torsions:
REMARK  status: ('A' for Active; 'I' for Inactive)
REMARK    1  A    between atoms: C_1  and  C_2
REMARK    2  A    between atoms: C_1  and  C_8
REMARK    3  A    between atoms: C_1  and  N_32
REMARK    4  A    between atoms: C_13  and  C_45
REMARK    5  A    between atoms: C_14  and  C_15
REMARK    6  A    between atoms: C_21  and  O_22
REMARK    7  A    between atoms: O_22  and  C_23
REMARK    8  A    between atoms: C_23  and  C_24
REMARK    9  A    between atoms: N_32  and  C_40
REMARK   10  A    between atoms: N_32  and  C_44
REMARK   11  A    between atoms: C_34  and  C_46
REMARK   12  A    between atoms: C_44  and  C_46
REMARK                            x       y       z     vdW  Elec       q    Type
REMARK                         _______ _______ _______ _____ _____    ______ ____
ROOT
ATOM      1  F   UNL A   1     -21.003   1.730  26.102  0.00  0.00    -0.180 F 
ATOM      2  C   UNL A   1     -21.966   1.695  26.977  0.00  0.00    +0.260 C 
ATOM      3  C   UNL A   1     -22.950   0.876  29.078  0.00  0.00    +0.292 C 
ATOM      4  O   UNL A   1     -22.393  -0.172  30.002  0.00  0.00    -0.190 OA
ATOM      5  C   UNL A   1     -23.273   2.095  26.486  0.00  0.00    +0.242 C 
ATOM      6  N   UNL A   1     -21.741   1.235  28.249  0.00  0.00    -0.206 NA
ATOM      7  C   UNL A   1     -24.234   0.691  28.349  0.00  0.00    +0.083 C 
ATOM      8  O   UNL A   1     -23.401   3.007  25.649  0.00  0.00    -0.282 OA
ATOM      9  C   UNL A   1     -24.412   1.446  27.110  0.00  0.00    +0.059 C 
ENDROOT
BRANCH   9  10
ATOM     10  C   UNL A   1     -25.688   1.614  26.461  0.00  0.00    +0.042 C 
ATOM     11  C   UNL A   1     -26.250   2.920  26.395  0.00  0.00    +0.077 C 
ATOM     12  C   UNL A   1     -27.438   3.091  25.645  0.00  0.00    +0.107 C 
ATOM     13  N   UNL A   1     -28.075   2.089  25.003  0.00  0.00    -0.208 NA
ATOM     14  C   UNL A   1     -27.543   0.849  25.079  0.00  0.00    +0.253 C 
ATOM     15  C   UNL A   1     -26.354   0.576  25.777  0.00  0.00    +0.193 C 
ATOM     16  F   UNL A   1     -25.860  -0.681  25.795  0.00  0.00    -0.199 F 
BRANCH  11  17
ATOM     17  C   UNL A   1     -25.642   4.093  27.123  0.00  0.00    +0.266 C 
ATOM     18  N   UNL A   1     -25.614   5.252  26.449  0.00  0.00    -0.200 NA
ATOM     19  C   UNL A   1     -25.026   6.479  26.963  0.00  0.00    +0.139 C 
ATOM     20  O   UNL A   1     -25.143   3.966  28.243  0.00  0.00    -0.268 OA
ENDBRANCH  11  17
BRANCH  14  21
ATOM     21  O   UNL A   1     -28.193  -0.208  24.477  0.00  0.00    -0.456 OA
BRANCH  21  22
ATOM     22  C   UNL A   1     -29.460   0.005  23.866  0.00  0.00    +0.243 C 
BRANCH  22  23
ATOM     23  C   UNL A   1     -30.065  -1.377  23.573  0.00  0.00    +0.229 C 
ATOM     24  O   UNL A   1     -30.729  -1.878  24.721  0.00  0.00    -0.216 OA
ENDBRANCH  22  23
ENDBRANCH  21  22
ENDBRANCH  14  21
ENDBRANCH   9  10
BRANCH   7  25
ATOM     25  N   UNL A   1     -25.211  -0.151  29.008  0.00  0.00    -0.304 N 
BRANCH  25  26
ATOM     26  C   UNL A   1     -24.855  -1.012  30.143  0.00  0.00    +0.111 C 
BRANCH  26  27
ATOM     27  C   UNL A   1     -24.973  -2.505  29.788  0.00  0.00    -0.003 C 
ATOM     28  C   UNL A   1     -23.906  -3.173  29.146  0.00  0.00    -0.003 C 
ATOM     29  C   UNL A   1     -23.989  -4.549  28.853  0.00  0.00    -0.000 C 
ATOM     30  C   UNL A   1     -25.137  -5.280  29.205  0.00  0.00    -0.000 C 
ATOM     31  C   UNL A   1     -26.232  -4.611  29.784  0.00  0.00    -0.000 C 
ATOM     32  C   UNL A   1     -26.155  -3.232  30.065  0.00  0.00    -0.003 C 
ENDBRANCH  26  27
BRANCH  26  33
ATOM     33  C   UNL A   1     -25.387  -0.679  31.571  0.00  0.00    +0.095 C 
ATOM     34  C   UNL A   1     -25.189   0.773  32.028  0.00  0.00    +0.021 C 
ATOM     35  C   UNL A   1     -25.336   0.684  33.544  0.00  0.00    +0.020 C 
ATOM     36  C   UNL A   1     -24.829  -0.715  33.905  0.00  0.00    +0.089 C 
ATOM     37  N   UNL A   1     -24.758  -1.481  32.646  0.00  0.00    -0.217 NA
ENDBRANCH  26  33
ENDBRANCH  25  26
BRANCH  25  38
ATOM     38  C   UNL A   1     -26.579  -0.397  28.434  0.00  0.00    +0.091 C 
BRANCH  38  39
ATOM     39  C   UNL A   1     -27.705  -0.083  29.421  0.00  0.00    +0.021 C 
BRANCH  39  42
ATOM     40  C   UNL A   1     -30.338   1.869  30.597  0.00  0.00    +0.072 C 
ATOM     41  C   UNL A   1     -31.727   3.691  29.521  0.00  0.00    +0.090 C 
ATOM     42  C   UNL A   1     -28.334   1.284  29.254  0.00  0.00    +0.004 C 
ATOM     43  C   UNL A   1     -28.817   1.706  30.672  0.00  0.00    +0.017 C 
ATOM     44  N   UNL A   1     -30.440   2.942  29.528  0.00  0.00    -0.272 NA
ATOM     45  C   UNL A   1     -30.238   2.409  28.134  0.00  0.00    +0.072 C 
ATOM     46  C   UNL A   1     -29.412   1.123  28.155  0.00  0.00    +0.017 C 
ENDBRANCH  39  42
ENDBRANCH  38  39
ENDBRANCH  25  38
ENDBRANCH   7  25
TORSDOF 12
