MODEL 552
MODEL 1
REMARK VINA RESULT:    -4.218      0.000      0.000
REMARK INTER + INTRA:          -4.218
REMARK INTER:                  -4.218
REMARK INTRA:                   0.000
REMARK UNBOUND:                 0.000
REMARK  Name = No_552-gen_results/8p0m/2024-11-27-11-27-31/
REMARK  0 active torsions:
REMARK  status: ('A' for Active; 'I' for Inactive)
REMARK                            x       y       z     vdW  Elec       q    Type
REMARK                         _______ _______ _______ _____ _____    ______ ____
ROOT
ATOM      1  C   UNL A   1     -25.258  -5.348  29.207  0.00  0.00    +0.000 A 
ATOM      2  C   UNL A   1     -26.170  -4.677  29.633  0.00  0.00    +0.000 A 
ATOM      3  C   UNL A   1     -26.107  -3.305  29.777  0.00  0.00    +0.000 A 
ATOM      4  C   UNL A   1     -24.917  -2.644  29.363  0.00  0.00    +0.000 A 
ATOM      5  C   UNL A   1     -23.996  -3.414  28.737  0.00  0.00    +0.000 A 
ATOM      6  C   UNL A   1     -24.158  -4.717  28.607  0.00  0.00    +0.000 A 
ENDROOT
TORSDOF 0
ENDMDL
ENDMDL
