REMARK  Name = outputs/IAG933/test6/raw/output_5530_IAG933_linker_design_.xyz
REMARK  12 active torsions:
REMARK  status: ('A' for Active; 'I' for Inactive)
REMARK    1  A    between atoms: C_1  and  C_2
REMARK    2  A    between atoms: C_1  and  C_8
REMARK    3  A    between atoms: C_1  and  N_39
REMARK    4  A    between atoms: C_13  and  C_29
REMARK    5  A    between atoms: C_14  and  C_15
REMARK    6  A    between atoms: C_21  and  O_22
REMARK    7  A    between atoms: O_22  and  C_23
REMARK    8  A    between atoms: C_23  and  C_24
REMARK    9  A    between atoms: C_30  and  N_39
REMARK   10  A    between atoms: N_39  and  C_43
REMARK   11  A    between atoms: C_41  and  C_42
REMARK   12  A    between atoms: C_42  and  C_43
REMARK                            x       y       z     vdW  Elec       q    Type
REMARK                         _______ _______ _______ _____ _____    ______ ____
ROOT
ATOM      1  C   UNL A   1     -24.319   1.622  26.694  0.00  0.00    +0.030 C 
ATOM      2  C   UNL A   1     -23.644   0.325  28.774  0.00  0.00    +0.205 A 
ATOM      3  O   UNL A   1     -22.423  -0.042  29.287  0.00  0.00    -0.413 OA
ATOM      4  F   UNL A   1     -20.400   0.926  28.460  0.00  0.00    -0.159 F 
ATOM      5  C   UNL A   1     -21.614   0.658  28.454  0.00  0.00    +0.324 A 
ATOM      6  C   UNL A   1     -23.582   1.100  27.664  0.00  0.00    +0.089 A 
ATOM      7  C   UNL A   1     -23.379   2.278  25.852  0.00  0.00    +0.176 C 
ATOM      8  C   UNL A   1     -22.324   1.329  27.481  0.00  0.00    +0.213 A 
ATOM      9  O   UNL A   1     -22.100   2.196  26.416  0.00  0.00    -0.445 OA
ENDROOT
BRANCH   1  10
ATOM     10  C   UNL A   1     -25.688   1.614  26.461  0.00  0.00    +0.096 C 
ATOM     11  C   UNL A   1     -26.250   2.920  26.395  0.00  0.00    +0.059 C 
ATOM     12  C   UNL A   1     -27.438   3.091  25.645  0.00  0.00    +0.102 C 
ATOM     13  N   UNL A   1     -28.075   2.089  25.003  0.00  0.00    -0.212 NA
ATOM     14  C   UNL A   1     -27.543   0.849  25.079  0.00  0.00    +0.234 C 
ATOM     15  C   UNL A   1     -26.354   0.576  25.777  0.00  0.00    +0.244 C 
ATOM     16  F   UNL A   1     -25.860  -0.681  25.795  0.00  0.00    -0.227 F 
BRANCH  11  17
ATOM     17  C   UNL A   1     -25.642   4.093  27.123  0.00  0.00    +0.263 C 
ATOM     18  N   UNL A   1     -25.614   5.252  26.449  0.00  0.00    -0.200 NA
ATOM     19  C   UNL A   1     -25.026   6.479  26.963  0.00  0.00    +0.139 C 
ATOM     20  O   UNL A   1     -25.143   3.966  28.243  0.00  0.00    -0.269 OA
ENDBRANCH  11  17
BRANCH  14  21
ATOM     21  O   UNL A   1     -28.193  -0.208  24.477  0.00  0.00    -0.459 OA
BRANCH  21  22
ATOM     22  C   UNL A   1     -29.460   0.005  23.866  0.00  0.00    +0.242 C 
BRANCH  22  23
ATOM     23  C   UNL A   1     -30.065  -1.377  23.573  0.00  0.00    +0.229 C 
ATOM     24  O   UNL A   1     -30.729  -1.878  24.721  0.00  0.00    -0.216 OA
ENDBRANCH  22  23
ENDBRANCH  21  22
ENDBRANCH  14  21
ENDBRANCH   1  10
BRANCH   2  25
ATOM     25  N   UNL A   1     -24.910   0.005  29.108  0.00  0.00    -0.276 N 
BRANCH  25  26
ATOM     26  C   UNL A   1     -24.855  -1.012  30.143  0.00  0.00    +0.114 C 
BRANCH  26  27
ATOM     27  C   UNL A   1     -24.973  -2.505  29.788  0.00  0.00    -0.003 C 
ATOM     28  C   UNL A   1     -23.906  -3.173  29.146  0.00  0.00    -0.003 C 
ATOM     29  C   UNL A   1     -23.989  -4.549  28.853  0.00  0.00    -0.000 C 
ATOM     30  C   UNL A   1     -25.137  -5.280  29.205  0.00  0.00    -0.000 C 
ATOM     31  C   UNL A   1     -26.232  -4.611  29.784  0.00  0.00    -0.000 C 
ATOM     32  C   UNL A   1     -26.155  -3.232  30.065  0.00  0.00    -0.003 C 
ENDBRANCH  26  27
BRANCH  26  33
ATOM     33  C   UNL A   1     -25.387  -0.679  31.571  0.00  0.00    +0.095 C 
ATOM     34  C   UNL A   1     -25.189   0.773  32.028  0.00  0.00    +0.021 C 
ATOM     35  C   UNL A   1     -25.336   0.684  33.544  0.00  0.00    +0.020 C 
ATOM     36  C   UNL A   1     -24.829  -0.715  33.905  0.00  0.00    +0.089 C 
ATOM     37  N   UNL A   1     -24.758  -1.481  32.646  0.00  0.00    -0.217 NA
ENDBRANCH  26  33
ENDBRANCH  25  26
BRANCH  25  38
ATOM     38  C   UNL A   1     -26.129   0.612  28.889  0.00  0.00    +0.096 C 
BRANCH  38  39
ATOM     39  C   UNL A   1     -27.393  -0.144  28.644  0.00  0.00    +0.051 C 
BRANCH  39  45
ATOM     40  C   UNL A   1     -30.401   1.471  29.404  0.00  0.00    +0.067 C 
ATOM     41  O   UNL A   1     -30.386   0.357  27.337  0.00  0.00    -0.190 OA
ATOM     42  O   UNL A   1     -29.622  -0.715  29.130  0.00  0.00    -0.331 OA
ATOM     43  C   UNL A   1     -30.561   0.173  28.708  0.00  0.00    +0.269 C 
ATOM     44  C   UNL A   1     -28.937   1.561  29.732  0.00  0.00    +0.035 C 
ATOM     45  C   UNL A   1     -28.615   0.106  29.523  0.00  0.00    +0.120 C 
ENDBRANCH  39  45
ENDBRANCH  38  39
ENDBRANCH  25  38
ENDBRANCH   2  25
TORSDOF 12
