REMARK  Name = outputs/IAG933/test6/raw/output_5533_IAG933_linker_design_.xyz
REMARK  13 active torsions:
REMARK  status: ('A' for Active; 'I' for Inactive)
REMARK    1  A    between atoms: C_1  and  C_2
REMARK    2  A    between atoms: C_1  and  C_8
REMARK    3  A    between atoms: C_1  and  C_40
REMARK    4  A    between atoms: C_13  and  C_29
REMARK    5  A    between atoms: C_14  and  C_15
REMARK    6  A    between atoms: C_21  and  O_22
REMARK    7  A    between atoms: O_22  and  C_23
REMARK    8  A    between atoms: C_23  and  C_24
REMARK    9  A    between atoms: CA_30  and  N_31
REMARK   10  A    between atoms: CA_30  and  CB_36
REMARK   11  A    between atoms: CA_30  and  C_44
REMARK   12  A    between atoms: C_34  and  C_40
REMARK   13  A    between atoms: C_40  and  C_41
REMARK                            x       y       z     vdW  Elec       q    Type
REMARK                         _______ _______ _______ _____ _____    ______ ____
ROOT
ATOM      1  C   UNL A   1     -24.461   1.282  27.138  0.00  0.00    +0.012 C 
ATOM      2  C   UNL A   1     -23.198   0.384  28.905  0.00  0.00    -0.001 C 
ATOM      3  C   UNL A   1     -24.439   0.560  28.315  0.00  0.00    -0.012 C 
ATOM      4  C   UNL A   1     -23.235   1.796  26.537  0.00  0.00    +0.085 C 
ATOM      5  C   UNL A   1     -22.077   1.661  27.257  0.00  0.00    +0.151 C 
ATOM      6  C   UNL A   1     -22.021   0.950  28.460  0.00  0.00    +0.030 C 
ATOM      7  F   UNL A   1     -20.962   2.267  26.698  0.00  0.00    -0.203 F 
ATOM      8 CL   UNL A   1     -23.111   2.515  25.025  0.00  0.00    -0.080 Cl
ENDROOT
BRANCH   1   9
ATOM      9  C   UNL A   1     -25.688   1.614  26.461  0.00  0.00    +0.039 C 
ATOM     10  C   UNL A   1     -26.250   2.920  26.395  0.00  0.00    +0.077 C 
ATOM     11  C   UNL A   1     -27.438   3.091  25.645  0.00  0.00    +0.107 C 
ATOM     12  N   UNL A   1     -28.075   2.089  25.003  0.00  0.00    -0.208 NA
ATOM     13  C   UNL A   1     -27.543   0.849  25.079  0.00  0.00    +0.253 C 
ATOM     14  C   UNL A   1     -26.354   0.576  25.777  0.00  0.00    +0.193 C 
ATOM     15  F   UNL A   1     -25.860  -0.681  25.795  0.00  0.00    -0.199 F 
BRANCH  10  16
ATOM     16  C   UNL A   1     -25.642   4.093  27.123  0.00  0.00    +0.266 C 
ATOM     17  N   UNL A   1     -25.614   5.252  26.449  0.00  0.00    -0.200 NA
ATOM     18  C   UNL A   1     -25.026   6.479  26.963  0.00  0.00    +0.139 C 
ATOM     19  O   UNL A   1     -25.143   3.966  28.243  0.00  0.00    -0.268 OA
ENDBRANCH  10  16
BRANCH  13  20
ATOM     20  O   UNL A   1     -28.193  -0.208  24.477  0.00  0.00    -0.456 OA
BRANCH  20  21
ATOM     21  C   UNL A   1     -29.460   0.005  23.866  0.00  0.00    +0.243 C 
BRANCH  21  22
ATOM     22  C   UNL A   1     -30.065  -1.377  23.573  0.00  0.00    +0.229 C 
ATOM     23  O   UNL A   1     -30.729  -1.878  24.721  0.00  0.00    -0.216 OA
ENDBRANCH  21  22
ENDBRANCH  20  21
ENDBRANCH  13  20
ENDBRANCH   1   9
BRANCH   3  24
ATOM     24  C   UNL A   1     -25.617  -0.066  29.119  0.00  0.00    +0.106 C 
BRANCH  24  27
ATOM     25  O   UNL A   1     -26.653   2.199  29.539  0.00  0.00    -0.273 OA
ATOM     26  N   UNL A   1     -28.096   0.671  29.505  0.00  0.00    -0.202 NA
ATOM     27  C   UNK     1     -26.803   0.995  29.401  0.00  0.00    +0.245 C 
BRANCH  26  28
ATOM     28  CA  UNL A   1     -29.244   1.390  29.007  0.00  0.00    +0.161 C 
BRANCH  28  30
ATOM     29  O   UNL A   1     -30.662   3.047  27.863  0.00  0.00    -0.218 OA
ATOM     30  CB  UNL A   1     -29.356   2.791  28.391  0.00  0.00    +0.206 C 
ENDBRANCH  28  30
BRANCH  28  32
ATOM     31  O   UNL A   1     -29.918  -0.838  28.278  0.00  0.00    -0.218 OA
ATOM     32  C   UNL A   1     -29.909   0.495  27.943  0.00  0.00    +0.206 C 
ENDBRANCH  28  32
ENDBRANCH  26  28
ENDBRANCH  24  27
BRANCH  24  33
ATOM     33  C   UNL A   1     -24.855  -1.012  30.143  0.00  0.00    +0.051 C 
BRANCH  33  34
ATOM     34  C   UNL A   1     -24.973  -2.505  29.788  0.00  0.00    -0.020 C 
ATOM     35  C   UNL A   1     -23.906  -3.173  29.146  0.00  0.00    -0.004 C 
ATOM     36  C   UNL A   1     -23.989  -4.549  28.853  0.00  0.00    -0.000 C 
ATOM     37  C   UNL A   1     -25.137  -5.280  29.205  0.00  0.00    -0.000 C 
ATOM     38  C   UNL A   1     -26.232  -4.611  29.784  0.00  0.00    -0.000 C 
ATOM     39  C   UNL A   1     -26.155  -3.232  30.065  0.00  0.00    -0.004 C 
ENDBRANCH  33  34
BRANCH  33  40
ATOM     40  C   UNL A   1     -25.387  -0.679  31.571  0.00  0.00    +0.078 C 
ATOM     41  C   UNL A   1     -25.189   0.773  32.028  0.00  0.00    +0.019 C 
ATOM     42  C   UNL A   1     -25.336   0.684  33.544  0.00  0.00    +0.020 C 
ATOM     43  C   UNL A   1     -24.829  -0.715  33.905  0.00  0.00    +0.089 C 
ATOM     44  N   UNL A   1     -24.758  -1.481  32.646  0.00  0.00    -0.219 NA
ENDBRANCH  33  40
ENDBRANCH  24  33
ENDBRANCH   3  24
TORSDOF 13
