REMARK  Name = outputs/IAG933/test6/raw/output_554_IAG933_linker_design_.xyz
REMARK  12 active torsions:
REMARK  status: ('A' for Active; 'I' for Inactive)
REMARK    1  A    between atoms: C_1  and  C_2
REMARK    2  A    between atoms: C_1  and  C_8
REMARK    3  A    between atoms: C_1  and  N_35
REMARK    4  A    between atoms: C_13  and  C_38
REMARK    5  A    between atoms: C_14  and  C_15
REMARK    6  A    between atoms: C_21  and  O_22
REMARK    7  A    between atoms: O_22  and  C_23
REMARK    8  A    between atoms: C_23  and  C_24
REMARK    9  A    between atoms: C_30  and  O_41
REMARK   10  A    between atoms: C_32  and  C_36
REMARK   11  A    between atoms: C_33  and  C_39
REMARK   12  A    between atoms: C_39  and  O_41
REMARK                            x       y       z     vdW  Elec       q    Type
REMARK                         _______ _______ _______ _____ _____    ______ ____
ROOT
ATOM      1  C   UNL A   1     -23.239   0.423  28.953  0.00  0.00    +0.232 C 
ATOM      2  C   UNL A   1     -23.099   1.094  27.748  0.00  0.00    +0.154 C 
ATOM      3  N   UNL A   1     -24.490  -0.032  29.231  0.00  0.00    -0.268 N 
ATOM      4  C   UNL A   1     -25.377   0.656  28.559  0.00  0.00    +0.180 C 
ATOM      5  O   UNL A   1     -22.248   0.373  29.661  0.00  0.00    -0.275 OA
ATOM      6  C   UNL A   1     -24.754   1.200  27.472  0.00  0.00    +0.052 C 
ENDROOT
BRANCH   6   7
ATOM      7  C   UNL A   1     -25.688   1.614  26.461  0.00  0.00    +0.073 C 
ATOM      8  C   UNL A   1     -26.250   2.920  26.395  0.00  0.00    +0.055 C 
ATOM      9  C   UNL A   1     -27.438   3.091  25.645  0.00  0.00    +0.102 C 
ATOM     10  N   UNL A   1     -28.075   2.089  25.003  0.00  0.00    -0.212 NA
ATOM     11  C   UNL A   1     -27.543   0.849  25.079  0.00  0.00    +0.234 C 
ATOM     12  C   UNL A   1     -26.354   0.576  25.777  0.00  0.00    +0.240 C 
ATOM     13  F   UNL A   1     -25.860  -0.681  25.795  0.00  0.00    -0.227 F 
BRANCH   8  14
ATOM     14  C   UNL A   1     -25.642   4.093  27.123  0.00  0.00    +0.262 C 
ATOM     15  N   UNL A   1     -25.614   5.252  26.449  0.00  0.00    -0.200 NA
ATOM     16  C   UNL A   1     -25.026   6.479  26.963  0.00  0.00    +0.139 C 
ATOM     17  O   UNL A   1     -25.143   3.966  28.243  0.00  0.00    -0.269 OA
ENDBRANCH   8  14
BRANCH  11  18
ATOM     18  O   UNL A   1     -28.193  -0.208  24.477  0.00  0.00    -0.459 OA
BRANCH  18  19
ATOM     19  C   UNL A   1     -29.460   0.005  23.866  0.00  0.00    +0.242 C 
BRANCH  19  20
ATOM     20  C   UNL A   1     -30.065  -1.377  23.573  0.00  0.00    +0.229 C 
ATOM     21  O   UNL A   1     -30.729  -1.878  24.721  0.00  0.00    -0.216 OA
ENDBRANCH  19  20
ENDBRANCH  18  19
ENDBRANCH  11  18
ENDBRANCH   6   7
BRANCH   4  23
ATOM     22  O   UNL A   1     -27.488  -0.307  28.216  0.00  0.00    -0.244 OA
ATOM     23  C   UNL A   1     -26.801   0.635  28.735  0.00  0.00    +0.383 C 
ATOM     24  O   UNL A   1     -27.303   1.553  29.398  0.00  0.00    -0.244 OA
ENDBRANCH   4  23
BRANCH   2  26
ATOM     25  F   UNL A   1     -20.832   1.741  27.968  0.00  0.00    -0.188 F 
ATOM     26  C   UNL A   1     -21.891   1.616  27.270  0.00  0.00    +0.338 C 
BRANCH  26  27
ATOM     27  O   UNL A   1     -21.485   2.219  26.097  0.00  0.00    -0.412 OA
BRANCH  27  29
ATOM     28  O   UNL A   1     -23.602   2.506  25.280  0.00  0.00    -0.237 OA
ATOM     29  C   UNL A   1     -22.405   2.565  25.467  0.00  0.00    +0.420 C 
ENDBRANCH  27  29
ENDBRANCH  26  27
ENDBRANCH   2  26
BRANCH   3  30
ATOM     30  C   UNL A   1     -24.855  -1.012  30.143  0.00  0.00    +0.114 C 
BRANCH  30  31
ATOM     31  C   UNL A   1     -24.973  -2.505  29.788  0.00  0.00    -0.003 C 
ATOM     32  C   UNL A   1     -23.906  -3.173  29.146  0.00  0.00    -0.003 C 
ATOM     33  C   UNL A   1     -23.989  -4.549  28.853  0.00  0.00    -0.000 C 
ATOM     34  C   UNL A   1     -25.137  -5.280  29.205  0.00  0.00    -0.000 C 
ATOM     35  C   UNL A   1     -26.232  -4.611  29.784  0.00  0.00    -0.000 C 
ATOM     36  C   UNL A   1     -26.155  -3.232  30.065  0.00  0.00    -0.003 C 
ENDBRANCH  30  31
BRANCH  30  37
ATOM     37  C   UNL A   1     -25.387  -0.679  31.571  0.00  0.00    +0.095 C 
ATOM     38  C   UNL A   1     -25.189   0.773  32.028  0.00  0.00    +0.021 C 
ATOM     39  C   UNL A   1     -25.336   0.684  33.544  0.00  0.00    +0.020 C 
ATOM     40  C   UNL A   1     -24.829  -0.715  33.905  0.00  0.00    +0.089 C 
ATOM     41  N   UNL A   1     -24.758  -1.481  32.646  0.00  0.00    -0.217 NA
ENDBRANCH  30  37
ENDBRANCH   3  30
TORSDOF 12
