REMARK  Name = outputs/IAG933/test6/raw/output_5540_IAG933_linker_design_.xyz
REMARK  13 active torsions:
REMARK  status: ('A' for Active; 'I' for Inactive)
REMARK    1  A    between atoms: C_1  and  C_2
REMARK    2  A    between atoms: C_1  and  C_8
REMARK    3  A    between atoms: C_9  and  C_33
REMARK    4  A    between atoms: C_13  and  C_34
REMARK    5  A    between atoms: C_14  and  C_15
REMARK    6  A    between atoms: C_21  and  O_22
REMARK    7  A    between atoms: O_22  and  C_23
REMARK    8  A    between atoms: C_23  and  C_24
REMARK    9  A    between atoms: N_30  and  C_39
REMARK   10  A    between atoms: N_30  and  N_44
REMARK   11  A    between atoms: C_33  and  N_44
REMARK   12  A    between atoms: C_33  and  C_45
REMARK   13  A    between atoms: C_39  and  C_42
REMARK                            x       y       z     vdW  Elec       q    Type
REMARK                         _______ _______ _______ _____ _____    ______ ____
ROOT
ATOM      1  N   UNL A   1     -24.532   1.923  29.775  0.00  0.00    -0.125 NA
ENDROOT
BRANCH   1   2
ATOM      2  C   UNL A   1     -23.294   1.187  29.605  0.00  0.00    +0.155 C 
BRANCH   2   7
ATOM      3  C   UNL A   1     -23.281   2.032  25.828  0.00  0.00    +0.015 C 
ATOM      4  C   UNL A   1     -24.268   1.572  26.693  0.00  0.00    +0.066 C 
ATOM      5  C   UNL A   1     -21.941   2.113  26.224  0.00  0.00    +0.003 C 
ATOM      6  N   UNL A   1     -23.817   1.282  27.649  0.00  0.00    -0.252 NA
ATOM      7  C   UNL A   1     -22.845   1.323  28.246  0.00  0.00    +0.078 C 
ATOM      8  C   UNL A   1     -21.719   1.671  27.535  0.00  0.00    +0.016 C 
BRANCH   4   9
ATOM      9  C   UNL A   1     -25.688   1.614  26.461  0.00  0.00    +0.110 C 
ATOM     10  C   UNL A   1     -26.250   2.920  26.395  0.00  0.00    +0.060 C 
ATOM     11  C   UNL A   1     -27.438   3.091  25.645  0.00  0.00    +0.102 C 
ATOM     12  N   UNL A   1     -28.075   2.089  25.003  0.00  0.00    -0.212 NA
ATOM     13  C   UNL A   1     -27.543   0.849  25.079  0.00  0.00    +0.234 C 
ATOM     14  C   UNL A   1     -26.354   0.576  25.777  0.00  0.00    +0.245 C 
ATOM     15  F   UNL A   1     -25.860  -0.681  25.795  0.00  0.00    -0.227 F 
BRANCH  10  16
ATOM     16  C   UNL A   1     -25.642   4.093  27.123  0.00  0.00    +0.263 C 
ATOM     17  N   UNL A   1     -25.614   5.252  26.449  0.00  0.00    -0.200 NA
ATOM     18  C   UNL A   1     -25.026   6.479  26.963  0.00  0.00    +0.139 C 
ATOM     19  O   UNL A   1     -25.143   3.966  28.243  0.00  0.00    -0.269 OA
ENDBRANCH  10  16
BRANCH  13  20
ATOM     20  O   UNL A   1     -28.193  -0.208  24.477  0.00  0.00    -0.459 OA
BRANCH  20  21
ATOM     21  C   UNL A   1     -29.460   0.005  23.866  0.00  0.00    +0.242 C 
BRANCH  21  22
ATOM     22  C   UNL A   1     -30.065  -1.377  23.573  0.00  0.00    +0.229 C 
ATOM     23  O   UNL A   1     -30.729  -1.878  24.721  0.00  0.00    -0.216 OA
ENDBRANCH  21  22
ENDBRANCH  20  21
ENDBRANCH  13  20
ENDBRANCH   4   9
ENDBRANCH   2   7
ENDBRANCH   1   2
BRANCH   1  24
ATOM     24  N   UNL A   1     -24.442   2.755  30.641  0.00  0.00    -0.128 NA
BRANCH  24  25
ATOM     25  C   UNL A   1     -25.326   2.350  31.630  0.00  0.00    +0.117 C 
BRANCH  25  33
ATOM     26  C   UNL A   1     -27.550   3.059  32.669  0.00  0.00    -0.022 C 
ATOM     27  C   UNL A   1     -28.535   3.894  33.152  0.00  0.00    +0.052 C 
ATOM     28  F   UNL A   1     -24.170   4.637  32.667  0.00  0.00    -0.204 F 
ATOM     29  C   UNL A   1     -25.534   4.656  32.612  0.00  0.00    +0.137 C 
ATOM     30  C   UNL A   1     -26.162   5.878  32.802  0.00  0.00    +0.029 C 
ATOM     31  C   UNL A   1     -27.513   6.199  33.157  0.00  0.00    -0.002 C 
ATOM     32  C   UNL A   1     -28.580   5.284  33.267  0.00  0.00    -0.021 C 
ATOM     33  C   UNL A   1     -26.183   3.321  32.347  0.00  0.00    +0.019 C 
ENDBRANCH  25  33
BRANCH  25  35
ATOM     34  C   UNL A   1     -25.387  -0.679  31.571  0.00  0.00    +0.079 C 
ATOM     35  C   UNL A   1     -25.189   0.773  32.028  0.00  0.00    +0.040 C 
ATOM     36  C   UNL A   1     -25.336   0.684  33.544  0.00  0.00    +0.022 C 
ATOM     37  C   UNL A   1     -24.829  -0.715  33.905  0.00  0.00    +0.089 C 
ATOM     38  N   UNL A   1     -24.758  -1.481  32.646  0.00  0.00    -0.219 NA
BRANCH  34  39
ATOM     39  C   UNL A   1     -24.855  -1.012  30.143  0.00  0.00    +0.044 C 
BRANCH  39  40
ATOM     40  C   UNL A   1     -24.973  -2.505  29.788  0.00  0.00    -0.021 C 
ATOM     41  C   UNL A   1     -23.906  -3.173  29.146  0.00  0.00    -0.004 C 
ATOM     42  C   UNL A   1     -23.989  -4.549  28.853  0.00  0.00    -0.000 C 
ATOM     43  C   UNL A   1     -25.137  -5.280  29.205  0.00  0.00    -0.000 C 
ATOM     44  C   UNL A   1     -26.232  -4.611  29.784  0.00  0.00    -0.000 C 
ATOM     45  C   UNL A   1     -26.155  -3.232  30.065  0.00  0.00    -0.004 C 
ENDBRANCH  39  40
ENDBRANCH  34  39
ENDBRANCH  25  35
ENDBRANCH  24  25
ENDBRANCH   1  24
TORSDOF 13
