REMARK  Name = outputs/IAG933/test6/raw/output_5541_IAG933_linker_design_.xyz
REMARK  17 active torsions:
REMARK  status: ('A' for Active; 'I' for Inactive)
REMARK    1  A    between atoms: C_1  and  C_2
REMARK    2  A    between atoms: C_1  and  C_8
REMARK    3  A    between atoms: C_9  and  C_37
REMARK    4  A    between atoms: C_13  and  C_48
REMARK    5  A    between atoms: C_14  and  C_15
REMARK    6  A    between atoms: C_21  and  O_22
REMARK    7  A    between atoms: O_22  and  C_23
REMARK    8  A    between atoms: C_23  and  C_24
REMARK    9  A    between atoms: O_28  and  C_35
REMARK   10  A    between atoms: N_32  and  C_38
REMARK   11  A    between atoms: N_32  and  O_42
REMARK   12  A    between atoms: C_33  and  C_37
REMARK   13  A    between atoms: C_33  and  C_44
REMARK   14  A    between atoms: C_37  and  C_38
REMARK   15  A    between atoms: C_39  and  O_42
REMARK   16  A    between atoms: C_39  and  C_43
REMARK   17  A    between atoms: C_44  and  C_45
REMARK                            x       y       z     vdW  Elec       q    Type
REMARK                         _______ _______ _______ _____ _____    ______ ____
ROOT
ATOM      1  C   UNL A   1     -23.637   1.854  30.612  0.00  0.00    +0.002 C 
ENDROOT
BRANCH   1   2
ATOM      2  C   UNL A   1     -24.724   1.911  31.360  0.00  0.00    +0.023 C 
BRANCH   2   4
ATOM      3  C   UNL A   1     -25.387  -0.679  31.571  0.00  0.00    +0.077 C 
ATOM      4  C   UNL A   1     -25.189   0.773  32.028  0.00  0.00    +0.019 C 
ATOM      5  C   UNL A   1     -25.336   0.684  33.544  0.00  0.00    +0.020 C 
ATOM      6  C   UNL A   1     -24.829  -0.715  33.905  0.00  0.00    +0.089 C 
ATOM      7  N   UNL A   1     -24.758  -1.481  32.646  0.00  0.00    -0.219 NA
BRANCH   3   8
ATOM      8  C   UNL A   1     -24.855  -1.012  30.143  0.00  0.00    +0.044 C 
BRANCH   8   9
ATOM      9  C   UNL A   1     -24.973  -2.505  29.788  0.00  0.00    -0.021 C 
ATOM     10  C   UNL A   1     -23.906  -3.173  29.146  0.00  0.00    -0.004 C 
ATOM     11  C   UNL A   1     -23.989  -4.549  28.853  0.00  0.00    -0.000 C 
ATOM     12  C   UNL A   1     -25.137  -5.280  29.205  0.00  0.00    -0.000 C 
ATOM     13  C   UNL A   1     -26.232  -4.611  29.784  0.00  0.00    -0.000 C 
ATOM     14  C   UNL A   1     -26.155  -3.232  30.065  0.00  0.00    -0.004 C 
ENDBRANCH   8   9
ENDBRANCH   3   8
ENDBRANCH   2   4
BRANCH   2  15
ATOM     15  C   UNL A   1     -24.777   3.054  32.266  0.00  0.00    +0.135 C 
BRANCH  15  16
ATOM     16  N   UNL A   1     -25.520   3.976  31.505  0.00  0.00    -0.024 NA
BRANCH  16  17
ATOM     17  O   UNL A   1     -26.964   4.144  32.080  0.00  0.00    -0.348 OA
BRANCH  17  18
ATOM     18  C   UNL A   1     -27.124   4.861  32.859  0.00  0.00    +0.339 C 
ATOM     19  O   UNL A   1     -26.253   5.120  33.728  0.00  0.00    -0.248 OA
BRANCH  18  23
ATOM     20  C   UNL A   1     -28.639   7.652  30.408  0.00  0.00    +0.030 C 
ATOM     21  C   UNL A   1     -28.300   6.945  32.648  0.00  0.00    +0.041 C 
ATOM     22  C   UNL A   1     -28.466   6.483  31.263  0.00  0.00    +0.104 C 
ATOM     23  C   UNL A   1     -28.388   5.526  32.909  0.00  0.00    +0.128 C 
BRANCH  22  24
ATOM     24  O   UNL A   1     -27.750   5.642  30.400  0.00  0.00    -0.355 OA
ATOM     25  C   UNL A   1     -28.970   4.831  29.982  0.00  0.00    +0.174 C 
ENDBRANCH  22  24
ENDBRANCH  18  23
ENDBRANCH  17  18
ENDBRANCH  16  17
ENDBRANCH  15  16
ENDBRANCH   2  15
ENDBRANCH   1   2
BRANCH   1  26
ATOM     26  C   UNL A   1     -22.794   0.929  29.684  0.00  0.00    +0.007 C 
BRANCH  26  30
ATOM     27  C   UNL A   1     -23.359   2.408  24.943  0.00  0.00    +0.037 C 
ATOM     28  O   UNL A   1     -21.302   1.706  26.350  0.00  0.00    -0.352 OA
ATOM     29  C   UNL A   1     -23.439   1.613  27.264  0.00  0.00    -0.019 C 
ATOM     30  C   UNL A   1     -22.491   1.354  28.253  0.00  0.00    +0.050 C 
ATOM     31  C   UNL A   1     -22.688   2.008  26.190  0.00  0.00    +0.133 C 
ATOM     32  C   UNL A   1     -21.212   1.391  27.665  0.00  0.00    +0.146 C 
ATOM     33  C   UNL A   1     -24.890   1.447  27.454  0.00  0.00    -0.025 C 
BRANCH  33  34
ATOM     34  C   UNL A   1     -25.688   1.614  26.461  0.00  0.00    +0.091 C 
ATOM     35  C   UNL A   1     -26.250   2.920  26.395  0.00  0.00    +0.059 C 
ATOM     36  C   UNL A   1     -27.438   3.091  25.645  0.00  0.00    +0.102 C 
ATOM     37  N   UNL A   1     -28.075   2.089  25.003  0.00  0.00    -0.212 NA
ATOM     38  C   UNL A   1     -27.543   0.849  25.079  0.00  0.00    +0.234 C 
ATOM     39  C   UNL A   1     -26.354   0.576  25.777  0.00  0.00    +0.244 C 
ATOM     40  F   UNL A   1     -25.860  -0.681  25.795  0.00  0.00    -0.227 F 
BRANCH  35  41
ATOM     41  C   UNL A   1     -25.642   4.093  27.123  0.00  0.00    +0.263 C 
ATOM     42  N   UNL A   1     -25.614   5.252  26.449  0.00  0.00    -0.200 NA
ATOM     43  C   UNL A   1     -25.026   6.479  26.963  0.00  0.00    +0.139 C 
ATOM     44  O   UNL A   1     -25.143   3.966  28.243  0.00  0.00    -0.269 OA
ENDBRANCH  35  41
BRANCH  38  45
ATOM     45  O   UNL A   1     -28.193  -0.208  24.477  0.00  0.00    -0.459 OA
BRANCH  45  46
ATOM     46  C   UNL A   1     -29.460   0.005  23.866  0.00  0.00    +0.242 C 
BRANCH  46  47
ATOM     47  C   UNL A   1     -30.065  -1.377  23.573  0.00  0.00    +0.229 C 
ATOM     48  O   UNL A   1     -30.729  -1.878  24.721  0.00  0.00    -0.216 OA
ENDBRANCH  46  47
ENDBRANCH  45  46
ENDBRANCH  38  45
ENDBRANCH  33  34
ENDBRANCH  26  30
ENDBRANCH   1  26
TORSDOF 17
