REMARK  Name = outputs/IAG933/test6/raw/output_5549_IAG933_linker_design_.xyz
REMARK  12 active torsions:
REMARK  status: ('A' for Active; 'I' for Inactive)
REMARK    1  A    between atoms: C_1  and  C_2
REMARK    2  A    between atoms: C_1  and  C_8
REMARK    3  A    between atoms: C_9  and  C_28
REMARK    4  A    between atoms: C_13  and  C_36
REMARK    5  A    between atoms: C_14  and  C_15
REMARK    6  A    between atoms: C_21  and  O_22
REMARK    7  A    between atoms: O_22  and  C_23
REMARK    8  A    between atoms: C_23  and  C_24
REMARK    9  A    between atoms: C_28  and  C_39
REMARK   10  A    between atoms: C_28  and  N_42
REMARK   11  A    between atoms: C_30  and  N_42
REMARK   12  A    between atoms: O_38  and  C_39
REMARK                            x       y       z     vdW  Elec       q    Type
REMARK                         _______ _______ _______ _____ _____    ______ ____
ROOT
ATOM      1  C   UNL A   1     -23.406   1.419  26.893  0.00  0.00    +0.066 C 
ATOM      2  C   UNL A   1     -23.921   1.444  29.468  0.00  0.00    +0.197 C 
ATOM      3  C   UNL A   1     -22.827   1.885  25.508  0.00  0.00    +0.212 C 
ATOM      4  O   UNL A   1     -24.957   1.179  28.594  0.00  0.00    -0.333 OA
ATOM      5  C   UNL A   1     -22.594   1.247  29.110  0.00  0.00    +0.097 C 
ATOM      6  N   UNL A   1     -21.007   1.579  27.021  0.00  0.00    -0.081 NA
ATOM      7  C   UNL A   1     -24.657   1.407  27.291  0.00  0.00    +0.168 C 
ATOM      8  O   UNL A   1     -21.378   1.936  25.588  0.00  0.00    -0.351 OA
ATOM      9  C   UNL A   1     -22.274   1.409  27.731  0.00  0.00    +0.103 C 
ENDROOT
BRANCH   7  10
ATOM     10  C   UNL A   1     -25.688   1.614  26.461  0.00  0.00    +0.047 C 
ATOM     11  C   UNL A   1     -26.250   2.920  26.395  0.00  0.00    +0.075 C 
ATOM     12  C   UNL A   1     -27.438   3.091  25.645  0.00  0.00    +0.106 C 
ATOM     13  N   UNL A   1     -28.075   2.089  25.003  0.00  0.00    -0.208 NA
ATOM     14  C   UNL A   1     -27.543   0.849  25.079  0.00  0.00    +0.253 C 
ATOM     15  C   UNL A   1     -26.354   0.576  25.777  0.00  0.00    +0.192 C 
ATOM     16  F   UNL A   1     -25.860  -0.681  25.795  0.00  0.00    -0.200 F 
BRANCH  11  17
ATOM     17  C   UNL A   1     -25.642   4.093  27.123  0.00  0.00    +0.266 C 
ATOM     18  N   UNL A   1     -25.614   5.252  26.449  0.00  0.00    -0.200 NA
ATOM     19  C   UNL A   1     -25.026   6.479  26.963  0.00  0.00    +0.139 C 
ATOM     20  O   UNL A   1     -25.143   3.966  28.243  0.00  0.00    -0.268 OA
ENDBRANCH  11  17
BRANCH  14  21
ATOM     21  O   UNL A   1     -28.193  -0.208  24.477  0.00  0.00    -0.456 OA
BRANCH  21  22
ATOM     22  C   UNL A   1     -29.460   0.005  23.866  0.00  0.00    +0.243 C 
BRANCH  22  23
ATOM     23  C   UNL A   1     -30.065  -1.377  23.573  0.00  0.00    +0.229 C 
ATOM     24  O   UNL A   1     -30.729  -1.878  24.721  0.00  0.00    -0.216 OA
ENDBRANCH  22  23
ENDBRANCH  21  22
ENDBRANCH  14  21
ENDBRANCH   7  10
BRANCH   2  25
ATOM     25  N   UNL A   1     -24.360   2.147  30.477  0.00  0.00    -0.182 NA
BRANCH  25  26
ATOM     26  C   UNL A   1     -25.442   2.208  31.524  0.00  0.00    +0.175 C 
BRANCH  26  28
ATOM     27  C   UNL A   1     -25.387  -0.679  31.571  0.00  0.00    +0.079 C 
ATOM     28  C   UNL A   1     -25.189   0.773  32.028  0.00  0.00    +0.045 C 
ATOM     29  C   UNL A   1     -25.336   0.684  33.544  0.00  0.00    +0.022 C 
ATOM     30  C   UNL A   1     -24.829  -0.715  33.905  0.00  0.00    +0.089 C 
ATOM     31  N   UNL A   1     -24.758  -1.481  32.646  0.00  0.00    -0.219 NA
BRANCH  27  32
ATOM     32  C   UNL A   1     -24.855  -1.012  30.143  0.00  0.00    +0.044 C 
BRANCH  32  33
ATOM     33  C   UNL A   1     -24.973  -2.505  29.788  0.00  0.00    -0.021 C 
ATOM     34  C   UNL A   1     -23.906  -3.173  29.146  0.00  0.00    -0.004 C 
ATOM     35  C   UNL A   1     -23.989  -4.549  28.853  0.00  0.00    -0.000 C 
ATOM     36  C   UNL A   1     -25.137  -5.280  29.205  0.00  0.00    -0.000 C 
ATOM     37  C   UNL A   1     -26.232  -4.611  29.784  0.00  0.00    -0.000 C 
ATOM     38  C   UNL A   1     -26.155  -3.232  30.065  0.00  0.00    -0.004 C 
ENDBRANCH  32  33
ENDBRANCH  27  32
ENDBRANCH  26  28
BRANCH  26  40
ATOM     39  O   UNL A   1     -24.385   4.071  32.428  0.00  0.00    -0.249 OA
ATOM     40  C   UNL A   1     -25.350   3.704  31.869  0.00  0.00    +0.333 C 
BRANCH  40  42
ATOM     41  C   UNL A   1     -26.272   5.874  32.032  0.00  0.00    +0.256 C 
ATOM     42  O   UNL A   1     -26.300   4.632  31.360  0.00  0.00    -0.443 OA
ENDBRANCH  40  42
ENDBRANCH  26  40
ENDBRANCH  25  26
ENDBRANCH   2  25
TORSDOF 12
