MODEL 554
MODEL 1
REMARK VINA RESULT:    -8.394      0.000      0.000
REMARK INTER + INTRA:         -11.144
REMARK INTER:                 -10.357
REMARK INTRA:                  -0.787
REMARK UNBOUND:                -0.787
REMARK  Name = No_554-gen_results/8p0m/2024-11-27-11-27-31/
REMARK  4 active torsions:
REMARK  status: ('A' for Active; 'I' for Inactive)
REMARK    1  A    between atoms: C_2  and  C_8
REMARK    2  A    between atoms: C_10  and  C_21
REMARK    3  A    between atoms: C_13  and  C_14
REMARK    4  A    between atoms: C_14  and  C_15
REMARK                            x       y       z     vdW  Elec       q    Type
REMARK                         _______ _______ _______ _____ _____    ______ ____
ROOT
ATOM      1  C   UNL A   1      -7.836   0.150  35.092  0.00  0.00    -0.000 A 
ATOM      2  C   UNL A   1      -8.668   0.585  34.375  0.00  0.00    +0.005 A 
ATOM      3  C   UNL A   1     -10.000   1.045  34.740  0.00  0.00    +0.056 A 
ATOM      4  C   UNL A   1     -10.362   0.948  36.089  0.00  0.00    +0.001 A 
ATOM      5  C   UNL A   1      -8.263   0.024  36.538  0.00  0.00    -0.004 A 
ATOM      6  C   UNL A   1      -9.462   0.419  36.947  0.00  0.00    -0.018 A 
ENDROOT
BRANCH   1   8
ATOM      7  C   UNL A   1      -5.438   0.143  34.907  0.00  0.00    +0.011 A 
ATOM      8  C   UNL A   1      -6.491  -0.448  34.835  0.00  0.00    +0.001 A 
ATOM      9  C   UNL A   1      -6.534  -1.798  34.504  0.00  0.00    +0.000 A 
ATOM     10  C   UNL A   1      -5.330  -2.524  34.192  0.00  0.00    +0.001 A 
ATOM     11  C   UNL A   1      -4.160  -1.758  34.278  0.00  0.00    +0.011 A 
ATOM     12  C   UNL A   1      -4.175  -0.479  34.578  0.00  0.00    +0.058 A 
ATOM     13 CL   UNL A   1      -2.697   0.368  34.597  0.00  0.00    -0.082 Cl
ENDBRANCH   1   8
BRANCH   3  14
ATOM     14  C   UNL A   1     -10.957   1.592  33.701  0.00  0.00    +0.284 C 
ATOM     15  N   UNL A   1     -11.762   2.534  34.069  0.00  0.00    -0.084 NA
ATOM     16  O   UNL A   1     -10.957   1.118  32.578  0.00  0.00    -0.267 OA
ENDBRANCH   3  14
BRANCH   6  17
ATOM     17  C   UNL A   1      -9.846   0.338  38.363  0.00  0.00    +0.053 C 
BRANCH  17  18
ATOM     18  C   UNL A   1     -10.710  -0.728  38.650  0.00  0.00    -0.018 A 
ATOM     19  C   UNL A   1     -11.272  -0.860  39.695  0.00  0.00    -0.004 A 
ATOM     20  C   UNL A   1     -12.240  -1.888  40.057  0.00  0.00    -0.000 A 
ATOM     21  C   UNL A   1     -12.450  -2.791  39.028  0.00  0.00    -0.000 A 
ATOM     22  C   UNL A   1     -11.027  -1.688  37.646  0.00  0.00    -0.004 A 
ATOM     23  C   UNL A   1     -11.831  -2.742  37.853  0.00  0.00    -0.000 A 
ENDBRANCH  17  18
ENDBRANCH   6  17
TORSDOF 4
ENDMDL
ENDMDL
