REMARK  Name = outputs/IAG933/test6/raw/output_5553_IAG933_linker_design_.xyz
REMARK  13 active torsions:
REMARK  status: ('A' for Active; 'I' for Inactive)
REMARK    1  A    between atoms: C_1  and  C_2
REMARK    2  A    between atoms: C_1  and  C_8
REMARK    3  A    between atoms: C_1  and  C_30
REMARK    4  A    between atoms: C_13  and  N_29
REMARK    5  A    between atoms: C_14  and  C_15
REMARK    6  A    between atoms: C_21  and  O_22
REMARK    7  A    between atoms: O_22  and  C_23
REMARK    8  A    between atoms: C_23  and  C_24
REMARK    9  A    between atoms: C_28  and  C_35
REMARK   10  A    between atoms: C_28  and  C_39
REMARK   11  A    between atoms: C_30  and  C_38
REMARK   12  A    between atoms: C_31  and  C_35
REMARK   13  A    between atoms: C_33  and  C_34
REMARK                            x       y       z     vdW  Elec       q    Type
REMARK                         _______ _______ _______ _____ _____    ______ ____
ROOT
ATOM      1  N   UNL A   1     -24.987   1.160  27.454  0.00  0.00    -0.217 NA
ATOM      2  C   UNL A   1     -25.065   0.298  28.829  0.00  0.00    +0.167 C 
ATOM      3  O   UNL A   1     -23.459   0.328  29.119  0.00  0.00    -0.334 OA
ATOM      4  C   UNL A   1     -22.911   1.518  28.321  0.00  0.00    +0.227 C 
ATOM      5  C   UNL A   1     -23.679   1.283  27.076  0.00  0.00    +0.248 C 
ATOM      6  O   UNL A   1     -23.298   2.375  26.048  0.00  0.00    -0.202 OA
ENDROOT
BRANCH   1   7
ATOM      7  C   UNL A   1     -25.688   1.614  26.461  0.00  0.00    +0.132 C 
ATOM      8  C   UNL A   1     -26.250   2.920  26.395  0.00  0.00    +0.070 C 
ATOM      9  C   UNL A   1     -27.438   3.091  25.645  0.00  0.00    +0.103 C 
ATOM     10  N   UNL A   1     -28.075   2.089  25.003  0.00  0.00    -0.212 NA
ATOM     11  C   UNL A   1     -27.543   0.849  25.079  0.00  0.00    +0.235 C 
ATOM     12  C   UNL A   1     -26.354   0.576  25.777  0.00  0.00    +0.255 C 
ATOM     13  F   UNL A   1     -25.860  -0.681  25.795  0.00  0.00    -0.225 F 
BRANCH   8  14
ATOM     14  C   UNL A   1     -25.642   4.093  27.123  0.00  0.00    +0.264 C 
ATOM     15  N   UNL A   1     -25.614   5.252  26.449  0.00  0.00    -0.200 NA
ATOM     16  C   UNL A   1     -25.026   6.479  26.963  0.00  0.00    +0.139 C 
ATOM     17  O   UNL A   1     -25.143   3.966  28.243  0.00  0.00    -0.269 OA
ENDBRANCH   8  14
BRANCH  11  18
ATOM     18  O   UNL A   1     -28.193  -0.208  24.477  0.00  0.00    -0.459 OA
BRANCH  18  19
ATOM     19  C   UNL A   1     -29.460   0.005  23.866  0.00  0.00    +0.242 C 
BRANCH  19  20
ATOM     20  C   UNL A   1     -30.065  -1.377  23.573  0.00  0.00    +0.229 C 
ATOM     21  O   UNL A   1     -30.729  -1.878  24.721  0.00  0.00    -0.216 OA
ENDBRANCH  19  20
ENDBRANCH  18  19
ENDBRANCH  11  18
ENDBRANCH   1   7
BRANCH   4  22
ATOM     22  C   UNL A   1     -21.407   1.739  27.955  0.00  0.00    +0.340 C 
ATOM     23  O   UNL A   1     -21.376   2.280  26.495  0.00  0.00    -0.181 OA
ATOM     24  F   UNL A   1     -20.768   0.629  27.808  0.00  0.00    -0.198 F 
ENDBRANCH   4  22
BRANCH   2  26
ATOM     25  C   UNL A   1     -27.477   1.446  29.440  0.00  0.00    -0.027 C 
ATOM     26  C   UNL A   1     -26.735   0.156  28.964  0.00  0.00    +0.012 C 
BRANCH  25  27
ATOM     27  C   UNL A   1     -29.025   1.292  29.656  0.00  0.00    +0.027 C 
BRANCH  27  28
ATOM     28  C   UNL A   1     -29.724   2.561  30.237  0.00  0.00    +0.025 C 
BRANCH  28  29
ATOM     29  C   UNL A   1     -31.035   2.185  31.011  0.00  0.00    +0.110 C 
ATOM     30  N   UNL A   1     -31.426   3.209  31.978  0.00  0.00    -0.131 NA
ENDBRANCH  28  29
ENDBRANCH  27  28
ENDBRANCH  25  27
ENDBRANCH   2  26
BRANCH   2  31
ATOM     31  C   UNL A   1     -24.855  -1.012  30.143  0.00  0.00    +0.082 C 
BRANCH  31  32
ATOM     32  C   UNL A   1     -24.973  -2.505  29.788  0.00  0.00    -0.017 C 
ATOM     33  C   UNL A   1     -23.906  -3.173  29.146  0.00  0.00    -0.004 C 
ATOM     34  C   UNL A   1     -23.989  -4.549  28.853  0.00  0.00    -0.000 C 
ATOM     35  C   UNL A   1     -25.137  -5.280  29.205  0.00  0.00    -0.000 C 
ATOM     36  C   UNL A   1     -26.232  -4.611  29.784  0.00  0.00    -0.000 C 
ATOM     37  C   UNL A   1     -26.155  -3.232  30.065  0.00  0.00    -0.004 C 
ENDBRANCH  31  32
BRANCH  31  38
ATOM     38  C   UNL A   1     -25.387  -0.679  31.571  0.00  0.00    +0.081 C 
ATOM     39  C   UNL A   1     -25.189   0.773  32.028  0.00  0.00    +0.019 C 
ATOM     40  C   UNL A   1     -25.336   0.684  33.544  0.00  0.00    +0.020 C 
ATOM     41  C   UNL A   1     -24.829  -0.715  33.905  0.00  0.00    +0.089 C 
ATOM     42  N   UNL A   1     -24.758  -1.481  32.646  0.00  0.00    -0.219 NA
ENDBRANCH  31  38
ENDBRANCH   2  31
TORSDOF 13
