MODEL 555
MODEL 1
REMARK VINA RESULT:    -6.751      0.000      0.000
REMARK INTER + INTRA:          -7.970
REMARK INTER:                  -7.540
REMARK INTRA:                  -0.430
REMARK UNBOUND:                -0.430
REMARK  Name = No_555-gen_results/8p0m/2024-11-27-11-27-31/
REMARK  2 active torsions:
REMARK  status: ('A' for Active; 'I' for Inactive)
REMARK    1  A    between atoms: C_3  and  C_4
REMARK    2  A    between atoms: C_4  and  C_8
REMARK                            x       y       z     vdW  Elec       q    Type
REMARK                         _______ _______ _______ _____ _____    ______ ____
ROOT
ATOM      1  C   UNL A   1     -24.317  -1.264  29.106  0.00  0.00    +0.053 C 
ENDROOT
BRANCH   1   4
ATOM      2  C   UNL A   1     -23.855  -3.759  28.564  0.00  0.00    -0.004 A 
ATOM      3  C   UNL A   1     -24.261  -4.723  28.693  0.00  0.00    -0.000 A 
ATOM      4  C   UNL A   1     -24.712  -2.690  29.077  0.00  0.00    -0.018 A 
ATOM      5  C   UNL A   1     -25.488  -5.255  29.269  0.00  0.00    -0.000 A 
ATOM      6  C   UNL A   1     -26.330  -4.275  29.752  0.00  0.00    -0.000 A 
ATOM      7  C   UNL A   1     -25.944  -2.987  29.716  0.00  0.00    -0.004 A 
ENDBRANCH   1   4
BRANCH   1   8
ATOM      8  C   UNL A   1     -23.499  -0.642  28.566  0.00  0.00    -0.018 A 
ATOM      9  C   UNL A   1     -22.167  -0.660  29.201  0.00  0.00    -0.004 A 
ATOM     10  C   UNL A   1     -21.232   0.246  28.482  0.00  0.00    -0.000 A 
ATOM     11  C   UNL A   1     -21.635   1.258  27.675  0.00  0.00    -0.000 A 
ATOM     12  C   UNL A   1     -22.947   1.330  27.291  0.00  0.00    -0.000 A 
ATOM     13  C   UNL A   1     -23.860   0.434  27.729  0.00  0.00    -0.004 A 
ENDBRANCH   1   8
TORSDOF 2
ENDMDL
ENDMDL
