REMARK  Name = No_557-gen_results/8p0m/2024-11-27-11-27-31/
REMARK  2 active torsions:
REMARK  status: ('A' for Active; 'I' for Inactive)
REMARK    1  A    between atoms: C_3  and  C_4
REMARK    2  A    between atoms: C_7  and  N_13
REMARK                            x       y       z     vdW  Elec       q    Type
REMARK                         _______ _______ _______ _____ _____    ______ ____
ROOT
ATOM      1  C   UNL A   1     -28.016  -0.814  28.878  0.00  0.00    +0.000 A 
ATOM      2  C   UNL A   1     -28.469  -0.785  29.829  0.00  0.00    +0.001 A 
ATOM      3  C   UNL A   1     -28.182   0.428  28.113  0.00  0.00    +0.001 A 
ATOM      4  C   UNL A   1     -29.426   0.110  30.418  0.00  0.00    +0.015 A 
ATOM      5  C   UNL A   1     -29.623   1.220  29.735  0.00  0.00    +0.048 A 
ATOM      6  C   UNL A   1     -28.961   1.453  28.551  0.00  0.00    +0.015 A 
ENDROOT
BRANCH   3   7
ATOM      7  C   UNL A   1     -27.450   0.643  26.850  0.00  0.00    +0.000 A 
ATOM      8  C   UNL A   1     -27.860   1.457  25.908  0.00  0.00    +0.000 A 
ATOM      9  C   UNL A   1     -27.173   1.574  24.703  0.00  0.00    +0.000 A 
ATOM     10  C   UNL A   1     -26.089   0.747  24.413  0.00  0.00    +0.000 A 
ATOM     11  C   UNL A   1     -25.636  -0.119  25.397  0.00  0.00    +0.000 A 
ATOM     12  C   UNL A   1     -26.281  -0.206  26.582  0.00  0.00    +0.000 A 
ENDBRANCH   3   7
BRANCH   5  13
ATOM     13  N   UNL A   1     -30.495   2.247  30.233  0.00  0.00    -0.307 N 
ATOM     14  C   UNL A   1     -30.713   2.492  31.396  0.00  0.00    +0.091 C 
ATOM     15  C   UNL A   1     -31.687   3.565  31.686  0.00  0.00    +0.021 C 
ATOM     16  C   UNL A   1     -31.142   3.009  29.184  0.00  0.00    +0.091 C 
ATOM     17  C   UNL A   1     -32.111   3.938  29.518  0.00  0.00    +0.021 C 
ATOM     18  C   UNL A   1     -32.328   4.272  30.807  0.00  0.00    +0.004 C 
ENDBRANCH   5  13
TORSDOF 2
