REMARK  Name = outputs/IAG933/test6/raw/output_5572_IAG933_linker_design_.xyz
REMARK  12 active torsions:
REMARK  status: ('A' for Active; 'I' for Inactive)
REMARK    1  A    between atoms: C_1  and  C_2
REMARK    2  A    between atoms: C_1  and  C_8
REMARK    3  A    between atoms: C_1  and  C_44
REMARK    4  A    between atoms: C_13  and  N_38
REMARK    5  A    between atoms: C_14  and  C_15
REMARK    6  A    between atoms: C_21  and  O_22
REMARK    7  A    between atoms: O_22  and  C_23
REMARK    8  A    between atoms: C_23  and  C_24
REMARK    9  A    between atoms: C_35  and  C_41
REMARK   10  A    between atoms: C_35  and  C_49
REMARK   11  A    between atoms: C_40  and  C_41
REMARK   12  A    between atoms: C_42  and  C_46
REMARK                            x       y       z     vdW  Elec       q    Type
REMARK                         _______ _______ _______ _____ _____    ______ ____
ROOT
ATOM      1  C   UNL A   1     -23.329   0.484  28.585  0.00  0.00    +0.052 A 
ATOM      2  C   UNL A   1     -21.292   1.423  27.624  0.00  0.00    +0.181 C 
ATOM      3  O   UNL A   1     -22.434   1.913  26.822  0.00  0.00    -0.435 OA
ATOM      4  C   UNL A   1     -23.582   1.266  27.512  0.00  0.00    +0.211 A 
ATOM      5  N   UNL A   1     -24.923   1.337  27.461  0.00  0.00    -0.297 N 
ATOM      6  C   UNL A   1     -24.485   0.005  29.180  0.00  0.00    -0.001 A 
ATOM      7  C   UNL A   1     -21.848   0.621  28.850  0.00  0.00    +0.045 C 
ATOM      8  C   UNL A   1     -25.464   0.741  28.589  0.00  0.00    +0.037 A 
ENDROOT
BRANCH   5   9
ATOM      9  C   UNL A   1     -25.688   1.614  26.461  0.00  0.00    +0.158 C 
ATOM     10  C   UNL A   1     -26.250   2.920  26.395  0.00  0.00    +0.076 C 
ATOM     11  C   UNL A   1     -27.438   3.091  25.645  0.00  0.00    +0.104 C 
ATOM     12  N   UNL A   1     -28.075   2.089  25.003  0.00  0.00    -0.212 NA
ATOM     13  C   UNL A   1     -27.543   0.849  25.079  0.00  0.00    +0.236 C 
ATOM     14  C   UNL A   1     -26.354   0.576  25.777  0.00  0.00    +0.261 C 
ATOM     15  F   UNL A   1     -25.860  -0.681  25.795  0.00  0.00    -0.225 F 
BRANCH  10  16
ATOM     16  C   UNL A   1     -25.642   4.093  27.123  0.00  0.00    +0.264 C 
ATOM     17  N   UNL A   1     -25.614   5.252  26.449  0.00  0.00    -0.200 NA
ATOM     18  C   UNL A   1     -25.026   6.479  26.963  0.00  0.00    +0.139 C 
ATOM     19  O   UNL A   1     -25.143   3.966  28.243  0.00  0.00    -0.269 OA
ENDBRANCH  10  16
BRANCH  13  20
ATOM     20  O   UNL A   1     -28.193  -0.208  24.477  0.00  0.00    -0.459 OA
BRANCH  20  21
ATOM     21  C   UNL A   1     -29.460   0.005  23.866  0.00  0.00    +0.242 C 
BRANCH  21  22
ATOM     22  C   UNL A   1     -30.065  -1.377  23.573  0.00  0.00    +0.229 C 
ATOM     23  O   UNL A   1     -30.729  -1.878  24.721  0.00  0.00    -0.216 OA
ENDBRANCH  21  22
ENDBRANCH  20  21
ENDBRANCH  13  20
ENDBRANCH   5   9
BRANCH   6  24
ATOM     24  C   UNL A   1     -24.855  -1.012  30.143  0.00  0.00    +0.062 C 
BRANCH  24  25
ATOM     25  C   UNL A   1     -24.973  -2.505  29.788  0.00  0.00    -0.017 C 
ATOM     26  C   UNL A   1     -23.906  -3.173  29.146  0.00  0.00    -0.004 C 
ATOM     27  C   UNL A   1     -23.989  -4.549  28.853  0.00  0.00    -0.000 C 
ATOM     28  C   UNL A   1     -25.137  -5.280  29.205  0.00  0.00    -0.000 C 
ATOM     29  C   UNL A   1     -26.232  -4.611  29.784  0.00  0.00    -0.000 C 
ATOM     30  C   UNL A   1     -26.155  -3.232  30.065  0.00  0.00    -0.004 C 
ENDBRANCH  24  25
BRANCH  24  31
ATOM     31  C   UNL A   1     -25.387  -0.679  31.571  0.00  0.00    +0.081 C 
ATOM     32  C   UNL A   1     -25.189   0.773  32.028  0.00  0.00    +0.019 C 
ATOM     33  C   UNL A   1     -25.336   0.684  33.544  0.00  0.00    +0.020 C 
ATOM     34  C   UNL A   1     -24.829  -0.715  33.905  0.00  0.00    +0.089 C 
ATOM     35  N   UNL A   1     -24.758  -1.481  32.646  0.00  0.00    -0.219 NA
ENDBRANCH  24  31
ENDBRANCH   6  24
BRANCH   8  36
ATOM     36  C   UNL A   1     -26.783   1.090  29.212  0.00  0.00    +0.044 C 
BRANCH  36  37
ATOM     37  C   UNL A   1     -27.881   1.023  28.160  0.00  0.00    +0.009 C 
BRANCH  37  44
ATOM     38  C   UNL A   1     -32.951   0.078  27.419  0.00  0.00    +0.032 C 
ATOM     39  C   UNL A   1     -30.985   2.973  28.025  0.00  0.00    +0.002 C 
ATOM     40  C   UNL A   1     -30.511   3.359  29.349  0.00  0.00    +0.000 C 
ATOM     41  C   UNL A   1     -31.169   1.537  27.732  0.00  0.00    +0.028 C 
ATOM     42  O   UNL A   1     -30.695  -0.604  27.210  0.00  0.00    -0.356 OA
ATOM     43  C   UNL A   1     -32.614   1.273  28.196  0.00  0.00    +0.005 C 
ATOM     44  C   UNL A   1     -29.184   1.300  28.885  0.00  0.00    +0.028 C 
ATOM     45  C   UNL A   1     -30.339   0.306  28.406  0.00  0.00    +0.123 C 
ATOM     46  C   UNL A   1     -29.209   2.667  29.600  0.00  0.00    +0.002 C 
ATOM     47  C   UNL A   1     -32.023  -1.107  27.517  0.00  0.00    +0.142 C 
BRANCH  45  48
ATOM     48  C   UNL A   1     -29.513  -1.062  29.197  0.00  0.00    +0.209 C 
ATOM     49  O   UNL A   1     -29.456  -0.854  30.563  0.00  0.00    -0.218 OA
ENDBRANCH  45  48
ENDBRANCH  37  44
ENDBRANCH  36  37
ENDBRANCH   8  36
TORSDOF 12
