REMARK  Name = outputs/IAG933/test6/raw/output_5573_IAG933_linker_design_.xyz
REMARK  14 active torsions:
REMARK  status: ('A' for Active; 'I' for Inactive)
REMARK    1  A    between atoms: C_1  and  C_2
REMARK    2  A    between atoms: C_1  and  C_8
REMARK    3  A    between atoms: C_1  and  C_34
REMARK    4  A    between atoms: C_13  and  C_38
REMARK    5  A    between atoms: C_14  and  C_15
REMARK    6  A    between atoms: C_21  and  O_22
REMARK    7  A    between atoms: O_22  and  C_23
REMARK    8  A    between atoms: C_23  and  C_24
REMARK    9  A    between atoms: C_28  and  O_40
REMARK   10  A    between atoms: C_32  and  C_33
REMARK   11  A    between atoms: C_32  and  C_38
REMARK   12  A    between atoms: C_33  and  C_42
REMARK   13  A    between atoms: C_34  and  O_40
REMARK   14  A    between atoms: C_34  and  C_42
REMARK                            x       y       z     vdW  Elec       q    Type
REMARK                         _______ _______ _______ _____ _____    ______ ____
ROOT
ATOM      1  C   UNL A   1     -24.875  -0.042  28.951  0.00  0.00    +0.123 C 
ENDROOT
BRANCH   1   2
ATOM      2  C   UNL A   1     -24.855  -1.012  30.143  0.00  0.00    +0.066 C 
BRANCH   2   3
ATOM      3  C   UNL A   1     -24.973  -2.505  29.788  0.00  0.00    -0.019 C 
ATOM      4  C   UNL A   1     -23.906  -3.173  29.146  0.00  0.00    -0.004 C 
ATOM      5  C   UNL A   1     -23.989  -4.549  28.853  0.00  0.00    -0.000 C 
ATOM      6  C   UNL A   1     -25.137  -5.280  29.205  0.00  0.00    -0.000 C 
ATOM      7  C   UNL A   1     -26.232  -4.611  29.784  0.00  0.00    -0.000 C 
ATOM      8  C   UNL A   1     -26.155  -3.232  30.065  0.00  0.00    -0.004 C 
ENDBRANCH   2   3
BRANCH   2   9
ATOM      9  C   UNL A   1     -25.387  -0.679  31.571  0.00  0.00    +0.079 C 
ATOM     10  C   UNL A   1     -25.189   0.773  32.028  0.00  0.00    +0.019 C 
ATOM     11  C   UNL A   1     -25.336   0.684  33.544  0.00  0.00    +0.020 C 
ATOM     12  C   UNL A   1     -24.829  -0.715  33.905  0.00  0.00    +0.089 C 
ATOM     13  N   UNL A   1     -24.758  -1.481  32.646  0.00  0.00    -0.219 NA
ENDBRANCH   2   9
ENDBRANCH   1   2
BRANCH   1  14
ATOM     14  O   UNL A   1     -26.087   0.659  28.883  0.00  0.00    -0.358 OA
BRANCH  14  15
ATOM     15  C   UNL A   1     -27.275   0.137  29.581  0.00  0.00    +0.118 C 
ATOM     16  C   UNL A   1     -28.140  -1.018  28.952  0.00  0.00    +0.062 C 
ATOM     17  C   UNL A   1     -29.393  -0.811  29.331  0.00  0.00    +0.145 C 
ATOM     18  C   UNL A   1     -29.554   0.730  27.812  0.00  0.00    +0.142 C 
ATOM     19  C   UNL A   1     -29.052   1.787  28.796  0.00  0.00    +0.035 C 
ATOM     20  C   UNL A   1     -28.325   1.177  29.997  0.00  0.00    +0.032 C 
ATOM     21  O   UNL A   1     -30.352  -0.219  28.451  0.00  0.00    -0.354 OA
ENDBRANCH  14  15
ENDBRANCH   1  14
BRANCH   1  22
ATOM     22  C   UNL A   1     -23.633   0.534  28.771  0.00  0.00    +0.064 C 
BRANCH  22  23
ATOM     23  C   UNL A   1     -22.922   1.193  27.693  0.00  0.00    +0.170 C 
ATOM     24  O   UNL A   1     -21.519   1.377  27.629  0.00  0.00    -0.222 OA
BRANCH  23  26
ATOM     25 CL   UNL A   1     -22.882   2.712  25.423  0.00  0.00    -0.112 Cl
ATOM     26  C   UNL A   1     -23.545   1.761  26.811  0.00  0.00    +0.115 C 
BRANCH  26  27
ATOM     27  C   UNL A   1     -24.563   1.253  26.779  0.00  0.00    +0.048 C 
BRANCH  27  28
ATOM     28  C   UNL A   1     -25.688   1.614  26.461  0.00  0.00    +0.017 C 
ATOM     29  C   UNL A   1     -26.250   2.920  26.395  0.00  0.00    +0.073 C 
ATOM     30  C   UNL A   1     -27.438   3.091  25.645  0.00  0.00    +0.106 C 
ATOM     31  N   UNL A   1     -28.075   2.089  25.003  0.00  0.00    -0.208 NA
ATOM     32  C   UNL A   1     -27.543   0.849  25.079  0.00  0.00    +0.253 C 
ATOM     33  C   UNL A   1     -26.354   0.576  25.777  0.00  0.00    +0.189 C 
ATOM     34  F   UNL A   1     -25.860  -0.681  25.795  0.00  0.00    -0.200 F 
BRANCH  29  35
ATOM     35  C   UNL A   1     -25.642   4.093  27.123  0.00  0.00    +0.266 C 
ATOM     36  N   UNL A   1     -25.614   5.252  26.449  0.00  0.00    -0.200 NA
ATOM     37  C   UNL A   1     -25.026   6.479  26.963  0.00  0.00    +0.139 C 
ATOM     38  O   UNL A   1     -25.143   3.966  28.243  0.00  0.00    -0.268 OA
ENDBRANCH  29  35
BRANCH  32  39
ATOM     39  O   UNL A   1     -28.193  -0.208  24.477  0.00  0.00    -0.456 OA
BRANCH  39  40
ATOM     40  C   UNL A   1     -29.460   0.005  23.866  0.00  0.00    +0.243 C 
BRANCH  40  41
ATOM     41  C   UNL A   1     -30.065  -1.377  23.573  0.00  0.00    +0.229 C 
ATOM     42  O   UNL A   1     -30.729  -1.878  24.721  0.00  0.00    -0.216 OA
ENDBRANCH  40  41
ENDBRANCH  39  40
ENDBRANCH  32  39
ENDBRANCH  27  28
ENDBRANCH  26  27
ENDBRANCH  23  26
ENDBRANCH  22  23
ENDBRANCH   1  22
TORSDOF 14
