REMARK  Name = outputs/IAG933/test6/raw/output_5575_IAG933_linker_design_.xyz
REMARK  12 active torsions:
REMARK  status: ('A' for Active; 'I' for Inactive)
REMARK    1  A    between atoms: C_1  and  C_2
REMARK    2  A    between atoms: C_1  and  C_8
REMARK    3  A    between atoms: C_9  and  C_30
REMARK    4  A    between atoms: C_14  and  C_15
REMARK    5  A    between atoms: N_16  and  C_17
REMARK    6  A    between atoms: C_17  and  C_63
REMARK    7  A    between atoms: C_21  and  O_22
REMARK    8  A    between atoms: O_22  and  C_23
REMARK    9  A    between atoms: C_23  and  C_24
REMARK   10  A    between atoms: C_30  and  C_44
REMARK   11  A    between atoms: C_30  and  C_51
REMARK   12  A    between atoms: C_52  and  O_61
REMARK                            x       y       z     vdW  Elec       q    Type
REMARK                         _______ _______ _______ _____ _____    ______ ____
ROOT
ATOM      1  C   UNL A   1     -28.185   7.704  25.850  0.00  0.00    +0.003 C 
ATOM      2  C   UNL A   1     -32.335   8.650  24.612  0.00  0.00    +0.000 C 
ATOM      3  C   UNL A   1     -30.311   4.124  29.987  0.00  0.00    +0.051 C 
ATOM      4  C   UNL A   1     -26.461   7.896  29.697  0.00  0.00    +0.119 C 
ATOM      5  C   UNL A   1     -32.486   8.345  26.715  0.00  0.00    +0.005 C 
ATOM      6  C   UNL A   1     -24.557   4.279  32.075  0.00  0.00    +0.009 C 
ATOM      7  O   UNL A   1     -25.978   8.160  28.396  0.00  0.00    -0.357 OA
ATOM      8  O   UNL A   1     -27.565   3.482  30.564  0.00  0.00    -0.355 OA
ATOM      9  C   UNL A   1     -26.338   5.992  31.538  0.00  0.00    +0.086 C 
ATOM     10  O   UNL A   1     -31.786   4.987  28.239  0.00  0.00    -0.315 OA
ATOM     11  C   UNL A   1     -24.182   7.860  30.865  0.00  0.00    +0.207 C 
ATOM     12  C   UNL A   1     -32.138   7.261  24.871  0.00  0.00    +0.000 C 
ATOM     13  C   UNL A   1     -32.305   9.007  25.545  0.00  0.00    +0.000 C 
ATOM     14  C   UNL A   1     -26.971   8.487  26.312  0.00  0.00    +0.029 C 
ATOM     15  C   UNL A   1     -25.753   3.277  31.912  0.00  0.00    +0.057 C 
ATOM     16  O   UNL A   1     -23.955   6.590  31.524  0.00  0.00    -0.480 OA
ATOM     17  C   UNL A   1     -26.783   6.489  30.204  0.00  0.00    +0.040 C 
ATOM     18  C   UNL A   1     -25.576   8.540  30.761  0.00  0.00    +0.077 C 
ATOM     19  C   UNL A   1     -29.451   3.099  29.880  0.00  0.00    +0.050 C 
ATOM     20  C   UNL A   1     -27.593   9.710  27.026  0.00  0.00    +0.003 C 
ATOM     21  C   UNL A   1     -31.890   6.396  28.190  0.00  0.00    +0.273 C 
ATOM     22  C   UNL A   1     -31.514   7.499  27.425  0.00  0.00    +0.060 C 
ATOM     23  C   UNL A   1     -32.196   2.092  28.176  0.00  0.00    +0.092 C 
ATOM     24  C   UNL A   1     -26.895   4.264  31.633  0.00  0.00    +0.127 C 
ATOM     25  C   UNL A   1     -29.138   7.940  26.865  0.00  0.00    +0.000 C 
ATOM     26  C   UNL A   1     -28.290   2.770  30.341  0.00  0.00    +0.143 C 
ATOM     27  C   UNL A   1     -30.931   6.424  25.373  0.00  0.00    +0.000 C 
ATOM     28  C   UNL A   1     -24.836   5.806  31.680  0.00  0.00    +0.114 C 
ATOM     29  C   UNL A   1     -26.192   7.425  27.214  0.00  0.00    +0.137 C 
ATOM     30  N   UNL A   1     -31.006   2.840  28.427  0.00  0.00    -0.249 NA
ATOM     31  C   UNL A   1     -29.101   9.433  27.019  0.00  0.00    +0.000 C 
ATOM     32  C   UNL A   1     -30.439   7.166  26.472  0.00  0.00    +0.005 C 
ATOM     33  C   UNL A   1     -29.833   2.325  28.730  0.00  0.00    +0.077 C 
ATOM     34  C   UNL A   1     -31.076   4.029  28.917  0.00  0.00    +0.179 C 
ENDROOT
BRANCH  21  36
ATOM     35  O   UNL A   1     -31.059   7.374  29.862  0.00  0.00    -0.032 OA
ATOM     36  O   UNL A   1     -32.116   6.871  29.401  0.00  0.00    -0.161 OA
ENDBRANCH  21  36
BRANCH  29  37
ATOM     37  C   UNL A   1     -25.026   6.479  26.963  0.00  0.00    +0.145 C 
BRANCH  37  39
ATOM     38  C   UNL A   1     -25.642   4.093  27.123  0.00  0.00    +0.266 C 
ATOM     39  N   UNL A   1     -25.614   5.252  26.449  0.00  0.00    -0.199 NA
ATOM     40  O   UNL A   1     -25.143   3.966  28.243  0.00  0.00    -0.268 OA
BRANCH  38  42
ATOM     41  C   UNL A   1     -25.688   1.614  26.461  0.00  0.00    +0.041 C 
ATOM     42  C   UNL A   1     -26.250   2.920  26.395  0.00  0.00    +0.077 C 
ATOM     43  C   UNL A   1     -27.438   3.091  25.645  0.00  0.00    +0.107 C 
ATOM     44  N   UNL A   1     -28.075   2.089  25.003  0.00  0.00    -0.208 NA
ATOM     45  C   UNL A   1     -27.543   0.849  25.079  0.00  0.00    +0.253 C 
ATOM     46  C   UNL A   1     -26.354   0.576  25.777  0.00  0.00    +0.193 C 
ATOM     47  F   UNL A   1     -25.860  -0.681  25.795  0.00  0.00    -0.199 F 
BRANCH  45  48
ATOM     48  O   UNL A   1     -28.193  -0.208  24.477  0.00  0.00    -0.456 OA
BRANCH  48  49
ATOM     49  C   UNL A   1     -29.460   0.005  23.866  0.00  0.00    +0.243 C 
BRANCH  49  50
ATOM     50  C   UNL A   1     -30.065  -1.377  23.573  0.00  0.00    +0.229 C 
ATOM     51  O   UNL A   1     -30.729  -1.878  24.721  0.00  0.00    -0.216 OA
ENDBRANCH  49  50
ENDBRANCH  48  49
ENDBRANCH  45  48
ENDBRANCH  38  42
ENDBRANCH  37  39
ENDBRANCH  29  37
BRANCH  15  52
ATOM     52  C   UNL A   1     -25.662   1.835  31.047  0.00  0.00    +0.038 C 
BRANCH  52  54
ATOM     53  C   UNL A   1     -25.387  -0.679  31.571  0.00  0.00    +0.077 C 
ATOM     54  C   UNL A   1     -25.189   0.773  32.028  0.00  0.00    +0.023 C 
ATOM     55  C   UNL A   1     -25.336   0.684  33.544  0.00  0.00    +0.021 C 
ATOM     56  C   UNL A   1     -24.829  -0.715  33.905  0.00  0.00    +0.089 C 
ATOM     57  N   UNL A   1     -24.758  -1.481  32.646  0.00  0.00    -0.219 NA
BRANCH  53  58
ATOM     58  C   UNL A   1     -24.855  -1.012  30.143  0.00  0.00    +0.044 C 
BRANCH  58  59
ATOM     59  C   UNL A   1     -24.973  -2.505  29.788  0.00  0.00    -0.021 C 
ATOM     60  C   UNL A   1     -23.906  -3.173  29.146  0.00  0.00    -0.004 C 
ATOM     61  C   UNL A   1     -23.989  -4.549  28.853  0.00  0.00    -0.000 C 
ATOM     62  C   UNL A   1     -25.137  -5.280  29.205  0.00  0.00    -0.000 C 
ATOM     63  C   UNL A   1     -26.232  -4.611  29.784  0.00  0.00    -0.000 C 
ATOM     64  C   UNL A   1     -26.155  -3.232  30.065  0.00  0.00    -0.004 C 
ENDBRANCH  58  59
ENDBRANCH  53  58
ENDBRANCH  52  54
BRANCH  52  66
ATOM     65  C   UNL A   1     -22.487   1.111  27.840  0.00  0.00    +0.015 C 
ATOM     66  C   UNL A   1     -24.907   2.225  29.712  0.00  0.00    +0.015 C 
ATOM     67  C   UNL A   1     -23.754   1.520  28.747  0.00  0.00    -0.110 C 
ATOM     68  C   UNL A   1     -21.076   1.464  28.300  0.00  0.00    +0.040 C 
ENDBRANCH  52  66
ENDBRANCH  15  52
TORSDOF 12
