MODEL 557
MODEL 1
REMARK VINA RESULT:    -7.536      0.000      0.000
REMARK INTER + INTRA:          -9.109
REMARK INTER:                  -8.417
REMARK INTRA:                  -0.693
REMARK UNBOUND:                -0.693
REMARK  Name = No_557-gen_results/8p0m/2024-11-27-11-27-31/
REMARK  2 active torsions:
REMARK  status: ('A' for Active; 'I' for Inactive)
REMARK    1  A    between atoms: C_3  and  C_4
REMARK    2  A    between atoms: C_7  and  N_13
REMARK                            x       y       z     vdW  Elec       q    Type
REMARK                         _______ _______ _______ _____ _____    ______ ____
ROOT
ATOM      1  C   UNL A   1     -23.889  -0.868  31.039  0.00  0.00    +0.000 A 
ATOM      2  C   UNL A   1     -23.478   0.102  31.066  0.00  0.00    +0.001 A 
ATOM      3  C   UNL A   1     -24.374  -1.261  29.710  0.00  0.00    +0.001 A 
ATOM      4  C   UNL A   1     -23.533   1.202  30.145  0.00  0.00    +0.015 A 
ATOM      5  C   UNL A   1     -23.997   0.888  28.952  0.00  0.00    +0.048 A 
ATOM      6  C   UNL A   1     -24.403  -0.394  28.662  0.00  0.00    +0.015 A 
ENDROOT
BRANCH   3   7
ATOM      7  C   UNL A   1     -24.795  -2.648  29.437  0.00  0.00    +0.000 A 
ATOM      8  C   UNL A   1     -25.913  -3.165  29.887  0.00  0.00    +0.000 A 
ATOM      9  C   UNL A   1     -26.235  -4.500  29.663  0.00  0.00    +0.000 A 
ATOM     10  C   UNL A   1     -25.328  -5.362  29.049  0.00  0.00    +0.000 A 
ATOM     11  C   UNL A   1     -24.141  -4.836  28.561  0.00  0.00    +0.000 A 
ATOM     12  C   UNL A   1     -23.845  -3.530  28.746  0.00  0.00    +0.000 A 
ENDBRANCH   3   7
BRANCH   5  13
ATOM     13  N   UNL A   1     -24.043   1.864  27.898  0.00  0.00    -0.307 N 
ATOM     14  C   UNL A   1     -24.781   2.819  27.846  0.00  0.00    +0.091 C 
ATOM     15  C   UNL A   1     -24.694   3.671  26.642  0.00  0.00    +0.021 C 
ATOM     16  C   UNL A   1     -23.095   1.604  26.834  0.00  0.00    +0.091 C 
ATOM     17  C   UNL A   1     -23.124   2.385  25.692  0.00  0.00    +0.021 C 
ATOM     18  C   UNL A   1     -23.894   3.491  25.636  0.00  0.00    +0.004 C 
ENDBRANCH   5  13
TORSDOF 2
ENDMDL
ENDMDL
