REMARK  Name = outputs/IAG933/test6/raw/output_5580_IAG933_linker_design_.xyz
REMARK  13 active torsions:
REMARK  status: ('A' for Active; 'I' for Inactive)
REMARK    1  A    between atoms: C_1  and  C_2
REMARK    2  A    between atoms: C_1  and  C_8
REMARK    3  A    between atoms: C_1  and  N_35
REMARK    4  A    between atoms: C_13  and  C_30
REMARK    5  A    between atoms: C_14  and  C_15
REMARK    6  A    between atoms: C_21  and  O_22
REMARK    7  A    between atoms: O_22  and  C_23
REMARK    8  A    between atoms: C_23  and  C_24
REMARK    9  A    between atoms: C_30  and  C_34
REMARK   10  A    between atoms: C_30  and  C_39
REMARK   11  A    between atoms: C_32  and  C_45
REMARK   12  A    between atoms: O_33  and  C_47
REMARK   13  A    between atoms: C_34  and  N_35
REMARK                            x       y       z     vdW  Elec       q    Type
REMARK                         _______ _______ _______ _____ _____    ______ ____
ROOT
ATOM      1  C   UNL A   1     -24.813   0.929  28.775  0.00  0.00    +0.099 C 
ENDROOT
BRANCH   1   3
ATOM      2  C   UNL A   1     -26.870   0.467  29.076  0.00  0.00    +0.249 C 
ATOM      3  N   UNL A   1     -25.687  -0.178  29.156  0.00  0.00    -0.272 N 
ATOM      4  O   UNL A   1     -27.032   1.686  29.163  0.00  0.00    -0.270 OA
BRANCH   2   9
ATOM      5  C   UNL A   1     -28.438  -1.214  30.190  0.00  0.00    +0.003 C 
ATOM      6  C   UNL A   1     -30.519  -0.798  28.350  0.00  0.00    +0.037 C 
ATOM      7  C   UNL A   1     -29.265  -0.131  28.211  0.00  0.00    +0.008 C 
ATOM      8  C   UNL A   1     -30.010  -2.526  31.733  0.00  0.00    +0.034 C 
ATOM      9  C   UNL A   1     -28.253  -0.328  29.146  0.00  0.00    +0.053 C 
ATOM     10  C   UNL A   1     -29.671  -1.834  30.350  0.00  0.00    +0.012 C 
ATOM     11  C   UNL A   1     -30.691  -1.753  29.359  0.00  0.00    +0.135 C 
BRANCH  11  13
ATOM     12  C   UNL A   1     -31.902  -3.980  29.689  0.00  0.00    +0.253 C 
ATOM     13  O   UNL A   1     -31.879  -2.533  29.370  0.00  0.00    -0.472 OA
ENDBRANCH  11  13
ENDBRANCH   2   9
BRANCH   3  14
ATOM     14  C   UNL A   1     -24.855  -1.012  30.143  0.00  0.00    +0.114 C 
BRANCH  14  15
ATOM     15  C   UNL A   1     -24.973  -2.505  29.788  0.00  0.00    -0.003 C 
ATOM     16  C   UNL A   1     -23.906  -3.173  29.146  0.00  0.00    -0.003 C 
ATOM     17  C   UNL A   1     -23.989  -4.549  28.853  0.00  0.00    -0.000 C 
ATOM     18  C   UNL A   1     -25.137  -5.280  29.205  0.00  0.00    -0.000 C 
ATOM     19  C   UNL A   1     -26.232  -4.611  29.784  0.00  0.00    -0.000 C 
ATOM     20  C   UNL A   1     -26.155  -3.232  30.065  0.00  0.00    -0.003 C 
ENDBRANCH  14  15
BRANCH  14  21
ATOM     21  C   UNL A   1     -25.387  -0.679  31.571  0.00  0.00    +0.095 C 
ATOM     22  C   UNL A   1     -25.189   0.773  32.028  0.00  0.00    +0.021 C 
ATOM     23  C   UNL A   1     -25.336   0.684  33.544  0.00  0.00    +0.020 C 
ATOM     24  C   UNL A   1     -24.829  -0.715  33.905  0.00  0.00    +0.089 C 
ATOM     25  N   UNL A   1     -24.758  -1.481  32.646  0.00  0.00    -0.217 NA
ENDBRANCH  14  21
ENDBRANCH   3  14
ENDBRANCH   1   3
BRANCH   1  26
ATOM     26  C   UNL A   1     -24.680   1.209  27.469  0.00  0.00    +0.057 C 
BRANCH  26  27
ATOM     27  C   UNL A   1     -25.688   1.614  26.461  0.00  0.00    +0.076 C 
ATOM     28  C   UNL A   1     -26.250   2.920  26.395  0.00  0.00    +0.055 C 
ATOM     29  C   UNL A   1     -27.438   3.091  25.645  0.00  0.00    +0.102 C 
ATOM     30  N   UNL A   1     -28.075   2.089  25.003  0.00  0.00    -0.212 NA
ATOM     31  C   UNL A   1     -27.543   0.849  25.079  0.00  0.00    +0.234 C 
ATOM     32  C   UNL A   1     -26.354   0.576  25.777  0.00  0.00    +0.240 C 
ATOM     33  F   UNL A   1     -25.860  -0.681  25.795  0.00  0.00    -0.227 F 
BRANCH  28  34
ATOM     34  C   UNL A   1     -25.642   4.093  27.123  0.00  0.00    +0.263 C 
ATOM     35  N   UNL A   1     -25.614   5.252  26.449  0.00  0.00    -0.200 NA
ATOM     36  C   UNL A   1     -25.026   6.479  26.963  0.00  0.00    +0.139 C 
ATOM     37  O   UNL A   1     -25.143   3.966  28.243  0.00  0.00    -0.269 OA
ENDBRANCH  28  34
BRANCH  31  38
ATOM     38  O   UNL A   1     -28.193  -0.208  24.477  0.00  0.00    -0.459 OA
BRANCH  38  39
ATOM     39  C   UNL A   1     -29.460   0.005  23.866  0.00  0.00    +0.242 C 
BRANCH  39  40
ATOM     40  C   UNL A   1     -30.065  -1.377  23.573  0.00  0.00    +0.229 C 
ATOM     41  O   UNL A   1     -30.729  -1.878  24.721  0.00  0.00    -0.216 OA
ENDBRANCH  39  40
ENDBRANCH  38  39
ENDBRANCH  31  38
ENDBRANCH  26  27
BRANCH  26  44
ATOM     42  C   UNL A   1     -21.258   1.386  27.843  0.00  0.00    +0.211 C 
ATOM     43  F   UNL A   1     -23.183   2.418  25.140  0.00  0.00    -0.163 F 
ATOM     44  C   UNL A   1     -23.430   1.369  27.404  0.00  0.00    +0.074 C 
ATOM     45  O   UNL A   1     -21.375   2.012  26.596  0.00  0.00    -0.424 OA
ATOM     46  C   UNL A   1     -22.697   2.008  26.322  0.00  0.00    +0.286 C 
ATOM     47  C   UNL A   1     -22.430   0.955  28.267  0.00  0.00    +0.179 C 
ATOM     48  F   UNL A   1     -22.404   0.127  29.362  0.00  0.00    -0.201 F 
ENDBRANCH  26  44
ENDBRANCH   1  26
TORSDOF 13
