REMARK  Name = outputs/IAG933/test6/raw/output_5581_IAG933_linker_design_.xyz
REMARK  9 active torsions:
REMARK  status: ('A' for Active; 'I' for Inactive)
REMARK    1  A    between atoms: C_1  and  C_2
REMARK    2  A    between atoms: C_13  and  N_28
REMARK    3  A    between atoms: C_14  and  C_15
REMARK    4  A    between atoms: C_21  and  O_22
REMARK    5  A    between atoms: O_22  and  C_23
REMARK    6  A    between atoms: C_23  and  C_24
REMARK    7  A    between atoms: N_28  and  C_37
REMARK    8  A    between atoms: C_31  and  C_33
REMARK    9  A    between atoms: CA_39  and  C_43
REMARK                            x       y       z     vdW  Elec       q    Type
REMARK                         _______ _______ _______ _____ _____    ______ ____
ROOT
ATOM      1  C   UNL A   1     -24.855  -1.012  30.143  0.00  0.00    +0.082 C 
ATOM      2  C   UNL A   1     -25.387  -0.679  31.571  0.00  0.00    +0.082 C 
ATOM      3  C   UNL A   1     -25.189   0.773  32.028  0.00  0.00    +0.045 C 
ATOM      4  C   UNL A   1     -25.336   0.684  33.544  0.00  0.00    +0.022 C 
ATOM      5  C   UNL A   1     -24.829  -0.715  33.905  0.00  0.00    +0.089 C 
ATOM      6  N   UNL A   1     -24.758  -1.481  32.646  0.00  0.00    -0.219 NA
ATOM      7  C   UNL A   1     -24.818   0.371  29.473  0.00  0.00    +0.192 C 
ATOM      8  C   UNL A   1     -22.171   1.329  27.142  0.00  0.00    +0.252 C 
ATOM      9  O   UNL A   1     -21.503   0.870  28.084  0.00  0.00    -0.443 OA
ATOM     10  O   UNL A   1     -25.031  -0.106  28.067  0.00  0.00    -0.329 OA
ATOM     11  C   UNL A   1     -23.562   1.373  27.380  0.00  0.00    +0.158 C 
ATOM     12  C   UNL A   1     -22.499   0.162  28.850  0.00  0.00    +0.347 C 
ATOM     13  CA  UNL A   1     -25.636   2.037  31.286  0.00  0.00    +0.179 C 
ATOM     14  C   UNL A   1     -23.859   0.504  28.403  0.00  0.00    +0.238 C 
ATOM     15  N   UNL A   1     -25.372   1.720  29.832  0.00  0.00    -0.182 NA
ATOM     16  O   UNL A   1     -22.270  -0.499  29.964  0.00  0.00    -0.247 OA
ENDROOT
BRANCH   1  17
ATOM     17  C   UNL A   1     -24.973  -2.505  29.788  0.00  0.00    -0.017 C 
ATOM     18  C   UNL A   1     -23.906  -3.173  29.146  0.00  0.00    -0.004 C 
ATOM     19  C   UNL A   1     -23.989  -4.549  28.853  0.00  0.00    -0.000 C 
ATOM     20  C   UNL A   1     -25.137  -5.280  29.205  0.00  0.00    -0.000 C 
ATOM     21  C   UNL A   1     -26.232  -4.611  29.784  0.00  0.00    -0.000 C 
ATOM     22  C   UNL A   1     -26.155  -3.232  30.065  0.00  0.00    -0.004 C 
ENDBRANCH   1  17
BRANCH  13  25
ATOM     23  OXT UNL A   1     -25.014   3.723  33.017  0.00  0.00    -0.244 OA
ATOM     24  O   UNL A   1     -25.693   4.311  30.902  0.00  0.00    -0.244 OA
ATOM     25  C   UNL A   1     -25.363   3.399  31.858  0.00  0.00    +0.380 C 
ENDBRANCH  13  25
BRANCH   8  27
ATOM     26  O   UNL A   1     -22.199   1.922  24.595  0.00  0.00    -0.180 OA
ATOM     27  C   UNL A   1     -21.674   1.965  25.948  0.00  0.00    +0.350 C 
ATOM     28  F   UNL A   1     -21.024   2.169  26.355  0.00  0.00    -0.197 F 
ENDBRANCH   8  27
BRANCH  11  29
ATOM     29  N   UNL A   1     -24.386   1.433  26.639  0.00  0.00    -0.206 NA
BRANCH  29  30
ATOM     30  C   UNL A   1     -25.688   1.614  26.461  0.00  0.00    +0.143 C 
ATOM     31  C   UNL A   1     -26.250   2.920  26.395  0.00  0.00    +0.071 C 
ATOM     32  C   UNL A   1     -27.438   3.091  25.645  0.00  0.00    +0.103 C 
ATOM     33  N   UNL A   1     -28.075   2.089  25.003  0.00  0.00    -0.212 NA
ATOM     34  C   UNL A   1     -27.543   0.849  25.079  0.00  0.00    +0.236 C 
ATOM     35  C   UNL A   1     -26.354   0.576  25.777  0.00  0.00    +0.256 C 
ATOM     36  F   UNL A   1     -25.860  -0.681  25.795  0.00  0.00    -0.225 F 
BRANCH  31  37
ATOM     37  C   UNL A   1     -25.642   4.093  27.123  0.00  0.00    +0.264 C 
ATOM     38  N   UNL A   1     -25.614   5.252  26.449  0.00  0.00    -0.200 NA
ATOM     39  C   UNL A   1     -25.026   6.479  26.963  0.00  0.00    +0.139 C 
ATOM     40  O   UNL A   1     -25.143   3.966  28.243  0.00  0.00    -0.269 OA
ENDBRANCH  31  37
BRANCH  34  41
ATOM     41  O   UNL A   1     -28.193  -0.208  24.477  0.00  0.00    -0.459 OA
BRANCH  41  42
ATOM     42  C   UNL A   1     -29.460   0.005  23.866  0.00  0.00    +0.242 C 
BRANCH  42  43
ATOM     43  C   UNL A   1     -30.065  -1.377  23.573  0.00  0.00    +0.229 C 
ATOM     44  O   UNL A   1     -30.729  -1.878  24.721  0.00  0.00    -0.216 OA
ENDBRANCH  42  43
ENDBRANCH  41  42
ENDBRANCH  34  41
ENDBRANCH  29  30
ENDBRANCH  11  29
TORSDOF 9
