REMARK  Name = outputs/IAG933/test6/raw/output_5583_IAG933_linker_design_.xyz
REMARK  12 active torsions:
REMARK  status: ('A' for Active; 'I' for Inactive)
REMARK    1  A    between atoms: C_1  and  C_2
REMARK    2  A    between atoms: C_1  and  C_8
REMARK    3  A    between atoms: C_1  and  N_41
REMARK    4  A    between atoms: C_14  and  C_15
REMARK    5  A    between atoms: C_15  and  O_18
REMARK    6  A    between atoms: O_18  and  C_39
REMARK    7  A    between atoms: C_21  and  O_22
REMARK    8  A    between atoms: O_22  and  C_23
REMARK    9  A    between atoms: C_23  and  C_24
REMARK   10  A    between atoms: C_31  and  C_39
REMARK   11  A    between atoms: C_35  and  N_41
REMARK   12  A    between atoms: C_40  and  N_42
REMARK                            x       y       z     vdW  Elec       q    Type
REMARK                         _______ _______ _______ _____ _____    ______ ____
ROOT
ATOM      1  C   UNL A   1     -25.719   3.514  29.417  0.00  0.00    +0.288 C 
ATOM      2  N   UNL A   1     -24.947   2.339  29.531  0.00  0.00    -0.206 NA
ENDROOT
BRANCH   2   8
ATOM      3  C   UNL A   1     -23.021   2.609  27.701  0.00  0.00    +0.021 C 
ATOM      4  C   UNL A   1     -21.304   1.021  28.220  0.00  0.00    +0.001 C 
ATOM      5  C   UNL A   1     -23.564   0.611  28.980  0.00  0.00    +0.083 C 
ATOM      6  C   UNL A   1     -22.227   0.281  28.986  0.00  0.00    +0.018 C 
ATOM      7  C   UNL A   1     -21.719   2.169  27.495  0.00  0.00    +0.002 C 
ATOM      8  C   UNL A   1     -23.832   1.920  28.642  0.00  0.00    +0.099 C 
BRANCH   5   9
ATOM      9  N   UNL A   1     -24.569  -0.191  29.175  0.00  0.00    -0.232 NA
BRANCH   9  10
ATOM     10  C   UNL A   1     -24.855  -1.012  30.143  0.00  0.00    +0.131 C 
BRANCH  10  11
ATOM     11  C   UNL A   1     -24.973  -2.505  29.788  0.00  0.00    -0.001 C 
ATOM     12  C   UNL A   1     -23.906  -3.173  29.146  0.00  0.00    -0.003 C 
ATOM     13  C   UNL A   1     -23.989  -4.549  28.853  0.00  0.00    -0.000 C 
ATOM     14  C   UNL A   1     -25.137  -5.280  29.205  0.00  0.00    -0.000 C 
ATOM     15  C   UNL A   1     -26.232  -4.611  29.784  0.00  0.00    -0.000 C 
ATOM     16  C   UNL A   1     -26.155  -3.232  30.065  0.00  0.00    -0.003 C 
ENDBRANCH  10  11
BRANCH  10  17
ATOM     17  C   UNL A   1     -25.387  -0.679  31.571  0.00  0.00    +0.097 C 
ATOM     18  C   UNL A   1     -25.189   0.773  32.028  0.00  0.00    +0.021 C 
ATOM     19  C   UNL A   1     -25.336   0.684  33.544  0.00  0.00    +0.020 C 
ATOM     20  C   UNL A   1     -24.829  -0.715  33.905  0.00  0.00    +0.089 C 
ATOM     21  N   UNL A   1     -24.758  -1.481  32.646  0.00  0.00    -0.217 NA
ENDBRANCH  10  17
ENDBRANCH   9  10
ENDBRANCH   5   9
ENDBRANCH   2   8
BRANCH   1  24
ATOM     22  C   UNL A   1     -25.604   4.303  31.978  0.00  0.00    +0.306 C 
ATOM     23 BR   UNL A   1     -25.451   4.617  33.766  0.00  0.00    +0.017 Br
ATOM     24  C   UNL A   1     -26.742   4.110  30.016  0.00  0.00    +0.326 C 
ATOM     25  O   UNL A   1     -24.503   4.130  31.522  0.00  0.00    -0.260 OA
ATOM     26  N   UNL A   1     -26.800   4.282  31.443  0.00  0.00    -0.127 NA
ATOM     27  O   UNL A   1     -27.670   4.598  29.376  0.00  0.00    -0.263 OA
ENDBRANCH   1  24
BRANCH   1  28
ATOM     28  O   UNL A   1     -25.143   3.966  28.243  0.00  0.00    -0.415 OA
BRANCH  28  29
ATOM     29  C   UNL A   1     -25.642   4.093  27.123  0.00  0.00    +0.229 C 
ATOM     30  N   UNL A   1     -25.614   5.252  26.449  0.00  0.00    -0.235 NA
ATOM     31  C   UNL A   1     -25.026   6.479  26.963  0.00  0.00    +0.155 C 
BRANCH  29  33
ATOM     32  C   UNL A   1     -25.688   1.614  26.461  0.00  0.00    +0.041 C 
ATOM     33  C   UNL A   1     -26.250   2.920  26.395  0.00  0.00    +0.075 C 
ATOM     34  C   UNL A   1     -27.438   3.091  25.645  0.00  0.00    +0.107 C 
ATOM     35  N   UNL A   1     -28.075   2.089  25.003  0.00  0.00    -0.208 NA
ATOM     36  C   UNL A   1     -27.543   0.849  25.079  0.00  0.00    +0.253 C 
ATOM     37  C   UNL A   1     -26.354   0.576  25.777  0.00  0.00    +0.193 C 
ATOM     38  F   UNL A   1     -25.860  -0.681  25.795  0.00  0.00    -0.199 F 
BRANCH  36  39
ATOM     39  O   UNL A   1     -28.193  -0.208  24.477  0.00  0.00    -0.456 OA
BRANCH  39  40
ATOM     40  C   UNL A   1     -29.460   0.005  23.866  0.00  0.00    +0.243 C 
BRANCH  40  41
ATOM     41  C   UNL A   1     -30.065  -1.377  23.573  0.00  0.00    +0.229 C 
ATOM     42  O   UNL A   1     -30.729  -1.878  24.721  0.00  0.00    -0.216 OA
ENDBRANCH  40  41
ENDBRANCH  39  40
ENDBRANCH  36  39
ENDBRANCH  29  33
ENDBRANCH  28  29
ENDBRANCH   1  28
TORSDOF 12
