MODEL 558
MODEL 1
REMARK VINA RESULT:    -7.752      0.000      0.000
REMARK INTER + INTRA:         -13.756
REMARK INTER:                 -10.472
REMARK INTRA:                  -3.285
REMARK UNBOUND:                -3.285
REMARK  Name = No_558-gen_results/8p0m/2024-11-27-11-27-31/
REMARK  6 active torsions:
REMARK  status: ('A' for Active; 'I' for Inactive)
REMARK    1  A    between atoms: C_3  and  C_7
REMARK    2  A    between atoms: C_7  and  C_8
REMARK    3  A    between atoms: C_7  and  C_9
REMARK    4  A    between atoms: C_10  and  C_16
REMARK    5  A    between atoms: C_16  and  C_22
REMARK    6  A    between atoms: C_22  and  C_23
REMARK                            x       y       z     vdW  Elec       q    Type
REMARK                         _______ _______ _______ _____ _____    ______ ____
ROOT
ATOM      1  C   UNL A   1     -25.273  -1.429  29.121  0.00  0.00    +0.064 C 
ENDROOT
BRANCH   1   2
ATOM      2  C   UNL A   1     -24.579  -0.697  30.236  0.00  0.00    +0.099 C 
ATOM      3  C   UNL A   1     -23.533   0.232  29.926  0.00  0.00    -0.028 C 
ATOM      4  C   UNL A   1     -23.293   1.341  30.683  0.00  0.00    -0.007 C 
ATOM      5  C   UNL A   1     -24.294   2.007  31.353  0.00  0.00    -0.004 C 
ATOM      6  C   UNL A   1     -25.444   1.258  31.679  0.00  0.00    -0.007 C 
ATOM      7  N   UNL A   1     -24.650  -1.102  31.494  0.00  0.00    -0.210 NA
ATOM      8  C   UNL A   1     -25.536  -0.062  32.044  0.00  0.00    +0.115 C 
BRANCH   3   9
ATOM      9  C   UNL A   1     -22.531  -0.095  28.858  0.00  0.00    +0.028 C 
BRANCH   9  10
ATOM     10  C   UNL A   1     -21.815   1.122  28.331  0.00  0.00    +0.030 C 
BRANCH  10  11
ATOM     11  C   UNL A   1     -22.168   1.497  27.165  0.00  0.00    -0.030 C 
ATOM     12  C   UNL A   1     -23.107   2.297  26.811  0.00  0.00    -0.030 C 
ATOM     13  C   UNL A   1     -23.321   2.696  25.496  0.00  0.00    +0.030 C 
ENDBRANCH  10  11
ENDBRANCH   9  10
ENDBRANCH   3   9
ENDBRANCH   1   2
BRANCH   1  16
ATOM     14  C   UNL A   1     -25.267  -0.724  26.681  0.00  0.00    -0.004 A 
ATOM     15  C   UNL A   1     -25.699  -0.154  25.908  0.00  0.00    -0.000 A 
ATOM     16  C   UNL A   1     -25.811  -0.525  27.995  0.00  0.00    -0.017 A 
ATOM     17  C   UNL A   1     -26.694   0.436  28.280  0.00  0.00    -0.004 A 
ATOM     18  C   UNL A   1     -27.145   1.180  27.225  0.00  0.00    -0.000 A 
ATOM     19  C   UNL A   1     -26.664   0.924  25.968  0.00  0.00    -0.000 A 
ENDBRANCH   1  16
BRANCH   1  20
ATOM     20  C   UNL A   1     -25.271  -2.595  29.147  0.00  0.00    -0.017 A 
ATOM     21  C   UNL A   1     -26.245  -3.437  29.696  0.00  0.00    -0.004 A 
ATOM     22  C   UNL A   1     -24.087  -3.320  28.641  0.00  0.00    -0.004 A 
ATOM     23  C   UNL A   1     -23.976  -4.665  28.532  0.00  0.00    -0.000 A 
ATOM     24  C   UNL A   1     -26.139  -4.856  29.633  0.00  0.00    -0.000 A 
ATOM     25  C   UNL A   1     -25.003  -5.368  29.151  0.00  0.00    -0.000 A 
ENDBRANCH   1  20
TORSDOF 6
ENDMDL
ENDMDL
