REMARK  Name = No_559-gen_results/8p0m/2024-11-27-11-27-31/
REMARK  0 active torsions:
REMARK  status: ('A' for Active; 'I' for Inactive)
REMARK                            x       y       z     vdW  Elec       q    Type
REMARK                         _______ _______ _______ _____ _____    ______ ____
ROOT
ATOM      1  C   UNL A   1     -28.016  -0.814  28.878  0.00  0.00    +0.016 A 
ATOM      2  C   UNL A   1     -28.469  -0.785  29.829  0.00  0.00    +0.001 A 
ATOM      3  C   UNL A   1     -26.504  -0.778  28.877  0.00  0.00    +0.006 A 
ATOM      4  C   UNL A   1     -25.762  -0.002  27.971  0.00  0.00    +0.053 A 
ATOM      5  C   UNL A   1     -24.391   0.120  28.138  0.00  0.00    -0.006 A 
ATOM      6  C   UNL A   1     -23.712  -0.720  29.086  0.00  0.00    +0.087 A 
ATOM      7  C   UNL A   1     -24.421  -1.536  29.916  0.00  0.00    +0.007 A 
ATOM      8  C   UNL A   1     -25.802  -1.584  29.812  0.00  0.00    +0.000 A 
ATOM      9  C   UNL A   1     -29.940  -0.615  29.952  0.00  0.00    +0.000 A 
ATOM     10  C   UNL A   1     -30.553  -0.349  28.738  0.00  0.00    +0.002 A 
ATOM     11  C   UNL A   1     -29.831  -0.135  27.633  0.00  0.00    +0.017 A 
ATOM     12  C   UNL A   1     -28.501  -0.162  27.699  0.00  0.00    +0.062 A 
ATOM     13  N   UNL A   1     -27.460   0.038  26.792  0.00  0.00    -0.293 N 
ATOM     14  C   UNL A   1     -26.364   0.486  26.875  0.00  0.00    +0.261 A 
ATOM     15  C   UNL A   1     -28.060   0.005  25.326  0.00  0.00    +0.134 C 
ATOM     16  O   UNL A   1     -25.763   1.271  26.142  0.00  0.00    -0.267 OA
ATOM     17  C   UNL A   1     -22.233  -0.573  29.172  0.00  0.00    +0.413 C 
ATOM     18  N   UNL A   1     -21.454  -1.270  29.694  0.00  0.00    +0.197 NA
ATOM     19  N   UNL A   1     -21.674   0.396  28.244  0.00  0.00    -0.027 NA
ATOM     20  C   UNL A   1     -22.316   1.438  27.725  0.00  0.00    +0.256 C 
ATOM     21  C   UNL A   1     -23.741   1.299  27.554  0.00  0.00    +0.082 C 
ENDROOT
TORSDOF 0
