REMARK  Name = outputs/IAG933/test6/raw/output_5597_IAG933_linker_design_.xyz
REMARK  13 active torsions:
REMARK  status: ('A' for Active; 'I' for Inactive)
REMARK    1  A    between atoms: C_1  and  C_2
REMARK    2  A    between atoms: C_1  and  C_8
REMARK    3  A    between atoms: C_1  and  C_40
REMARK    4  A    between atoms: C_13  and  C_38
REMARK    5  A    between atoms: C_14  and  C_15
REMARK    6  A    between atoms: C_21  and  O_22
REMARK    7  A    between atoms: O_22  and  C_23
REMARK    8  A    between atoms: C_23  and  C_24
REMARK    9  A    between atoms: C_32  and  C_42
REMARK   10  A    between atoms: C_33  and  C_40
REMARK   11  A    between atoms: C_33  and  C_42
REMARK   12  A    between atoms: C_34  and  C_43
REMARK   13  A    between atoms: C_40  and  C_43
REMARK                            x       y       z     vdW  Elec       q    Type
REMARK                         _______ _______ _______ _____ _____    ______ ____
ROOT
ATOM      1  O   UNL A   1     -22.479  -0.278  29.599  0.00  0.00    -0.284 OA
ATOM      2  C   UNL A   1     -22.706   0.403  28.492  0.00  0.00    +0.222 C 
ATOM      3  C   UNL A   1     -21.512   0.594  27.879  0.00  0.00    +0.164 C 
ATOM      4  C   UNL A   1     -24.088   0.927  27.977  0.00  0.00    +0.019 C 
ATOM      5  O   UNL A   1     -21.267   1.355  26.745  0.00  0.00    -0.428 OA
ATOM      6  C   UNL A   1     -20.391   0.022  28.454  0.00  0.00    +0.076 C 
ATOM      7  C   UNL A   1     -22.070   1.483  25.756  0.00  0.00    +0.327 C 
ATOM      8  C   UNL A   1     -24.282   1.327  26.716  0.00  0.00    +0.029 C 
ATOM      9  F   UNL A   1     -21.388   1.829  24.551  0.00  0.00    -0.159 F 
ATOM     10  O   UNL A   1     -23.912   1.123  24.383  0.00  0.00    -0.281 OA
ATOM     11  C   UNL A   1     -23.418   1.402  25.574  0.00  0.00    +0.255 C 
ENDROOT
BRANCH   8  12
ATOM     12  C   UNL A   1     -25.688   1.614  26.461  0.00  0.00    +0.095 C 
ATOM     13  C   UNL A   1     -26.250   2.920  26.395  0.00  0.00    +0.059 C 
ATOM     14  C   UNL A   1     -27.438   3.091  25.645  0.00  0.00    +0.102 C 
ATOM     15  N   UNL A   1     -28.075   2.089  25.003  0.00  0.00    -0.212 NA
ATOM     16  C   UNL A   1     -27.543   0.849  25.079  0.00  0.00    +0.234 C 
ATOM     17  C   UNL A   1     -26.354   0.576  25.777  0.00  0.00    +0.244 C 
ATOM     18  F   UNL A   1     -25.860  -0.681  25.795  0.00  0.00    -0.227 F 
BRANCH  13  19
ATOM     19  C   UNL A   1     -25.642   4.093  27.123  0.00  0.00    +0.263 C 
ATOM     20  N   UNL A   1     -25.614   5.252  26.449  0.00  0.00    -0.200 NA
ATOM     21  C   UNL A   1     -25.026   6.479  26.963  0.00  0.00    +0.139 C 
ATOM     22  O   UNL A   1     -25.143   3.966  28.243  0.00  0.00    -0.269 OA
ENDBRANCH  13  19
BRANCH  16  23
ATOM     23  O   UNL A   1     -28.193  -0.208  24.477  0.00  0.00    -0.459 OA
BRANCH  23  24
ATOM     24  C   UNL A   1     -29.460   0.005  23.866  0.00  0.00    +0.242 C 
BRANCH  24  25
ATOM     25  C   UNL A   1     -30.065  -1.377  23.573  0.00  0.00    +0.229 C 
ATOM     26  O   UNL A   1     -30.729  -1.878  24.721  0.00  0.00    -0.216 OA
ENDBRANCH  24  25
ENDBRANCH  23  24
ENDBRANCH  16  23
ENDBRANCH   8  12
BRANCH   4  27
ATOM     27  C   UNL A   1     -25.153   0.996  28.881  0.00  0.00    +0.030 C 
BRANCH  27  28
ATOM     28  C   UNL A   1     -25.764  -0.205  29.138  0.00  0.00    +0.010 C 
BRANCH  28  29
ATOM     29  C   UNL A   1     -24.855  -1.012  30.143  0.00  0.00    +0.039 C 
BRANCH  29  30
ATOM     30  C   UNL A   1     -24.973  -2.505  29.788  0.00  0.00    -0.021 C 
ATOM     31  C   UNL A   1     -23.906  -3.173  29.146  0.00  0.00    -0.004 C 
ATOM     32  C   UNL A   1     -23.989  -4.549  28.853  0.00  0.00    -0.000 C 
ATOM     33  C   UNL A   1     -25.137  -5.280  29.205  0.00  0.00    -0.000 C 
ATOM     34  C   UNL A   1     -26.232  -4.611  29.784  0.00  0.00    -0.000 C 
ATOM     35  C   UNL A   1     -26.155  -3.232  30.065  0.00  0.00    -0.004 C 
ENDBRANCH  29  30
BRANCH  29  36
ATOM     36  C   UNL A   1     -25.387  -0.679  31.571  0.00  0.00    +0.077 C 
ATOM     37  C   UNL A   1     -25.189   0.773  32.028  0.00  0.00    +0.019 C 
ATOM     38  C   UNL A   1     -25.336   0.684  33.544  0.00  0.00    +0.020 C 
ATOM     39  C   UNL A   1     -24.829  -0.715  33.905  0.00  0.00    +0.089 C 
ATOM     40  N   UNL A   1     -24.758  -1.481  32.646  0.00  0.00    -0.219 NA
ENDBRANCH  29  36
ENDBRANCH  28  29
BRANCH  28  41
ATOM     41  C   UNL A   1     -26.976  -0.577  28.771  0.00  0.00    +0.003 C 
BRANCH  41  42
ATOM     42  C   UNL A   1     -28.138   0.301  28.748  0.00  0.00    +0.036 C 
BRANCH  42  44
ATOM     43  O   UNL A   1     -28.734  -0.433  30.956  0.00  0.00    -0.220 OA
ATOM     44  C   UNL A   1     -29.050   0.443  29.901  0.00  0.00    +0.182 C 
ENDBRANCH  42  44
ENDBRANCH  41  42
ENDBRANCH  28  41
ENDBRANCH  27  28
ENDBRANCH   4  27
TORSDOF 13
