REMARK  Name = outputs/IAG933/test6/raw/output_5598_IAG933_linker_design_.xyz
REMARK  15 active torsions:
REMARK  status: ('A' for Active; 'I' for Inactive)
REMARK    1  A    between atoms: C_1  and  C_2
REMARK    2  A    between atoms: C_1  and  C_8
REMARK    3  A    between atoms: C_1  and  O_28
REMARK    4  A    between atoms: C_13  and  C_35
REMARK    5  A    between atoms: C_14  and  C_15
REMARK    6  A    between atoms: C_21  and  O_22
REMARK    7  A    between atoms: O_22  and  C_23
REMARK    8  A    between atoms: C_23  and  C_24
REMARK    9  A    between atoms: O_28  and  C_29
REMARK   10  A    between atoms: C_29  and  C_35
REMARK   11  A    between atoms: C_29  and  C_39
REMARK   12  A    between atoms: C_30  and  C_36
REMARK   13  A    between atoms: C_30  and  C_42
REMARK   14  A    between atoms: C_31  and  C_35
REMARK   15  A    between atoms: C_31  and  C_37
REMARK                            x       y       z     vdW  Elec       q    Type
REMARK                         _______ _______ _______ _____ _____    ______ ____
ROOT
ATOM      1  C   UNL A   1     -26.111   0.954  28.792  0.00  0.00    +0.138 C 
ENDROOT
BRANCH   1   3
ATOM      2  C   UNL A   1     -28.478   1.963  29.438  0.00  0.00    +0.062 C 
ATOM      3  C   UNL A   1     -26.955   2.011  29.522  0.00  0.00    +0.006 C 
BRANCH   2   6
ATOM      4  N   UNL A   1     -30.144   1.405  27.763  0.00  0.00    -0.084 NA
ATOM      5  O   UNL A   1     -28.881  -0.302  28.517  0.00  0.00    -0.267 OA
ATOM      6  C   UNL A   1     -29.165   0.948  28.561  0.00  0.00    +0.282 C 
ENDBRANCH   2   6
BRANCH   2   9
ATOM      7  O   UNL A   1     -29.502   3.981  28.995  0.00  0.00    -0.218 OA
ATOM      8  C   UNL A   1     -29.240   3.116  31.473  0.00  0.00    +0.041 C 
ATOM      9  C   UNL A   1     -29.099   3.014  29.881  0.00  0.00    +0.178 C 
ENDBRANCH   2   9
ENDBRANCH   1   3
BRANCH   1  10
ATOM     10  O   UNL A   1     -25.733  -0.298  29.236  0.00  0.00    -0.348 OA
BRANCH  10  11
ATOM     11  C   UNL A   1     -24.855  -1.012  30.143  0.00  0.00    +0.154 C 
BRANCH  11  12
ATOM     12  C   UNL A   1     -24.973  -2.505  29.788  0.00  0.00    +0.006 C 
ATOM     13  C   UNL A   1     -23.906  -3.173  29.146  0.00  0.00    -0.002 C 
ATOM     14  C   UNL A   1     -23.989  -4.549  28.853  0.00  0.00    -0.000 C 
ATOM     15  C   UNL A   1     -25.137  -5.280  29.205  0.00  0.00    -0.000 C 
ATOM     16  C   UNL A   1     -26.232  -4.611  29.784  0.00  0.00    -0.000 C 
ATOM     17  C   UNL A   1     -26.155  -3.232  30.065  0.00  0.00    -0.002 C 
ENDBRANCH  11  12
BRANCH  11  18
ATOM     18  C   UNL A   1     -25.387  -0.679  31.571  0.00  0.00    +0.104 C 
ATOM     19  C   UNL A   1     -25.189   0.773  32.028  0.00  0.00    +0.022 C 
ATOM     20  C   UNL A   1     -25.336   0.684  33.544  0.00  0.00    +0.020 C 
ATOM     21  C   UNL A   1     -24.829  -0.715  33.905  0.00  0.00    +0.089 C 
ATOM     22  N   UNL A   1     -24.758  -1.481  32.646  0.00  0.00    -0.217 NA
ENDBRANCH  11  18
ENDBRANCH  10  11
ENDBRANCH   1  10
BRANCH   1  23
ATOM     23  C   UNL A   1     -24.893   1.264  27.755  0.00  0.00    +0.040 C 
BRANCH  23  24
ATOM     24  C   UNL A   1     -25.688   1.614  26.461  0.00  0.00    +0.073 C 
ATOM     25  C   UNL A   1     -26.250   2.920  26.395  0.00  0.00    +0.055 C 
ATOM     26  C   UNL A   1     -27.438   3.091  25.645  0.00  0.00    +0.102 C 
ATOM     27  N   UNL A   1     -28.075   2.089  25.003  0.00  0.00    -0.212 NA
ATOM     28  C   UNL A   1     -27.543   0.849  25.079  0.00  0.00    +0.234 C 
ATOM     29  C   UNL A   1     -26.354   0.576  25.777  0.00  0.00    +0.240 C 
ATOM     30  F   UNL A   1     -25.860  -0.681  25.795  0.00  0.00    -0.227 F 
BRANCH  25  31
ATOM     31  C   UNL A   1     -25.642   4.093  27.123  0.00  0.00    +0.262 C 
ATOM     32  N   UNL A   1     -25.614   5.252  26.449  0.00  0.00    -0.200 NA
ATOM     33  C   UNL A   1     -25.026   6.479  26.963  0.00  0.00    +0.139 C 
ATOM     34  O   UNL A   1     -25.143   3.966  28.243  0.00  0.00    -0.269 OA
ENDBRANCH  25  31
BRANCH  28  35
ATOM     35  O   UNL A   1     -28.193  -0.208  24.477  0.00  0.00    -0.459 OA
BRANCH  35  36
ATOM     36  C   UNL A   1     -29.460   0.005  23.866  0.00  0.00    +0.242 C 
BRANCH  36  37
ATOM     37  C   UNL A   1     -30.065  -1.377  23.573  0.00  0.00    +0.229 C 
ATOM     38  O   UNL A   1     -30.729  -1.878  24.721  0.00  0.00    -0.216 OA
ENDBRANCH  36  37
ENDBRANCH  35  36
ENDBRANCH  28  35
ENDBRANCH  23  24
BRANCH  23  39
ATOM     39  C   UNL A   1     -23.704   0.299  27.609  0.00  0.00    +0.022 C 
BRANCH  39  41
ATOM     40  C   UNL A   1     -21.767   1.872  27.417  0.00  0.00    +0.021 C 
ATOM     41  C   UNL A   1     -22.344   0.682  28.158  0.00  0.00    +0.092 C 
ATOM     42  N   UNL A   1     -22.207   0.390  29.522  0.00  0.00    -0.133 NA
ENDBRANCH  39  41
ENDBRANCH  23  39
ENDBRANCH   1  23
TORSDOF 15
