REMARK  Name = outputs/IAG933/test6/raw/output_5599_IAG933_linker_design_.xyz
REMARK  11 active torsions:
REMARK  status: ('A' for Active; 'I' for Inactive)
REMARK    1  A    between atoms: C_1  and  C_2
REMARK    2  A    between atoms: C_1  and  C_8
REMARK    3  A    between atoms: C_9  and  N_41
REMARK    4  A    between atoms: C_13  and  N_29
REMARK    5  A    between atoms: C_14  and  C_15
REMARK    6  A    between atoms: C_21  and  O_22
REMARK    7  A    between atoms: O_22  and  C_23
REMARK    8  A    between atoms: C_23  and  C_24
REMARK    9  A    between atoms: C_31  and  O_34
REMARK   10  A    between atoms: C_38  and  N_41
REMARK   11  A    between atoms: C_40  and  O_45
REMARK                            x       y       z     vdW  Elec       q    Type
REMARK                         _______ _______ _______ _____ _____    ______ ____
ROOT
ATOM      1  N   UNL A   1     -24.504   1.441  27.314  0.00  0.00    -0.204 N 
ATOM      2  C   UNL A   1     -22.829   1.025  28.813  0.00  0.00    +0.121 C 
ATOM      3  C   UNL A   1     -24.477   2.138  30.308  0.00  0.00    +0.327 C 
ATOM      4  N   UNL A   1     -24.138   1.616  28.903  0.00  0.00    -0.189 N 
ATOM      5  C   UNL A   1     -23.262   1.545  26.685  0.00  0.00    +0.249 C 
ATOM      6  N   UNL A   1     -25.487   2.030  31.283  0.00  0.00    -0.239 N 
ATOM      7  O   UNL A   1     -23.486   2.724  30.843  0.00  0.00    -0.250 OA
ATOM      8  C   UNL A   1     -22.136   1.225  27.608  0.00  0.00    +0.079 C 
ENDROOT
BRANCH   1   9
ATOM      9  C   UNL A   1     -25.688   1.614  26.461  0.00  0.00    +0.106 C 
ATOM     10  C   UNL A   1     -26.250   2.920  26.395  0.00  0.00    +0.091 C 
ATOM     11  C   UNL A   1     -27.438   3.091  25.645  0.00  0.00    +0.108 C 
ATOM     12  N   UNL A   1     -28.075   2.089  25.003  0.00  0.00    -0.208 NA
ATOM     13  C   UNL A   1     -27.543   0.849  25.079  0.00  0.00    +0.255 C 
ATOM     14  C   UNL A   1     -26.354   0.576  25.777  0.00  0.00    +0.208 C 
ATOM     15  F   UNL A   1     -25.860  -0.681  25.795  0.00  0.00    -0.198 F 
BRANCH  10  16
ATOM     16  C   UNL A   1     -25.642   4.093  27.123  0.00  0.00    +0.268 C 
ATOM     17  N   UNL A   1     -25.614   5.252  26.449  0.00  0.00    -0.200 NA
ATOM     18  C   UNL A   1     -25.026   6.479  26.963  0.00  0.00    +0.139 C 
ATOM     19  O   UNL A   1     -25.143   3.966  28.243  0.00  0.00    -0.268 OA
ENDBRANCH  10  16
BRANCH  13  20
ATOM     20  O   UNL A   1     -28.193  -0.208  24.477  0.00  0.00    -0.456 OA
BRANCH  20  21
ATOM     21  C   UNL A   1     -29.460   0.005  23.866  0.00  0.00    +0.243 C 
BRANCH  21  22
ATOM     22  C   UNL A   1     -30.065  -1.377  23.573  0.00  0.00    +0.229 C 
ATOM     23  O   UNL A   1     -30.729  -1.878  24.721  0.00  0.00    -0.216 OA
ENDBRANCH  21  22
ENDBRANCH  20  21
ENDBRANCH  13  20
ENDBRANCH   1   9
BRANCH   6  28
ATOM     24  C   UNL A   1     -27.603   5.428  32.907  0.00  0.00    +0.033 C 
ATOM     25  C   UNL A   1     -26.171   5.267  33.030  0.00  0.00    +0.142 C 
ATOM     26  C   UNL A   1     -27.657   3.158  31.959  0.00  0.00    +0.200 C 
ATOM     27  C   UNL A   1     -25.485   4.210  32.407  0.00  0.00    +0.048 C 
ATOM     28  C   UNL A   1     -26.220   3.097  31.855  0.00  0.00    +0.096 C 
ATOM     29  F   UNL A   1     -25.448   6.069  33.833  0.00  0.00    -0.204 F 
ATOM     30  C   UNL A   1     -28.352   4.381  32.302  0.00  0.00    +0.045 C 
BRANCH  26  31
ATOM     31  O   UNL A   1     -28.358   1.988  31.851  0.00  0.00    -0.302 OA
ATOM     32  O   UNL A   1     -28.131   0.767  31.268  0.00  0.00    +0.028 OA
ENDBRANCH  26  31
ENDBRANCH   6  28
BRANCH   6  34
ATOM     33  C   UNL A   1     -25.387  -0.679  31.571  0.00  0.00    +0.096 C 
ATOM     34  C   UNL A   1     -25.189   0.773  32.028  0.00  0.00    +0.099 C 
ATOM     35  C   UNL A   1     -25.336   0.684  33.544  0.00  0.00    +0.041 C 
ATOM     36  C   UNL A   1     -24.829  -0.715  33.905  0.00  0.00    +0.090 C 
ATOM     37  N   UNL A   1     -24.758  -1.481  32.646  0.00  0.00    -0.217 NA
BRANCH  33  38
ATOM     38  C   UNL A   1     -24.855  -1.012  30.143  0.00  0.00    +0.045 C 
BRANCH  38  39
ATOM     39  C   UNL A   1     -24.973  -2.505  29.788  0.00  0.00    -0.021 C 
ATOM     40  C   UNL A   1     -23.906  -3.173  29.146  0.00  0.00    -0.004 C 
ATOM     41  C   UNL A   1     -23.989  -4.549  28.853  0.00  0.00    -0.000 C 
ATOM     42  C   UNL A   1     -25.137  -5.280  29.205  0.00  0.00    -0.000 C 
ATOM     43  C   UNL A   1     -26.232  -4.611  29.784  0.00  0.00    -0.000 C 
ATOM     44  C   UNL A   1     -26.155  -3.232  30.065  0.00  0.00    -0.004 C 
ENDBRANCH  38  39
ENDBRANCH  33  38
ENDBRANCH   6  34
BRANCH   5  46
ATOM     45  O   UNL A   1     -21.578   2.090  25.123  0.00  0.00    -0.033 OA
ATOM     46  O   UNL A   1     -22.912   2.266  25.487  0.00  0.00    -0.169 OA
ENDBRANCH   5  46
TORSDOF 11
