MODEL 559
MODEL 1
REMARK VINA RESULT:    -7.306      0.000      0.000
REMARK INTER + INTRA:          -7.306
REMARK INTER:                  -7.306
REMARK INTRA:                   0.000
REMARK UNBOUND:                 0.000
REMARK  Name = No_559-gen_results/8p0m/2024-11-27-11-27-31/
REMARK  0 active torsions:
REMARK  status: ('A' for Active; 'I' for Inactive)
REMARK                            x       y       z     vdW  Elec       q    Type
REMARK                         _______ _______ _______ _____ _____    ______ ____
ROOT
ATOM      1  C   UNL A   1     -25.088  -2.984  28.648  0.00  0.00    +0.016 A 
ATOM      2  C   UNL A   1     -24.175  -3.400  28.325  0.00  0.00    +0.001 A 
ATOM      3  C   UNL A   1     -25.130  -1.473  28.706  0.00  0.00    +0.006 A 
ATOM      4  C   UNL A   1     -25.720  -0.768  29.768  0.00  0.00    +0.053 A 
ATOM      5  C   UNL A   1     -25.569   0.608  29.842  0.00  0.00    -0.006 A 
ATOM      6  C   UNL A   1     -25.014   1.325  28.727  0.00  0.00    +0.087 A 
ATOM      7  C   UNL A   1     -24.510   0.650  27.656  0.00  0.00    +0.007 A 
ATOM      8  C   UNL A   1     -24.575  -0.734  27.627  0.00  0.00    +0.000 A 
ATOM      9  C   UNL A   1     -23.946  -4.865  28.417  0.00  0.00    +0.000 A 
ATOM     10  C   UNL A   1     -24.959  -5.525  29.094  0.00  0.00    +0.002 A 
ATOM     11  C   UNL A   1     -25.937  -4.847  29.703  0.00  0.00    +0.017 A 
ATOM     12  C   UNL A   1     -25.933  -3.515  29.675  0.00  0.00    +0.062 A 
ATOM     13  N   UNL A   1     -26.743  -2.511  30.205  0.00  0.00    -0.293 N 
ATOM     14  C   UNL A   1     -26.543  -1.413  30.609  0.00  0.00    +0.261 A 
ATOM     15  C   UNL A   1     -28.100  -3.167  30.694  0.00  0.00    +0.134 C 
ATOM     16  O   UNL A   1     -26.964  -0.842  31.615  0.00  0.00    -0.267 OA
ATOM     17  C   UNL A   1     -24.934   2.806  28.856  0.00  0.00    +0.413 C 
ATOM     18  N   UNL A   1     -24.727   3.605  28.029  0.00  0.00    +0.197 NA
ATOM     19  N   UNL A   1     -25.468   3.327  30.103  0.00  0.00    -0.027 NA
ATOM     20  C   UNL A   1     -25.552   2.664  31.252  0.00  0.00    +0.256 C 
ATOM     21  C   UNL A   1     -25.711   1.233  31.162  0.00  0.00    +0.082 C 
ENDROOT
TORSDOF 0
ENDMDL
ENDMDL
