MODEL 55
MODEL 1
REMARK VINA RESULT:    -9.988      0.000      0.000
REMARK INTER + INTRA:         -14.247
REMARK INTER:                 -12.324
REMARK INTRA:                  -1.923
REMARK UNBOUND:                -1.923
REMARK  Name = No_55-gen_results/8p0m/2024-11-27-11-27-31/
REMARK  4 active torsions:
REMARK  status: ('A' for Active; 'I' for Inactive)
REMARK    1  A    between atoms: C_3  and  C_7
REMARK    2  A    between atoms: C_8  and  C_10
REMARK    3  A    between atoms: C_13  and  C_26
REMARK    4  A    between atoms: C_26  and  C_27
REMARK                            x       y       z     vdW  Elec       q    Type
REMARK                         _______ _______ _______ _____ _____    ______ ____
ROOT
ATOM      1  C   UNL A   1     -24.776   1.295  26.331  0.00  0.00    -0.018 A 
ATOM      2  C   UNL A   1     -24.774   0.604  27.280  0.00  0.00    -0.004 A 
ATOM      3  C   UNL A   1     -23.473   0.239  27.986  0.00  0.00    +0.003 A 
ATOM      4  C   UNL A   1     -23.430  -0.538  29.140  0.00  0.00    +0.039 A 
ATOM      5  C   UNL A   1     -22.323  -0.730  29.803  0.00  0.00    +0.003 A 
ATOM      6  C   UNL A   1     -21.125  -0.189  29.270  0.00  0.00    +0.000 A 
ATOM      7  C   UNL A   1     -21.108   0.543  28.142  0.00  0.00    +0.000 A 
ATOM      8  C   UNL A   1     -22.282   0.770  27.512  0.00  0.00    +0.000 A 
ATOM      9  C   UNL A   1     -23.592   2.242  26.280  0.00  0.00    -0.004 A 
ATOM     10  C   UNL A   1     -22.721   2.092  26.785  0.00  0.00    -0.000 A 
ENDROOT
BRANCH   1  12
ATOM     11  C   UNL A   1     -26.652   2.594  25.654  0.00  0.00    +0.052 C 
ATOM     12  C   UNL A   1     -25.866   1.592  25.554  0.00  0.00    +0.052 C 
ATOM     13  C   UNL A   1     -27.732   2.844  24.824  0.00  0.00    -0.023 C 
ATOM     14  C   UNL A   1     -26.265   0.535  24.564  0.00  0.00    -0.023 C 
ATOM     15  C   UNL A   1     -28.825   1.973  24.814  0.00  0.00    +0.009 C 
ATOM     16  C   UNL A   1     -28.734   0.570  24.337  0.00  0.00    +0.204 C 
ATOM     17  C   UNL A   1     -27.725  -0.093  24.307  0.00  0.00    +0.009 C 
ATOM     18  F   UNL A   1     -29.863   0.004  24.142  0.00  0.00    -0.228 F 
BRANCH  11  21
ATOM     19  C   UNL A   1     -25.618   4.716  26.691  0.00  0.00    +0.007 A 
ATOM     20  C   UNL A   1     -25.592   5.299  27.568  0.00  0.00    +0.057 A 
ATOM     21  C   UNL A   1     -26.457   3.523  26.805  0.00  0.00    -0.017 A 
ATOM     22  C   UNL A   1     -27.150   3.225  27.952  0.00  0.00    -0.004 A 
ATOM     23  C   UNL A   1     -26.209   5.235  28.893  0.00  0.00    +0.011 A 
ATOM     24  C   UNL A   1     -27.023   4.083  29.014  0.00  0.00    +0.001 A 
ATOM     25 CL   UNL A   1     -24.583   6.835  27.538  0.00  0.00    -0.082 Cl
ENDBRANCH  11  21
ENDBRANCH   1  12
BRANCH   4  26
ATOM     26  C   UNL A   1     -24.706  -1.178  29.686  0.00  0.00    +0.196 C 
ATOM     27  O   UNL A   1     -25.426  -0.461  30.497  0.00  0.00    -0.287 OA
BRANCH  26  28
ATOM     28  C   UNL A   1     -24.970  -2.563  29.466  0.00  0.00    +0.039 A 
ATOM     29  C   UNL A   1     -26.001  -3.182  29.916  0.00  0.00    +0.003 A 
ATOM     30  C   UNL A   1     -26.215  -4.550  29.697  0.00  0.00    +0.000 A 
ATOM     31  C   UNL A   1     -23.928  -3.363  28.812  0.00  0.00    +0.003 A 
ATOM     32  C   UNL A   1     -24.108  -4.717  28.583  0.00  0.00    +0.000 A 
ATOM     33  C   UNL A   1     -25.256  -5.339  29.038  0.00  0.00    +0.000 A 
ENDBRANCH  26  28
ENDBRANCH   4  26
TORSDOF 4
ENDMDL
ENDMDL
