REMARK  Name = No_56-gen_results/8p0m/2024-11-27-11-27-31/
REMARK  7 active torsions:
REMARK  status: ('A' for Active; 'I' for Inactive)
REMARK    1  A    between atoms: C_1  and  C_24
REMARK    2  A    between atoms: C_3  and  C_7
REMARK    3  A    between atoms: C_8  and  C_13
REMARK    4  A    between atoms: N_15  and  C_16
REMARK    5  A    between atoms: N_20  and  C_27
REMARK    6  A    between atoms: C_27  and  C_28
REMARK    7  A    between atoms: C_27  and  C_34
REMARK                            x       y       z     vdW  Elec       q    Type
REMARK                         _______ _______ _______ _____ _____    ______ ____
ROOT
ATOM      1  C   UNL A   1     -25.910   2.994  29.075  0.00  0.00    +0.265 C 
ATOM      2  O   UNL A   1     -26.909   2.542  29.341  0.00  0.00    -0.268 OA
ATOM      3  N   UNL A   1     -25.508   4.294  29.470  0.00  0.00    -0.194 NA
ENDROOT
BRANCH   3   4
ATOM      4  C   UNL A   1     -26.083   4.978  30.591  0.00  0.00    +0.172 C 
ATOM      5  C   UNL A   1     -25.672   6.258  30.672  0.00  0.00    +0.246 C 
ATOM      6  O   UNL A   1     -25.338   6.934  29.661  0.00  0.00    -0.273 OA
ATOM      7  N   UNL A   1     -25.462   6.871  31.958  0.00  0.00    -0.276 N 
ATOM      8  C   UNL A   1     -25.787   6.215  33.158  0.00  0.00    +0.094 C 
ATOM      9  C   UNL A   1     -26.212   4.918  32.968  0.00  0.00    +0.024 C 
ATOM     10  C   UNL A   1     -26.165   4.233  31.718  0.00  0.00    +0.033 C 
BRANCH   7  11
ATOM     11  C   UNL A   1     -25.072   8.308  32.026  0.00  0.00    +0.098 C 
BRANCH  11  12
ATOM     12  C   UNL A   1     -23.875   8.401  32.238  0.00  0.00    -0.004 A 
ATOM     13  C   UNL A   1     -23.079   7.722  33.142  0.00  0.00    -0.003 A 
ATOM     14  C   UNL A   1     -21.654   7.876  33.420  0.00  0.00    -0.000 A 
ATOM     15  C   UNL A   1     -20.989   8.810  32.687  0.00  0.00    -0.000 A 
ATOM     16  C   UNL A   1     -21.630   9.554  31.693  0.00  0.00    -0.000 A 
ATOM     17  C   UNL A   1     -22.995   9.392  31.486  0.00  0.00    -0.003 A 
ENDBRANCH  11  12
BRANCH  11  18
ATOM     18  C   UNL A   1     -25.684   9.011  30.810  0.00  0.00    +0.024 C 
ATOM     19  C   UNL A   1     -26.911   9.395  30.806  0.00  0.00    +0.002 C 
ENDBRANCH  11  18
ENDBRANCH   7  11
ENDBRANCH   3   4
BRANCH   1  21
ATOM     20  C   UNL A   1     -25.711   1.452  27.138  0.00  0.00    +0.004 A 
ATOM     21  C   UNL A   1     -25.207   2.413  27.932  0.00  0.00    +0.055 A 
ATOM     22  C   UNL A   1     -23.923   3.033  27.599  0.00  0.00    +0.005 A 
ATOM     23  C   UNL A   1     -23.254   2.522  26.455  0.00  0.00    +0.000 A 
ATOM     24  C   UNL A   1     -24.853   0.989  26.082  0.00  0.00    +0.000 A 
ATOM     25  C   UNL A   1     -23.724   1.558  25.718  0.00  0.00    +0.000 A 
BRANCH  20  28
ATOM     26  C   UNL A   1     -28.016  -0.814  28.878  0.00  0.00    +0.080 A 
ATOM     27  C   UNL A   1     -27.064  -0.119  28.608  0.00  0.00    +0.006 A 
ATOM     28  C   UNL A   1     -26.972   0.714  27.506  0.00  0.00    -0.004 A 
ATOM     29  C   UNL A   1     -28.105   0.774  26.642  0.00  0.00    -0.022 A 
ATOM     30  C   UNL A   1     -29.204   0.118  27.048  0.00  0.00    -0.004 A 
ATOM     31  C   UNL A   1     -29.213  -0.609  28.128  0.00  0.00    +0.006 A 
ATOM     32  C   UNL A   1     -28.076   1.688  25.479  0.00  0.00    +0.031 C 
BRANCH  26  33
ATOM     33  C   UNL A   1     -28.054  -1.692  30.101  0.00  0.00    +0.388 C 
ATOM     34  O   UNL A   1     -28.704  -2.752  30.163  0.00  0.00    -0.241 OA
ATOM     35  O   UNL A   1     -27.219  -1.391  31.093  0.00  0.00    -0.241 OA
ENDBRANCH  26  33
ENDBRANCH  20  28
ENDBRANCH   1  21
TORSDOF 7
