REMARK  Name = outputs/IAG933/test6/raw/output_5600_IAG933_linker_design_.xyz
REMARK  11 active torsions:
REMARK  status: ('A' for Active; 'I' for Inactive)
REMARK    1  A    between atoms: C_1  and  C_2
REMARK    2  A    between atoms: C_1  and  C_8
REMARK    3  A    between atoms: C_1  and  N_37
REMARK    4  A    between atoms: C_13  and  C_41
REMARK    5  A    between atoms: C_14  and  C_15
REMARK    6  A    between atoms: C_21  and  O_22
REMARK    7  A    between atoms: O_22  and  C_23
REMARK    8  A    between atoms: C_23  and  C_24
REMARK    9  A    between atoms: C_28  and  C_30
REMARK   10  A    between atoms: C_29  and  C_31
REMARK   11  A    between atoms: N_38  and  C_39
REMARK                            x       y       z     vdW  Elec       q    Type
REMARK                         _______ _______ _______ _____ _____    ______ ____
ROOT
ATOM      1  C   UNL A   1     -23.269   1.041  27.639  0.00  0.00    +0.111 C 
ATOM      2  C   UNL A   1     -23.143   0.163  28.640  0.00  0.00    +0.084 C 
ATOM      3  N   UNL A   1     -24.391  -0.030  29.177  0.00  0.00    -0.253 NA
ATOM      4  C   UNL A   1     -25.334   0.781  28.581  0.00  0.00    +0.156 C 
ATOM      5  C   UNL A   1     -24.707   1.270  27.448  0.00  0.00    +0.054 C 
ENDROOT
BRANCH   5   6
ATOM      6  C   UNL A   1     -25.688   1.614  26.461  0.00  0.00    +0.074 C 
ATOM      7  C   UNL A   1     -26.250   2.920  26.395  0.00  0.00    +0.055 C 
ATOM      8  C   UNL A   1     -27.438   3.091  25.645  0.00  0.00    +0.102 C 
ATOM      9  N   UNL A   1     -28.075   2.089  25.003  0.00  0.00    -0.212 NA
ATOM     10  C   UNL A   1     -27.543   0.849  25.079  0.00  0.00    +0.234 C 
ATOM     11  C   UNL A   1     -26.354   0.576  25.777  0.00  0.00    +0.240 C 
ATOM     12  F   UNL A   1     -25.860  -0.681  25.795  0.00  0.00    -0.227 F 
BRANCH   7  13
ATOM     13  C   UNL A   1     -25.642   4.093  27.123  0.00  0.00    +0.262 C 
ATOM     14  N   UNL A   1     -25.614   5.252  26.449  0.00  0.00    -0.200 NA
ATOM     15  C   UNL A   1     -25.026   6.479  26.963  0.00  0.00    +0.139 C 
ATOM     16  O   UNL A   1     -25.143   3.966  28.243  0.00  0.00    -0.269 OA
ENDBRANCH   7  13
BRANCH  10  17
ATOM     17  O   UNL A   1     -28.193  -0.208  24.477  0.00  0.00    -0.459 OA
BRANCH  17  18
ATOM     18  C   UNL A   1     -29.460   0.005  23.866  0.00  0.00    +0.242 C 
BRANCH  18  19
ATOM     19  C   UNL A   1     -30.065  -1.377  23.573  0.00  0.00    +0.229 C 
ATOM     20  O   UNL A   1     -30.729  -1.878  24.721  0.00  0.00    -0.216 OA
ENDBRANCH  18  19
ENDBRANCH  17  18
ENDBRANCH  10  17
ENDBRANCH   5   6
BRANCH   1  21
ATOM     21  C   UNL A   1     -22.082   1.733  26.920  0.00  0.00    +0.312 C 
ATOM     22  O   UNL A   1     -22.162   2.212  25.827  0.00  0.00    -0.259 OA
ATOM     23  F   UNL A   1     -20.965   1.736  27.549  0.00  0.00    -0.164 F 
ENDBRANCH   1  21
BRANCH   4  25
ATOM     24  C   UNL A   1     -27.694   0.250  29.456  0.00  0.00    +0.305 C 
ATOM     25  N   UNL A   1     -26.586   1.129  29.016  0.00  0.00    -0.184 NA
ATOM     26  O   UNL A   1     -27.785  -0.532  30.437  0.00  0.00    -0.265 OA
BRANCH  24  27
ATOM     27  C   UNL A   1     -28.793   0.228  28.480  0.00  0.00    +0.250 C 
ATOM     28  O   UNL A   1     -28.892   1.505  27.873  0.00  0.00    -0.282 OA
ATOM     29  C   UNL A   1     -29.768  -0.693  28.460  0.00  0.00    +0.050 C 
ENDBRANCH  24  27
ENDBRANCH   4  25
BRANCH   3  30
ATOM     30  C   UNL A   1     -24.855  -1.012  30.143  0.00  0.00    +0.098 C 
BRANCH  30  31
ATOM     31  C   UNL A   1     -24.973  -2.505  29.788  0.00  0.00    -0.006 C 
ATOM     32  C   UNL A   1     -23.906  -3.173  29.146  0.00  0.00    -0.003 C 
ATOM     33  C   UNL A   1     -23.989  -4.549  28.853  0.00  0.00    -0.000 C 
ATOM     34  C   UNL A   1     -25.137  -5.280  29.205  0.00  0.00    -0.000 C 
ATOM     35  C   UNL A   1     -26.232  -4.611  29.784  0.00  0.00    -0.000 C 
ATOM     36  C   UNL A   1     -26.155  -3.232  30.065  0.00  0.00    -0.003 C 
ENDBRANCH  30  31
BRANCH  30  37
ATOM     37  C   UNL A   1     -25.387  -0.679  31.571  0.00  0.00    +0.092 C 
ATOM     38  C   UNL A   1     -25.189   0.773  32.028  0.00  0.00    +0.021 C 
ATOM     39  C   UNL A   1     -25.336   0.684  33.544  0.00  0.00    +0.020 C 
ATOM     40  C   UNL A   1     -24.829  -0.715  33.905  0.00  0.00    +0.089 C 
ATOM     41  N   UNL A   1     -24.758  -1.481  32.646  0.00  0.00    -0.218 NA
ENDBRANCH  30  37
ENDBRANCH   3  30
TORSDOF 11
