REMARK  Name = outputs/IAG933/test6/raw/output_5602_IAG933_linker_design_.xyz
REMARK  15 active torsions:
REMARK  status: ('A' for Active; 'I' for Inactive)
REMARK    1  A    between atoms: C_1  and  C_2
REMARK    2  A    between atoms: C_1  and  C_8
REMARK    3  A    between atoms: C_1  and  C_40
REMARK    4  A    between atoms: C_13  and  C_38
REMARK    5  A    between atoms: C_14  and  C_15
REMARK    6  A    between atoms: C_21  and  O_22
REMARK    7  A    between atoms: O_22  and  C_23
REMARK    8  A    between atoms: C_23  and  C_24
REMARK    9  A    between atoms: C_28  and  C_40
REMARK   10  A    between atoms: N_31  and  C_41
REMARK   11  A    between atoms: O_33  and  C_39
REMARK   12  A    between atoms: C_34  and  C_39
REMARK   13  A    between atoms: C_34  and  C_42
REMARK   14  A    between atoms: C_41  and  C_44
REMARK   15  A    between atoms: C_42  and  C_44
REMARK                            x       y       z     vdW  Elec       q    Type
REMARK                         _______ _______ _______ _____ _____    ______ ____
ROOT
ATOM      1  C   UNL A   1     -23.948   0.505  28.360  0.00  0.00    +0.018 C 
ATOM      2  C   UNL A   1     -23.201   1.885  26.602  0.00  0.00    +0.197 C 
ATOM      3  C   UNL A   1     -21.875   1.740  27.006  0.00  0.00    +0.060 C 
ATOM      4  C   UNL A   1     -22.600   0.292  28.700  0.00  0.00    +0.019 C 
ATOM      5  C   UNL A   1     -21.570   0.987  28.050  0.00  0.00    +0.092 C 
ATOM      6  O   UNL A   1     -23.398   2.800  25.617  0.00  0.00    -0.286 OA
ATOM      7  C   UNL A   1     -24.290   1.352  27.128  0.00  0.00    +0.043 C 
ATOM      8  N   UNL A   1     -20.255   0.962  28.529  0.00  0.00    -0.128 NA
ENDROOT
BRANCH   7   9
ATOM      9  C   UNL A   1     -25.688   1.614  26.461  0.00  0.00    +0.041 C 
ATOM     10  C   UNL A   1     -26.250   2.920  26.395  0.00  0.00    +0.077 C 
ATOM     11  C   UNL A   1     -27.438   3.091  25.645  0.00  0.00    +0.107 C 
ATOM     12  N   UNL A   1     -28.075   2.089  25.003  0.00  0.00    -0.208 NA
ATOM     13  C   UNL A   1     -27.543   0.849  25.079  0.00  0.00    +0.253 C 
ATOM     14  C   UNL A   1     -26.354   0.576  25.777  0.00  0.00    +0.193 C 
ATOM     15  F   UNL A   1     -25.860  -0.681  25.795  0.00  0.00    -0.199 F 
BRANCH  10  16
ATOM     16  C   UNL A   1     -25.642   4.093  27.123  0.00  0.00    +0.266 C 
ATOM     17  N   UNL A   1     -25.614   5.252  26.449  0.00  0.00    -0.200 NA
ATOM     18  C   UNL A   1     -25.026   6.479  26.963  0.00  0.00    +0.139 C 
ATOM     19  O   UNL A   1     -25.143   3.966  28.243  0.00  0.00    -0.268 OA
ENDBRANCH  10  16
BRANCH  13  20
ATOM     20  O   UNL A   1     -28.193  -0.208  24.477  0.00  0.00    -0.456 OA
BRANCH  20  21
ATOM     21  C   UNL A   1     -29.460   0.005  23.866  0.00  0.00    +0.243 C 
BRANCH  21  22
ATOM     22  C   UNL A   1     -30.065  -1.377  23.573  0.00  0.00    +0.229 C 
ATOM     23  O   UNL A   1     -30.729  -1.878  24.721  0.00  0.00    -0.216 OA
ENDBRANCH  21  22
ENDBRANCH  20  21
ENDBRANCH  13  20
ENDBRANCH   7   9
BRANCH   1  25
ATOM     24  N   UNL A   1     -26.268   0.016  28.437  0.00  0.00    -0.274 NA
ATOM     25  C   UNL A   1     -24.984   0.077  29.037  0.00  0.00    +0.059 C 
BRANCH  25  26
ATOM     26  C   UNL A   1     -24.855  -1.012  30.143  0.00  0.00    +0.078 C 
BRANCH  26  27
ATOM     27  C   UNL A   1     -24.973  -2.505  29.788  0.00  0.00    -0.016 C 
ATOM     28  C   UNL A   1     -23.906  -3.173  29.146  0.00  0.00    -0.004 C 
ATOM     29  C   UNL A   1     -23.989  -4.549  28.853  0.00  0.00    -0.000 C 
ATOM     30  C   UNL A   1     -25.137  -5.280  29.205  0.00  0.00    -0.000 C 
ATOM     31  C   UNL A   1     -26.232  -4.611  29.784  0.00  0.00    -0.000 C 
ATOM     32  C   UNL A   1     -26.155  -3.232  30.065  0.00  0.00    -0.004 C 
ENDBRANCH  26  27
BRANCH  26  33
ATOM     33  C   UNL A   1     -25.387  -0.679  31.571  0.00  0.00    +0.082 C 
ATOM     34  C   UNL A   1     -25.189   0.773  32.028  0.00  0.00    +0.020 C 
ATOM     35  C   UNL A   1     -25.336   0.684  33.544  0.00  0.00    +0.020 C 
ATOM     36  C   UNL A   1     -24.829  -0.715  33.905  0.00  0.00    +0.089 C 
ATOM     37  N   UNL A   1     -24.758  -1.481  32.646  0.00  0.00    -0.219 NA
ENDBRANCH  26  33
ENDBRANCH  25  26
BRANCH  24  38
ATOM     38  C   UNL A   1     -27.345  -0.545  28.710  0.00  0.00    +0.125 C 
BRANCH  38  39
ATOM     39  C   UNL A   1     -28.671  -0.192  28.350  0.00  0.00    +0.026 C 
BRANCH  39  40
ATOM     40  C   UNL A   1     -28.884   1.270  28.120  0.00  0.00    +0.005 C 
BRANCH  40  41
ATOM     41  C   UNL A   1     -28.028   2.095  29.056  0.00  0.00    +0.032 C 
BRANCH  41  42
ATOM     42  C   UNL A   1     -28.288   1.629  30.491  0.00  0.00    +0.142 C 
BRANCH  42  44
ATOM     43  C   UNL A   1     -30.573   2.014  30.770  0.00  0.00    +0.174 C 
ATOM     44  O   UNL A   1     -29.549   1.056  30.822  0.00  0.00    -0.351 OA
ENDBRANCH  42  44
ENDBRANCH  41  42
ENDBRANCH  40  41
ENDBRANCH  39  40
ENDBRANCH  38  39
ENDBRANCH  24  38
ENDBRANCH   1  25
TORSDOF 15
