REMARK  Name = outputs/IAG933/test6/raw/output_5603_IAG933_linker_design_.xyz
REMARK  11 active torsions:
REMARK  status: ('A' for Active; 'I' for Inactive)
REMARK    1  A    between atoms: C_1  and  C_2
REMARK    2  A    between atoms: C_1  and  C_8
REMARK    3  A    between atoms: C_1  and  N_38
REMARK    4  A    between atoms: C_13  and  N_28
REMARK    5  A    between atoms: C_14  and  C_15
REMARK    6  A    between atoms: C_21  and  O_22
REMARK    7  A    between atoms: O_22  and  C_23
REMARK    8  A    between atoms: C_23  and  C_24
REMARK    9  A    between atoms: N_28  and  O_34
REMARK   10  A    between atoms: N_28  and  C_35
REMARK   11  A    between atoms: C_37  and  N_38
REMARK                            x       y       z     vdW  Elec       q    Type
REMARK                         _______ _______ _______ _____ _____    ______ ____
ROOT
ATOM      1  C   UNL A   1     -22.076   1.355  27.748  0.00  0.00    +0.262 C 
ATOM      2  O   UNL A   1     -22.493   0.083  29.596  0.00  0.00    -0.436 OA
ATOM      3  F   UNL A   1     -21.215   2.125  27.097  0.00  0.00    -0.222 F 
ATOM      4  C   UNL A   1     -21.456   0.435  28.666  0.00  0.00    +0.163 C 
ATOM      5  C   UNL A   1     -23.374   1.097  27.637  0.00  0.00    +0.153 C 
ATOM      6  C   UNL A   1     -20.231  -0.140  28.574  0.00  0.00    +0.039 C 
ATOM      7  C   UNL A   1     -23.585   0.430  28.859  0.00  0.00    +0.250 C 
ENDROOT
BRANCH   7   8
ATOM      8  N   UNL A   1     -24.849  -0.032  29.054  0.00  0.00    -0.170 N 
ATOM      9  O   UNL A   1     -25.459  -0.791  28.015  0.00  0.00    -0.081 OA
BRANCH   8  10
ATOM     10  C   UNL A   1     -24.855  -1.012  30.143  0.00  0.00    +0.154 C 
BRANCH  10  11
ATOM     11  C   UNL A   1     -24.973  -2.505  29.788  0.00  0.00    +0.002 C 
ATOM     12  C   UNL A   1     -23.906  -3.173  29.146  0.00  0.00    -0.002 C 
ATOM     13  C   UNL A   1     -23.989  -4.549  28.853  0.00  0.00    -0.000 C 
ATOM     14  C   UNL A   1     -25.137  -5.280  29.205  0.00  0.00    -0.000 C 
ATOM     15  C   UNL A   1     -26.232  -4.611  29.784  0.00  0.00    -0.000 C 
ATOM     16  C   UNL A   1     -26.155  -3.232  30.065  0.00  0.00    -0.002 C 
ENDBRANCH  10  11
BRANCH  10  17
ATOM     17  C   UNL A   1     -25.387  -0.679  31.571  0.00  0.00    +0.100 C 
ATOM     18  C   UNL A   1     -25.189   0.773  32.028  0.00  0.00    +0.021 C 
ATOM     19  C   UNL A   1     -25.336   0.684  33.544  0.00  0.00    +0.020 C 
ATOM     20  C   UNL A   1     -24.829  -0.715  33.905  0.00  0.00    +0.089 C 
ATOM     21  N   UNL A   1     -24.758  -1.481  32.646  0.00  0.00    -0.217 NA
ENDBRANCH  10  17
ENDBRANCH   8  10
ENDBRANCH   7   8
BRANCH   5  22
ATOM     22  N   UNL A   1     -24.233   1.484  26.644  0.00  0.00    -0.230 N 
BRANCH  22  23
ATOM     23  C   UNL A   1     -25.688   1.614  26.461  0.00  0.00    +0.179 C 
ATOM     24  C   UNL A   1     -26.250   2.920  26.395  0.00  0.00    +0.078 C 
ATOM     25  C   UNL A   1     -27.438   3.091  25.645  0.00  0.00    +0.104 C 
ATOM     26  N   UNL A   1     -28.075   2.089  25.003  0.00  0.00    -0.212 NA
ATOM     27  C   UNL A   1     -27.543   0.849  25.079  0.00  0.00    +0.236 C 
ATOM     28  C   UNL A   1     -26.354   0.576  25.777  0.00  0.00    +0.263 C 
ATOM     29  F   UNL A   1     -25.860  -0.681  25.795  0.00  0.00    -0.225 F 
BRANCH  24  30
ATOM     30  C   UNL A   1     -25.642   4.093  27.123  0.00  0.00    +0.264 C 
ATOM     31  N   UNL A   1     -25.614   5.252  26.449  0.00  0.00    -0.200 NA
ATOM     32  C   UNL A   1     -25.026   6.479  26.963  0.00  0.00    +0.139 C 
ATOM     33  O   UNL A   1     -25.143   3.966  28.243  0.00  0.00    -0.269 OA
ENDBRANCH  24  30
BRANCH  27  34
ATOM     34  O   UNL A   1     -28.193  -0.208  24.477  0.00  0.00    -0.459 OA
BRANCH  34  35
ATOM     35  C   UNL A   1     -29.460   0.005  23.866  0.00  0.00    +0.242 C 
BRANCH  35  36
ATOM     36  C   UNL A   1     -30.065  -1.377  23.573  0.00  0.00    +0.229 C 
ATOM     37  O   UNL A   1     -30.729  -1.878  24.721  0.00  0.00    -0.216 OA
ENDBRANCH  35  36
ENDBRANCH  34  35
ENDBRANCH  27  34
ENDBRANCH  22  23
BRANCH  22  39
ATOM     38  C   UNL A   1     -23.069   3.003  25.264  0.00  0.00    +0.209 C 
ATOM     39  O   UNL A   1     -23.613   1.732  25.469  0.00  0.00    -0.254 OA
ENDBRANCH  22  39
ENDBRANCH   5  22
TORSDOF 11
