REMARK  Name = outputs/IAG933/test6/raw/output_5604_IAG933_linker_design_.xyz
REMARK  11 active torsions:
REMARK  status: ('A' for Active; 'I' for Inactive)
REMARK    1  A    between atoms: C_1  and  C_2
REMARK    2  A    between atoms: C_1  and  C_8
REMARK    3  A    between atoms: C_1  and  N_34
REMARK    4  A    between atoms: C_13  and  C_28
REMARK    5  A    between atoms: C_14  and  C_15
REMARK    6  A    between atoms: C_21  and  O_22
REMARK    7  A    between atoms: O_22  and  C_23
REMARK    8  A    between atoms: C_23  and  C_24
REMARK    9  A    between atoms: C_30  and  N_34
REMARK   10  A    between atoms: C_33  and  C_41
REMARK   11  A    between atoms: C_33  and  C_43
REMARK                            x       y       z     vdW  Elec       q    Type
REMARK                         _______ _______ _______ _____ _____    ______ ____
ROOT
ATOM      1  C   UNL A   1     -24.511   1.185  27.200  0.00  0.00    +0.003 C 
ATOM      2  C   UNL A   1     -24.305   0.621  28.359  0.00  0.00    +0.148 C 
ATOM      3  F   UNL A   1     -22.320   0.426  29.658  0.00  0.00    -0.207 F 
ATOM      4  C   UNL A   1     -23.056   1.737  25.087  0.00  0.00    +0.169 C 
ATOM      5  C   UNL A   1     -23.335   1.486  26.469  0.00  0.00    +0.006 C 
ATOM      6  C   UNL A   1     -22.913   0.790  28.597  0.00  0.00    +0.138 C 
ATOM      7  O   UNL A   1     -21.785   2.163  25.179  0.00  0.00    -0.344 OA
ATOM      8  C   UNL A   1     -22.320   1.437  27.338  0.00  0.00    +0.031 C 
ATOM      9  C   UNL A   1     -21.335   2.084  26.607  0.00  0.00    +0.171 C 
ENDROOT
BRANCH   1  10
ATOM     10  C   UNL A   1     -25.688   1.614  26.461  0.00  0.00    +0.036 C 
ATOM     11  C   UNL A   1     -26.250   2.920  26.395  0.00  0.00    +0.076 C 
ATOM     12  C   UNL A   1     -27.438   3.091  25.645  0.00  0.00    +0.107 C 
ATOM     13  N   UNL A   1     -28.075   2.089  25.003  0.00  0.00    -0.208 NA
ATOM     14  C   UNL A   1     -27.543   0.849  25.079  0.00  0.00    +0.253 C 
ATOM     15  C   UNL A   1     -26.354   0.576  25.777  0.00  0.00    +0.193 C 
ATOM     16  F   UNL A   1     -25.860  -0.681  25.795  0.00  0.00    -0.199 F 
BRANCH  11  17
ATOM     17  C   UNL A   1     -25.642   4.093  27.123  0.00  0.00    +0.266 C 
ATOM     18  N   UNL A   1     -25.614   5.252  26.449  0.00  0.00    -0.200 NA
ATOM     19  C   UNL A   1     -25.026   6.479  26.963  0.00  0.00    +0.139 C 
ATOM     20  O   UNL A   1     -25.143   3.966  28.243  0.00  0.00    -0.268 OA
ENDBRANCH  11  17
BRANCH  14  21
ATOM     21  O   UNL A   1     -28.193  -0.208  24.477  0.00  0.00    -0.456 OA
BRANCH  21  22
ATOM     22  C   UNL A   1     -29.460   0.005  23.866  0.00  0.00    +0.243 C 
BRANCH  22  23
ATOM     23  C   UNL A   1     -30.065  -1.377  23.573  0.00  0.00    +0.229 C 
ATOM     24  O   UNL A   1     -30.729  -1.878  24.721  0.00  0.00    -0.216 OA
ENDBRANCH  22  23
ENDBRANCH  21  22
ENDBRANCH  14  21
ENDBRANCH   1  10
BRANCH   2  26
ATOM     25  O   UNL A   1     -26.852   1.605  29.686  0.00  0.00    -0.275 OA
ATOM     26  N   UNL A   1     -25.289   0.006  29.142  0.00  0.00    -0.268 N 
ATOM     27  C   UNL A   1     -26.583   0.547  29.101  0.00  0.00    +0.226 C 
BRANCH  26  28
ATOM     28  C   UNL A   1     -24.855  -1.012  30.143  0.00  0.00    +0.114 C 
BRANCH  28  29
ATOM     29  C   UNL A   1     -24.973  -2.505  29.788  0.00  0.00    -0.003 C 
ATOM     30  C   UNL A   1     -23.906  -3.173  29.146  0.00  0.00    -0.003 C 
ATOM     31  C   UNL A   1     -23.989  -4.549  28.853  0.00  0.00    -0.000 C 
ATOM     32  C   UNL A   1     -25.137  -5.280  29.205  0.00  0.00    -0.000 C 
ATOM     33  C   UNL A   1     -26.232  -4.611  29.784  0.00  0.00    -0.000 C 
ATOM     34  C   UNL A   1     -26.155  -3.232  30.065  0.00  0.00    -0.003 C 
ENDBRANCH  28  29
BRANCH  28  35
ATOM     35  C   UNL A   1     -25.387  -0.679  31.571  0.00  0.00    +0.095 C 
ATOM     36  C   UNL A   1     -25.189   0.773  32.028  0.00  0.00    +0.021 C 
ATOM     37  C   UNL A   1     -25.336   0.684  33.544  0.00  0.00    +0.020 C 
ATOM     38  C   UNL A   1     -24.829  -0.715  33.905  0.00  0.00    +0.089 C 
ATOM     39  N   UNL A   1     -24.758  -1.481  32.646  0.00  0.00    -0.217 NA
ENDBRANCH  28  35
ENDBRANCH  26  28
BRANCH  27  40
ATOM     40  C   UNL A   1     -27.768  -0.233  28.497  0.00  0.00    +0.085 C 
BRANCH  40  43
ATOM     41  C   UNL A   1     -29.647   1.401  28.112  0.00  0.00    +0.001 C 
ATOM     42  C   UNL A   1     -29.232   0.641  30.441  0.00  0.00    +0.001 C 
ATOM     43  C   UNL A   1     -29.098   0.441  29.071  0.00  0.00    +0.009 C 
ENDBRANCH  40  43
ENDBRANCH  27  40
ENDBRANCH   2  26
TORSDOF 11
