REMARK  Name = No_561-gen_results/8p0m/2024-11-27-11-27-31/
REMARK  3 active torsions:
REMARK  status: ('A' for Active; 'I' for Inactive)
REMARK    1  A    between atoms: C_10  and  C_11
REMARK    2  A    between atoms: C_11  and  C_13
REMARK    3  A    between atoms: C_13  and  C_15
REMARK                            x       y       z     vdW  Elec       q    Type
REMARK                         _______ _______ _______ _____ _____    ______ ____
ROOT
ATOM      1  C   UNL A   1     -28.016  -0.814  28.878  0.00  0.00    -0.000 A 
ATOM      2  C   UNL A   1     -28.469  -0.785  29.829  0.00  0.00    -0.000 A 
ATOM      3  C   UNL A   1     -28.196   0.348  28.055  0.00  0.00    -0.000 A 
ATOM      4  C   UNL A   1     -27.442   0.510  26.795  0.00  0.00    -0.000 A 
ATOM      5  C   UNL A   1     -26.169  -0.079  26.679  0.00  0.00    -0.000 A 
ATOM      6  C   UNL A   1     -25.731  -0.961  27.688  0.00  0.00    -0.000 A 
ATOM      7  C   UNL A   1     -26.504  -1.222  28.758  0.00  0.00    -0.000 A 
ATOM      8  C   UNL A   1     -28.343  -2.004  30.779  0.00  0.00    -0.000 A 
ATOM      9  C   UNL A   1     -27.102  -2.690  30.680  0.00  0.00    -0.000 A 
ATOM     10  C   UNL A   1     -26.120  -2.355  29.651  0.00  0.00    -0.004 A 
ENDROOT
BRANCH  10  11
ATOM     11  C   UNL A   1     -24.975  -3.127  29.446  0.00  0.00    -0.020 C 
ATOM     12  C   UNL A   1     -23.802  -2.625  29.090  0.00  0.00    -0.004 C 
BRANCH  11  13
ATOM     13  C   UNL A   1     -25.205  -4.522  29.343  0.00  0.00    +0.058 C 
ATOM     14  C   UNL A   1     -26.425  -5.194  29.503  0.00  0.00    +0.008 C 
BRANCH  13  15
ATOM     15  C   UNL A   1     -24.099  -5.370  28.922  0.00  0.00    +0.198 C 
ATOM     16  F   UNL A   1     -23.029  -4.824  28.543  0.00  0.00    -0.234 F 
ENDBRANCH  13  15
ENDBRANCH  11  13
ENDBRANCH  10  11
TORSDOF 3
