REMARK  Name = outputs/IAG933/test6/raw/output_5612_IAG933_linker_design_.xyz
REMARK  7 active torsions:
REMARK  status: ('A' for Active; 'I' for Inactive)
REMARK    1  A    between atoms: C_1  and  C_2
REMARK    2  A    between atoms: C_1  and  C_8
REMARK    3  A    between atoms: C_1  and  C_38
REMARK    4  A    between atoms: C_14  and  C_15
REMARK    5  A    between atoms: CA_37  and  C_58
REMARK    6  A    between atoms: C_48  and  N_49
REMARK    7  A    between atoms: C_50  and  S_51
REMARK                            x       y       z     vdW  Elec       q    Type
REMARK                         _______ _______ _______ _____ _____    ______ ____
ROOT
ATOM      1  C   UNL A   1     -25.688   1.614  26.461  0.00  0.00    +0.032 C 
ATOM      2  C   UNL A   1     -26.250   2.920  26.395  0.00  0.00    +0.074 C 
ATOM      3  C   UNL A   1     -27.438   3.091  25.645  0.00  0.00    +0.106 C 
ATOM      4  N   UNL A   1     -28.075   2.089  25.003  0.00  0.00    -0.208 NA
ATOM      5  C   UNL A   1     -27.543   0.849  25.079  0.00  0.00    +0.253 C 
ATOM      6  O   UNL A   1     -28.193  -0.208  24.477  0.00  0.00    -0.456 OA
ATOM      7  C   UNL A   1     -29.460   0.005  23.866  0.00  0.00    +0.239 C 
ATOM      8  C   UNL A   1     -30.065  -1.377  23.573  0.00  0.00    +0.189 C 
ATOM      9  O   UNL A   1     -30.729  -1.878  24.721  0.00  0.00    -0.350 OA
ATOM     10  C   UNL A   1     -26.354   0.576  25.777  0.00  0.00    +0.190 C 
ATOM     11  F   UNL A   1     -25.860  -0.681  25.795  0.00  0.00    -0.200 F 
ATOM     12  C   UNL A   1     -30.015   0.655  29.654  0.00  0.00    -0.025 C 
ATOM     13  C   UNL A   1     -32.461  -2.599  26.204  0.00  0.00    +0.059 C 
ATOM     14  C   UNL A   1     -28.289  -1.089  30.138  0.00  0.00    -0.003 C 
ATOM     15  C   UNL A   1     -32.152  -2.094  24.811  0.00  0.00    +0.144 C 
ATOM     16  N   UNL A   1     -32.583  -0.453  30.245  0.00  0.00    -0.216 NA
ATOM     17  C   UNL A   1     -32.983  -3.750  28.053  0.00  0.00    +0.226 C 
ATOM     18  N   UNL A   1     -32.646  -2.594  28.413  0.00  0.00    -0.278 N 
ATOM     19  CA  UNL A   1     -33.773  -1.255  30.270  0.00  0.00    +0.125 C 
ATOM     20  C   UNL A   1     -25.613  -0.226  29.041  0.00  0.00    +0.088 C 
ATOM     21  C   UNL A   1     -29.621  -0.625  30.303  0.00  0.00    -0.005 C 
ATOM     22  C   UNL A   1     -31.230   1.400  29.940  0.00  0.00    +0.043 C 
ATOM     23  C   UNL A   1     -32.982   2.809  31.631  0.00  0.00    -0.023 C 
ATOM     24  C   UNL A   1     -29.082   1.206  28.803  0.00  0.00    -0.026 C 
ATOM     25  C   UNL A   1     -27.238  -0.278  29.426  0.00  0.00    -0.008 C 
ATOM     26  C   UNL A   1     -32.968  -2.330  29.575  0.00  0.00    +0.113 C 
ATOM     27  C   UNL A   1     -29.547   1.948  27.674  0.00  0.00    +0.031 C 
ATOM     28  O   UNL A   1     -33.165  -4.777  28.867  0.00  0.00    -0.275 OA
ATOM     29  N   UNL A   1     -24.452   0.639  28.357  0.00  0.00    -0.238 NA
ATOM     30  C   UNL A   1     -32.240   3.468  30.622  0.00  0.00    -0.001 C 
ATOM     31  C   UNL A   1     -32.859   1.403  31.733  0.00  0.00    +0.044 C 
ATOM     32  C   UNL A   1     -32.258   0.789  30.633  0.00  0.00    +0.082 C 
ATOM     33  C   UNL A   1     -27.736   0.914  28.917  0.00  0.00    -0.007 C 
ATOM     34  C   UNL A   1     -24.315   1.415  27.052  0.00  0.00    +0.104 C 
ATOM     35  C   UNL A   1     -33.002  -3.775  26.622  0.00  0.00    +0.089 C 
ATOM     36  C   UNL A   1     -31.439   2.775  29.691  0.00  0.00    +0.038 C 
ATOM     37  C   UNL A   1     -32.138  -1.832  27.314  0.00  0.00    +0.096 C 
ENDROOT
BRANCH   2  38
ATOM     38  C   UNL A   1     -25.642   4.093  27.123  0.00  0.00    +0.266 C 
ATOM     39  N   UNL A   1     -25.614   5.252  26.449  0.00  0.00    -0.200 NA
ATOM     40  C   UNL A   1     -25.026   6.479  26.963  0.00  0.00    +0.139 C 
ATOM     41  O   UNL A   1     -25.143   3.966  28.243  0.00  0.00    -0.268 OA
ENDBRANCH   2  38
BRANCH  19  43
ATOM     42  O   UNL A   1     -33.258  -2.263  32.319  0.00  0.00    -0.219 OA
ATOM     43  C   UNL A   1     -34.132  -1.430  31.651  0.00  0.00    +0.201 C 
ENDBRANCH  19  43
BRANCH  29  45
ATOM     44  O   UNL A   1     -22.432   0.054  29.538  0.00  0.00    -0.201 OA
ATOM     45  C   UNL A   1     -23.138  -0.234  28.384  0.00  0.00    +0.259 C 
ENDBRANCH  29  45
BRANCH  30  47
ATOM     46  C   UNL A   1     -33.698   5.731  31.267  0.00  0.00    +0.074 C 
ATOM     47  S   UNL A   1     -32.439   5.154  30.278  0.00  0.00    -0.117 S 
ENDBRANCH  30  47
BRANCH  20  48
ATOM     48  C   UNL A   1     -24.855  -1.012  30.143  0.00  0.00    +0.057 C 
BRANCH  48  49
ATOM     49  C   UNL A   1     -24.973  -2.505  29.788  0.00  0.00    -0.019 C 
ATOM     50  C   UNL A   1     -23.906  -3.173  29.146  0.00  0.00    -0.004 C 
ATOM     51  C   UNL A   1     -23.989  -4.549  28.853  0.00  0.00    -0.000 C 
ATOM     52  C   UNL A   1     -25.137  -5.280  29.205  0.00  0.00    -0.000 C 
ATOM     53  C   UNL A   1     -26.232  -4.611  29.784  0.00  0.00    -0.000 C 
ATOM     54  C   UNL A   1     -26.155  -3.232  30.065  0.00  0.00    -0.004 C 
ENDBRANCH  48  49
BRANCH  48  55
ATOM     55  C   UNL A   1     -25.387  -0.679  31.571  0.00  0.00    +0.078 C 
ATOM     56  C   UNL A   1     -25.189   0.773  32.028  0.00  0.00    +0.019 C 
ATOM     57  C   UNL A   1     -25.336   0.684  33.544  0.00  0.00    +0.020 C 
ATOM     58  C   UNL A   1     -24.829  -0.715  33.905  0.00  0.00    +0.089 C 
ATOM     59  N   UNL A   1     -24.758  -1.481  32.646  0.00  0.00    -0.219 NA
ENDBRANCH  48  55
ENDBRANCH  20  48
TORSDOF 7
