REMARK  Name = outputs/IAG933/test6/raw/output_5615_IAG933_linker_design_.xyz
REMARK  9 active torsions:
REMARK  status: ('A' for Active; 'I' for Inactive)
REMARK    1  A    between atoms: C_1  and  C_2
REMARK    2  A    between atoms: C_1  and  C_8
REMARK    3  A    between atoms: C_1  and  N_33
REMARK    4  A    between atoms: C_13  and  N_31
REMARK    5  A    between atoms: C_14  and  C_15
REMARK    6  A    between atoms: C_21  and  O_22
REMARK    7  A    between atoms: O_22  and  C_23
REMARK    8  A    between atoms: C_23  and  C_24
REMARK    9  A    between atoms: C_28  and  N_31
REMARK                            x       y       z     vdW  Elec       q    Type
REMARK                         _______ _______ _______ _____ _____    ______ ____
ROOT
ATOM      1  C   UNL A   1     -23.706   1.143  27.496  0.00  0.00    +0.168 C 
ATOM      2  C   UNL A   1     -21.370   1.244  27.294  0.00  0.00    +0.111 C 
ATOM      3  N   UNL A   1     -22.472  -0.140  29.065  0.00  0.00    +0.014 NA
ATOM      4  C   UNL A   1     -22.611   1.622  26.842  0.00  0.00    +0.088 C 
ATOM      5  N   UNL A   1     -24.863  -0.169  29.061  0.00  0.00    -0.056 N 
ATOM      6 CL   UNL A   1     -22.796   2.507  25.343  0.00  0.00    -0.080 Cl
ATOM      7  C   UNL A   1     -23.686   0.290  28.542  0.00  0.00    +0.383 C 
ATOM      8  N   UNL A   1     -20.075  -0.103  28.862  0.00  0.00    +0.216 NA
ATOM      9  C   UNL A   1     -21.291   0.339  28.397  0.00  0.00    +0.420 C 
ATOM     10  O   UNL A   1     -26.084  -0.124  28.564  0.00  0.00    +0.020 OA
ENDROOT
BRANCH   5  11
ATOM     11  C   UNL A   1     -24.855  -1.012  30.143  0.00  0.00    +0.244 C 
BRANCH  11  12
ATOM     12  C   UNL A   1     -24.973  -2.505  29.788  0.00  0.00    +0.026 C 
ATOM     13  C   UNL A   1     -23.906  -3.173  29.146  0.00  0.00    -0.000 C 
ATOM     14  C   UNL A   1     -23.989  -4.549  28.853  0.00  0.00    -0.000 C 
ATOM     15  C   UNL A   1     -25.137  -5.280  29.205  0.00  0.00    -0.000 C 
ATOM     16  C   UNL A   1     -26.232  -4.611  29.784  0.00  0.00    -0.000 C 
ATOM     17  C   UNL A   1     -26.155  -3.232  30.065  0.00  0.00    -0.000 C 
ENDBRANCH  11  12
BRANCH  11  18
ATOM     18  C   UNL A   1     -25.387  -0.679  31.571  0.00  0.00    +0.125 C 
ATOM     19  C   UNL A   1     -25.189   0.773  32.028  0.00  0.00    +0.024 C 
ATOM     20  C   UNL A   1     -25.336   0.684  33.544  0.00  0.00    +0.020 C 
ATOM     21  C   UNL A   1     -24.829  -0.715  33.905  0.00  0.00    +0.089 C 
ATOM     22  N   UNL A   1     -24.758  -1.481  32.646  0.00  0.00    -0.215 NA
ENDBRANCH  11  18
ENDBRANCH   5  11
BRANCH   1  23
ATOM     23  N   UNL A   1     -24.646   1.438  27.127  0.00  0.00    -0.202 NA
BRANCH  23  24
ATOM     24  C   UNL A   1     -25.688   1.614  26.461  0.00  0.00    +0.109 C 
ATOM     25  C   UNL A   1     -26.250   2.920  26.395  0.00  0.00    +0.092 C 
ATOM     26  C   UNL A   1     -27.438   3.091  25.645  0.00  0.00    +0.108 C 
ATOM     27  N   UNL A   1     -28.075   2.089  25.003  0.00  0.00    -0.208 NA
ATOM     28  C   UNL A   1     -27.543   0.849  25.079  0.00  0.00    +0.255 C 
ATOM     29  C   UNL A   1     -26.354   0.576  25.777  0.00  0.00    +0.208 C 
ATOM     30  F   UNL A   1     -25.860  -0.681  25.795  0.00  0.00    -0.198 F 
BRANCH  25  31
ATOM     31  C   UNL A   1     -25.642   4.093  27.123  0.00  0.00    +0.268 C 
ATOM     32  N   UNL A   1     -25.614   5.252  26.449  0.00  0.00    -0.200 NA
ATOM     33  C   UNL A   1     -25.026   6.479  26.963  0.00  0.00    +0.139 C 
ATOM     34  O   UNL A   1     -25.143   3.966  28.243  0.00  0.00    -0.268 OA
ENDBRANCH  25  31
BRANCH  28  35
ATOM     35  O   UNL A   1     -28.193  -0.208  24.477  0.00  0.00    -0.456 OA
BRANCH  35  36
ATOM     36  C   UNL A   1     -29.460   0.005  23.866  0.00  0.00    +0.243 C 
BRANCH  36  37
ATOM     37  C   UNL A   1     -30.065  -1.377  23.573  0.00  0.00    +0.229 C 
ATOM     38  O   UNL A   1     -30.729  -1.878  24.721  0.00  0.00    -0.216 OA
ENDBRANCH  36  37
ENDBRANCH  35  36
ENDBRANCH  28  35
ENDBRANCH  23  24
ENDBRANCH   1  23
TORSDOF 9
