MODEL 561
MODEL 1
REMARK VINA RESULT:    -6.836      0.000      0.000
REMARK INTER + INTRA:          -8.633
REMARK INTER:                  -8.035
REMARK INTRA:                  -0.598
REMARK UNBOUND:                -0.598
REMARK  Name = No_561-gen_results/8p0m/2024-11-27-11-27-31/
REMARK  3 active torsions:
REMARK  status: ('A' for Active; 'I' for Inactive)
REMARK    1  A    between atoms: C_10  and  C_11
REMARK    2  A    between atoms: C_11  and  C_13
REMARK    3  A    between atoms: C_13  and  C_15
REMARK                            x       y       z     vdW  Elec       q    Type
REMARK                         _______ _______ _______ _____ _____    ______ ____
ROOT
ATOM      1  C   UNL A   1     -25.947  -3.043  30.059  0.00  0.00    -0.000 A 
ATOM      2  C   UNL A   1     -26.785  -2.433  30.249  0.00  0.00    -0.000 A 
ATOM      3  C   UNL A   1     -26.224  -4.385  29.630  0.00  0.00    -0.000 A 
ATOM      4  C   UNL A   1     -25.143  -5.262  29.137  0.00  0.00    -0.000 A 
ATOM      5  C   UNL A   1     -24.023  -4.683  28.511  0.00  0.00    -0.000 A 
ATOM      6  C   UNL A   1     -23.874  -3.281  28.541  0.00  0.00    -0.000 A 
ATOM      7  C   UNL A   1     -24.795  -2.503  29.138  0.00  0.00    -0.000 A 
ATOM      8  C   UNL A   1     -26.581  -0.975  30.735  0.00  0.00    -0.000 A 
ATOM      9  C   UNL A   1     -25.434  -0.337  30.190  0.00  0.00    -0.000 A 
ATOM     10  C   UNL A   1     -24.463  -1.068  29.379  0.00  0.00    -0.004 A 
ENDROOT
BRANCH  10  11
ATOM     11  C   UNL A   1     -23.256  -0.492  28.977  0.00  0.00    -0.020 C 
ATOM     12  C   UNL A   1     -22.144  -0.533  29.696  0.00  0.00    -0.004 C 
BRANCH  11  13
ATOM     13  C   UNL A   1     -23.358   0.410  27.888  0.00  0.00    +0.058 C 
ATOM     14  C   UNL A   1     -24.303   0.386  26.853  0.00  0.00    +0.008 C 
BRANCH  13  15
ATOM     15  C   UNL A   1     -22.466   1.561  27.865  0.00  0.00    +0.198 C 
ATOM     16  F   UNL A   1     -21.445   1.519  27.129  0.00  0.00    -0.234 F 
ENDBRANCH  13  15
ENDBRANCH  11  13
ENDBRANCH  10  11
TORSDOF 3
ENDMDL
ENDMDL
