REMARK  Name = outputs/IAG933/test6/raw/output_5626_IAG933_linker_design_.xyz
REMARK  15 active torsions:
REMARK  status: ('A' for Active; 'I' for Inactive)
REMARK    1  A    between atoms: C_1  and  C_2
REMARK    2  A    between atoms: C_1  and  C_8
REMARK    3  A    between atoms: C_1  and  C_39
REMARK    4  A    between atoms: C_13  and  N_37
REMARK    5  A    between atoms: C_14  and  C_15
REMARK    6  A    between atoms: C_21  and  O_22
REMARK    7  A    between atoms: O_22  and  C_23
REMARK    8  A    between atoms: C_23  and  C_24
REMARK    9  A    between atoms: C_28  and  N_30
REMARK   10  A    between atoms: O_33  and  C_34
REMARK   11  A    between atoms: C_34  and  C_36
REMARK   12  A    between atoms: C_35  and  C_39
REMARK   13  A    between atoms: C_36  and  N_37
REMARK   14  A    between atoms: C_36  and  C_39
REMARK   15  A    between atoms: C_40  and  N_43
REMARK                            x       y       z     vdW  Elec       q    Type
REMARK                         _______ _______ _______ _____ _____    ______ ____
ROOT
ATOM      1  C   UNL A   1     -25.273  -0.008  29.037  0.00  0.00    +0.108 C 
ENDROOT
BRANCH   1   3
ATOM      2  N   UNL A   1     -27.801   0.322  29.837  0.00  0.00    -0.204 NA
ATOM      3  C   UNL A   1     -26.874  -0.137  28.952  0.00  0.00    +0.243 C 
ATOM      4  O   UNL A   1     -27.272  -0.902  28.078  0.00  0.00    -0.273 OA
BRANCH   2   5
ATOM      5  C   UNL A   1     -29.195  -0.123  29.546  0.00  0.00    +0.133 C 
ATOM      6  C   UNL A   1     -30.007   1.197  29.564  0.00  0.00    +0.189 C 
ATOM      7  N   UNL A   1     -31.370   1.001  28.906  0.00  0.00    -0.197 NA
ATOM      8  C   UNL A   1     -30.836   0.406  27.655  0.00  0.00    +0.092 C 
ATOM      9  C   UNL A   1     -29.811  -0.666  28.191  0.00  0.00    +0.044 C 
BRANCH   6  13
ATOM     10  O   UNL A   1     -28.780   3.627  30.427  0.00  0.00    -0.247 OA
ATOM     11  N   UNL A   1     -30.462   3.779  31.855  0.00  0.00    -0.068 NA
ATOM     12  C   UNL A   1     -29.670   3.074  31.020  0.00  0.00    +0.360 C 
ATOM     13  N   UNL A   1     -29.861   1.740  30.901  0.00  0.00    -0.168 NA
ENDBRANCH   6  13
ENDBRANCH   2   5
ENDBRANCH   1   3
BRANCH   1  14
ATOM     14  C   UNL A   1     -24.855  -1.012  30.143  0.00  0.00    +0.049 C 
BRANCH  14  15
ATOM     15  C   UNL A   1     -24.973  -2.505  29.788  0.00  0.00    -0.021 C 
ATOM     16  C   UNL A   1     -23.906  -3.173  29.146  0.00  0.00    -0.004 C 
ATOM     17  C   UNL A   1     -23.989  -4.549  28.853  0.00  0.00    -0.000 C 
ATOM     18  C   UNL A   1     -25.137  -5.280  29.205  0.00  0.00    -0.000 C 
ATOM     19  C   UNL A   1     -26.232  -4.611  29.784  0.00  0.00    -0.000 C 
ATOM     20  C   UNL A   1     -26.155  -3.232  30.065  0.00  0.00    -0.004 C 
ENDBRANCH  14  15
BRANCH  14  21
ATOM     21  C   UNL A   1     -25.387  -0.679  31.571  0.00  0.00    +0.077 C 
ATOM     22  C   UNL A   1     -25.189   0.773  32.028  0.00  0.00    +0.019 C 
ATOM     23  C   UNL A   1     -25.336   0.684  33.544  0.00  0.00    +0.020 C 
ATOM     24  C   UNL A   1     -24.829  -0.715  33.905  0.00  0.00    +0.089 C 
ATOM     25  N   UNL A   1     -24.758  -1.481  32.646  0.00  0.00    -0.219 NA
ENDBRANCH  14  21
ENDBRANCH   1  14
BRANCH   1  26
ATOM     26  C   UNL A   1     -23.998   0.435  27.993  0.00  0.00    +0.161 C 
BRANCH  26  27
ATOM     27  C   UNL A   1     -22.619   1.067  28.504  0.00  0.00    +0.289 C 
ATOM     28  O   UNL A   1     -22.061   0.459  29.677  0.00  0.00    -0.188 OA
BRANCH  27  30
ATOM     29  C   UNL A   1     -21.790   1.840  26.256  0.00  0.00    +0.177 C 
ATOM     30  O   UNL A   1     -21.702   1.017  27.440  0.00  0.00    -0.325 OA
ENDBRANCH  27  30
ENDBRANCH  26  27
BRANCH  26  31
ATOM     31  N   UNL A   1     -24.575   1.519  27.086  0.00  0.00    -0.231 NA
BRANCH  31  32
ATOM     32  C   UNL A   1     -25.688   1.614  26.461  0.00  0.00    +0.103 C 
ATOM     33  C   UNL A   1     -26.250   2.920  26.395  0.00  0.00    +0.091 C 
ATOM     34  C   UNL A   1     -27.438   3.091  25.645  0.00  0.00    +0.108 C 
ATOM     35  N   UNL A   1     -28.075   2.089  25.003  0.00  0.00    -0.208 NA
ATOM     36  C   UNL A   1     -27.543   0.849  25.079  0.00  0.00    +0.255 C 
ATOM     37  C   UNL A   1     -26.354   0.576  25.777  0.00  0.00    +0.208 C 
ATOM     38  F   UNL A   1     -25.860  -0.681  25.795  0.00  0.00    -0.198 F 
BRANCH  33  39
ATOM     39  C   UNL A   1     -25.642   4.093  27.123  0.00  0.00    +0.268 C 
ATOM     40  N   UNL A   1     -25.614   5.252  26.449  0.00  0.00    -0.200 NA
ATOM     41  C   UNL A   1     -25.026   6.479  26.963  0.00  0.00    +0.139 C 
ATOM     42  O   UNL A   1     -25.143   3.966  28.243  0.00  0.00    -0.268 OA
ENDBRANCH  33  39
BRANCH  36  43
ATOM     43  O   UNL A   1     -28.193  -0.208  24.477  0.00  0.00    -0.456 OA
BRANCH  43  44
ATOM     44  C   UNL A   1     -29.460   0.005  23.866  0.00  0.00    +0.243 C 
BRANCH  44  45
ATOM     45  C   UNL A   1     -30.065  -1.377  23.573  0.00  0.00    +0.229 C 
ATOM     46  O   UNL A   1     -30.729  -1.878  24.721  0.00  0.00    -0.216 OA
ENDBRANCH  44  45
ENDBRANCH  43  44
ENDBRANCH  36  43
ENDBRANCH  31  32
ENDBRANCH  26  31
ENDBRANCH   1  26
TORSDOF 15
