MODEL 562
MODEL 1
REMARK VINA RESULT:    -4.851      0.000      0.000
REMARK INTER + INTRA:          -5.309
REMARK INTER:                  -5.135
REMARK INTRA:                  -0.174
REMARK UNBOUND:                -0.174
REMARK  Name = No_562-gen_results/8p0m/2024-11-27-11-27-31/
REMARK  1 active torsions:
REMARK  status: ('A' for Active; 'I' for Inactive)
REMARK    1  A    between atoms: C_2  and  C_7
REMARK                            x       y       z     vdW  Elec       q    Type
REMARK                         _______ _______ _______ _____ _____    ______ ____
ROOT
ATOM      1  C   UNL A   1     -24.000  -3.447  28.508  0.00  0.00    +0.082 C 
ATOM      2  C   UNL A   1     -24.461  -2.800  29.201  0.00  0.00    +0.050 C 
ATOM      3  C   UNL A   1     -24.054  -4.856  28.897  0.00  0.00    -0.091 C 
ATOM      4  C   UNL A   1     -25.122  -5.466  28.908  0.00  0.00    -0.091 C 
ATOM      5  C   UNL A   1     -25.955  -3.096  29.619  0.00  0.00    +0.021 C 
ATOM      6  C   UNL A   1     -26.185  -4.536  29.716  0.00  0.00    +0.076 C 
ENDROOT
BRANCH   2   7
ATOM      7  C   UNL A   1     -24.348  -1.278  29.223  0.00  0.00    +0.033 C 
ATOM      8  N   UNL A   1     -23.962  -0.567  30.096  0.00  0.00    -0.277 NA
ATOM      9  C   UNL A   1     -24.911  -0.637  28.019  0.00  0.00    +0.047 C 
ATOM     10  C   UNL A   1     -23.434  -1.057  31.348  0.00  0.00    +0.151 C 
ENDBRANCH   2   7
TORSDOF 1
ENDMDL
ENDMDL
