REMARK  Name = No_563-gen_results/8p0m/2024-11-27-11-27-31/
REMARK  10 active torsions:
REMARK  status: ('A' for Active; 'I' for Inactive)
REMARK    1  A    between atoms: C_1  and  O_7
REMARK    2  A    between atoms: C_2  and  C_9
REMARK    3  A    between atoms: O_7  and  C_20
REMARK    4  A    between atoms: C_9  and  C_10
REMARK    5  A    between atoms: C_10  and  C_11
REMARK    6  A    between atoms: C_10  and  C_17
REMARK    7  A    between atoms: C_21  and  O_26
REMARK    8  A    between atoms: C_24  and  C_30
REMARK    9  A    between atoms: O_26  and  C_27
REMARK   10  A    between atoms: N_32  and  C_33
REMARK                            x       y       z     vdW  Elec       q    Type
REMARK                         _______ _______ _______ _____ _____    ______ ____
ROOT
ATOM      1  C   UNL A   1     -28.016  -0.814  28.878  0.00  0.00    +0.142 A 
ATOM      2  C   UNL A   1     -27.064  -0.119  28.608  0.00  0.00    +0.013 A 
ATOM      3  C   UNL A   1     -27.001   0.691  27.491  0.00  0.00    -0.001 A 
ATOM      4  C   UNL A   1     -28.137   0.736  26.635  0.00  0.00    +0.007 A 
ATOM      5  C   UNL A   1     -29.236   0.076  27.069  0.00  0.00    +0.038 A 
ATOM      6  C   UNL A   1     -29.218  -0.643  28.175  0.00  0.00    +0.044 A 
ATOM      7 BR   UNL A   1     -30.741   0.171  25.978  0.00  0.00    -0.049 Br
ENDROOT
BRANCH   1   8
ATOM      8  O   UNL A   1     -28.033  -1.574  30.042  0.00  0.00    -0.451 OA
BRANCH   8   9
ATOM      9  C   UNL A   1     -29.031  -1.723  30.972  0.00  0.00    +0.180 A 
ATOM     10  C   UNL A   1     -30.184  -2.229  30.642  0.00  0.00    +0.180 A 
ATOM     11  C   UNL A   1     -31.282  -1.642  31.080  0.00  0.00    +0.041 A 
ATOM     12  C   UNL A   1     -31.122  -0.816  32.118  0.00  0.00    +0.008 A 
ATOM     13  C   UNL A   1     -29.953  -0.254  32.580  0.00  0.00    +0.059 A 
ATOM     14  C   UNL A   1     -28.813  -0.793  32.075  0.00  0.00    +0.045 A 
BRANCH  13  15
ATOM     15  C   UNL A   1     -29.885   0.616  33.814  0.00  0.00    +0.269 C 
ATOM     16  O   UNL A   1     -29.052   0.386  34.624  0.00  0.00    -0.268 OA
ATOM     17  N   UNL A   1     -30.930   1.434  34.062  0.00  0.00    -0.174 NA
BRANCH  17  18
ATOM     18  C   UNL A   1     -30.865   2.302  35.225  0.00  0.00    +0.084 C 
ATOM     19  C   UNL A   1     -31.764   2.965  35.388  0.00  0.00    -0.008 C 
ATOM     20  C   UNL A   1     -31.858   3.917  36.553  0.00  0.00    +0.032 C 
ENDBRANCH  17  18
ENDBRANCH  13  15
BRANCH  10  21
ATOM     21  O   UNL A   1     -29.968  -3.571  31.063  0.00  0.00    -0.444 OA
BRANCH  21  22
ATOM     22  C   UNL A   1     -29.083  -3.945  31.722  0.00  0.00    +0.225 C 
ATOM     23  C   UNL A   1     -29.036  -5.611  31.579  0.00  0.00    +0.275 C 
ATOM     24  O   UNL A   1     -29.258  -6.194  32.623  0.00  0.00    -0.280 OA
ENDBRANCH  21  22
ENDBRANCH  10  21
ENDBRANCH   8   9
ENDBRANCH   1   8
BRANCH   2  25
ATOM     25  C   UNL A   1     -25.694  -0.196  29.434  0.00  0.00    +0.045 C 
BRANCH  25  26
ATOM     26  C   UNL A   1     -25.070   0.909  29.887  0.00  0.00    +0.130 C 
BRANCH  26  27
ATOM     27  C   UNL A   1     -25.336   1.466  30.835  0.00  0.00    -0.011 A 
ATOM     28  C   UNL A   1     -26.357   1.067  31.786  0.00  0.00    -0.004 A 
ATOM     29  C   UNL A   1     -26.714   1.878  32.911  0.00  0.00    -0.000 A 
ATOM     30  C   UNL A   1     -26.074   3.077  33.103  0.00  0.00    -0.000 A 
ATOM     31  C   UNL A   1     -25.074   3.563  32.284  0.00  0.00    -0.000 A 
ATOM     32  C   UNL A   1     -24.732   2.800  31.143  0.00  0.00    -0.004 A 
ENDBRANCH  26  27
BRANCH  26  33
ATOM     33  C   UNL A   1     -23.979   1.260  28.941  0.00  0.00    +0.369 C 
ATOM     34  O   UNL A   1     -22.919   0.986  29.304  0.00  0.00    -0.245 OA
ATOM     35  O   UNL A   1     -24.140   2.310  28.167  0.00  0.00    -0.245 OA
ENDBRANCH  26  33
ENDBRANCH  25  26
ENDBRANCH   2  25
TORSDOF 10
