REMARK  Name = outputs/IAG933/test6/raw/output_5634_IAG933_linker_design_.xyz
REMARK  11 active torsions:
REMARK  status: ('A' for Active; 'I' for Inactive)
REMARK    1  A    between atoms: C_1  and  C_2
REMARK    2  A    between atoms: C_1  and  C_8
REMARK    3  A    between atoms: C_1  and  N_38
REMARK    4  A    between atoms: C_13  and  C_30
REMARK    5  A    between atoms: C_14  and  C_15
REMARK    6  A    between atoms: C_21  and  O_22
REMARK    7  A    between atoms: O_22  and  C_23
REMARK    8  A    between atoms: C_23  and  C_24
REMARK    9  A    between atoms: C_29  and  N_38
REMARK   10  A    between atoms: C_33  and  N_38
REMARK   11  A    between atoms: N_36  and  C_37
REMARK                            x       y       z     vdW  Elec       q    Type
REMARK                         _______ _______ _______ _____ _____    ______ ____
ROOT
ATOM      1  F   UNL A   1     -20.262   1.046  28.087  0.00  0.00    -0.230 F 
ATOM      2  C   UNL A   1     -24.142   0.971  28.334  0.00  0.00    +0.205 C 
ATOM      3  C   UNL A   1     -24.438   1.396  26.946  0.00  0.00    +0.049 C 
ATOM      4  O   UNL A   1     -23.544   1.768  29.148  0.00  0.00    -0.320 OA
ATOM      5  C   UNL A   1     -23.407   1.793  26.210  0.00  0.00    +0.153 C 
ATOM      6  F   UNL A   1     -21.071   2.091  25.645  0.00  0.00    -0.227 F 
ATOM      7  C   UNL A   1     -22.678   0.828  28.664  0.00  0.00    +0.227 C 
ATOM      8  C   UNL A   1     -21.541   1.622  28.020  0.00  0.00    +0.244 C 
ATOM      9  F   UNL A   1     -23.573   2.203  24.965  0.00  0.00    -0.206 F 
ATOM     10  C   UNL A   1     -22.003   1.822  26.619  0.00  0.00    +0.246 C 
ENDROOT
BRANCH   3  11
ATOM     11  C   UNL A   1     -25.688   1.614  26.461  0.00  0.00    +0.040 C 
ATOM     12  C   UNL A   1     -26.250   2.920  26.395  0.00  0.00    +0.076 C 
ATOM     13  C   UNL A   1     -27.438   3.091  25.645  0.00  0.00    +0.107 C 
ATOM     14  N   UNL A   1     -28.075   2.089  25.003  0.00  0.00    -0.208 NA
ATOM     15  C   UNL A   1     -27.543   0.849  25.079  0.00  0.00    +0.253 C 
ATOM     16  C   UNL A   1     -26.354   0.576  25.777  0.00  0.00    +0.193 C 
ATOM     17  F   UNL A   1     -25.860  -0.681  25.795  0.00  0.00    -0.199 F 
BRANCH  12  18
ATOM     18  C   UNL A   1     -25.642   4.093  27.123  0.00  0.00    +0.266 C 
ATOM     19  N   UNL A   1     -25.614   5.252  26.449  0.00  0.00    -0.200 NA
ATOM     20  C   UNL A   1     -25.026   6.479  26.963  0.00  0.00    +0.139 C 
ATOM     21  O   UNL A   1     -25.143   3.966  28.243  0.00  0.00    -0.268 OA
ENDBRANCH  12  18
BRANCH  15  22
ATOM     22  O   UNL A   1     -28.193  -0.208  24.477  0.00  0.00    -0.456 OA
BRANCH  22  23
ATOM     23  C   UNL A   1     -29.460   0.005  23.866  0.00  0.00    +0.243 C 
BRANCH  23  24
ATOM     24  C   UNL A   1     -30.065  -1.377  23.573  0.00  0.00    +0.229 C 
ATOM     25  O   UNL A   1     -30.729  -1.878  24.721  0.00  0.00    -0.216 OA
ENDBRANCH  23  24
ENDBRANCH  22  23
ENDBRANCH  15  22
ENDBRANCH   3  11
BRANCH   7  26
ATOM     26  N   UNL A   1     -22.299  -0.099  29.518  0.00  0.00    -0.188 NA
ATOM     27  C   UNL A   1     -21.337  -1.049  28.946  0.00  0.00    +0.110 C 
ENDBRANCH   7  26
BRANCH   2  28
ATOM     28  N   UNL A   1     -25.121   0.094  29.183  0.00  0.00    -0.215 NA
BRANCH  28  29
ATOM     29  C   UNL A   1     -26.517   0.499  28.956  0.00  0.00    +0.261 C 
ATOM     30  O   UNL A   1     -27.345  -0.609  28.713  0.00  0.00    -0.201 OA
ENDBRANCH  28  29
BRANCH  28  31
ATOM     31  C   UNL A   1     -24.855  -1.012  30.143  0.00  0.00    +0.101 C 
BRANCH  31  32
ATOM     32  C   UNL A   1     -24.973  -2.505  29.788  0.00  0.00    -0.006 C 
ATOM     33  C   UNL A   1     -23.906  -3.173  29.146  0.00  0.00    -0.003 C 
ATOM     34  C   UNL A   1     -23.989  -4.549  28.853  0.00  0.00    -0.000 C 
ATOM     35  C   UNL A   1     -25.137  -5.280  29.205  0.00  0.00    -0.000 C 
ATOM     36  C   UNL A   1     -26.232  -4.611  29.784  0.00  0.00    -0.000 C 
ATOM     37  C   UNL A   1     -26.155  -3.232  30.065  0.00  0.00    -0.003 C 
ENDBRANCH  31  32
BRANCH  31  38
ATOM     38  C   UNL A   1     -25.387  -0.679  31.571  0.00  0.00    +0.092 C 
ATOM     39  C   UNL A   1     -25.189   0.773  32.028  0.00  0.00    +0.021 C 
ATOM     40  C   UNL A   1     -25.336   0.684  33.544  0.00  0.00    +0.020 C 
ATOM     41  C   UNL A   1     -24.829  -0.715  33.905  0.00  0.00    +0.089 C 
ATOM     42  N   UNL A   1     -24.758  -1.481  32.646  0.00  0.00    -0.218 NA
ENDBRANCH  31  38
ENDBRANCH  28  31
ENDBRANCH   2  28
TORSDOF 11
