REMARK  Name = outputs/IAG933/test6/raw/output_5638_IAG933_linker_design_.xyz
REMARK  12 active torsions:
REMARK  status: ('A' for Active; 'I' for Inactive)
REMARK    1  A    between atoms: C_1  and  C_2
REMARK    2  A    between atoms: C_1  and  C_8
REMARK    3  A    between atoms: C_9  and  N_36
REMARK    4  A    between atoms: C_13  and  C_37
REMARK    5  A    between atoms: C_14  and  C_15
REMARK    6  A    between atoms: C_21  and  O_22
REMARK    7  A    between atoms: O_22  and  C_23
REMARK    8  A    between atoms: C_23  and  C_24
REMARK    9  A    between atoms: C_30  and  C_39
REMARK   10  A    between atoms: O_32  and  C_35
REMARK   11  A    between atoms: C_33  and  N_36
REMARK   12  A    between atoms: C_33  and  C_39
REMARK                            x       y       z     vdW  Elec       q    Type
REMARK                         _______ _______ _______ _____ _____    ______ ____
ROOT
ATOM      1  C   UNL A   1     -22.311   1.785  27.329  0.00  0.00    +0.030 C 
ATOM      2  C   UNL A   1     -20.850   1.615  27.417  0.00  0.00    +0.003 C 
ATOM      3  C   UNL A   1     -23.146   1.548  28.468  0.00  0.00    +0.117 C 
ATOM      4  C   UNL A   1     -24.364   1.453  26.824  0.00  0.00    +0.122 C 
ATOM      5  O   UNL A   1     -24.171   0.825  27.999  0.00  0.00    -0.358 OA
ATOM      6  C   UNL A   1     -23.193   1.995  26.220  0.00  0.00    +0.032 C 
ENDROOT
BRANCH   4   7
ATOM      7  C   UNL A   1     -25.688   1.614  26.461  0.00  0.00    +0.097 C 
ATOM      8  C   UNL A   1     -26.250   2.920  26.395  0.00  0.00    +0.057 C 
ATOM      9  C   UNL A   1     -27.438   3.091  25.645  0.00  0.00    +0.102 C 
ATOM     10  N   UNL A   1     -28.075   2.089  25.003  0.00  0.00    -0.212 NA
ATOM     11  C   UNL A   1     -27.543   0.849  25.079  0.00  0.00    +0.234 C 
ATOM     12  C   UNL A   1     -26.354   0.576  25.777  0.00  0.00    +0.242 C 
ATOM     13  F   UNL A   1     -25.860  -0.681  25.795  0.00  0.00    -0.227 F 
BRANCH   8  14
ATOM     14  C   UNL A   1     -25.642   4.093  27.123  0.00  0.00    +0.263 C 
ATOM     15  N   UNL A   1     -25.614   5.252  26.449  0.00  0.00    -0.200 NA
ATOM     16  C   UNL A   1     -25.026   6.479  26.963  0.00  0.00    +0.139 C 
ATOM     17  O   UNL A   1     -25.143   3.966  28.243  0.00  0.00    -0.269 OA
ENDBRANCH   8  14
BRANCH  11  18
ATOM     18  O   UNL A   1     -28.193  -0.208  24.477  0.00  0.00    -0.459 OA
BRANCH  18  19
ATOM     19  C   UNL A   1     -29.460   0.005  23.866  0.00  0.00    +0.242 C 
BRANCH  19  20
ATOM     20  C   UNL A   1     -30.065  -1.377  23.573  0.00  0.00    +0.229 C 
ATOM     21  O   UNL A   1     -30.729  -1.878  24.721  0.00  0.00    -0.216 OA
ENDBRANCH  19  20
ENDBRANCH  18  19
ENDBRANCH  11  18
ENDBRANCH   4   7
BRANCH   3  22
ATOM     22  C   UNL A   1     -22.946   2.135  29.749  0.00  0.00    +0.051 C 
BRANCH  22  23
ATOM     23  C   UNL A   1     -24.011   2.415  30.534  0.00  0.00    +0.099 C 
BRANCH  23  26
ATOM     24  O   UNL A   1     -25.938   3.554  33.011  0.00  0.00    -0.226 OA
ATOM     25  C   UNL A   1     -24.912   3.381  32.351  0.00  0.00    +0.405 C 
ATOM     26  N   UNL A   1     -24.663   2.123  31.675  0.00  0.00    -0.246 N 
BRANCH  26  28
ATOM     27  C   UNL A   1     -25.387  -0.679  31.571  0.00  0.00    +0.095 C 
ATOM     28  C   UNL A   1     -25.189   0.773  32.028  0.00  0.00    +0.096 C 
ATOM     29  C   UNL A   1     -25.336   0.684  33.544  0.00  0.00    +0.040 C 
ATOM     30  C   UNL A   1     -24.829  -0.715  33.905  0.00  0.00    +0.090 C 
ATOM     31  N   UNL A   1     -24.758  -1.481  32.646  0.00  0.00    -0.217 NA
BRANCH  27  32
ATOM     32  C   UNL A   1     -24.855  -1.012  30.143  0.00  0.00    +0.045 C 
BRANCH  32  33
ATOM     33  C   UNL A   1     -24.973  -2.505  29.788  0.00  0.00    -0.021 C 
ATOM     34  C   UNL A   1     -23.906  -3.173  29.146  0.00  0.00    -0.004 C 
ATOM     35  C   UNL A   1     -23.989  -4.549  28.853  0.00  0.00    -0.000 C 
ATOM     36  C   UNL A   1     -25.137  -5.280  29.205  0.00  0.00    -0.000 C 
ATOM     37  C   UNL A   1     -26.232  -4.611  29.784  0.00  0.00    -0.000 C 
ATOM     38  C   UNL A   1     -26.155  -3.232  30.065  0.00  0.00    -0.004 C 
ENDBRANCH  32  33
ENDBRANCH  27  32
ENDBRANCH  26  28
BRANCH  25  39
ATOM     39  O   UNL A   1     -23.938   4.282  32.379  0.00  0.00    -0.430 OA
ATOM     40  C   UNL A   1     -24.407   5.582  32.673  0.00  0.00    +0.257 C 
ENDBRANCH  25  39
ENDBRANCH  23  26
ENDBRANCH  22  23
ENDBRANCH   3  22
TORSDOF 12
