REMARK  Name = outputs/IAG933/test6/raw/output_5639_IAG933_linker_design_.xyz
REMARK  11 active torsions:
REMARK  status: ('A' for Active; 'I' for Inactive)
REMARK    1  A    between atoms: C_1  and  C_2
REMARK    2  A    between atoms: C_1  and  C_8
REMARK    3  A    between atoms: C_1  and  C_36
REMARK    4  A    between atoms: C_13  and  C_33
REMARK    5  A    between atoms: C_14  and  C_15
REMARK    6  A    between atoms: C_21  and  O_22
REMARK    7  A    between atoms: O_22  and  C_23
REMARK    8  A    between atoms: C_23  and  C_24
REMARK    9  A    between atoms: S_34  and  C_44
REMARK   10  A    between atoms: C_36  and  N_37
REMARK   11  A    between atoms: C_36  and  N_38
REMARK                            x       y       z     vdW  Elec       q    Type
REMARK                         _______ _______ _______ _____ _____    ______ ____
ROOT
ATOM      1  C   UNL A   1     -25.153  -0.127  28.990  0.00  0.00    +0.291 C 
ENDROOT
BRANCH   1   5
ATOM      2  N   UNL A   1     -28.468  -0.120  29.134  0.00  0.00    -0.034 NA
ATOM      3  C   UNL A   1     -28.432   3.937  30.225  0.00  0.00    +0.005 C 
ATOM      4  C   UNL A   1     -29.680   1.740  29.955  0.00  0.00    +0.028 C 
ATOM      5  N   UNL A   1     -26.364  -0.125  28.621  0.00  0.00    -0.017 NA
ATOM      6  C   UNL A   1     -27.342   0.524  29.191  0.00  0.00    +0.340 C 
ATOM      7  C   UNL A   1     -28.508   2.463  29.975  0.00  0.00    +0.039 C 
ATOM      8  C   UNL A   1     -27.316   1.813  29.776  0.00  0.00    +0.126 C 
ATOM      9  C   UNL A   1     -29.618   0.410  29.519  0.00  0.00    +0.223 C 
BRANCH   9  12
ATOM     10  C   UNL A   1     -30.554  -2.108  30.391  0.00  0.00    +0.088 C 
ATOM     11  O   UNL A   1     -30.898  -1.153  27.971  0.00  0.00    -0.164 OA
ATOM     12  S   UNL A   1     -30.784  -0.708  29.379  0.00  0.00    -0.012 S 
ATOM     13  C   UNL A   1     -32.314  -0.096  29.808  0.00  0.00    +0.088 C 
ENDBRANCH   9  12
ENDBRANCH   1   5
BRANCH   1  16
ATOM     14  C   UNL A   1     -23.358   1.853  26.634  0.00  0.00    +0.012 C 
ATOM     15  C   UNL A   1     -24.523   1.318  27.134  0.00  0.00    +0.057 C 
ATOM     16  N   UNL A   1     -24.285   0.610  28.312  0.00  0.00    -0.248 N 
ATOM     17  C   UNL A   1     -22.972   0.713  28.612  0.00  0.00    +0.064 C 
ATOM     18  C   UNL A   1     -20.895   1.763  27.317  0.00  0.00    +0.032 C 
ATOM     19  C   UNL A   1     -22.418   1.607  27.523  0.00  0.00    -0.006 C 
BRANCH  15  20
ATOM     20  C   UNL A   1     -25.688   1.614  26.461  0.00  0.00    +0.052 C 
ATOM     21  C   UNL A   1     -26.250   2.920  26.395  0.00  0.00    +0.078 C 
ATOM     22  C   UNL A   1     -27.438   3.091  25.645  0.00  0.00    +0.107 C 
ATOM     23  N   UNL A   1     -28.075   2.089  25.003  0.00  0.00    -0.208 NA
ATOM     24  C   UNL A   1     -27.543   0.849  25.079  0.00  0.00    +0.253 C 
ATOM     25  C   UNL A   1     -26.354   0.576  25.777  0.00  0.00    +0.194 C 
ATOM     26  F   UNL A   1     -25.860  -0.681  25.795  0.00  0.00    -0.199 F 
BRANCH  21  27
ATOM     27  C   UNL A   1     -25.642   4.093  27.123  0.00  0.00    +0.267 C 
ATOM     28  N   UNL A   1     -25.614   5.252  26.449  0.00  0.00    -0.200 NA
ATOM     29  C   UNL A   1     -25.026   6.479  26.963  0.00  0.00    +0.139 C 
ATOM     30  O   UNL A   1     -25.143   3.966  28.243  0.00  0.00    -0.268 OA
ENDBRANCH  21  27
BRANCH  24  31
ATOM     31  O   UNL A   1     -28.193  -0.208  24.477  0.00  0.00    -0.456 OA
BRANCH  31  32
ATOM     32  C   UNL A   1     -29.460   0.005  23.866  0.00  0.00    +0.243 C 
BRANCH  32  33
ATOM     33  C   UNL A   1     -30.065  -1.377  23.573  0.00  0.00    +0.229 C 
ATOM     34  O   UNL A   1     -30.729  -1.878  24.721  0.00  0.00    -0.216 OA
ENDBRANCH  32  33
ENDBRANCH  31  32
ENDBRANCH  24  31
ENDBRANCH  15  20
ENDBRANCH   1  16
BRANCH   1  35
ATOM     35  C   UNL A   1     -24.855  -1.012  30.143  0.00  0.00    +0.106 C 
BRANCH  35  36
ATOM     36  C   UNL A   1     -24.973  -2.505  29.788  0.00  0.00    -0.015 C 
ATOM     37  C   UNL A   1     -23.906  -3.173  29.146  0.00  0.00    -0.004 C 
ATOM     38  C   UNL A   1     -23.989  -4.549  28.853  0.00  0.00    -0.000 C 
ATOM     39  C   UNL A   1     -25.137  -5.280  29.205  0.00  0.00    -0.000 C 
ATOM     40  C   UNL A   1     -26.232  -4.611  29.784  0.00  0.00    -0.000 C 
ATOM     41  C   UNL A   1     -26.155  -3.232  30.065  0.00  0.00    -0.004 C 
ENDBRANCH  35  36
BRANCH  35  42
ATOM     42  C   UNL A   1     -25.387  -0.679  31.571  0.00  0.00    +0.083 C 
ATOM     43  C   UNL A   1     -25.189   0.773  32.028  0.00  0.00    +0.019 C 
ATOM     44  C   UNL A   1     -25.336   0.684  33.544  0.00  0.00    +0.020 C 
ATOM     45  C   UNL A   1     -24.829  -0.715  33.905  0.00  0.00    +0.089 C 
ATOM     46  N   UNL A   1     -24.758  -1.481  32.646  0.00  0.00    -0.219 NA
ENDBRANCH  35  42
ENDBRANCH   1  35
TORSDOF 11
