MODEL 563
MODEL 1
REMARK VINA RESULT:    -7.404      0.000      0.000
REMARK INTER + INTRA:         -13.867
REMARK INTER:                 -11.732
REMARK INTRA:                  -2.135
REMARK UNBOUND:                -2.135
REMARK  Name = No_563-gen_results/8p0m/2024-11-27-11-27-31/
REMARK  10 active torsions:
REMARK  status: ('A' for Active; 'I' for Inactive)
REMARK    1  A    between atoms: C_1  and  O_7
REMARK    2  A    between atoms: C_2  and  C_9
REMARK    3  A    between atoms: O_7  and  C_20
REMARK    4  A    between atoms: C_9  and  C_10
REMARK    5  A    between atoms: C_10  and  C_11
REMARK    6  A    between atoms: C_10  and  C_17
REMARK    7  A    between atoms: C_21  and  O_26
REMARK    8  A    between atoms: C_24  and  C_30
REMARK    9  A    between atoms: O_26  and  C_27
REMARK   10  A    between atoms: N_32  and  C_33
REMARK                            x       y       z     vdW  Elec       q    Type
REMARK                         _______ _______ _______ _____ _____    ______ ____
ROOT
ATOM      1  C   UNL A   1     -25.528   0.445  27.068  0.00  0.00    +0.142 A 
ATOM      2  C   UNL A   1     -25.083   0.339  28.187  0.00  0.00    +0.013 A 
ATOM      3  C   UNL A   1     -23.798   0.705  28.536  0.00  0.00    -0.001 A 
ATOM      4  C   UNL A   1     -22.970   1.274  27.529  0.00  0.00    +0.007 A 
ATOM      5  C   UNL A   1     -23.566   1.529  26.341  0.00  0.00    +0.038 A 
ATOM      6  C   UNL A   1     -24.817   1.181  26.108  0.00  0.00    +0.044 A 
ATOM      7 BR   UNL A   1     -22.502   2.319  25.035  0.00  0.00    -0.049 Br
ENDROOT
BRANCH   1   8
ATOM      8  O   UNL A   1     -26.846   0.098  26.792  0.00  0.00    -0.451 OA
BRANCH   8   9
ATOM      9  C   UNL A   1     -27.765   0.729  25.992  0.00  0.00    +0.180 A 
ATOM     10  C   UNL A   1     -27.989   0.320  24.777  0.00  0.00    +0.180 A 
ATOM     11  C   UNL A   1     -28.074   1.217  23.812  0.00  0.00    +0.041 A 
ATOM     12  C   UNL A   1     -28.299   2.473  24.208  0.00  0.00    +0.008 A 
ATOM     13  C   UNL A   1     -28.136   3.005  25.468  0.00  0.00    +0.059 A 
ATOM     14  C   UNL A   1     -27.964   2.096  26.462  0.00  0.00    +0.045 A 
BRANCH  13  15
ATOM     15  C   UNL A   1     -28.490   4.433  25.814  0.00  0.00    +0.269 C 
ATOM     16  O   UNL A   1     -29.326   4.980  25.178  0.00  0.00    -0.268 OA
ATOM     17  N   UNL A   1     -27.662   5.100  26.647  0.00  0.00    -0.174 NA
BRANCH  17  18
ATOM     18  C   UNL A   1     -28.007   6.461  27.018  0.00  0.00    +0.084 C 
ATOM     19  C   UNL A   1     -27.133   7.151  27.203  0.00  0.00    -0.008 C 
ATOM     20  C   UNL A   1     -27.319   8.597  27.587  0.00  0.00    +0.032 C 
ENDBRANCH  17  18
ENDBRANCH  13  15
BRANCH  10  21
ATOM     21  O   UNL A   1     -29.148  -0.470  25.016  0.00  0.00    -0.444 OA
BRANCH  21  22
ATOM     22  C   UNL A   1     -29.864  -0.895  24.201  0.00  0.00    +0.225 C 
ATOM     23  C   UNL A   1     -31.187  -1.537  24.999  0.00  0.00    +0.275 C 
ATOM     24  O   UNL A   1     -31.303  -2.739  24.857  0.00  0.00    -0.280 OA
ENDBRANCH  21  22
ENDBRANCH  10  21
ENDBRANCH   8   9
ENDBRANCH   1   8
BRANCH   2  25
ATOM     25  C   UNL A   1     -25.888  -0.405  29.355  0.00  0.00    +0.045 C 
BRANCH  25  26
ATOM     26  C   UNL A   1     -25.321  -1.360  30.117  0.00  0.00    +0.130 C 
BRANCH  26  27
ATOM     27  C   UNL A   1     -25.190  -2.442  29.817  0.00  0.00    -0.011 A 
ATOM     28  C   UNL A   1     -24.064  -2.978  29.074  0.00  0.00    -0.004 A 
ATOM     29  C   UNL A   1     -24.016  -4.341  28.635  0.00  0.00    -0.000 A 
ATOM     30  C   UNL A   1     -25.067  -5.175  28.922  0.00  0.00    -0.000 A 
ATOM     31  C   UNL A   1     -26.187  -4.796  29.635  0.00  0.00    -0.000 A 
ATOM     32  C   UNL A   1     -26.277  -3.445  30.044  0.00  0.00    -0.004 A 
ENDBRANCH  26  27
BRANCH  26  33
ATOM     33  C   UNL A   1     -24.894  -0.749  31.403  0.00  0.00    +0.369 C 
ATOM     34  O   UNL A   1     -25.535   0.145  31.749  0.00  0.00    -0.245 OA
ATOM     35  O   UNL A   1     -23.617  -0.780  31.714  0.00  0.00    -0.245 OA
ENDBRANCH  26  33
ENDBRANCH  25  26
ENDBRANCH   2  25
TORSDOF 10
ENDMDL
ENDMDL
