REMARK  Name = outputs/IAG933/test6/raw/output_5640_IAG933_linker_design_.xyz
REMARK  13 active torsions:
REMARK  status: ('A' for Active; 'I' for Inactive)
REMARK    1  A    between atoms: C_1  and  C_2
REMARK    2  A    between atoms: C_1  and  C_8
REMARK    3  A    between atoms: C_1  and  C_41
REMARK    4  A    between atoms: C_13  and  C_43
REMARK    5  A    between atoms: C_14  and  C_15
REMARK    6  A    between atoms: C_21  and  O_22
REMARK    7  A    between atoms: O_22  and  C_23
REMARK    8  A    between atoms: C_23  and  C_24
REMARK    9  A    between atoms: C_28  and  C_34
REMARK   10  A    between atoms: C_29  and  C_43
REMARK   11  A    between atoms: C_34  and  N_35
REMARK   12  A    between atoms: C_36  and  C_43
REMARK   13  A    between atoms: C_38  and  C_41
REMARK                            x       y       z     vdW  Elec       q    Type
REMARK                         _______ _______ _______ _____ _____    ______ ____
ROOT
ATOM      1  C   UNL A   1     -24.755   1.171  27.445  0.00  0.00    +0.058 C 
ENDROOT
BRANCH   1   2
ATOM      2  C   UNL A   1     -25.688   1.614  26.461  0.00  0.00    +0.078 C 
ATOM      3  C   UNL A   1     -26.250   2.920  26.395  0.00  0.00    +0.055 C 
ATOM      4  C   UNL A   1     -27.438   3.091  25.645  0.00  0.00    +0.102 C 
ATOM      5  N   UNL A   1     -28.075   2.089  25.003  0.00  0.00    -0.212 NA
ATOM      6  C   UNL A   1     -27.543   0.849  25.079  0.00  0.00    +0.234 C 
ATOM      7  C   UNL A   1     -26.354   0.576  25.777  0.00  0.00    +0.241 C 
ATOM      8  F   UNL A   1     -25.860  -0.681  25.795  0.00  0.00    -0.227 F 
BRANCH   3   9
ATOM      9  C   UNL A   1     -25.642   4.093  27.123  0.00  0.00    +0.263 C 
ATOM     10  N   UNL A   1     -25.614   5.252  26.449  0.00  0.00    -0.200 NA
ATOM     11  C   UNL A   1     -25.026   6.479  26.963  0.00  0.00    +0.139 C 
ATOM     12  O   UNL A   1     -25.143   3.966  28.243  0.00  0.00    -0.269 OA
ENDBRANCH   3   9
BRANCH   6  13
ATOM     13  O   UNL A   1     -28.193  -0.208  24.477  0.00  0.00    -0.459 OA
BRANCH  13  14
ATOM     14  C   UNL A   1     -29.460   0.005  23.866  0.00  0.00    +0.242 C 
BRANCH  14  15
ATOM     15  C   UNL A   1     -30.065  -1.377  23.573  0.00  0.00    +0.229 C 
ATOM     16  O   UNL A   1     -30.729  -1.878  24.721  0.00  0.00    -0.216 OA
ENDBRANCH  14  15
ENDBRANCH  13  14
ENDBRANCH   6  13
ENDBRANCH   1   2
BRANCH   1  21
ATOM     17  C   UNL A   1     -20.632   1.789  27.001  0.00  0.00    +0.235 C 
ATOM     18  C   UNL A   1     -20.961   0.994  28.116  0.00  0.00    +0.062 C 
ATOM     19  O   UNL A   1     -21.543   2.191  26.110  0.00  0.00    -0.468 OA
ATOM     20  C   UNL A   1     -22.906   2.031  26.258  0.00  0.00    +0.172 C 
ATOM     21  C   UNL A   1     -23.375   1.361  27.441  0.00  0.00    +0.058 C 
ATOM     22  C   UNL A   1     -22.311   0.889  28.419  0.00  0.00    +0.194 C 
ATOM     23  O   UNL A   1     -22.548   0.362  29.689  0.00  0.00    -0.287 OA
ENDBRANCH   1  21
BRANCH   1  24
ATOM     24  C   UNL A   1     -24.816   0.441  28.246  0.00  0.00    -0.021 C 
ATOM     25  C   UNL A   1     -25.467  -0.201  29.020  0.00  0.00    +0.034 C 
BRANCH  25  27
ATOM     26  N   UNL A   1     -27.240   1.394  29.373  0.00  0.00    -0.202 NA
ATOM     27  C   UNL A   1     -26.950   0.138  28.944  0.00  0.00    +0.261 C 
ATOM     28  O   UNL A   1     -27.639  -0.746  28.517  0.00  0.00    -0.269 OA
BRANCH  26  29
ATOM     29  C   UNL A   1     -28.462   2.148  29.026  0.00  0.00    +0.116 C 
BRANCH  29  30
ATOM     30  C   UNL A   1     -29.261   2.355  30.299  0.00  0.00    +0.023 C 
ATOM     31  C   UNL A   1     -29.280   0.925  30.855  0.00  0.00    +0.002 C 
ENDBRANCH  29  30
ENDBRANCH  26  29
ENDBRANCH  25  27
BRANCH  25  32
ATOM     32  C   UNL A   1     -24.855  -1.012  30.143  0.00  0.00    +0.065 C 
BRANCH  32  33
ATOM     33  C   UNL A   1     -24.973  -2.505  29.788  0.00  0.00    -0.017 C 
ATOM     34  C   UNL A   1     -23.906  -3.173  29.146  0.00  0.00    -0.004 C 
ATOM     35  C   UNL A   1     -23.989  -4.549  28.853  0.00  0.00    -0.000 C 
ATOM     36  C   UNL A   1     -25.137  -5.280  29.205  0.00  0.00    -0.000 C 
ATOM     37  C   UNL A   1     -26.232  -4.611  29.784  0.00  0.00    -0.000 C 
ATOM     38  C   UNL A   1     -26.155  -3.232  30.065  0.00  0.00    -0.004 C 
ENDBRANCH  32  33
BRANCH  32  39
ATOM     39  C   UNL A   1     -25.387  -0.679  31.571  0.00  0.00    +0.081 C 
ATOM     40  C   UNL A   1     -25.189   0.773  32.028  0.00  0.00    +0.019 C 
ATOM     41  C   UNL A   1     -25.336   0.684  33.544  0.00  0.00    +0.020 C 
ATOM     42  C   UNL A   1     -24.829  -0.715  33.905  0.00  0.00    +0.089 C 
ATOM     43  N   UNL A   1     -24.758  -1.481  32.646  0.00  0.00    -0.219 NA
ENDBRANCH  32  39
ENDBRANCH  25  32
ENDBRANCH   1  24
TORSDOF 13
