REMARK  Name = outputs/IAG933/test6/raw/output_5646_IAG933_linker_design_.xyz
REMARK  13 active torsions:
REMARK  status: ('A' for Active; 'I' for Inactive)
REMARK    1  A    between atoms: C_1  and  C_2
REMARK    2  A    between atoms: C_1  and  C_8
REMARK    3  A    between atoms: C_1  and  C_41
REMARK    4  A    between atoms: C_13  and  C_37
REMARK    5  A    between atoms: C_14  and  C_15
REMARK    6  A    between atoms: C_21  and  O_22
REMARK    7  A    between atoms: O_22  and  C_23
REMARK    8  A    between atoms: C_23  and  C_24
REMARK    9  A    between atoms: CA_30  and  C_39
REMARK   10  A    between atoms: N_31  and  C_32
REMARK   11  A    between atoms: N_31  and  C_41
REMARK   12  A    between atoms: C_37  and  C_41
REMARK   13  A    between atoms: C_37  and  C_42
REMARK                            x       y       z     vdW  Elec       q    Type
REMARK                         _______ _______ _______ _____ _____    ______ ____
ROOT
ATOM      1  C   UNL A   1     -24.886   1.123  27.950  0.00  0.00    +0.065 C 
ENDROOT
BRANCH   1   2
ATOM      2  C   UNL A   1     -25.688   1.614  26.461  0.00  0.00    +0.075 C 
ATOM      3  C   UNL A   1     -26.250   2.920  26.395  0.00  0.00    +0.055 C 
ATOM      4  C   UNL A   1     -27.438   3.091  25.645  0.00  0.00    +0.102 C 
ATOM      5  N   UNL A   1     -28.075   2.089  25.003  0.00  0.00    -0.212 NA
ATOM      6  C   UNL A   1     -27.543   0.849  25.079  0.00  0.00    +0.234 C 
ATOM      7  C   UNL A   1     -26.354   0.576  25.777  0.00  0.00    +0.240 C 
ATOM      8  F   UNL A   1     -25.860  -0.681  25.795  0.00  0.00    -0.227 F 
BRANCH   3   9
ATOM      9  C   UNL A   1     -25.642   4.093  27.123  0.00  0.00    +0.262 C 
ATOM     10  N   UNL A   1     -25.614   5.252  26.449  0.00  0.00    -0.200 NA
ATOM     11  C   UNL A   1     -25.026   6.479  26.963  0.00  0.00    +0.139 C 
ATOM     12  O   UNL A   1     -25.143   3.966  28.243  0.00  0.00    -0.269 OA
ENDBRANCH   3   9
BRANCH   6  13
ATOM     13  O   UNL A   1     -28.193  -0.208  24.477  0.00  0.00    -0.459 OA
BRANCH  13  14
ATOM     14  C   UNL A   1     -29.460   0.005  23.866  0.00  0.00    +0.242 C 
BRANCH  14  15
ATOM     15  C   UNL A   1     -30.065  -1.377  23.573  0.00  0.00    +0.229 C 
ATOM     16  O   UNL A   1     -30.729  -1.878  24.721  0.00  0.00    -0.216 OA
ENDBRANCH  14  15
ENDBRANCH  13  14
ENDBRANCH   6  13
ENDBRANCH   1   2
BRANCH   1  21
ATOM     17  O   UNL A   1     -22.487   0.683  29.544  0.00  0.00    -0.280 OA
ATOM     18  O   UNL A   1     -23.110   1.773  26.107  0.00  0.00    -0.250 OA
ATOM     19  S   UNL A   1     -21.145   1.342  27.450  0.00  0.00    +0.048 S 
ATOM     20  N   UNL A   1     -21.784   1.769  26.017  0.00  0.00    -0.015 NA
ATOM     21  C   UNL A   1     -23.534   1.343  27.412  0.00  0.00    +0.211 C 
ATOM     22  C   UNL A   1     -22.616   0.959  28.427  0.00  0.00    +0.245 C 
ENDBRANCH   1  21
BRANCH   1  23
ATOM     23  C   UNL A   1     -25.264  -0.141  28.865  0.00  0.00    +0.104 C 
BRANCH  23  24
ATOM     24  C   UNL A   1     -24.855  -1.012  30.143  0.00  0.00    +0.058 C 
BRANCH  24  25
ATOM     25  C   UNL A   1     -24.973  -2.505  29.788  0.00  0.00    -0.019 C 
ATOM     26  C   UNL A   1     -23.906  -3.173  29.146  0.00  0.00    -0.004 C 
ATOM     27  C   UNL A   1     -23.989  -4.549  28.853  0.00  0.00    -0.000 C 
ATOM     28  C   UNL A   1     -25.137  -5.280  29.205  0.00  0.00    -0.000 C 
ATOM     29  C   UNL A   1     -26.232  -4.611  29.784  0.00  0.00    -0.000 C 
ATOM     30  C   UNL A   1     -26.155  -3.232  30.065  0.00  0.00    -0.004 C 
ENDBRANCH  24  25
BRANCH  24  31
ATOM     31  C   UNL A   1     -25.387  -0.679  31.571  0.00  0.00    +0.079 C 
ATOM     32  C   UNL A   1     -25.189   0.773  32.028  0.00  0.00    +0.019 C 
ATOM     33  C   UNL A   1     -25.336   0.684  33.544  0.00  0.00    +0.020 C 
ATOM     34  C   UNL A   1     -24.829  -0.715  33.905  0.00  0.00    +0.089 C 
ATOM     35  N   UNL A   1     -24.758  -1.481  32.646  0.00  0.00    -0.219 NA
ENDBRANCH  24  31
ENDBRANCH  23  24
BRANCH  23  36
ATOM     36  N   UNL A   1     -26.813  -0.501  28.765  0.00  0.00    -0.205 NA
BRANCH  36  38
ATOM     37  CA  UNL A   1     -29.264  -0.086  28.883  0.00  0.00    +0.146 C 
ATOM     38  C   UNL A   1     -27.949   0.317  28.895  0.00  0.00    +0.233 C 
ATOM     39  O   UNL A   1     -28.026   1.767  28.959  0.00  0.00    -0.416 OA
ATOM     40  C   UNL A   1     -29.362   2.063  28.999  0.00  0.00    +0.286 C 
ATOM     41  N   UNL A   1     -30.157   0.928  29.069  0.00  0.00    -0.205 NA
BRANCH  37  43
ATOM     42  O   UNL A   1     -28.613  -2.544  29.326  0.00  0.00    -0.213 OA
ATOM     43  C   UNL A   1     -29.497  -1.619  28.644  0.00  0.00    +0.232 C 
ENDBRANCH  37  43
ENDBRANCH  36  38
ENDBRANCH  23  36
ENDBRANCH   1  23
TORSDOF 13
