REMARK  Name = outputs/IAG933/test6/raw/output_5653_IAG933_linker_design_.xyz
REMARK  21 active torsions:
REMARK  status: ('A' for Active; 'I' for Inactive)
REMARK    1  A    between atoms: C_1  and  C_2
REMARK    2  A    between atoms: C_1  and  C_8
REMARK    3  A    between atoms: C_1  and  C_40
REMARK    4  A    between atoms: C_13  and  C_35
REMARK    5  A    between atoms: C_14  and  C_15
REMARK    6  A    between atoms: C_21  and  O_22
REMARK    7  A    between atoms: O_22  and  C_23
REMARK    8  A    between atoms: C_23  and  C_24
REMARK    9  A    between atoms: C_28  and  C_31
REMARK   10  A    between atoms: C_28  and  C_40
REMARK   11  A    between atoms: C_33  and  C_37
REMARK   12  A    between atoms: C_34  and  C_37
REMARK   13  A    between atoms: C_34  and  C_44
REMARK   14  A    between atoms: C_35  and  N_36
REMARK   15  A    between atoms: N_36  and  C_40
REMARK   16  A    between atoms: N_36  and  C_42
REMARK   17  A    between atoms: C_38  and  C_42
REMARK   18  A    between atoms: C_38  and  O_43
REMARK   19  A    between atoms: C_42  and  C_44
REMARK   20  A    between atoms: O_43  and  C_48
REMARK   21  A    between atoms: C_45  and  C_48
REMARK                            x       y       z     vdW  Elec       q    Type
REMARK                         _______ _______ _______ _____ _____    ______ ____
ROOT
ATOM      1  N   UNL A   1     -25.063   0.952  28.685  0.00  0.00    -0.269 NA
ENDROOT
BRANCH   1   2
ATOM      2  C   UNL A   1     -24.641   1.334  27.322  0.00  0.00    +0.102 C 
BRANCH   2   3
ATOM      3  C   UNL A   1     -25.688   1.614  26.461  0.00  0.00    +0.032 C 
ATOM      4  C   UNL A   1     -26.250   2.920  26.395  0.00  0.00    +0.074 C 
ATOM      5  C   UNL A   1     -27.438   3.091  25.645  0.00  0.00    +0.106 C 
ATOM      6  N   UNL A   1     -28.075   2.089  25.003  0.00  0.00    -0.208 NA
ATOM      7  C   UNL A   1     -27.543   0.849  25.079  0.00  0.00    +0.253 C 
ATOM      8  C   UNL A   1     -26.354   0.576  25.777  0.00  0.00    +0.190 C 
ATOM      9  F   UNL A   1     -25.860  -0.681  25.795  0.00  0.00    -0.200 F 
BRANCH   4  10
ATOM     10  C   UNL A   1     -25.642   4.093  27.123  0.00  0.00    +0.266 C 
ATOM     11  N   UNL A   1     -25.614   5.252  26.449  0.00  0.00    -0.200 NA
ATOM     12  C   UNL A   1     -25.026   6.479  26.963  0.00  0.00    +0.139 C 
ATOM     13  O   UNL A   1     -25.143   3.966  28.243  0.00  0.00    -0.268 OA
ENDBRANCH   4  10
BRANCH   7  14
ATOM     14  O   UNL A   1     -28.193  -0.208  24.477  0.00  0.00    -0.456 OA
BRANCH  14  15
ATOM     15  C   UNL A   1     -29.460   0.005  23.866  0.00  0.00    +0.243 C 
BRANCH  15  16
ATOM     16  C   UNL A   1     -30.065  -1.377  23.573  0.00  0.00    +0.229 C 
ATOM     17  O   UNL A   1     -30.729  -1.878  24.721  0.00  0.00    -0.216 OA
ENDBRANCH  15  16
ENDBRANCH  14  15
ENDBRANCH   7  14
ENDBRANCH   2   3
ENDBRANCH   1   2
BRANCH   1  18
ATOM     18  C   UNL A   1     -24.185   0.111  29.444  0.00  0.00    +0.063 C 
BRANCH  18  19
ATOM     19  C   UNL A   1     -22.878   0.008  28.687  0.00  0.00    +0.016 C 
BRANCH  19  20
ATOM     20  C   UNL A   1     -22.204   1.374  28.465  0.00  0.00    +0.001 C 
ATOM     21  C   UNL A   1     -21.211   1.548  27.338  0.00  0.00    +0.000 C 
ENDBRANCH  19  20
ENDBRANCH  18  19
BRANCH  18  22
ATOM     22  C   UNL A   1     -24.855  -1.012  30.143  0.00  0.00    +0.053 C 
BRANCH  22  23
ATOM     23  C   UNL A   1     -24.973  -2.505  29.788  0.00  0.00    -0.020 C 
ATOM     24  C   UNL A   1     -23.906  -3.173  29.146  0.00  0.00    -0.004 C 
ATOM     25  C   UNL A   1     -23.989  -4.549  28.853  0.00  0.00    -0.000 C 
ATOM     26  C   UNL A   1     -25.137  -5.280  29.205  0.00  0.00    -0.000 C 
ATOM     27  C   UNL A   1     -26.232  -4.611  29.784  0.00  0.00    -0.000 C 
ATOM     28  C   UNL A   1     -26.155  -3.232  30.065  0.00  0.00    -0.004 C 
ENDBRANCH  22  23
BRANCH  22  29
ATOM     29  C   UNL A   1     -25.387  -0.679  31.571  0.00  0.00    +0.078 C 
ATOM     30  C   UNL A   1     -25.189   0.773  32.028  0.00  0.00    +0.019 C 
ATOM     31  C   UNL A   1     -25.336   0.684  33.544  0.00  0.00    +0.020 C 
ATOM     32  C   UNL A   1     -24.829  -0.715  33.905  0.00  0.00    +0.089 C 
ATOM     33  N   UNL A   1     -24.758  -1.481  32.646  0.00  0.00    -0.219 NA
ENDBRANCH  22  29
ENDBRANCH  18  22
ENDBRANCH   1  18
BRANCH   1  34
ATOM     34  C   UNL A   1     -26.370   1.132  29.293  0.00  0.00    +0.090 C 
BRANCH  34  35
ATOM     35  C   UNL A   1     -26.545   2.147  30.442  0.00  0.00    +0.159 C 
BRANCH  35  36
ATOM     36  O   UNL A   1     -27.309   2.806  31.154  0.00  0.00    -0.343 OA
BRANCH  36  37
ATOM     37  C   UNL A   1     -26.857   4.047  31.612  0.00  0.00    +0.230 C 
BRANCH  37  40
ATOM     38  N   UNL A   1     -26.951   4.021  34.111  0.00  0.00    -0.086 NA
ATOM     39  O   UNL A   1     -24.991   3.708  33.023  0.00  0.00    -0.269 OA
ATOM     40  C   UNL A   1     -26.188   3.949  32.969  0.00  0.00    +0.291 C 
ENDBRANCH  37  40
ENDBRANCH  36  37
ENDBRANCH  35  36
ENDBRANCH  34  35
BRANCH  34  41
ATOM     41  C   UNL A   1     -27.564   0.370  28.976  0.00  0.00    +0.054 C 
BRANCH  41  42
ATOM     42  C   UNL A   1     -28.906   0.776  29.207  0.00  0.00    +0.181 C 
ATOM     43  O   UNL A   1     -29.088   1.868  30.067  0.00  0.00    -0.221 OA
BRANCH  42  45
ATOM     44  O   UNL A   1     -29.368  -0.184  27.291  0.00  0.00    -0.223 OA
ATOM     45  C   UNL A   1     -30.200   0.323  28.286  0.00  0.00    +0.154 C 
ATOM     46  C   UNL A   1     -30.973  -0.705  29.089  0.00  0.00    +0.036 C 
BRANCH  45  47
ATOM     47  C   UNL A   1     -31.100   1.292  27.569  0.00  0.00    +0.033 C 
ATOM     48  C   UNL A   1     -32.337   1.859  28.262  0.00  0.00    +0.003 C 
ENDBRANCH  45  47
ENDBRANCH  42  45
ENDBRANCH  41  42
ENDBRANCH  34  41
ENDBRANCH   1  34
TORSDOF 21
