REMARK  Name = outputs/IAG933/test6/raw/output_5659_IAG933_linker_design_.xyz
REMARK  11 active torsions:
REMARK  status: ('A' for Active; 'I' for Inactive)
REMARK    1  A    between atoms: C_1  and  C_2
REMARK    2  A    between atoms: C_1  and  C_8
REMARK    3  A    between atoms: C_1  and  N_35
REMARK    4  A    between atoms: C_13  and  C_33
REMARK    5  A    between atoms: C_14  and  C_15
REMARK    6  A    between atoms: C_21  and  O_22
REMARK    7  A    between atoms: O_22  and  C_23
REMARK    8  A    between atoms: C_23  and  C_24
REMARK    9  A    between atoms: N_30  and  C_40
REMARK   10  A    between atoms: C_31  and  C_43
REMARK   11  A    between atoms: C_40  and  C_44
REMARK                            x       y       z     vdW  Elec       q    Type
REMARK                         _______ _______ _______ _____ _____    ______ ____
ROOT
ATOM      1  O   UNL A   1     -22.452   0.409  29.802  0.00  0.00    -0.270 OA
ATOM      2  C   UNL A   1     -23.587   1.046  27.715  0.00  0.00    +0.051 C 
ATOM      3  C   UNL A   1     -22.508   1.325  26.775  0.00  0.00    +0.024 C 
ATOM      4  C   UNL A   1     -24.936   1.071  27.578  0.00  0.00    +0.000 C 
ATOM      5  C   UNL A   1     -22.537   1.888  25.381  0.00  0.00    +0.035 C 
ATOM      6  N   UNL A   1     -24.542  -0.074  29.287  0.00  0.00    -0.254 N 
ATOM      7  C   UNL A   1     -23.531   0.494  28.980  0.00  0.00    +0.252 C 
ATOM      8  C   UNL A   1     -25.585   0.336  28.544  0.00  0.00    +0.044 C 
ENDROOT
BRANCH   4   9
ATOM      9  C   UNL A   1     -25.688   1.614  26.461  0.00  0.00    +0.093 C 
ATOM     10  C   UNL A   1     -26.250   2.920  26.395  0.00  0.00    +0.059 C 
ATOM     11  C   UNL A   1     -27.438   3.091  25.645  0.00  0.00    +0.102 C 
ATOM     12  N   UNL A   1     -28.075   2.089  25.003  0.00  0.00    -0.212 NA
ATOM     13  C   UNL A   1     -27.543   0.849  25.079  0.00  0.00    +0.234 C 
ATOM     14  C   UNL A   1     -26.354   0.576  25.777  0.00  0.00    +0.244 C 
ATOM     15  F   UNL A   1     -25.860  -0.681  25.795  0.00  0.00    -0.227 F 
BRANCH  10  16
ATOM     16  C   UNL A   1     -25.642   4.093  27.123  0.00  0.00    +0.263 C 
ATOM     17  N   UNL A   1     -25.614   5.252  26.449  0.00  0.00    -0.200 NA
ATOM     18  C   UNL A   1     -25.026   6.479  26.963  0.00  0.00    +0.139 C 
ATOM     19  O   UNL A   1     -25.143   3.966  28.243  0.00  0.00    -0.269 OA
ENDBRANCH  10  16
BRANCH  13  20
ATOM     20  O   UNL A   1     -28.193  -0.208  24.477  0.00  0.00    -0.459 OA
BRANCH  20  21
ATOM     21  C   UNL A   1     -29.460   0.005  23.866  0.00  0.00    +0.242 C 
BRANCH  21  22
ATOM     22  C   UNL A   1     -30.065  -1.377  23.573  0.00  0.00    +0.229 C 
ATOM     23  O   UNL A   1     -30.729  -1.878  24.721  0.00  0.00    -0.216 OA
ENDBRANCH  21  22
ENDBRANCH  20  21
ENDBRANCH  13  20
ENDBRANCH   4   9
BRANCH   3  25
ATOM     24  O   UNL A   1     -20.677   1.393  28.157  0.00  0.00    -0.283 OA
ATOM     25  C   UNL A   1     -21.252   0.890  27.194  0.00  0.00    +0.230 C 
ENDBRANCH   3  25
BRANCH   6  26
ATOM     26  C   UNL A   1     -24.855  -1.012  30.143  0.00  0.00    +0.118 C 
BRANCH  26  27
ATOM     27  C   UNL A   1     -24.973  -2.505  29.788  0.00  0.00    -0.003 C 
ATOM     28  C   UNL A   1     -23.906  -3.173  29.146  0.00  0.00    -0.003 C 
ATOM     29  C   UNL A   1     -23.989  -4.549  28.853  0.00  0.00    -0.000 C 
ATOM     30  C   UNL A   1     -25.137  -5.280  29.205  0.00  0.00    -0.000 C 
ATOM     31  C   UNL A   1     -26.232  -4.611  29.784  0.00  0.00    -0.000 C 
ATOM     32  C   UNL A   1     -26.155  -3.232  30.065  0.00  0.00    -0.003 C 
ENDBRANCH  26  27
BRANCH  26  33
ATOM     33  C   UNL A   1     -25.387  -0.679  31.571  0.00  0.00    +0.096 C 
ATOM     34  C   UNL A   1     -25.189   0.773  32.028  0.00  0.00    +0.021 C 
ATOM     35  C   UNL A   1     -25.336   0.684  33.544  0.00  0.00    +0.020 C 
ATOM     36  C   UNL A   1     -24.829  -0.715  33.905  0.00  0.00    +0.089 C 
ATOM     37  N   UNL A   1     -24.758  -1.481  32.646  0.00  0.00    -0.217 NA
ENDBRANCH  26  33
ENDBRANCH   6  26
BRANCH   8  38
ATOM     38  C   UNL A   1     -27.120  -0.107  28.838  0.00  0.00    +0.114 C 
BRANCH  38  39
ATOM     39  N   UNL A   1     -28.069   0.773  28.096  0.00  0.00    -0.268 NA
ATOM     40  C   UNL A   1     -29.738   2.408  29.219  0.00  0.00    +0.017 C 
ATOM     41  C   UNL A   1     -28.321   2.071  28.711  0.00  0.00    +0.072 C 
ATOM     42  C   UNL A   1     -30.796   1.687  28.372  0.00  0.00    +0.003 C 
ATOM     43  C   UNL A   1     -30.431   0.220  28.231  0.00  0.00    +0.017 C 
ATOM     44  C   UNL A   1     -29.145  -0.004  27.508  0.00  0.00    +0.072 C 
ENDBRANCH  38  39
ENDBRANCH   8  38
TORSDOF 11
