MODEL 565
MODEL 1
REMARK VINA RESULT:    -7.710      0.000      0.000
REMARK INTER + INTRA:         -13.973
REMARK INTER:                 -11.767
REMARK INTRA:                  -2.205
REMARK UNBOUND:                -2.205
REMARK  Name = No_565-gen_results/8p0m/2024-11-27-11-27-31/
REMARK  9 active torsions:
REMARK  status: ('A' for Active; 'I' for Inactive)
REMARK    1  A    between atoms: C_1  and  C_2
REMARK    2  A    between atoms: C_1  and  C_8
REMARK    3  A    between atoms: C_3  and  C_17
REMARK    4  A    between atoms: C_5  and  C_15
REMARK    5  A    between atoms: C_15  and  C_16
REMARK    6  A    between atoms: C_17  and  O_19
REMARK    7  A    between atoms: O_19  and  C_24
REMARK    8  A    between atoms: C_26  and  C_30
REMARK    9  A    between atoms: C_30  and  C_31
REMARK                            x       y       z     vdW  Elec       q    Type
REMARK                         _______ _______ _______ _____ _____    ______ ____
ROOT
ATOM      1  C   UNL A   1     -26.380   0.722  26.601  0.00  0.00    -0.001 A 
ATOM      2  C   UNL A   1     -27.255   1.623  27.175  0.00  0.00    +0.072 A 
ATOM      3  C   UNL A   1     -28.503   1.872  26.607  0.00  0.00    +0.002 A 
ATOM      4  C   UNL A   1     -28.859   1.391  25.280  0.00  0.00    -0.013 A 
ATOM      5  C   UNL A   1     -27.931   0.525  24.680  0.00  0.00    +0.007 A 
ATOM      6  C   UNL A   1     -26.806   0.180  25.365  0.00  0.00    +0.054 A 
ATOM      7 CL   UNL A   1     -25.801  -0.941  24.475  0.00  0.00    -0.083 Cl
ENDROOT
BRANCH   2   8
ATOM      8  C   UNL A   1     -27.075   2.117  28.540  0.00  0.00    +0.341 C 
ATOM      9  O   UNL A   1     -26.190   2.880  28.771  0.00  0.00    -0.245 OA
BRANCH   8  10
ATOM     10  O   UNL A   1     -27.832   1.705  29.461  0.00  0.00    -0.449 OA
BRANCH  10  11
ATOM     11  C   UNL A   1     -27.450   0.784  30.391  0.00  0.00    +0.169 C 
ATOM     12  C   UNL A   1     -27.242  -0.441  29.846  0.00  0.00    +0.044 C 
ATOM     13  C   UNL A   1     -26.180  -1.227  30.486  0.00  0.00    +0.008 C 
ATOM     14  C   UNL A   1     -26.131  -0.917  31.778  0.00  0.00    +0.001 C 
ATOM     15  C   UNL A   1     -26.217   0.383  32.349  0.00  0.00    +0.004 C 
ATOM     16  C   UNL A   1     -26.440   1.346  31.317  0.00  0.00    +0.044 C 
BRANCH  13  17
ATOM     17  C   UNL A   1     -26.209  -2.747  30.163  0.00  0.00    +0.022 C 
BRANCH  17  18
ATOM     18  C   UNL A   1     -25.451  -3.281  29.665  0.00  0.00    -0.040 C 
ATOM     19  C   UNL A   1     -24.532  -3.392  29.223  0.00  0.00    -0.009 C 
ATOM     20  C   UNL A   1     -24.050  -4.667  28.522  0.00  0.00    -0.005 C 
ATOM     21  C   UNL A   1     -24.700  -5.803  28.722  0.00  0.00    -0.022 C 
ATOM     22  C   UNL A   1     -26.074  -4.865  29.652  0.00  0.00    +0.048 C 
ENDBRANCH  17  18
ENDBRANCH  13  17
ENDBRANCH  10  11
ENDBRANCH   8  10
ENDBRANCH   2   8
BRANCH   1  23
ATOM     23  C   UNL A   1     -25.543   0.112  27.224  0.00  0.00    +0.056 C 
BRANCH  23  24
ATOM     24  C   UNL A   1     -24.182   0.763  27.101  0.00  0.00    +0.010 A 
ATOM     25  C   UNL A   1     -23.928   1.436  26.171  0.00  0.00    -0.002 A 
ATOM     26  C   UNL A   1     -22.558   2.120  26.048  0.00  0.00    -0.000 A 
ATOM     27  C   UNL A   1     -21.661   1.867  27.066  0.00  0.00    +0.002 A 
ATOM     28  C   UNL A   1     -23.135   0.316  28.129  0.00  0.00    +0.137 A 
ATOM     29  F   UNL A   1     -23.474  -0.485  29.116  0.00  0.00    -0.204 F 
ATOM     30  C   UNL A   1     -21.924   0.887  28.097  0.00  0.00    +0.029 A 
ENDBRANCH  23  24
ENDBRANCH   1  23
BRANCH   4  31
ATOM     31  C   UNL A   1     -30.047   1.671  24.505  0.00  0.00    +0.130 C 
BRANCH  31  32
ATOM     32  C   UNL A   1     -30.050   2.919  23.822  0.00  0.00    +0.402 C 
ATOM     33  F   UNL A   1     -30.722   3.822  24.127  0.00  0.00    -0.170 F 
ATOM     34  F   UNL A   1     -28.674   3.277  23.920  0.00  0.00    -0.170 F 
ATOM     35  F   UNL A   1     -30.158   2.613  22.517  0.00  0.00    -0.170 F 
ENDBRANCH  31  32
ENDBRANCH   4  31
TORSDOF 9
ENDMDL
ENDMDL
