REMARK  Name = outputs/IAG933/test6/raw/output_566_IAG933_linker_design_.xyz
REMARK  12 active torsions:
REMARK  status: ('A' for Active; 'I' for Inactive)
REMARK    1  A    between atoms: C_1  and  C_2
REMARK    2  A    between atoms: C_1  and  C_8
REMARK    3  A    between atoms: C_1  and  N_41
REMARK    4  A    between atoms: C_13  and  C_35
REMARK    5  A    between atoms: C_14  and  C_15
REMARK    6  A    between atoms: C_21  and  O_22
REMARK    7  A    between atoms: O_22  and  C_23
REMARK    8  A    between atoms: C_23  and  C_24
REMARK    9  A    between atoms: O_29  and  C_33
REMARK   10  A    between atoms: C_30  and  N_41
REMARK   11  A    between atoms: N_31  and  C_36
REMARK   12  A    between atoms: N_31  and  N_41
REMARK                            x       y       z     vdW  Elec       q    Type
REMARK                         _______ _______ _______ _____ _____    ______ ____
ROOT
ATOM      1  F   UNL A   1     -20.581   0.776  28.242  0.00  0.00    -0.202 F 
ATOM      2  C   UNL A   1     -22.852   0.544  28.550  0.00  0.00    +0.184 C 
ATOM      3  C   UNL A   1     -23.244   1.779  26.140  0.00  0.00    +0.190 C 
ATOM      4  C   UNL A   1     -21.818   0.867  27.825  0.00  0.00    +0.172 C 
ATOM      5  C   UNL A   1     -24.347   1.450  26.922  0.00  0.00    +0.059 C 
ATOM      6  C   UNL A   1     -24.066   1.002  28.247  0.00  0.00    +0.117 C 
ATOM      7  C   UNL A   1     -21.970   1.502  26.593  0.00  0.00    +0.073 C 
ATOM      8  F   UNL A   1     -22.538  -0.268  29.544  0.00  0.00    -0.200 F 
ENDROOT
BRANCH   5   9
ATOM      9  C   UNL A   1     -25.688   1.614  26.461  0.00  0.00    +0.043 C 
ATOM     10  C   UNL A   1     -26.250   2.920  26.395  0.00  0.00    +0.077 C 
ATOM     11  C   UNL A   1     -27.438   3.091  25.645  0.00  0.00    +0.107 C 
ATOM     12  N   UNL A   1     -28.075   2.089  25.003  0.00  0.00    -0.208 NA
ATOM     13  C   UNL A   1     -27.543   0.849  25.079  0.00  0.00    +0.253 C 
ATOM     14  C   UNL A   1     -26.354   0.576  25.777  0.00  0.00    +0.193 C 
ATOM     15  F   UNL A   1     -25.860  -0.681  25.795  0.00  0.00    -0.199 F 
BRANCH  10  16
ATOM     16  C   UNL A   1     -25.642   4.093  27.123  0.00  0.00    +0.266 C 
ATOM     17  N   UNL A   1     -25.614   5.252  26.449  0.00  0.00    -0.200 NA
ATOM     18  C   UNL A   1     -25.026   6.479  26.963  0.00  0.00    +0.139 C 
ATOM     19  O   UNL A   1     -25.143   3.966  28.243  0.00  0.00    -0.268 OA
ENDBRANCH  10  16
BRANCH  13  20
ATOM     20  O   UNL A   1     -28.193  -0.208  24.477  0.00  0.00    -0.456 OA
BRANCH  20  21
ATOM     21  C   UNL A   1     -29.460   0.005  23.866  0.00  0.00    +0.243 C 
BRANCH  21  22
ATOM     22  C   UNL A   1     -30.065  -1.377  23.573  0.00  0.00    +0.229 C 
ATOM     23  O   UNL A   1     -30.729  -1.878  24.721  0.00  0.00    -0.216 OA
ENDBRANCH  21  22
ENDBRANCH  20  21
ENDBRANCH  13  20
ENDBRANCH   5   9
BRANCH   3  24
ATOM     24  O   UNL A   1     -23.421   2.359  24.967  0.00  0.00    -0.303 OA
ATOM     25  O   UNL A   1     -23.892   1.357  24.148  0.00  0.00    +0.028 OA
ENDBRANCH   3  24
BRANCH   6  26
ATOM     26  N   UNL A   1     -24.984   1.026  29.119  0.00  0.00    -0.159 NA
BRANCH  26  27
ATOM     27  N   UNL A   1     -25.572  -0.110  29.264  0.00  0.00    -0.152 NA
BRANCH  27  28
ATOM     28  C   UNL A   1     -26.729  -0.392  28.938  0.00  0.00    +0.278 C 
ATOM     29  O   UNL A   1     -27.532  -0.853  28.834  0.00  0.00    -0.199 OA
ENDBRANCH  27  28
BRANCH  27  30
ATOM     30  C   UNL A   1     -24.855  -1.012  30.143  0.00  0.00    +0.118 C 
BRANCH  30  31
ATOM     31  C   UNL A   1     -24.973  -2.505  29.788  0.00  0.00    -0.005 C 
ATOM     32  C   UNL A   1     -23.906  -3.173  29.146  0.00  0.00    -0.003 C 
ATOM     33  C   UNL A   1     -23.989  -4.549  28.853  0.00  0.00    -0.000 C 
ATOM     34  C   UNL A   1     -25.137  -5.280  29.205  0.00  0.00    -0.000 C 
ATOM     35  C   UNL A   1     -26.232  -4.611  29.784  0.00  0.00    -0.000 C 
ATOM     36  C   UNL A   1     -26.155  -3.232  30.065  0.00  0.00    -0.003 C 
ENDBRANCH  30  31
BRANCH  30  37
ATOM     37  C   UNL A   1     -25.387  -0.679  31.571  0.00  0.00    +0.093 C 
ATOM     38  C   UNL A   1     -25.189   0.773  32.028  0.00  0.00    +0.021 C 
ATOM     39  C   UNL A   1     -25.336   0.684  33.544  0.00  0.00    +0.020 C 
ATOM     40  C   UNL A   1     -24.829  -0.715  33.905  0.00  0.00    +0.089 C 
ATOM     41  N   UNL A   1     -24.758  -1.481  32.646  0.00  0.00    -0.218 NA
ENDBRANCH  30  37
ENDBRANCH  27  30
ENDBRANCH  26  27
ENDBRANCH   6  26
TORSDOF 12
