REMARK  Name = outputs/IAG933/test6/raw/output_5668_IAG933_linker_design_.xyz
REMARK  16 active torsions:
REMARK  status: ('A' for Active; 'I' for Inactive)
REMARK    1  A    between atoms: C_1  and  C_2
REMARK    2  A    between atoms: C_1  and  C_8
REMARK    3  A    between atoms: C_9  and  C_47
REMARK    4  A    between atoms: C_13  and  C_41
REMARK    5  A    between atoms: C_14  and  C_15
REMARK    6  A    between atoms: C_21  and  O_22
REMARK    7  A    between atoms: O_22  and  C_23
REMARK    8  A    between atoms: C_23  and  C_24
REMARK    9  A    between atoms: C_30  and  N_33
REMARK   10  A    between atoms: C_30  and  C_41
REMARK   11  A    between atoms: N_33  and  C_47
REMARK   12  A    between atoms: C_37  and  N_39
REMARK   13  A    between atoms: C_37  and  N_42
REMARK   14  A    between atoms: C_37  and  O_45
REMARK   15  A    between atoms: N_39  and  C_44
REMARK   16  A    between atoms: C_44  and  C_47
REMARK                            x       y       z     vdW  Elec       q    Type
REMARK                         _______ _______ _______ _____ _____    ______ ____
ROOT
ATOM      1  N   UNL A   1     -25.591   2.501  30.103  0.00  0.00    -0.215 NA
ENDROOT
BRANCH   1   2
ATOM      2  C   UNL A   1     -24.666   1.994  28.904  0.00  0.00    +0.120 C 
BRANCH   2   6
ATOM      3  C   UNL A   1     -22.629  -0.118  28.269  0.00  0.00    +0.145 C 
ATOM      4  O   UNL A   1     -23.920   0.028  27.541  0.00  0.00    -0.353 OA
ATOM      5  C   UNL A   1     -21.983   1.234  28.709  0.00  0.00    +0.067 C 
ATOM      6  C   UNL A   1     -24.423   1.409  27.293  0.00  0.00    +0.132 C 
ATOM      7  C   UNL A   1     -23.158   2.123  26.578  0.00  0.00    +0.068 C 
ATOM      8  C   UNL A   1     -21.844   2.068  27.430  0.00  0.00    +0.166 C 
ATOM      9  F   UNL A   1     -20.734   2.220  26.912  0.00  0.00    -0.237 F 
BRANCH   6  10
ATOM     10  C   UNL A   1     -25.688   1.614  26.461  0.00  0.00    +0.042 C 
ATOM     11  C   UNL A   1     -26.250   2.920  26.395  0.00  0.00    +0.075 C 
ATOM     12  C   UNL A   1     -27.438   3.091  25.645  0.00  0.00    +0.106 C 
ATOM     13  N   UNL A   1     -28.075   2.089  25.003  0.00  0.00    -0.208 NA
ATOM     14  C   UNL A   1     -27.543   0.849  25.079  0.00  0.00    +0.253 C 
ATOM     15  C   UNL A   1     -26.354   0.576  25.777  0.00  0.00    +0.191 C 
ATOM     16  F   UNL A   1     -25.860  -0.681  25.795  0.00  0.00    -0.200 F 
BRANCH  11  17
ATOM     17  C   UNL A   1     -25.642   4.093  27.123  0.00  0.00    +0.266 C 
ATOM     18  N   UNL A   1     -25.614   5.252  26.449  0.00  0.00    -0.200 NA
ATOM     19  C   UNL A   1     -25.026   6.479  26.963  0.00  0.00    +0.139 C 
ATOM     20  O   UNL A   1     -25.143   3.966  28.243  0.00  0.00    -0.268 OA
ENDBRANCH  11  17
BRANCH  14  21
ATOM     21  O   UNL A   1     -28.193  -0.208  24.477  0.00  0.00    -0.456 OA
BRANCH  21  22
ATOM     22  C   UNL A   1     -29.460   0.005  23.866  0.00  0.00    +0.243 C 
BRANCH  22  23
ATOM     23  C   UNL A   1     -30.065  -1.377  23.573  0.00  0.00    +0.229 C 
ATOM     24  O   UNL A   1     -30.729  -1.878  24.721  0.00  0.00    -0.216 OA
ENDBRANCH  22  23
ENDBRANCH  21  22
ENDBRANCH  14  21
ENDBRANCH   6  10
ENDBRANCH   2   6
ENDBRANCH   1   2
BRANCH   1  25
ATOM     25  C   UNL A   1     -26.096   1.815  31.220  0.00  0.00    +0.092 C 
BRANCH  25  27
ATOM     26  C   UNL A   1     -25.387  -0.679  31.571  0.00  0.00    +0.079 C 
ATOM     27  C   UNL A   1     -25.189   0.773  32.028  0.00  0.00    +0.035 C 
ATOM     28  C   UNL A   1     -25.336   0.684  33.544  0.00  0.00    +0.022 C 
ATOM     29  C   UNL A   1     -24.829  -0.715  33.905  0.00  0.00    +0.089 C 
ATOM     30  N   UNL A   1     -24.758  -1.481  32.646  0.00  0.00    -0.219 NA
BRANCH  26  31
ATOM     31  C   UNL A   1     -24.855  -1.012  30.143  0.00  0.00    +0.044 C 
BRANCH  31  32
ATOM     32  C   UNL A   1     -24.973  -2.505  29.788  0.00  0.00    -0.021 C 
ATOM     33  C   UNL A   1     -23.906  -3.173  29.146  0.00  0.00    -0.004 C 
ATOM     34  C   UNL A   1     -23.989  -4.549  28.853  0.00  0.00    -0.000 C 
ATOM     35  C   UNL A   1     -25.137  -5.280  29.205  0.00  0.00    -0.000 C 
ATOM     36  C   UNL A   1     -26.232  -4.611  29.784  0.00  0.00    -0.000 C 
ATOM     37  C   UNL A   1     -26.155  -3.232  30.065  0.00  0.00    -0.004 C 
ENDBRANCH  31  32
ENDBRANCH  26  31
ENDBRANCH  25  27
BRANCH  25  38
ATOM     38  C   UNL A   1     -26.958   2.655  32.216  0.00  0.00    +0.110 C 
BRANCH  38  39
ATOM     39  N   UNL A   1     -26.993   4.008  33.007  0.00  0.00    -0.171 NA
BRANCH  39  40
ATOM     40  C   UNL A   1     -25.754   4.295  33.572  0.00  0.00    +0.323 C 
BRANCH  40  46
ATOM     41  O   UNL A   1     -27.659   5.306  35.433  0.00  0.00    -0.101 OA
ATOM     42  N   UNL A   1     -26.506   5.727  35.479  0.00  0.00    -0.054 NA
ATOM     43  C   UNL A   1     -24.646   7.099  35.698  0.00  0.00    +0.131 C 
ATOM     44  C   UNL A   1     -25.714   6.470  36.524  0.00  0.00    +0.144 C 
ATOM     45  N   UNL A   1     -24.707   6.545  34.418  0.00  0.00    -0.126 NA
ATOM     46  N   UNL A   1     -25.641   5.445  34.474  0.00  0.00    -0.075 NA
ENDBRANCH  40  46
BRANCH  40  48
ATOM     47  O   UNL A   1     -24.665   4.507  31.730  0.00  0.00    -0.032 OA
ATOM     48  O   UNL A   1     -24.876   4.079  32.819  0.00  0.00    -0.153 OA
ENDBRANCH  40  48
ENDBRANCH  39  40
ENDBRANCH  38  39
ENDBRANCH  25  38
ENDBRANCH   1  25
TORSDOF 16
