REMARK  Name = outputs/IAG933/test6/raw/output_5669_IAG933_linker_design_.xyz
REMARK  11 active torsions:
REMARK  status: ('A' for Active; 'I' for Inactive)
REMARK    1  A    between atoms: C_1  and  C_2
REMARK    2  A    between atoms: C_1  and  C_8
REMARK    3  A    between atoms: C_1  and  O_42
REMARK    4  A    between atoms: C_13  and  C_39
REMARK    5  A    between atoms: C_14  and  C_15
REMARK    6  A    between atoms: C_15  and  O_18
REMARK    7  A    between atoms: O_18  and  C_33
REMARK    8  A    between atoms: C_21  and  O_22
REMARK    9  A    between atoms: O_22  and  C_23
REMARK   10  A    between atoms: C_23  and  C_24
REMARK   11  A    between atoms: N_31  and  O_42
REMARK                            x       y       z     vdW  Elec       q    Type
REMARK                         _______ _______ _______ _____ _____    ______ ____
ROOT
ATOM      1  C   UNL A   1     -25.688   1.614  26.461  0.00  0.00    +0.136 C 
ATOM      2  C   UNL A   1     -26.250   2.920  26.395  0.00  0.00    +0.060 C 
ATOM      3  C   UNL A   1     -27.438   3.091  25.645  0.00  0.00    +0.103 C 
ATOM      4  N   UNL A   1     -28.075   2.089  25.003  0.00  0.00    -0.212 NA
ATOM      5  C   UNL A   1     -27.543   0.849  25.079  0.00  0.00    +0.235 C 
ATOM      6  C   UNL A   1     -26.354   0.576  25.777  0.00  0.00    +0.248 C 
ATOM      7  F   UNL A   1     -25.860  -0.681  25.795  0.00  0.00    -0.226 F 
ENDROOT
BRANCH   1  15
ATOM      8  C   UNL A   1     -23.546   1.768  25.484  0.00  0.00    +0.043 C 
ATOM      9  N   UNL A   1     -23.133   0.389  29.432  0.00  0.00    +0.117 NA
ATOM     10  N   UNL A   1     -23.978   1.560  27.835  0.00  0.00    -0.033 NA
ATOM     11  C   UNL A   1     -21.345   1.788  26.498  0.00  0.00    +0.050 C 
ATOM     12  C   UNL A   1     -22.919   1.076  28.298  0.00  0.00    +0.447 C 
ATOM     13  C   UNL A   1     -22.223   2.051  25.496  0.00  0.00    +0.007 C 
ATOM     14  C   UNL A   1     -21.627   1.179  27.728  0.00  0.00    +0.286 C 
ATOM     15  C   UNL A   1     -24.367   1.620  26.621  0.00  0.00    +0.178 C 
ATOM     16  O   UNL A   1     -20.595   0.653  28.278  0.00  0.00    -0.278 OA
BRANCH   9  17
ATOM     17  O   UNL A   1     -24.502  -0.033  29.324  0.00  0.00    -0.133 OA
BRANCH  17  18
ATOM     18  C   UNL A   1     -24.855  -1.012  30.143  0.00  0.00    +0.210 C 
BRANCH  18  19
ATOM     19  C   UNL A   1     -24.973  -2.505  29.788  0.00  0.00    +0.011 C 
ATOM     20  C   UNL A   1     -23.906  -3.173  29.146  0.00  0.00    -0.002 C 
ATOM     21  C   UNL A   1     -23.989  -4.549  28.853  0.00  0.00    -0.000 C 
ATOM     22  C   UNL A   1     -25.137  -5.280  29.205  0.00  0.00    -0.000 C 
ATOM     23  C   UNL A   1     -26.232  -4.611  29.784  0.00  0.00    -0.000 C 
ATOM     24  C   UNL A   1     -26.155  -3.232  30.065  0.00  0.00    -0.002 C 
ENDBRANCH  18  19
BRANCH  18  25
ATOM     25  C   UNL A   1     -25.387  -0.679  31.571  0.00  0.00    +0.109 C 
ATOM     26  C   UNL A   1     -25.189   0.773  32.028  0.00  0.00    +0.022 C 
ATOM     27  C   UNL A   1     -25.336   0.684  33.544  0.00  0.00    +0.020 C 
ATOM     28  C   UNL A   1     -24.829  -0.715  33.905  0.00  0.00    +0.089 C 
ATOM     29  N   UNL A   1     -24.758  -1.481  32.646  0.00  0.00    -0.216 NA
ENDBRANCH  18  25
ENDBRANCH  17  18
ENDBRANCH   9  17
ENDBRANCH   1  15
BRANCH   2  30
ATOM     30  C   UNL A   1     -25.642   4.093  27.123  0.00  0.00    +0.218 C 
ATOM     31  N   UNL A   1     -25.614   5.252  26.449  0.00  0.00    -0.236 NA
ATOM     32  C   UNL A   1     -25.026   6.479  26.963  0.00  0.00    +0.155 C 
BRANCH  30  33
ATOM     33  O   UNL A   1     -25.143   3.966  28.243  0.00  0.00    -0.462 OA
BRANCH  33  36
ATOM     34  C   UNL A   1     -27.659   5.682  31.076  0.00  0.00    +0.294 C 
ATOM     35  C   UNL A   1     -26.952   3.232  30.527  0.00  0.00    +0.078 C 
ATOM     36  C   UNL A   1     -25.618   3.832  29.880  0.00  0.00    +0.200 C 
ATOM     37  O   UNL A   1     -26.467   5.301  31.377  0.00  0.00    -0.323 OA
ATOM     38  C   UNL A   1     -28.017   3.674  29.771  0.00  0.00    +0.149 C 
ATOM     39  C   UNL A   1     -25.987   5.160  30.018  0.00  0.00    +0.188 C 
ATOM     40  O   UNL A   1     -28.289   5.114  29.894  0.00  0.00    -0.327 OA
ENDBRANCH  33  36
ENDBRANCH  30  33
ENDBRANCH   2  30
BRANCH   5  41
ATOM     41  O   UNL A   1     -28.193  -0.208  24.477  0.00  0.00    -0.459 OA
BRANCH  41  42
ATOM     42  C   UNL A   1     -29.460   0.005  23.866  0.00  0.00    +0.242 C 
BRANCH  42  43
ATOM     43  C   UNL A   1     -30.065  -1.377  23.573  0.00  0.00    +0.229 C 
ATOM     44  O   UNL A   1     -30.729  -1.878  24.721  0.00  0.00    -0.216 OA
ENDBRANCH  42  43
ENDBRANCH  41  42
ENDBRANCH   5  41
TORSDOF 11
