MODEL 566
MODEL 1
REMARK VINA RESULT:    -4.780      0.000      0.000
REMARK INTER + INTRA:          -5.160
REMARK INTER:                  -5.059
REMARK INTRA:                  -0.101
REMARK UNBOUND:                -0.101
REMARK  Name = No_566-gen_results/8p0m/2024-11-27-11-27-31/
REMARK  1 active torsions:
REMARK  status: ('A' for Active; 'I' for Inactive)
REMARK    1  A    between atoms: C_7  and  C_8
REMARK                            x       y       z     vdW  Elec       q    Type
REMARK                         _______ _______ _______ _____ _____    ______ ____
ROOT
ATOM      1  O   UNL A   1     -22.296   2.087  27.089  0.00  0.00    -0.273 OA
ATOM      2  C   UNL A   1     -22.530   1.475  28.138  0.00  0.00    +0.244 C 
ATOM      3  N   UNL A   1     -23.266   1.622  28.798  0.00  0.00    -0.202 NA
ATOM      4  C   UNL A   1     -21.621   0.180  28.428  0.00  0.00    +0.123 C 
ATOM      5  C   UNL A   1     -21.968  -0.621  29.580  0.00  0.00    +0.203 C 
ATOM      6  C   UNL A   1     -23.722   0.966  30.052  0.00  0.00    +0.161 C 
ATOM      7  C   UNL A   1     -22.964  -0.176  30.409  0.00  0.00    +0.274 C 
ATOM      8  F   UNL A   1     -22.277   0.365  30.897  0.00  0.00    -0.224 F 
ATOM      9  O   UNL A   1     -22.586  -1.687  28.948  0.00  0.00    -0.219 OA
ENDROOT
BRANCH   7  10
ATOM     10  C   UNL A   1     -23.280  -0.924  31.589  0.00  0.00    +0.398 C 
ATOM     11  O   UNL A   1     -22.460  -1.103  32.415  0.00  0.00    -0.243 OA
ATOM     12  O   UNL A   1     -24.497  -1.371  31.807  0.00  0.00    -0.243 OA
ENDBRANCH   7  10
TORSDOF 1
ENDMDL
ENDMDL
