REMARK  Name = No_567-gen_results/8p0m/2024-11-27-11-27-31/
REMARK  2 active torsions:
REMARK  status: ('A' for Active; 'I' for Inactive)
REMARK    1  A    between atoms: C_2  and  C_7
REMARK    2  A    between atoms: N_9  and  C_11
REMARK                            x       y       z     vdW  Elec       q    Type
REMARK                         _______ _______ _______ _____ _____    ______ ____
ROOT
ATOM      1  C   UNL A   1     -30.074  -0.836  29.861  0.00  0.00    +0.253 C 
ATOM      2  O   UNL A   1     -30.689  -1.655  30.223  0.00  0.00    -0.270 OA
ATOM      3  N   UNL A   1     -30.614   0.285  29.223  0.00  0.00    -0.253 N 
ATOM      4  C   UNL A   1     -32.020   0.338  29.021  0.00  0.00    +0.120 C 
ENDROOT
BRANCH   1   6
ATOM      5  C   UNL A   1     -28.016  -0.814  28.878  0.00  0.00    +0.004 A 
ATOM      6  C   UNL A   1     -28.469  -0.785  29.829  0.00  0.00    +0.054 A 
ATOM      7  C   UNL A   1     -26.504  -0.778  28.877  0.00  0.00    +0.000 A 
ATOM      8  C   UNL A   1     -25.810  -0.853  30.103  0.00  0.00    +0.000 A 
ATOM      9  C   UNL A   1     -27.991  -0.892  31.226  0.00  0.00    +0.004 A 
ATOM     10  C   UNL A   1     -26.604  -0.868  31.265  0.00  0.00    +0.000 A 
ENDBRANCH   1   6
BRANCH   3  11
ATOM     11  C   UNL A   1     -29.843   1.426  28.750  0.00  0.00    +0.054 A 
ATOM     12  C   UNL A   1     -30.070   2.592  29.573  0.00  0.00    +0.015 A 
ATOM     13  C   UNL A   1     -29.322   3.564  29.249  0.00  0.00    +0.001 A 
ATOM     14  C   UNL A   1     -28.350   3.629  28.179  0.00  0.00    +0.000 A 
ATOM     15  C   UNL A   1     -28.234   2.480  27.445  0.00  0.00    +0.001 A 
ATOM     16  C   UNL A   1     -28.944   1.338  27.782  0.00  0.00    +0.015 A 
ENDBRANCH   3  11
TORSDOF 2
