REMARK  Name = outputs/IAG933/test6/raw/output_5675_IAG933_linker_design_.xyz
REMARK  13 active torsions:
REMARK  status: ('A' for Active; 'I' for Inactive)
REMARK    1  A    between atoms: C_1  and  C_2
REMARK    2  A    between atoms: C_1  and  C_8
REMARK    3  A    between atoms: C_1  and  C_30
REMARK    4  A    between atoms: C_13  and  C_32
REMARK    5  A    between atoms: C_14  and  C_15
REMARK    6  A    between atoms: C_21  and  O_22
REMARK    7  A    between atoms: O_22  and  C_23
REMARK    8  A    between atoms: C_23  and  C_24
REMARK    9  A    between atoms: C_28  and  N_38
REMARK   10  A    between atoms: C_32  and  C_41
REMARK   11  A    between atoms: C_36  and  CA_37
REMARK   12  A    between atoms: CA_37  and  N_38
REMARK   13  A    between atoms: CA_37  and  C_39
REMARK                            x       y       z     vdW  Elec       q    Type
REMARK                         _______ _______ _______ _____ _____    ______ ____
ROOT
ATOM      1  C   UNL A   1     -24.638   1.212  29.039  0.00  0.00    +0.104 C 
ATOM      2  C   UNL A   1     -24.045  -0.026  29.431  0.00  0.00    +0.136 C 
ATOM      3  O   UNL A   1     -22.707  -0.176  28.928  0.00  0.00    -0.357 OA
ATOM      4  C   UNL A   1     -21.185   1.328  27.554  0.00  0.00    +0.032 C 
ATOM      5  C   UNL A   1     -23.759   1.313  27.996  0.00  0.00    +0.046 C 
ATOM      6  C   UNL A   1     -22.488   0.851  28.150  0.00  0.00    +0.117 C 
ENDROOT
BRANCH   2   7
ATOM      7  C   UNL A   1     -24.855  -1.012  30.143  0.00  0.00    +0.067 C 
BRANCH   7   8
ATOM      8  C   UNL A   1     -24.973  -2.505  29.788  0.00  0.00    -0.019 C 
ATOM      9  C   UNL A   1     -23.906  -3.173  29.146  0.00  0.00    -0.004 C 
ATOM     10  C   UNL A   1     -23.989  -4.549  28.853  0.00  0.00    -0.000 C 
ATOM     11  C   UNL A   1     -25.137  -5.280  29.205  0.00  0.00    -0.000 C 
ATOM     12  C   UNL A   1     -26.232  -4.611  29.784  0.00  0.00    -0.000 C 
ATOM     13  C   UNL A   1     -26.155  -3.232  30.065  0.00  0.00    -0.004 C 
ENDBRANCH   7   8
BRANCH   7  14
ATOM     14  C   UNL A   1     -25.387  -0.679  31.571  0.00  0.00    +0.079 C 
ATOM     15  C   UNL A   1     -25.189   0.773  32.028  0.00  0.00    +0.019 C 
ATOM     16  C   UNL A   1     -25.336   0.684  33.544  0.00  0.00    +0.020 C 
ATOM     17  C   UNL A   1     -24.829  -0.715  33.905  0.00  0.00    +0.089 C 
ATOM     18  N   UNL A   1     -24.758  -1.481  32.646  0.00  0.00    -0.219 NA
ENDBRANCH   7  14
ENDBRANCH   2   7
BRANCH   5  19
ATOM     19  C   UNL A   1     -24.256   1.363  26.515  0.00  0.00    +0.012 C 
BRANCH  19  20
ATOM     20  C   UNL A   1     -25.688   1.614  26.461  0.00  0.00    +0.070 C 
ATOM     21  C   UNL A   1     -26.250   2.920  26.395  0.00  0.00    +0.055 C 
ATOM     22  C   UNL A   1     -27.438   3.091  25.645  0.00  0.00    +0.102 C 
ATOM     23  N   UNL A   1     -28.075   2.089  25.003  0.00  0.00    -0.212 NA
ATOM     24  C   UNL A   1     -27.543   0.849  25.079  0.00  0.00    +0.234 C 
ATOM     25  C   UNL A   1     -26.354   0.576  25.777  0.00  0.00    +0.240 C 
ATOM     26  F   UNL A   1     -25.860  -0.681  25.795  0.00  0.00    -0.227 F 
BRANCH  21  27
ATOM     27  C   UNL A   1     -25.642   4.093  27.123  0.00  0.00    +0.262 C 
ATOM     28  N   UNL A   1     -25.614   5.252  26.449  0.00  0.00    -0.200 NA
ATOM     29  C   UNL A   1     -25.026   6.479  26.963  0.00  0.00    +0.139 C 
ATOM     30  O   UNL A   1     -25.143   3.966  28.243  0.00  0.00    -0.269 OA
ENDBRANCH  21  27
BRANCH  24  31
ATOM     31  O   UNL A   1     -28.193  -0.208  24.477  0.00  0.00    -0.459 OA
BRANCH  31  32
ATOM     32  C   UNL A   1     -29.460   0.005  23.866  0.00  0.00    +0.242 C 
BRANCH  32  33
ATOM     33  C   UNL A   1     -30.065  -1.377  23.573  0.00  0.00    +0.229 C 
ATOM     34  O   UNL A   1     -30.729  -1.878  24.721  0.00  0.00    -0.216 OA
ENDBRANCH  32  33
ENDBRANCH  31  32
ENDBRANCH  24  31
ENDBRANCH  19  20
ENDBRANCH   5  19
BRANCH   1  35
ATOM     35  N   UNL A   1     -25.522   2.019  29.812  0.00  0.00    -0.199 NA
BRANCH  35  36
ATOM     36  CA  UNL A   1     -26.955   2.443  30.276  0.00  0.00    +0.256 C 
BRANCH  36  39
ATOM     37  N   UNL A   1     -27.879   2.870  32.574  0.00  0.00    -0.086 NA
ATOM     38  O   UNL A   1     -29.200   3.372  30.958  0.00  0.00    -0.270 OA
ATOM     39  C   UNL A   1     -28.144   3.014  31.336  0.00  0.00    +0.288 C 
ENDBRANCH  36  39
BRANCH  36  41
ATOM     40  O   UNL A   1     -28.201   0.435  30.792  0.00  0.00    -0.243 OA
ATOM     41  C   UNL A   1     -27.661   1.230  29.910  0.00  0.00    +0.389 C 
ATOM     42  OXT UNL A   1     -27.709   0.829  28.721  0.00  0.00    -0.243 OA
ENDBRANCH  36  41
ENDBRANCH  35  36
ENDBRANCH   1  35
TORSDOF 13
