REMARK  Name = outputs/IAG933/test6/raw/output_5679_IAG933_linker_design_.xyz
REMARK  11 active torsions:
REMARK  status: ('A' for Active; 'I' for Inactive)
REMARK    1  A    between atoms: C_1  and  C_2
REMARK    2  A    between atoms: C_1  and  C_8
REMARK    3  A    between atoms: C_1  and  N_39
REMARK    4  A    between atoms: C_13  and  C_29
REMARK    5  A    between atoms: C_14  and  C_15
REMARK    6  A    between atoms: C_21  and  O_22
REMARK    7  A    between atoms: O_22  and  C_23
REMARK    8  A    between atoms: C_23  and  C_24
REMARK    9  A    between atoms: O_34  and  C_37
REMARK   10  A    between atoms: O_34  and  C_38
REMARK   11  A    between atoms: O_40  and  C_42
REMARK                            x       y       z     vdW  Elec       q    Type
REMARK                         _______ _______ _______ _____ _____    ______ ____
ROOT
ATOM      1  C   UNL A   1     -27.527   1.182  29.354  0.00  0.00    -0.006 C 
ATOM      2  C   UNL A   1     -24.624   1.270  27.379  0.00  0.00    +0.020 C 
ATOM      3  C   UNL A   1     -29.771   0.217  29.226  0.00  0.00    +0.065 C 
ATOM      4  C   UNL A   1     -28.351   1.936  30.384  0.00  0.00    +0.059 C 
ATOM      5  O   UNL A   1     -30.461   2.665  29.209  0.00  0.00    -0.331 OA
ATOM      6  C   UNL A   1     -22.357   0.916  27.898  0.00  0.00    +0.121 C 
ATOM      7  C   UNL A   1     -25.092   0.770  28.619  0.00  0.00    +0.083 C 
ATOM      8  C   UNL A   1     -31.374   1.719  28.446  0.00  0.00    +0.265 C 
ATOM      9  N   UNL A   1     -24.243   0.043  29.358  0.00  0.00    -0.297 N 
ATOM     10  C   UNL A   1     -28.339  -0.193  29.159  0.00  0.00    +0.035 C 
ATOM     11  C   UNL A   1     -30.412   0.532  28.090  0.00  0.00    +0.174 C 
ATOM     12  C   UNL A   1     -29.797   1.729  29.906  0.00  0.00    +0.125 C 
ATOM     13  C   UNL A   1     -22.805   0.169  29.058  0.00  0.00    +0.112 C 
ATOM     14 CL   UNL A   1     -20.964   1.756  27.535  0.00  0.00    -0.108 Cl
ATOM     15  C   UNL A   1     -26.252   1.125  28.928  0.00  0.00    -0.096 C 
ATOM     16  C   UNL A   1     -23.373   1.387  26.946  0.00  0.00    -0.007 C 
ENDROOT
BRANCH   2  17
ATOM     17  C   UNL A   1     -25.688   1.614  26.461  0.00  0.00    +0.040 C 
ATOM     18  C   UNL A   1     -26.250   2.920  26.395  0.00  0.00    +0.077 C 
ATOM     19  C   UNL A   1     -27.438   3.091  25.645  0.00  0.00    +0.107 C 
ATOM     20  N   UNL A   1     -28.075   2.089  25.003  0.00  0.00    -0.208 NA
ATOM     21  C   UNL A   1     -27.543   0.849  25.079  0.00  0.00    +0.253 C 
ATOM     22  C   UNL A   1     -26.354   0.576  25.777  0.00  0.00    +0.193 C 
ATOM     23  F   UNL A   1     -25.860  -0.681  25.795  0.00  0.00    -0.199 F 
BRANCH  18  24
ATOM     24  C   UNL A   1     -25.642   4.093  27.123  0.00  0.00    +0.266 C 
ATOM     25  N   UNL A   1     -25.614   5.252  26.449  0.00  0.00    -0.200 NA
ATOM     26  C   UNL A   1     -25.026   6.479  26.963  0.00  0.00    +0.139 C 
ATOM     27  O   UNL A   1     -25.143   3.966  28.243  0.00  0.00    -0.268 OA
ENDBRANCH  18  24
BRANCH  21  28
ATOM     28  O   UNL A   1     -28.193  -0.208  24.477  0.00  0.00    -0.456 OA
BRANCH  28  29
ATOM     29  C   UNL A   1     -29.460   0.005  23.866  0.00  0.00    +0.243 C 
BRANCH  29  30
ATOM     30  C   UNL A   1     -30.065  -1.377  23.573  0.00  0.00    +0.229 C 
ATOM     31  O   UNL A   1     -30.729  -1.878  24.721  0.00  0.00    -0.216 OA
ENDBRANCH  29  30
ENDBRANCH  28  29
ENDBRANCH  21  28
ENDBRANCH   2  17
BRANCH  11  32
ATOM     32  O   UNL A   1     -30.667  -0.332  26.887  0.00  0.00    -0.348 OA
ATOM     33  C   UNL A   1     -31.644  -1.343  27.077  0.00  0.00    +0.174 C 
ENDBRANCH  11  32
BRANCH   9  34
ATOM     34  C   UNL A   1     -24.855  -1.012  30.143  0.00  0.00    +0.112 C 
BRANCH  34  35
ATOM     35  C   UNL A   1     -24.973  -2.505  29.788  0.00  0.00    -0.003 C 
ATOM     36  C   UNL A   1     -23.906  -3.173  29.146  0.00  0.00    -0.003 C 
ATOM     37  C   UNL A   1     -23.989  -4.549  28.853  0.00  0.00    -0.000 C 
ATOM     38  C   UNL A   1     -25.137  -5.280  29.205  0.00  0.00    -0.000 C 
ATOM     39  C   UNL A   1     -26.232  -4.611  29.784  0.00  0.00    -0.000 C 
ATOM     40  C   UNL A   1     -26.155  -3.232  30.065  0.00  0.00    -0.003 C 
ENDBRANCH  34  35
BRANCH  34  41
ATOM     41  C   UNL A   1     -25.387  -0.679  31.571  0.00  0.00    +0.095 C 
ATOM     42  C   UNL A   1     -25.189   0.773  32.028  0.00  0.00    +0.021 C 
ATOM     43  C   UNL A   1     -25.336   0.684  33.544  0.00  0.00    +0.020 C 
ATOM     44  C   UNL A   1     -24.829  -0.715  33.905  0.00  0.00    +0.089 C 
ATOM     45  N   UNL A   1     -24.758  -1.481  32.646  0.00  0.00    -0.217 NA
ENDBRANCH  34  41
ENDBRANCH   9  34
BRANCH   8  46
ATOM     46  O   UNL A   1     -32.357   1.236  29.370  0.00  0.00    -0.309 OA
BRANCH  46  48
ATOM     47  N   UNL A   1     -33.085   3.349  30.618  0.00  0.00    -0.096 NA
ATOM     48  C   UNL A   1     -33.259   2.102  29.905  0.00  0.00    +0.254 C 
ENDBRANCH  46  48
ENDBRANCH   8  46
TORSDOF 11
