MODEL 567
MODEL 1
REMARK VINA RESULT:    -5.616      0.000      0.000
REMARK INTER + INTRA:          -6.470
REMARK INTER:                  -6.273
REMARK INTRA:                  -0.197
REMARK UNBOUND:                -0.197
REMARK  Name = No_567-gen_results/8p0m/2024-11-27-11-27-31/
REMARK  2 active torsions:
REMARK  status: ('A' for Active; 'I' for Inactive)
REMARK    1  A    between atoms: C_2  and  C_7
REMARK    2  A    between atoms: N_9  and  C_11
REMARK                            x       y       z     vdW  Elec       q    Type
REMARK                         _______ _______ _______ _____ _____    ______ ____
ROOT
ATOM      1  C   UNL A   1     -24.002   0.490  29.661  0.00  0.00    +0.253 C 
ATOM      2  O   UNL A   1     -23.503   1.386  30.019  0.00  0.00    -0.270 OA
ATOM      3  N   UNL A   1     -23.886  -0.745  30.306  0.00  0.00    -0.253 N 
ATOM      4  C   UNL A   1     -23.062  -0.831  31.461  0.00  0.00    +0.120 C 
ENDROOT
BRANCH   1   6
ATOM      5  C   UNL A   1     -24.254   0.213  27.411  0.00  0.00    +0.004 A 
ATOM      6  C   UNL A   1     -24.824   0.335  28.289  0.00  0.00    +0.054 A 
ATOM      7  C   UNL A   1     -25.052   0.083  26.132  0.00  0.00    +0.000 A 
ATOM      8  C   UNL A   1     -26.450   0.270  26.168  0.00  0.00    +0.000 A 
ATOM      9  C   UNL A   1     -26.250   0.589  28.592  0.00  0.00    +0.004 A 
ATOM     10  C   UNL A   1     -27.015   0.483  27.439  0.00  0.00    +0.000 A 
ENDBRANCH   1   6
BRANCH   3  11
ATOM     11  C   UNL A   1     -24.559  -1.968  29.892  0.00  0.00    +0.054 A 
ATOM     12  C   UNL A   1     -23.704  -2.784  29.060  0.00  0.00    +0.015 A 
ATOM     13  C   UNL A   1     -24.228  -3.905  28.783  0.00  0.00    +0.001 A 
ATOM     14  C   UNL A   1     -25.532  -4.403  29.163  0.00  0.00    +0.000 A 
ATOM     15  C   UNL A   1     -26.270  -3.541  29.927  0.00  0.00    +0.001 A 
ATOM     16  C   UNL A   1     -25.745  -2.331  30.355  0.00  0.00    +0.015 A 
ENDBRANCH   3  11
TORSDOF 2
ENDMDL
ENDMDL
