REMARK  Name = outputs/IAG933/test6/raw/output_5684_IAG933_linker_design_.xyz
REMARK  10 active torsions:
REMARK  status: ('A' for Active; 'I' for Inactive)
REMARK    1  A    between atoms: C_1  and  C_2
REMARK    2  A    between atoms: C_1  and  C_8
REMARK    3  A    between atoms: C_9  and  C_42
REMARK    4  A    between atoms: C_13  and  C_33
REMARK    5  A    between atoms: C_14  and  C_15
REMARK    6  A    between atoms: C_21  and  O_22
REMARK    7  A    between atoms: O_22  and  C_23
REMARK    8  A    between atoms: C_23  and  C_24
REMARK    9  A    between atoms: C_28  and  C_42
REMARK   10  A    between atoms: C_40  and  C_42
REMARK                            x       y       z     vdW  Elec       q    Type
REMARK                         _______ _______ _______ _____ _____    ______ ____
ROOT
ATOM      1  C   UNL A   1     -24.032   1.435  29.420  0.00  0.00    +0.069 C 
ATOM      2  C   UNL A   1     -24.435   1.480  27.123  0.00  0.00    +0.113 C 
ATOM      3  F   UNL A   1     -20.902   1.098  27.362  0.00  0.00    -0.202 F 
ATOM      4  C   UNL A   1     -22.578   1.238  29.043  0.00  0.00    +0.047 C 
ATOM      5  C   UNL A   1     -23.165   1.574  26.722  0.00  0.00    +0.185 C 
ATOM      6  F   UNL A   1     -22.775   2.078  25.503  0.00  0.00    -0.200 F 
ATOM      7  N   UNL A   1     -24.781   1.349  28.393  0.00  0.00    -0.247 NA
ATOM      8  C   UNL A   1     -22.201   1.282  27.712  0.00  0.00    +0.170 C 
ENDROOT
BRANCH   2   9
ATOM      9  C   UNL A   1     -25.688   1.614  26.461  0.00  0.00    +0.058 C 
ATOM     10  C   UNL A   1     -26.250   2.920  26.395  0.00  0.00    +0.078 C 
ATOM     11  C   UNL A   1     -27.438   3.091  25.645  0.00  0.00    +0.107 C 
ATOM     12  N   UNL A   1     -28.075   2.089  25.003  0.00  0.00    -0.208 NA
ATOM     13  C   UNL A   1     -27.543   0.849  25.079  0.00  0.00    +0.253 C 
ATOM     14  C   UNL A   1     -26.354   0.576  25.777  0.00  0.00    +0.195 C 
ATOM     15  F   UNL A   1     -25.860  -0.681  25.795  0.00  0.00    -0.199 F 
BRANCH  10  16
ATOM     16  C   UNL A   1     -25.642   4.093  27.123  0.00  0.00    +0.267 C 
ATOM     17  N   UNL A   1     -25.614   5.252  26.449  0.00  0.00    -0.200 NA
ATOM     18  C   UNL A   1     -25.026   6.479  26.963  0.00  0.00    +0.139 C 
ATOM     19  O   UNL A   1     -25.143   3.966  28.243  0.00  0.00    -0.268 OA
ENDBRANCH  10  16
BRANCH  13  20
ATOM     20  O   UNL A   1     -28.193  -0.208  24.477  0.00  0.00    -0.456 OA
BRANCH  20  21
ATOM     21  C   UNL A   1     -29.460   0.005  23.866  0.00  0.00    +0.243 C 
BRANCH  21  22
ATOM     22  C   UNL A   1     -30.065  -1.377  23.573  0.00  0.00    +0.229 C 
ATOM     23  O   UNL A   1     -30.729  -1.878  24.721  0.00  0.00    -0.216 OA
ENDBRANCH  21  22
ENDBRANCH  20  21
ENDBRANCH  13  20
ENDBRANCH   2   9
BRANCH   1  24
ATOM     24  C   UNL A   1     -24.975   1.802  30.857  0.00  0.00    +0.107 C 
BRANCH  24  31
ATOM     25  C   UNL A   1     -26.564   4.914  32.416  0.00  0.00    -0.018 C 
ATOM     26  C   UNL A   1     -27.925   4.899  32.599  0.00  0.00    +0.060 C 
ATOM     27  N   UNL A   1     -29.724   1.830  32.113  0.00  0.00    +0.216 NA
ATOM     28  N   UNL A   1     -27.468   2.094  31.554  0.00  0.00    -0.037 NA
ATOM     29  C   UNL A   1     -28.824   3.948  32.297  0.00  0.00    +0.076 C 
ATOM     30  C   UNL A   1     -25.766   3.985  31.728  0.00  0.00    +0.038 C 
ATOM     31  C   UNL A   1     -26.184   2.671  31.351  0.00  0.00    +0.176 C 
ATOM     32  C   UNL A   1     -28.655   2.596  31.958  0.00  0.00    +0.411 C 
ENDBRANCH  24  31
BRANCH  24  34
ATOM     33  C   UNL A   1     -25.387  -0.679  31.571  0.00  0.00    +0.078 C 
ATOM     34  C   UNL A   1     -25.189   0.773  32.028  0.00  0.00    +0.031 C 
ATOM     35  C   UNL A   1     -25.336   0.684  33.544  0.00  0.00    +0.021 C 
ATOM     36  C   UNL A   1     -24.829  -0.715  33.905  0.00  0.00    +0.089 C 
ATOM     37  N   UNL A   1     -24.758  -1.481  32.646  0.00  0.00    -0.219 NA
BRANCH  33  38
ATOM     38  C   UNL A   1     -24.855  -1.012  30.143  0.00  0.00    +0.044 C 
BRANCH  38  39
ATOM     39  C   UNL A   1     -24.973  -2.505  29.788  0.00  0.00    -0.021 C 
ATOM     40  C   UNL A   1     -23.906  -3.173  29.146  0.00  0.00    -0.004 C 
ATOM     41  C   UNL A   1     -23.989  -4.549  28.853  0.00  0.00    -0.000 C 
ATOM     42  C   UNL A   1     -25.137  -5.280  29.205  0.00  0.00    -0.000 C 
ATOM     43  C   UNL A   1     -26.232  -4.611  29.784  0.00  0.00    -0.000 C 
ATOM     44  C   UNL A   1     -26.155  -3.232  30.065  0.00  0.00    -0.004 C 
ENDBRANCH  38  39
ENDBRANCH  33  38
ENDBRANCH  24  34
ENDBRANCH   1  24
TORSDOF 10
