REMARK  Name = outputs/IAG933/test6/raw/output_5686_IAG933_linker_design_.xyz
REMARK  10 active torsions:
REMARK  status: ('A' for Active; 'I' for Inactive)
REMARK    1  A    between atoms: C_1  and  C_2
REMARK    2  A    between atoms: C_1  and  C_8
REMARK    3  A    between atoms: C_9  and  C_39
REMARK    4  A    between atoms: C_21  and  O_22
REMARK    5  A    between atoms: O_22  and  C_23
REMARK    6  A    between atoms: C_23  and  C_24
REMARK    7  A    between atoms: C_28  and  C_36
REMARK    8  A    between atoms: C_28  and  C_41
REMARK    9  A    between atoms: C_39  and  C_45
REMARK   10  A    between atoms: C_42  and  C_50
REMARK                            x       y       z     vdW  Elec       q    Type
REMARK                         _______ _______ _______ _____ _____    ______ ____
ROOT
ATOM      1  C   UNL A   1     -25.688   1.614  26.461  0.00  0.00    +0.094 C 
ATOM      2  C   UNL A   1     -26.250   2.920  26.395  0.00  0.00    +0.057 C 
ATOM      3  C   UNL A   1     -25.642   4.093  27.123  0.00  0.00    +0.218 C 
ATOM      4  N   UNL A   1     -25.614   5.252  26.449  0.00  0.00    -0.236 NA
ATOM      5  C   UNL A   1     -25.026   6.479  26.963  0.00  0.00    +0.155 C 
ATOM      6  O   UNL A   1     -25.143   3.966  28.243  0.00  0.00    -0.464 OA
ATOM      7  C   UNL A   1     -27.438   3.091  25.645  0.00  0.00    +0.102 C 
ATOM      8  N   UNL A   1     -28.075   2.089  25.003  0.00  0.00    -0.212 NA
ATOM      9  C   UNL A   1     -27.543   0.849  25.079  0.00  0.00    +0.234 C 
ATOM     10  C   UNL A   1     -26.354   0.576  25.777  0.00  0.00    +0.244 C 
ATOM     11  F   UNL A   1     -25.860  -0.681  25.795  0.00  0.00    -0.227 F 
ATOM     12  C   UNL A   1     -23.827   0.940  27.521  0.00  0.00    +0.062 C 
ATOM     13  C   UNL A   1     -24.291   2.625  30.481  0.00  0.00    +0.113 C 
ATOM     14  C   UNL A   1     -23.547   2.183  25.428  0.00  0.00    -0.003 C 
ATOM     15  C   UNL A   1     -21.350   1.867  26.477  0.00  0.00    +0.016 C 
ATOM     16  C   UNL A   1     -26.120   3.338  29.169  0.00  0.00    +0.169 C 
ATOM     17  C   UNL A   1     -21.708   1.702  27.762  0.00  0.00    +0.066 C 
ATOM     18  C   UNL A   1     -25.493   3.760  30.459  0.00  0.00    +0.058 C 
ATOM     19  N   UNL A   1     -22.954   1.434  28.377  0.00  0.00    -0.271 N 
ATOM     20  N   UNL A   1     -23.505   1.844  30.452  0.00  0.00    -0.197 NA
ATOM     21  C   UNL A   1     -23.821   1.983  29.509  0.00  0.00    +0.168 C 
ATOM     22  C   UNL A   1     -24.250   1.593  26.524  0.00  0.00    -0.000 C 
ATOM     23  C   UNL A   1     -26.728   2.360  30.242  0.00  0.00    +0.045 C 
ATOM     24  C   UNL A   1     -22.147   2.144  25.357  0.00  0.00    +0.001 C 
ENDROOT
BRANCH   9  25
ATOM     25  O   UNL A   1     -28.193  -0.208  24.477  0.00  0.00    -0.459 OA
BRANCH  25  26
ATOM     26  C   UNL A   1     -29.460   0.005  23.866  0.00  0.00    +0.242 C 
BRANCH  26  27
ATOM     27  C   UNL A   1     -30.065  -1.377  23.573  0.00  0.00    +0.229 C 
ATOM     28  O   UNL A   1     -30.729  -1.878  24.721  0.00  0.00    -0.216 OA
ENDBRANCH  26  27
ENDBRANCH  25  26
ENDBRANCH   9  25
BRANCH  18  29
ATOM     29  C   UNL A   1     -26.104   5.245  30.680  0.00  0.00    +0.006 C 
BRANCH  29  31
ATOM     30  C   UNL A   1     -28.709   5.618  30.746  0.00  0.00    +0.001 C 
ATOM     31  C   UNL A   1     -27.333   5.189  31.149  0.00  0.00    +0.011 C 
ATOM     32  C   UNL A   1     -28.244   5.885  33.387  0.00  0.00    +0.011 C 
ATOM     33  C   UNL A   1     -29.134   6.282  32.127  0.00  0.00    +0.001 C 
ATOM     34  C   UNL A   1     -27.425   4.939  32.693  0.00  0.00    +0.103 C 
BRANCH  34  36
ATOM     35  O   UNL A   1     -29.108   3.245  32.559  0.00  0.00    -0.246 OA
ATOM     36  C   UNL A   1     -28.079   3.652  33.156  0.00  0.00    +0.364 C 
ATOM     37  O   UNL A   1     -27.634   3.130  34.161  0.00  0.00    -0.246 OA
ENDBRANCH  34  36
ENDBRANCH  29  31
ENDBRANCH  18  29
BRANCH  23  38
ATOM     38  C   UNL A   1     -26.264   1.705  31.546  0.00  0.00    +0.005 C 
BRANCH  38  40
ATOM     39  C   UNL A   1     -25.387  -0.679  31.571  0.00  0.00    +0.077 C 
ATOM     40  C   UNL A   1     -25.189   0.773  32.028  0.00  0.00    +0.018 C 
ATOM     41  C   UNL A   1     -25.336   0.684  33.544  0.00  0.00    +0.020 C 
ATOM     42  C   UNL A   1     -24.829  -0.715  33.905  0.00  0.00    +0.089 C 
ATOM     43  N   UNL A   1     -24.758  -1.481  32.646  0.00  0.00    -0.219 NA
BRANCH  39  44
ATOM     44  C   UNL A   1     -24.855  -1.012  30.143  0.00  0.00    +0.044 C 
BRANCH  44  45
ATOM     45  C   UNL A   1     -24.973  -2.505  29.788  0.00  0.00    -0.021 C 
ATOM     46  C   UNL A   1     -23.906  -3.173  29.146  0.00  0.00    -0.004 C 
ATOM     47  C   UNL A   1     -23.989  -4.549  28.853  0.00  0.00    -0.000 C 
ATOM     48  C   UNL A   1     -25.137  -5.280  29.205  0.00  0.00    -0.000 C 
ATOM     49  C   UNL A   1     -26.232  -4.611  29.784  0.00  0.00    -0.000 C 
ATOM     50  C   UNL A   1     -26.155  -3.232  30.065  0.00  0.00    -0.004 C 
ENDBRANCH  44  45
ENDBRANCH  39  44
ENDBRANCH  38  40
ENDBRANCH  23  38
TORSDOF 10
