MODEL 568
MODEL 1
REMARK VINA RESULT:    -4.071      0.000      0.000
REMARK INTER + INTRA:          -4.071
REMARK INTER:                  -4.071
REMARK INTRA:                   0.000
REMARK UNBOUND:                 0.000
REMARK  Name = No_568-gen_results/8p0m/2024-11-27-11-27-31/
REMARK  0 active torsions:
REMARK  status: ('A' for Active; 'I' for Inactive)
REMARK                            x       y       z     vdW  Elec       q    Type
REMARK                         _______ _______ _______ _____ _____    ______ ____
ROOT
ATOM      1  C   UNL A   1     -24.945  -4.218  29.113  0.00  0.00    +0.012 A 
ATOM      2  C   UNL A   1     -23.965  -3.542  28.901  0.00  0.00    +0.012 A 
ATOM      3  C   UNL A   1     -23.812  -2.238  29.370  0.00  0.00    +0.058 A 
ATOM      4  C   UNL A   1     -24.900  -1.619  30.103  0.00  0.00    +0.012 A 
ATOM      5  C   UNL A   1     -26.017  -2.427  30.307  0.00  0.00    +0.012 A 
ATOM      6  C   UNL A   1     -26.082  -3.650  29.817  0.00  0.00    +0.058 A 
ATOM      7 CL   UNL A   1     -22.449  -1.233  29.100  0.00  0.00    -0.082 Cl
ATOM      8 CL   UNL A   1     -27.531  -4.559  30.095  0.00  0.00    -0.082 Cl
ENDROOT
TORSDOF 0
ENDMDL
ENDMDL
