REMARK  Name = outputs/IAG933/test6/raw/output_569_IAG933_linker_design_.xyz
REMARK  10 active torsions:
REMARK  status: ('A' for Active; 'I' for Inactive)
REMARK    1  A    between atoms: C_1  and  C_2
REMARK    2  A    between atoms: C_1  and  C_8
REMARK    3  A    between atoms: C_1  and  C_39
REMARK    4  A    between atoms: C_13  and  C_43
REMARK    5  A    between atoms: C_14  and  C_15
REMARK    6  A    between atoms: C_21  and  O_22
REMARK    7  A    between atoms: O_22  and  C_23
REMARK    8  A    between atoms: C_23  and  C_24
REMARK    9  A    between atoms: N_36  and  C_39
REMARK   10  A    between atoms: C_39  and  N_40
REMARK                            x       y       z     vdW  Elec       q    Type
REMARK                         _______ _______ _______ _____ _____    ______ ____
ROOT
ATOM      1  C   UNL A   1     -25.284  -0.091  28.989  0.00  0.00    +0.125 C 
ENDROOT
BRANCH   1  10
ATOM      2  C   UNL A   1     -27.296   1.204  29.212  0.00  0.00    +0.150 C 
ATOM      3  C   UNL A   1     -30.655   2.318  28.770  0.00  0.00    +0.050 C 
ATOM      4  C   UNL A   1     -29.051  -0.291  28.514  0.00  0.00    +0.077 C 
ATOM      5  C   UNL A   1     -30.380   0.070  27.753  0.00  0.00    +0.050 C 
ATOM      6  C   UNL A   1     -27.740  -0.660  27.825  0.00  0.00    +0.090 C 
ATOM      7  N   UNL A   1     -28.697   0.942  29.248  0.00  0.00    -0.259 NA
ATOM      8  C   UNL A   1     -31.370   0.909  28.694  0.00  0.00    +0.155 C 
ATOM      9  O   UNL A   1     -31.389   0.279  29.970  0.00  0.00    -0.223 OA
ATOM     10  N   UNL A   1     -26.675   0.040  28.697  0.00  0.00    -0.246 NA
ATOM     11  C   UNL A   1     -29.448   2.150  29.758  0.00  0.00    +0.076 C 
ENDBRANCH   1  10
BRANCH   1  13
ATOM     12  C   UNL A   1     -22.964   1.973  26.909  0.00  0.00    +0.018 C 
ATOM     13  N   UNL A   1     -24.285   0.541  28.262  0.00  0.00    -0.262 NA
ATOM     14  C   UNL A   1     -22.811   0.390  28.742  0.00  0.00    +0.073 C 
ATOM     15  C   UNL A   1     -21.998   1.273  27.833  0.00  0.00    +0.019 C 
ATOM     16  C   UNL A   1     -24.261   1.355  26.900  0.00  0.00    +0.066 C 
BRANCH  16  17
ATOM     17  C   UNL A   1     -25.688   1.614  26.461  0.00  0.00    +0.085 C 
ATOM     18  C   UNL A   1     -26.250   2.920  26.395  0.00  0.00    +0.056 C 
ATOM     19  C   UNL A   1     -27.438   3.091  25.645  0.00  0.00    +0.102 C 
ATOM     20  N   UNL A   1     -28.075   2.089  25.003  0.00  0.00    -0.212 NA
ATOM     21  C   UNL A   1     -27.543   0.849  25.079  0.00  0.00    +0.234 C 
ATOM     22  C   UNL A   1     -26.354   0.576  25.777  0.00  0.00    +0.241 C 
ATOM     23  F   UNL A   1     -25.860  -0.681  25.795  0.00  0.00    -0.227 F 
BRANCH  18  24
ATOM     24  C   UNL A   1     -25.642   4.093  27.123  0.00  0.00    +0.263 C 
ATOM     25  N   UNL A   1     -25.614   5.252  26.449  0.00  0.00    -0.200 NA
ATOM     26  C   UNL A   1     -25.026   6.479  26.963  0.00  0.00    +0.139 C 
ATOM     27  O   UNL A   1     -25.143   3.966  28.243  0.00  0.00    -0.269 OA
ENDBRANCH  18  24
BRANCH  21  28
ATOM     28  O   UNL A   1     -28.193  -0.208  24.477  0.00  0.00    -0.459 OA
BRANCH  28  29
ATOM     29  C   UNL A   1     -29.460   0.005  23.866  0.00  0.00    +0.242 C 
BRANCH  29  30
ATOM     30  C   UNL A   1     -30.065  -1.377  23.573  0.00  0.00    +0.229 C 
ATOM     31  O   UNL A   1     -30.729  -1.878  24.721  0.00  0.00    -0.216 OA
ENDBRANCH  29  30
ENDBRANCH  28  29
ENDBRANCH  21  28
ENDBRANCH  16  17
ENDBRANCH   1  13
BRANCH   1  32
ATOM     32  C   UNL A   1     -24.855  -1.012  30.143  0.00  0.00    +0.068 C 
BRANCH  32  33
ATOM     33  C   UNL A   1     -24.973  -2.505  29.788  0.00  0.00    -0.018 C 
ATOM     34  C   UNL A   1     -23.906  -3.173  29.146  0.00  0.00    -0.004 C 
ATOM     35  C   UNL A   1     -23.989  -4.549  28.853  0.00  0.00    -0.000 C 
ATOM     36  C   UNL A   1     -25.137  -5.280  29.205  0.00  0.00    -0.000 C 
ATOM     37  C   UNL A   1     -26.232  -4.611  29.784  0.00  0.00    -0.000 C 
ATOM     38  C   UNL A   1     -26.155  -3.232  30.065  0.00  0.00    -0.004 C 
ENDBRANCH  32  33
BRANCH  32  39
ATOM     39  C   UNL A   1     -25.387  -0.679  31.571  0.00  0.00    +0.080 C 
ATOM     40  C   UNL A   1     -25.189   0.773  32.028  0.00  0.00    +0.019 C 
ATOM     41  C   UNL A   1     -25.336   0.684  33.544  0.00  0.00    +0.020 C 
ATOM     42  C   UNL A   1     -24.829  -0.715  33.905  0.00  0.00    +0.089 C 
ATOM     43  N   UNL A   1     -24.758  -1.481  32.646  0.00  0.00    -0.219 NA
ENDBRANCH  32  39
ENDBRANCH   1  32
TORSDOF 10
