REMARK  Name = outputs/IAG933/test6/raw/output_5694_IAG933_linker_design_.xyz
REMARK  20 active torsions:
REMARK  status: ('A' for Active; 'I' for Inactive)
REMARK    1  A    between atoms: C_1  and  C_2
REMARK    2  A    between atoms: C_1  and  C_8
REMARK    3  A    between atoms: C_1  and  C_49
REMARK    4  A    between atoms: C_13  and  C_39
REMARK    5  A    between atoms: C_14  and  C_15
REMARK    6  A    between atoms: C_21  and  O_22
REMARK    7  A    between atoms: O_22  and  C_23
REMARK    8  A    between atoms: C_23  and  C_24
REMARK    9  A    between atoms: C_29  and  C_46
REMARK   10  A    between atoms: C_29  and  N_48
REMARK   11  A    between atoms: C_30  and  C_39
REMARK   12  A    between atoms: C_30  and  C_40
REMARK   13  A    between atoms: C_30  and  N_43
REMARK   14  A    between atoms: C_32  and  C_37
REMARK   15  A    between atoms: C_32  and  C_49
REMARK   16  A    between atoms: C_35  and  C_40
REMARK   17  A    between atoms: C_38  and  C_44
REMARK   18  A    between atoms: C_38  and  N_47
REMARK   19  A    between atoms: C_38  and  N_48
REMARK   20  A    between atoms: N_43  and  C_49
REMARK                            x       y       z     vdW  Elec       q    Type
REMARK                         _______ _______ _______ _____ _____    ______ ____
ROOT
ATOM      1  C   UNL A   1     -25.642  -0.218  29.046  0.00  0.00    +0.078 C 
ENDROOT
BRANCH   1   2
ATOM      2  C   UNL A   1     -24.855  -1.012  30.143  0.00  0.00    +0.054 C 
BRANCH   2   3
ATOM      3  C   UNL A   1     -24.973  -2.505  29.788  0.00  0.00    -0.020 C 
ATOM      4  C   UNL A   1     -23.906  -3.173  29.146  0.00  0.00    -0.004 C 
ATOM      5  C   UNL A   1     -23.989  -4.549  28.853  0.00  0.00    -0.000 C 
ATOM      6  C   UNL A   1     -25.137  -5.280  29.205  0.00  0.00    -0.000 C 
ATOM      7  C   UNL A   1     -26.232  -4.611  29.784  0.00  0.00    -0.000 C 
ATOM      8  C   UNL A   1     -26.155  -3.232  30.065  0.00  0.00    -0.004 C 
ENDBRANCH   2   3
BRANCH   2   9
ATOM      9  C   UNL A   1     -25.387  -0.679  31.571  0.00  0.00    +0.078 C 
ATOM     10  C   UNL A   1     -25.189   0.773  32.028  0.00  0.00    +0.019 C 
ATOM     11  C   UNL A   1     -25.336   0.684  33.544  0.00  0.00    +0.020 C 
ATOM     12  C   UNL A   1     -24.829  -0.715  33.905  0.00  0.00    +0.089 C 
ATOM     13  N   UNL A   1     -24.758  -1.481  32.646  0.00  0.00    -0.219 NA
ENDBRANCH   2   9
ENDBRANCH   1   2
BRANCH   1  14
ATOM     14  N   UNL A   1     -25.054   1.163  28.887  0.00  0.00    -0.221 NA
BRANCH  14  15
ATOM     15  C   UNL A   1     -23.936   1.265  28.124  0.00  0.00    +0.073 C 
BRANCH  15  16
ATOM     16  C   UNL A   1     -22.630   0.503  28.333  0.00  0.00    +0.017 C 
BRANCH  16  17
ATOM     17  C   UNL A   1     -21.446   1.327  27.750  0.00  0.00    +0.001 C 
ATOM     18  C   UNL A   1     -21.563   2.001  26.389  0.00  0.00    +0.000 C 
ENDBRANCH  16  17
ENDBRANCH  15  16
BRANCH  15  19
ATOM     19  C   UNL A   1     -24.244   1.418  26.652  0.00  0.00    +0.025 C 
BRANCH  19  20
ATOM     20  C   UNL A   1     -25.688   1.614  26.461  0.00  0.00    +0.071 C 
ATOM     21  C   UNL A   1     -26.250   2.920  26.395  0.00  0.00    +0.055 C 
ATOM     22  C   UNL A   1     -27.438   3.091  25.645  0.00  0.00    +0.102 C 
ATOM     23  N   UNL A   1     -28.075   2.089  25.003  0.00  0.00    -0.212 NA
ATOM     24  C   UNL A   1     -27.543   0.849  25.079  0.00  0.00    +0.234 C 
ATOM     25  C   UNL A   1     -26.354   0.576  25.777  0.00  0.00    +0.240 C 
ATOM     26  F   UNL A   1     -25.860  -0.681  25.795  0.00  0.00    -0.227 F 
BRANCH  21  27
ATOM     27  C   UNL A   1     -25.642   4.093  27.123  0.00  0.00    +0.262 C 
ATOM     28  N   UNL A   1     -25.614   5.252  26.449  0.00  0.00    -0.200 NA
ATOM     29  C   UNL A   1     -25.026   6.479  26.963  0.00  0.00    +0.139 C 
ATOM     30  O   UNL A   1     -25.143   3.966  28.243  0.00  0.00    -0.269 OA
ENDBRANCH  21  27
BRANCH  24  31
ATOM     31  O   UNL A   1     -28.193  -0.208  24.477  0.00  0.00    -0.459 OA
BRANCH  31  32
ATOM     32  C   UNL A   1     -29.460   0.005  23.866  0.00  0.00    +0.242 C 
BRANCH  32  33
ATOM     33  C   UNL A   1     -30.065  -1.377  23.573  0.00  0.00    +0.229 C 
ATOM     34  O   UNL A   1     -30.729  -1.878  24.721  0.00  0.00    -0.216 OA
ENDBRANCH  32  33
ENDBRANCH  31  32
ENDBRANCH  24  31
ENDBRANCH  19  20
ENDBRANCH  15  19
ENDBRANCH  14  15
ENDBRANCH   1  14
BRANCH   1  35
ATOM     35  C   UNL A   1     -27.179  -0.467  28.888  0.00  0.00    +0.023 C 
BRANCH  35  38
ATOM     36  C   UNL A   1     -29.534  -0.085  29.554  0.00  0.00    +0.190 C 
ATOM     37  O   UNL A   1     -29.871  -0.387  28.286  0.00  0.00    -0.207 OA
ATOM     38  C   UNL A   1     -28.113  -0.182  30.023  0.00  0.00    +0.064 C 
ATOM     39  C   UNL A   1     -28.932  -1.109  30.823  0.00  0.00    +0.107 C 
ATOM     40  N   UNL A   1     -30.233  -0.885  30.347  0.00  0.00    -0.227 NA
BRANCH  40  41
ATOM     41  C   UNL A   1     -31.534  -1.317  30.177  0.00  0.00    +0.215 C 
BRANCH  41  44
ATOM     42  N   UNL A   1     -32.601  -3.286  29.195  0.00  0.00    -0.085 NA
ATOM     43  O   UNL A   1     -31.298  -3.437  31.046  0.00  0.00    -0.269 OA
ATOM     44  C   UNL A   1     -31.764  -2.745  30.168  0.00  0.00    +0.292 C 
ENDBRANCH  41  44
BRANCH  41  45
ATOM     45  N   UNL A   1     -32.727  -0.613  29.843  0.00  0.00    -0.195 NA
BRANCH  45  46
ATOM     46  C   UNL A   1     -33.730  -0.314  30.869  0.00  0.00    +0.091 C 
BRANCH  46  49
ATOM     47  C   UNL A   1     -33.920  -0.118  33.413  0.00  0.00    +0.002 C 
ATOM     48  C   UNL A   1     -31.657  -0.482  32.564  0.00  0.00    +0.002 C 
ATOM     49  C   UNL A   1     -33.021   0.098  32.183  0.00  0.00    +0.018 C 
ENDBRANCH  46  49
ENDBRANCH  45  46
ENDBRANCH  41  45
ENDBRANCH  40  41
ENDBRANCH  35  38
ENDBRANCH   1  35
TORSDOF 20
