REMARK  Name = outputs/IAG933/test6/raw/output_5697_IAG933_linker_design_.xyz
REMARK  9 active torsions:
REMARK  status: ('A' for Active; 'I' for Inactive)
REMARK    1  A    between atoms: C_1  and  C_2
REMARK    2  A    between atoms: C_1  and  C_8
REMARK    3  A    between atoms: C_1  and  N_40
REMARK    4  A    between atoms: C_13  and  C_34
REMARK    5  A    between atoms: C_14  and  C_15
REMARK    6  A    between atoms: C_21  and  O_22
REMARK    7  A    between atoms: O_22  and  C_23
REMARK    8  A    between atoms: C_23  and  C_24
REMARK    9  A    between atoms: C_30  and  C_39
REMARK                            x       y       z     vdW  Elec       q    Type
REMARK                         _______ _______ _______ _____ _____    ______ ____
ROOT
ATOM      1  O   UNL A   1     -22.165  -1.913  28.990  0.00  0.00    -0.295 OA
ATOM      2  C   UNL A   1     -22.515   1.085  27.977  0.00  0.00    +0.068 C 
ATOM      3  C   UNL A   1     -22.953   0.168  28.963  0.00  0.00    +0.119 C 
ATOM      4  C   UNL A   1     -24.900  -0.284  28.108  0.00  0.00    +0.104 C 
ATOM      5  C   UNL A   1     -24.764   1.268  27.539  0.00  0.00    +0.158 C 
ATOM      6  C   UNL A   1     -21.801  -0.689  29.107  0.00  0.00    +0.168 C 
ATOM      7  C   UNL A   1     -20.645   0.002  28.511  0.00  0.00    +0.101 C 
ATOM      8  O   UNL A   1     -25.327   1.879  28.715  0.00  0.00    -0.223 OA
ATOM      9  C   UNL A   1     -21.134   1.082  27.920  0.00  0.00    +0.171 C 
ATOM     10  C   UNL A   1     -23.478   1.474  27.192  0.00  0.00    +0.137 C 
ATOM     11  N   UNL A   1     -24.288  -0.146  29.308  0.00  0.00    -0.262 NA
ATOM     12  F   UNL A   1     -20.302   1.923  27.250  0.00  0.00    -0.237 F 
ENDROOT
BRANCH   5  13
ATOM     13  C   UNL A   1     -25.688   1.614  26.461  0.00  0.00    +0.100 C 
ATOM     14  C   UNL A   1     -26.250   2.920  26.395  0.00  0.00    +0.057 C 
ATOM     15  C   UNL A   1     -27.438   3.091  25.645  0.00  0.00    +0.102 C 
ATOM     16  N   UNL A   1     -28.075   2.089  25.003  0.00  0.00    -0.212 NA
ATOM     17  C   UNL A   1     -27.543   0.849  25.079  0.00  0.00    +0.234 C 
ATOM     18  C   UNL A   1     -26.354   0.576  25.777  0.00  0.00    +0.242 C 
ATOM     19  F   UNL A   1     -25.860  -0.681  25.795  0.00  0.00    -0.227 F 
BRANCH  14  20
ATOM     20  C   UNL A   1     -25.642   4.093  27.123  0.00  0.00    +0.263 C 
ATOM     21  N   UNL A   1     -25.614   5.252  26.449  0.00  0.00    -0.200 NA
ATOM     22  C   UNL A   1     -25.026   6.479  26.963  0.00  0.00    +0.139 C 
ATOM     23  O   UNL A   1     -25.143   3.966  28.243  0.00  0.00    -0.269 OA
ENDBRANCH  14  20
BRANCH  17  24
ATOM     24  O   UNL A   1     -28.193  -0.208  24.477  0.00  0.00    -0.459 OA
BRANCH  24  25
ATOM     25  C   UNL A   1     -29.460   0.005  23.866  0.00  0.00    +0.242 C 
BRANCH  25  26
ATOM     26  C   UNL A   1     -30.065  -1.377  23.573  0.00  0.00    +0.229 C 
ATOM     27  O   UNL A   1     -30.729  -1.878  24.721  0.00  0.00    -0.216 OA
ENDBRANCH  25  26
ENDBRANCH  24  25
ENDBRANCH  17  24
ENDBRANCH   5  13
BRANCH  10  28
ATOM     28  C   UNL A   1     -23.104   1.840  25.713  0.00  0.00    +0.367 C 
ATOM     29  O   UNL A   1     -22.063   2.435  25.517  0.00  0.00    -0.246 OA
ATOM     30  O   UNL A   1     -23.784   1.522  24.751  0.00  0.00    -0.246 OA
ENDBRANCH  10  28
BRANCH  11  31
ATOM     31  C   UNL A   1     -24.855  -1.012  30.143  0.00  0.00    +0.097 C 
BRANCH  31  32
ATOM     32  C   UNL A   1     -24.973  -2.505  29.788  0.00  0.00    -0.006 C 
ATOM     33  C   UNL A   1     -23.906  -3.173  29.146  0.00  0.00    -0.003 C 
ATOM     34  C   UNL A   1     -23.989  -4.549  28.853  0.00  0.00    -0.000 C 
ATOM     35  C   UNL A   1     -25.137  -5.280  29.205  0.00  0.00    -0.000 C 
ATOM     36  C   UNL A   1     -26.232  -4.611  29.784  0.00  0.00    -0.000 C 
ATOM     37  C   UNL A   1     -26.155  -3.232  30.065  0.00  0.00    -0.003 C 
ENDBRANCH  31  32
BRANCH  31  38
ATOM     38  C   UNL A   1     -25.387  -0.679  31.571  0.00  0.00    +0.092 C 
ATOM     39  C   UNL A   1     -25.189   0.773  32.028  0.00  0.00    +0.021 C 
ATOM     40  C   UNL A   1     -25.336   0.684  33.544  0.00  0.00    +0.020 C 
ATOM     41  C   UNL A   1     -24.829  -0.715  33.905  0.00  0.00    +0.089 C 
ATOM     42  N   UNL A   1     -24.758  -1.481  32.646  0.00  0.00    -0.218 NA
ENDBRANCH  31  38
ENDBRANCH  11  31
TORSDOF 9
