REMARK  Name = outputs/IAG933/test6/raw/output_5698_IAG933_linker_design_.xyz
REMARK  12 active torsions:
REMARK  status: ('A' for Active; 'I' for Inactive)
REMARK    1  A    between atoms: C_1  and  C_2
REMARK    2  A    between atoms: C_1  and  C_8
REMARK    3  A    between atoms: C_1  and  C_28
REMARK    4  A    between atoms: C_9  and  C_39
REMARK    5  A    between atoms: C_13  and  C_30
REMARK    6  A    between atoms: C_14  and  C_15
REMARK    7  A    between atoms: C_21  and  O_22
REMARK    8  A    between atoms: O_22  and  C_23
REMARK    9  A    between atoms: C_23  and  C_24
REMARK   10  A    between atoms: C_28  and  C_42
REMARK   11  A    between atoms: O_29  and  N_41
REMARK   12  A    between atoms: C_40  and  N_41
REMARK                            x       y       z     vdW  Elec       q    Type
REMARK                         _______ _______ _______ _____ _____    ______ ____
ROOT
ATOM      1  C   UNL A   1     -24.446   1.402  26.959  0.00  0.00    -0.001 C 
ATOM      2  C   UNL A   1     -22.828   0.714  28.591  0.00  0.00    +0.025 C 
ATOM      3  C   UNL A   1     -23.464   2.020  26.173  0.00  0.00    +0.002 C 
ATOM      4  C   UNL A   1     -22.174   2.075  26.662  0.00  0.00    +0.030 C 
ATOM      5  F   UNL A   1     -20.582   1.506  28.231  0.00  0.00    -0.204 F 
ATOM      6  C   UNL A   1     -21.886   1.435  27.856  0.00  0.00    +0.140 C 
ATOM      7  C   UNL A   1     -24.119   0.629  28.099  0.00  0.00    -0.019 C 
ENDROOT
BRANCH   1   8
ATOM      8  C   UNL A   1     -25.688   1.614  26.461  0.00  0.00    +0.038 C 
ATOM      9  C   UNL A   1     -26.250   2.920  26.395  0.00  0.00    +0.076 C 
ATOM     10  C   UNL A   1     -27.438   3.091  25.645  0.00  0.00    +0.107 C 
ATOM     11  N   UNL A   1     -28.075   2.089  25.003  0.00  0.00    -0.208 NA
ATOM     12  C   UNL A   1     -27.543   0.849  25.079  0.00  0.00    +0.253 C 
ATOM     13  C   UNL A   1     -26.354   0.576  25.777  0.00  0.00    +0.193 C 
ATOM     14  F   UNL A   1     -25.860  -0.681  25.795  0.00  0.00    -0.199 F 
BRANCH   9  15
ATOM     15  C   UNL A   1     -25.642   4.093  27.123  0.00  0.00    +0.266 C 
ATOM     16  N   UNL A   1     -25.614   5.252  26.449  0.00  0.00    -0.200 NA
ATOM     17  C   UNL A   1     -25.026   6.479  26.963  0.00  0.00    +0.139 C 
ATOM     18  O   UNL A   1     -25.143   3.966  28.243  0.00  0.00    -0.268 OA
ENDBRANCH   9  15
BRANCH  12  19
ATOM     19  O   UNL A   1     -28.193  -0.208  24.477  0.00  0.00    -0.456 OA
BRANCH  19  20
ATOM     20  C   UNL A   1     -29.460   0.005  23.866  0.00  0.00    +0.243 C 
BRANCH  20  21
ATOM     21  C   UNL A   1     -30.065  -1.377  23.573  0.00  0.00    +0.229 C 
ATOM     22  O   UNL A   1     -30.729  -1.878  24.721  0.00  0.00    -0.216 OA
ENDBRANCH  20  21
ENDBRANCH  19  20
ENDBRANCH  12  19
ENDBRANCH   1   8
BRANCH   7  23
ATOM     23  C   UNL A   1     -25.128  -0.298  28.812  0.00  0.00    +0.032 C 
BRANCH  23  24
ATOM     24  C   UNL A   1     -24.855  -1.012  30.143  0.00  0.00    +0.043 C 
BRANCH  24  25
ATOM     25  C   UNL A   1     -24.973  -2.505  29.788  0.00  0.00    -0.021 C 
ATOM     26  C   UNL A   1     -23.906  -3.173  29.146  0.00  0.00    -0.004 C 
ATOM     27  C   UNL A   1     -23.989  -4.549  28.853  0.00  0.00    -0.000 C 
ATOM     28  C   UNL A   1     -25.137  -5.280  29.205  0.00  0.00    -0.000 C 
ATOM     29  C   UNL A   1     -26.232  -4.611  29.784  0.00  0.00    -0.000 C 
ATOM     30  C   UNL A   1     -26.155  -3.232  30.065  0.00  0.00    -0.004 C 
ENDBRANCH  24  25
BRANCH  24  31
ATOM     31  C   UNL A   1     -25.387  -0.679  31.571  0.00  0.00    +0.086 C 
ATOM     32  C   UNL A   1     -25.189   0.773  32.028  0.00  0.00    +0.097 C 
ATOM     33  C   UNL A   1     -25.336   0.684  33.544  0.00  0.00    +0.029 C 
ATOM     34  C   UNL A   1     -24.829  -0.715  33.905  0.00  0.00    +0.089 C 
ATOM     35  N   UNL A   1     -24.758  -1.481  32.646  0.00  0.00    -0.219 NA
BRANCH  32  37
ATOM     36  O   UNL A   1     -24.744   2.971  31.098  0.00  0.00    -0.273 OA
ATOM     37  C   UNL A   1     -25.615   2.148  31.495  0.00  0.00    +0.251 C 
ATOM     38  N   UNL A   1     -26.975   2.451  31.123  0.00  0.00    -0.134 N 
BRANCH  38  39
ATOM     39  O   UNL A   1     -27.416   3.660  30.857  0.00  0.00    -0.258 OA
ATOM     40  C   UNL A   1     -27.153   4.833  31.609  0.00  0.00    +0.206 C 
ENDBRANCH  38  39
BRANCH  38  42
ATOM     41  O   UNL A   1     -27.480   0.673  29.768  0.00  0.00    -0.194 OA
ATOM     42  C   UNL A   1     -27.803   1.670  30.519  0.00  0.00    +0.305 C 
ENDBRANCH  38  42
ENDBRANCH  32  37
ENDBRANCH  24  31
ENDBRANCH  23  24
ENDBRANCH   7  23
TORSDOF 12
