REMARK  Name = No_57-gen_results/8p0m/2024-11-27-11-27-31/
REMARK  4 active torsions:
REMARK  status: ('A' for Active; 'I' for Inactive)
REMARK    1  A    between atoms: C_2  and  C_13
REMARK    2  A    between atoms: C_4  and  C_7
REMARK    3  A    between atoms: C_13  and  O_14
REMARK    4  A    between atoms: O_14  and  C_16
REMARK                            x       y       z     vdW  Elec       q    Type
REMARK                         _______ _______ _______ _____ _____    ______ ____
ROOT
ATOM      1  C   UNL A   1     -28.016  -0.814  28.878  0.00  0.00    +0.006 A 
ATOM      2  C   UNL A   1     -28.469  -0.785  29.829  0.00  0.00    +0.076 A 
ATOM      3  C   UNL A   1     -26.504  -0.778  28.877  0.00  0.00    +0.000 A 
ATOM      4  C   UNL A   1     -25.810  -0.853  30.103  0.00  0.00    +0.000 A 
ATOM      5  C   UNL A   1     -27.991  -0.892  31.226  0.00  0.00    +0.006 A 
ATOM      6  C   UNL A   1     -26.604  -0.868  31.265  0.00  0.00    +0.000 A 
ENDROOT
BRANCH   4   7
ATOM      7  C   UNL A   1     -24.445  -0.953  30.351  0.00  0.00    +0.000 A 
ATOM      8  C   UNL A   1     -23.782  -0.801  31.134  0.00  0.00    +0.000 A 
ATOM      9  C   UNL A   1     -22.317  -0.811  31.268  0.00  0.00    +0.000 A 
ATOM     10  C   UNL A   1     -21.729  -0.906  30.053  0.00  0.00    +0.000 A 
ATOM     11  C   UNL A   1     -23.609  -1.079  29.038  0.00  0.00    +0.000 A 
ATOM     12  C   UNL A   1     -22.384  -1.065  28.908  0.00  0.00    +0.000 A 
ENDBRANCH   4   7
BRANCH   2  13
ATOM     13  C   UNL A   1     -30.090  -0.728  29.818  0.00  0.00    +0.346 C 
ATOM     14  O   UNL A   1     -30.673  -1.516  29.087  0.00  0.00    -0.244 OA
BRANCH  13  15
ATOM     15  O   UNL A   1     -30.677   0.185  30.477  0.00  0.00    -0.419 OA
BRANCH  15  16
ATOM     16  C   UNL A   1     -31.689   0.765  30.146  0.00  0.00    +0.168 A 
ATOM     17  C   UNL A   1     -32.268   1.914  30.771  0.00  0.00    +0.041 A 
ATOM     18  C   UNL A   1     -33.394   2.440  30.400  0.00  0.00    +0.024 A 
ATOM     19  C   UNL A   1     -34.091   1.859  29.305  0.00  0.00    +0.099 A 
ATOM     20  C   UNL A   1     -32.517   0.270  29.066  0.00  0.00    +0.136 A 
ATOM     21  N   UNL A   1     -33.638   0.858  28.723  0.00  0.00    -0.239 NA
ENDBRANCH  15  16
ENDBRANCH  13  15
ENDBRANCH   2  13
TORSDOF 4
