REMARK  Name = outputs/IAG933/test6/raw/output_5703_IAG933_linker_design_.xyz
REMARK  11 active torsions:
REMARK  status: ('A' for Active; 'I' for Inactive)
REMARK    1  A    between atoms: C_1  and  C_2
REMARK    2  A    between atoms: C_1  and  C_8
REMARK    3  A    between atoms: C_1  and  C_29
REMARK    4  A    between atoms: C_13  and  C_42
REMARK    5  A    between atoms: C_14  and  C_15
REMARK    6  A    between atoms: C_21  and  O_22
REMARK    7  A    between atoms: O_22  and  C_23
REMARK    8  A    between atoms: C_23  and  C_24
REMARK    9  A    between atoms: C_30  and  C_39
REMARK   10  A    between atoms: C_32  and  C_33
REMARK   11  A    between atoms: C_38  and  C_45
REMARK                            x       y       z     vdW  Elec       q    Type
REMARK                         _______ _______ _______ _____ _____    ______ ____
ROOT
ATOM      1  C   UNL A   1     -24.381  -0.001  29.118  0.00  0.00    +0.155 C 
ATOM      2  N   UNL A   1     -25.352   0.793  28.623  0.00  0.00    -0.263 N 
ATOM      3  N   UNL A   1     -23.182   0.299  28.659  0.00  0.00    -0.194 NA
ATOM      4  C   UNL A   1     -23.272   1.152  27.570  0.00  0.00    +0.160 C 
ATOM      5  C   UNL A   1     -26.918   0.674  28.897  0.00  0.00    +0.246 C 
ATOM      6  C   UNL A   1     -24.676   1.275  27.444  0.00  0.00    +0.106 C 
ATOM      7  O   UNL A   1     -27.342  -0.469  28.946  0.00  0.00    -0.270 OA
ENDROOT
BRANCH   6   8
ATOM      8  C   UNL A   1     -25.688   1.614  26.461  0.00  0.00    +0.090 C 
ATOM      9  C   UNL A   1     -26.250   2.920  26.395  0.00  0.00    +0.057 C 
ATOM     10  C   UNL A   1     -27.438   3.091  25.645  0.00  0.00    +0.102 C 
ATOM     11  N   UNL A   1     -28.075   2.089  25.003  0.00  0.00    -0.212 NA
ATOM     12  C   UNL A   1     -27.543   0.849  25.079  0.00  0.00    +0.234 C 
ATOM     13  C   UNL A   1     -26.354   0.576  25.777  0.00  0.00    +0.242 C 
ATOM     14  F   UNL A   1     -25.860  -0.681  25.795  0.00  0.00    -0.227 F 
BRANCH   9  15
ATOM     15  C   UNL A   1     -25.642   4.093  27.123  0.00  0.00    +0.263 C 
ATOM     16  N   UNL A   1     -25.614   5.252  26.449  0.00  0.00    -0.200 NA
ATOM     17  C   UNL A   1     -25.026   6.479  26.963  0.00  0.00    +0.139 C 
ATOM     18  O   UNL A   1     -25.143   3.966  28.243  0.00  0.00    -0.269 OA
ENDBRANCH   9  15
BRANCH  12  19
ATOM     19  O   UNL A   1     -28.193  -0.208  24.477  0.00  0.00    -0.459 OA
BRANCH  19  20
ATOM     20  C   UNL A   1     -29.460   0.005  23.866  0.00  0.00    +0.242 C 
BRANCH  20  21
ATOM     21  C   UNL A   1     -30.065  -1.377  23.573  0.00  0.00    +0.229 C 
ATOM     22  O   UNL A   1     -30.729  -1.878  24.721  0.00  0.00    -0.216 OA
ENDBRANCH  20  21
ENDBRANCH  19  20
ENDBRANCH  12  19
ENDBRANCH   6   8
BRANCH   5  24
ATOM     23  C   UNL A   1     -28.069   3.126  28.998  0.00  0.00    -0.000 C 
ATOM     24  C   UNL A   1     -28.096   1.755  28.603  0.00  0.00    +0.031 C 
ATOM     25  C   UNL A   1     -31.101   3.394  26.874  0.00  0.00    +0.022 C 
ATOM     26  C   UNL A   1     -29.270   1.307  27.782  0.00  0.00    +0.031 C 
ATOM     27  C   UNL A   1     -29.046   4.135  28.503  0.00  0.00    -0.005 C 
ATOM     28  C   UNL A   1     -30.696   1.819  27.197  0.00  0.00    +0.009 C 
ATOM     29  C   UNL A   1     -30.124   4.496  27.749  0.00  0.00    -0.026 C 
BRANCH  25  30
ATOM     30  C   UNL A   1     -32.587   3.757  27.192  0.00  0.00    +0.004 C 
ATOM     31  C   UNL A   1     -32.986   5.149  26.661  0.00  0.00    +0.000 C 
ENDBRANCH  25  30
ENDBRANCH   5  24
BRANCH   4  34
ATOM     32  F   UNL A   1     -21.880   1.988  25.781  0.00  0.00    -0.197 F 
ATOM     33  F   UNL A   1     -21.036   1.827  27.554  0.00  0.00    -0.197 F 
ATOM     34  C   UNL A   1     -22.053   1.704  26.964  0.00  0.00    +0.336 C 
ENDBRANCH   4  34
BRANCH   1  35
ATOM     35  C   UNL A   1     -24.855  -1.012  30.143  0.00  0.00    +0.073 C 
BRANCH  35  36
ATOM     36  C   UNL A   1     -24.973  -2.505  29.788  0.00  0.00    -0.018 C 
ATOM     37  C   UNL A   1     -23.906  -3.173  29.146  0.00  0.00    -0.004 C 
ATOM     38  C   UNL A   1     -23.989  -4.549  28.853  0.00  0.00    -0.000 C 
ATOM     39  C   UNL A   1     -25.137  -5.280  29.205  0.00  0.00    -0.000 C 
ATOM     40  C   UNL A   1     -26.232  -4.611  29.784  0.00  0.00    -0.000 C 
ATOM     41  C   UNL A   1     -26.155  -3.232  30.065  0.00  0.00    -0.004 C 
ENDBRANCH  35  36
BRANCH  35  42
ATOM     42  C   UNL A   1     -25.387  -0.679  31.571  0.00  0.00    +0.080 C 
ATOM     43  C   UNL A   1     -25.189   0.773  32.028  0.00  0.00    +0.019 C 
ATOM     44  C   UNL A   1     -25.336   0.684  33.544  0.00  0.00    +0.020 C 
ATOM     45  C   UNL A   1     -24.829  -0.715  33.905  0.00  0.00    +0.089 C 
ATOM     46  N   UNL A   1     -24.758  -1.481  32.646  0.00  0.00    -0.219 NA
ENDBRANCH  35  42
ENDBRANCH   1  35
TORSDOF 11
