MODEL 570
MODEL 1
REMARK VINA RESULT:    -6.316      0.000      0.000
REMARK INTER + INTRA:          -7.913
REMARK INTER:                  -7.424
REMARK INTRA:                  -0.489
REMARK UNBOUND:                -0.489
REMARK  Name = No_570-gen_results/8p0m/2024-11-27-11-27-31/
REMARK  3 active torsions:
REMARK  status: ('A' for Active; 'I' for Inactive)
REMARK    1  A    between atoms: C_6  and  C_12
REMARK    2  A    between atoms: N_14  and  C_15
REMARK    3  A    between atoms: C_16  and  C_17
REMARK                            x       y       z     vdW  Elec       q    Type
REMARK                         _______ _______ _______ _____ _____    ______ ____
ROOT
ATOM      1  F   UNL A   1     -27.007  -0.313  31.363  0.00  0.00    -0.200 F 
ATOM      2  C   UNL A   1     -26.305  -0.819  30.613  0.00  0.00    +0.186 A 
ATOM      3  C   UNL A   1     -26.524  -2.108  30.363  0.00  0.00    +0.078 A 
ATOM      4  C   UNL A   1     -25.537  -2.999  29.839  0.00  0.00    +0.094 A 
ATOM      5  C   UNL A   1     -24.268  -2.405  29.428  0.00  0.00    +0.159 A 
ATOM      6  C   UNL A   1     -24.064  -1.066  29.746  0.00  0.00    +0.125 A 
ATOM      7  C   UNL A   1     -24.941  -0.361  30.376  0.00  0.00    +0.230 A 
ATOM      8  F   UNL A   1     -23.424  -3.151  28.806  0.00  0.00    -0.203 F 
ATOM      9 BR   UNL A   1     -28.116  -2.995  30.764  0.00  0.00    -0.046 Br
ATOM     10  O   UNL A   1     -24.691   0.961  30.669  0.00  0.00    -0.284 OA
ATOM     11 CL   UNL A   1     -25.926  -4.614  29.410  0.00  0.00    -0.079 Cl
ENDROOT
BRANCH   6  12
ATOM     12  C   UNL A   1     -22.673  -0.555  29.308  0.00  0.00    +0.275 C 
ATOM     13  O   UNL A   1     -21.849  -0.494  30.092  0.00  0.00    -0.268 OA
ATOM     14  N   UNL A   1     -22.689   0.290  28.173  0.00  0.00    -0.173 NA
BRANCH  14  15
ATOM     15  C   UNL A   1     -22.959   1.429  27.839  0.00  0.00    +0.098 C 
ATOM     16  C   UNL A   1     -23.508   1.673  26.611  0.00  0.00    +0.067 C 
BRANCH  16  17
ATOM     17  C   UNL A   1     -24.221   1.178  25.901  0.00  0.00    -0.062 C 
ATOM     18  C   UNL A   1     -24.866   0.449  25.421  0.00  0.00    -0.085 C 
ATOM     19  C   UNL A   1     -25.792  -0.522  24.891  0.00  0.00    +0.090 C 
ENDBRANCH  16  17
ENDBRANCH  14  15
ENDBRANCH   6  12
TORSDOF 3
ENDMDL
ENDMDL
