REMARK  Name = outputs/IAG933/test6/raw/output_5710_IAG933_linker_design_.xyz
REMARK  14 active torsions:
REMARK  status: ('A' for Active; 'I' for Inactive)
REMARK    1  A    between atoms: C_1  and  C_2
REMARK    2  A    between atoms: C_1  and  C_8
REMARK    3  A    between atoms: C_1  and  C_34
REMARK    4  A    between atoms: C_13  and  N_36
REMARK    5  A    between atoms: C_14  and  C_15
REMARK    6  A    between atoms: C_21  and  O_22
REMARK    7  A    between atoms: O_22  and  C_23
REMARK    8  A    between atoms: C_23  and  C_24
REMARK    9  A    between atoms: C_30  and  N_36
REMARK   10  A    between atoms: C_30  and  C_41
REMARK   11  A    between atoms: N_31  and  C_34
REMARK   12  A    between atoms: N_31  and  C_42
REMARK   13  A    between atoms: C_33  and  C_42
REMARK   14  A    between atoms: C_34  and  C_44
REMARK                            x       y       z     vdW  Elec       q    Type
REMARK                         _______ _______ _______ _____ _____    ______ ____
ROOT
ATOM      1  C   UNL A   1     -25.367   0.178  29.227  0.00  0.00    +0.260 C 
ATOM      2  O   UNL A   1     -26.679  -0.250  28.772  0.00  0.00    -0.198 OA
ENDROOT
BRANCH   1   5
ATOM      3  O   UNL A   1     -23.134  -0.031  28.339  0.00  0.00    -0.270 OA
ATOM      4  N   UNL A   1     -24.359   1.509  27.037  0.00  0.00    -0.253 N 
ATOM      5  C   UNL A   1     -24.239   0.532  28.187  0.00  0.00    +0.273 C 
BRANCH   4   6
ATOM      6  C   UNL A   1     -25.688   1.614  26.461  0.00  0.00    +0.092 C 
ATOM      7  C   UNL A   1     -26.250   2.920  26.395  0.00  0.00    +0.090 C 
ATOM      8  C   UNL A   1     -27.438   3.091  25.645  0.00  0.00    +0.108 C 
ATOM      9  N   UNL A   1     -28.075   2.089  25.003  0.00  0.00    -0.208 NA
ATOM     10  C   UNL A   1     -27.543   0.849  25.079  0.00  0.00    +0.255 C 
ATOM     11  C   UNL A   1     -26.354   0.576  25.777  0.00  0.00    +0.207 C 
ATOM     12  F   UNL A   1     -25.860  -0.681  25.795  0.00  0.00    -0.198 F 
BRANCH   7  13
ATOM     13  C   UNL A   1     -25.642   4.093  27.123  0.00  0.00    +0.268 C 
ATOM     14  N   UNL A   1     -25.614   5.252  26.449  0.00  0.00    -0.200 NA
ATOM     15  C   UNL A   1     -25.026   6.479  26.963  0.00  0.00    +0.139 C 
ATOM     16  O   UNL A   1     -25.143   3.966  28.243  0.00  0.00    -0.268 OA
ENDBRANCH   7  13
BRANCH  10  17
ATOM     17  O   UNL A   1     -28.193  -0.208  24.477  0.00  0.00    -0.456 OA
BRANCH  17  18
ATOM     18  C   UNL A   1     -29.460   0.005  23.866  0.00  0.00    +0.243 C 
BRANCH  18  19
ATOM     19  C   UNL A   1     -30.065  -1.377  23.573  0.00  0.00    +0.229 C 
ATOM     20  O   UNL A   1     -30.729  -1.878  24.721  0.00  0.00    -0.216 OA
ENDBRANCH  18  19
ENDBRANCH  17  18
ENDBRANCH  10  17
ENDBRANCH   4   6
BRANCH   4  21
ATOM     21  C   UNL A   1     -23.254   1.799  26.040  0.00  0.00    +0.098 C 
BRANCH  21  23
ATOM     22  C   UNL A   1     -21.139   2.059  27.524  0.00  0.00    +0.002 C 
ATOM     23  C   UNL A   1     -21.845   1.329  26.374  0.00  0.00    +0.022 C 
ENDBRANCH  21  23
ENDBRANCH   4  21
ENDBRANCH   1   5
BRANCH   1  24
ATOM     24  C   UNL A   1     -24.855  -1.012  30.143  0.00  0.00    +0.091 C 
BRANCH  24  25
ATOM     25  C   UNL A   1     -24.973  -2.505  29.788  0.00  0.00    -0.017 C 
ATOM     26  C   UNL A   1     -23.906  -3.173  29.146  0.00  0.00    -0.004 C 
ATOM     27  C   UNL A   1     -23.989  -4.549  28.853  0.00  0.00    -0.000 C 
ATOM     28  C   UNL A   1     -25.137  -5.280  29.205  0.00  0.00    -0.000 C 
ATOM     29  C   UNL A   1     -26.232  -4.611  29.784  0.00  0.00    -0.000 C 
ATOM     30  C   UNL A   1     -26.155  -3.232  30.065  0.00  0.00    -0.004 C 
ENDBRANCH  24  25
BRANCH  24  31
ATOM     31  C   UNL A   1     -25.387  -0.679  31.571  0.00  0.00    +0.081 C 
ATOM     32  C   UNL A   1     -25.189   0.773  32.028  0.00  0.00    +0.019 C 
ATOM     33  C   UNL A   1     -25.336   0.684  33.544  0.00  0.00    +0.020 C 
ATOM     34  C   UNL A   1     -24.829  -0.715  33.905  0.00  0.00    +0.089 C 
ATOM     35  N   UNL A   1     -24.758  -1.481  32.646  0.00  0.00    -0.219 NA
ENDBRANCH  24  31
ENDBRANCH   1  24
BRANCH   1  36
ATOM     36  N   UNL A   1     -25.820   1.625  29.745  0.00  0.00    -0.184 NA
BRANCH  36  37
ATOM     37  C   UNL A   1     -26.898   2.498  30.017  0.00  0.00    +0.096 C 
BRANCH  37  40
ATOM     38  O   UNL A   1     -25.221   5.199  32.715  0.00  0.00    -0.349 OA
ATOM     39  C   UNL A   1     -25.734   4.317  31.479  0.00  0.00    +0.038 C 
ATOM     40  C   UNL A   1     -26.943   3.643  30.899  0.00  0.00    +0.042 C 
ATOM     41  C   UNL A   1     -24.449   4.222  31.820  0.00  0.00    +0.143 C 
ATOM     42  C   UNL A   1     -27.863   4.999  32.664  0.00  0.00    +0.001 C 
ATOM     43  C   UNL A   1     -28.095   4.212  31.472  0.00  0.00    -0.027 C 
ATOM     44  C   UNL A   1     -26.563   5.360  33.192  0.00  0.00    +0.168 C 
ENDBRANCH  37  40
ENDBRANCH  36  37
ENDBRANCH   1  36
TORSDOF 14
