REMARK  Name = outputs/IAG933/test6/raw/output_5714_IAG933_linker_design_.xyz
REMARK  16 active torsions:
REMARK  status: ('A' for Active; 'I' for Inactive)
REMARK    1  A    between atoms: C_1  and  C_2
REMARK    2  A    between atoms: C_1  and  C_8
REMARK    3  A    between atoms: C_1  and  C_36
REMARK    4  A    between atoms: C_13  and  C_32
REMARK    5  A    between atoms: C_14  and  C_15
REMARK    6  A    between atoms: C_21  and  O_22
REMARK    7  A    between atoms: O_22  and  C_23
REMARK    8  A    between atoms: C_23  and  C_24
REMARK    9  A    between atoms: N_30  and  C_36
REMARK   10  A    between atoms: C_32  and  C_40
REMARK   11  A    between atoms: C_33  and  C_36
REMARK   12  A    between atoms: C_33  and  C_38
REMARK   13  A    between atoms: C_34  and  O_37
REMARK   14  A    between atoms: C_34  and  C_41
REMARK   15  A    between atoms: C_35  and  C_40
REMARK   16  A    between atoms: C_38  and  C_41
REMARK                            x       y       z     vdW  Elec       q    Type
REMARK                         _______ _______ _______ _____ _____    ______ ____
ROOT
ATOM      1  O   UNL A   1     -22.618   0.160  29.208  0.00  0.00    -0.273 OA
ATOM      2  N   UNL A   1     -24.893   0.823  28.730  0.00  0.00    -0.206 NA
ATOM      3  C   UNL A   1     -23.541   0.700  28.550  0.00  0.00    +0.241 C 
ENDROOT
BRANCH   3   5
ATOM      4  C   UNL A   1     -21.662   1.756  27.037  0.00  0.00    +0.010 C 
ATOM      5  C   UNL A   1     -23.073   1.339  27.247  0.00  0.00    +0.079 C 
BRANCH   5   6
ATOM      6  C   UNL A   1     -24.162   1.430  26.249  0.00  0.00    +0.017 C 
BRANCH   6   7
ATOM      7  C   UNL A   1     -25.688   1.614  26.461  0.00  0.00    +0.071 C 
ATOM      8  C   UNL A   1     -26.250   2.920  26.395  0.00  0.00    +0.055 C 
ATOM      9  C   UNL A   1     -27.438   3.091  25.645  0.00  0.00    +0.102 C 
ATOM     10  N   UNL A   1     -28.075   2.089  25.003  0.00  0.00    -0.212 NA
ATOM     11  C   UNL A   1     -27.543   0.849  25.079  0.00  0.00    +0.234 C 
ATOM     12  C   UNL A   1     -26.354   0.576  25.777  0.00  0.00    +0.240 C 
ATOM     13  F   UNL A   1     -25.860  -0.681  25.795  0.00  0.00    -0.227 F 
BRANCH   8  14
ATOM     14  C   UNL A   1     -25.642   4.093  27.123  0.00  0.00    +0.262 C 
ATOM     15  N   UNL A   1     -25.614   5.252  26.449  0.00  0.00    -0.200 NA
ATOM     16  C   UNL A   1     -25.026   6.479  26.963  0.00  0.00    +0.139 C 
ATOM     17  O   UNL A   1     -25.143   3.966  28.243  0.00  0.00    -0.269 OA
ENDBRANCH   8  14
BRANCH  11  18
ATOM     18  O   UNL A   1     -28.193  -0.208  24.477  0.00  0.00    -0.459 OA
BRANCH  18  19
ATOM     19  C   UNL A   1     -29.460   0.005  23.866  0.00  0.00    +0.242 C 
BRANCH  19  20
ATOM     20  C   UNL A   1     -30.065  -1.377  23.573  0.00  0.00    +0.229 C 
ATOM     21  O   UNL A   1     -30.729  -1.878  24.721  0.00  0.00    -0.216 OA
ENDBRANCH  19  20
ENDBRANCH  18  19
ENDBRANCH  11  18
ENDBRANCH   6   7
ENDBRANCH   5   6
ENDBRANCH   3   5
BRANCH   2  22
ATOM     22  C   UNL A   1     -25.713  -0.309  29.045  0.00  0.00    +0.108 C 
BRANCH  22  23
ATOM     23  C   UNL A   1     -24.855  -1.012  30.143  0.00  0.00    +0.059 C 
BRANCH  23  24
ATOM     24  C   UNL A   1     -24.973  -2.505  29.788  0.00  0.00    -0.019 C 
ATOM     25  C   UNL A   1     -23.906  -3.173  29.146  0.00  0.00    -0.004 C 
ATOM     26  C   UNL A   1     -23.989  -4.549  28.853  0.00  0.00    -0.000 C 
ATOM     27  C   UNL A   1     -25.137  -5.280  29.205  0.00  0.00    -0.000 C 
ATOM     28  C   UNL A   1     -26.232  -4.611  29.784  0.00  0.00    -0.000 C 
ATOM     29  C   UNL A   1     -26.155  -3.232  30.065  0.00  0.00    -0.004 C 
ENDBRANCH  23  24
BRANCH  23  30
ATOM     30  C   UNL A   1     -25.387  -0.679  31.571  0.00  0.00    +0.079 C 
ATOM     31  C   UNL A   1     -25.189   0.773  32.028  0.00  0.00    +0.019 C 
ATOM     32  C   UNL A   1     -25.336   0.684  33.544  0.00  0.00    +0.020 C 
ATOM     33  C   UNL A   1     -24.829  -0.715  33.905  0.00  0.00    +0.089 C 
ATOM     34  N   UNL A   1     -24.758  -1.481  32.646  0.00  0.00    -0.219 NA
ENDBRANCH  23  30
ENDBRANCH  22  23
BRANCH  22  35
ATOM     35  C   UNL A   1     -27.268  -0.061  29.043  0.00  0.00    +0.087 C 
BRANCH  35  36
ATOM     36  C   UNL A   1     -27.915   1.248  29.602  0.00  0.00    +0.155 C 
ATOM     37  O   UNL A   1     -27.804   1.602  30.763  0.00  0.00    -0.296 OA
BRANCH  36  38
ATOM     38  C   UNL A   1     -28.810   2.059  28.698  0.00  0.00    +0.097 C 
BRANCH  38  39
ATOM     39  C   UNL A   1     -28.989   3.480  29.056  0.00  0.00    +0.150 C 
BRANCH  39  41
ATOM     40  C   UNL A   1     -27.222   4.847  30.389  0.00  0.00    +0.174 C 
ATOM     41  O   UNL A   1     -28.013   4.238  29.726  0.00  0.00    -0.351 OA
ENDBRANCH  39  41
ENDBRANCH  38  39
ENDBRANCH  36  38
ENDBRANCH  35  36
ENDBRANCH  22  35
ENDBRANCH   2  22
TORSDOF 16
