REMARK  Name = outputs/IAG933/test6/raw/output_572_IAG933_linker_design_.xyz
REMARK  14 active torsions:
REMARK  status: ('A' for Active; 'I' for Inactive)
REMARK    1  A    between atoms: C_1  and  C_2
REMARK    2  A    between atoms: C_1  and  C_8
REMARK    3  A    between atoms: C_1  and  C_33
REMARK    4  A    between atoms: C_13  and  C_37
REMARK    5  A    between atoms: C_14  and  C_15
REMARK    6  A    between atoms: C_21  and  O_22
REMARK    7  A    between atoms: O_22  and  C_23
REMARK    8  A    between atoms: C_23  and  C_24
REMARK    9  A    between atoms: C_30  and  C_35
REMARK   10  A    between atoms: C_30  and  C_41
REMARK   11  A    between atoms: C_33  and  C_37
REMARK   12  A    between atoms: C_34  and  N_42
REMARK   13  A    between atoms: C_34  and  C_43
REMARK   14  A    between atoms: C_37  and  N_42
REMARK                            x       y       z     vdW  Elec       q    Type
REMARK                         _______ _______ _______ _____ _____    ______ ____
ROOT
ATOM      1  C   UNL A   1     -25.495   0.051  28.971  0.00  0.00    +0.012 C 
ATOM      2  C   UNL A   1     -28.645   0.303  29.342  0.00  0.00    +0.024 C 
ATOM      3  C   UNL A   1     -27.099   0.091  29.127  0.00  0.00    -0.112 C 
ENDROOT
BRANCH   1   4
ATOM      4  C   UNL A   1     -24.855  -1.012  30.143  0.00  0.00    +0.065 C 
BRANCH   4   5
ATOM      5  C   UNL A   1     -24.973  -2.505  29.788  0.00  0.00    -0.017 C 
ATOM      6  C   UNL A   1     -23.906  -3.173  29.146  0.00  0.00    -0.004 C 
ATOM      7  C   UNL A   1     -23.989  -4.549  28.853  0.00  0.00    -0.000 C 
ATOM      8  C   UNL A   1     -25.137  -5.280  29.205  0.00  0.00    -0.000 C 
ATOM      9  C   UNL A   1     -26.232  -4.611  29.784  0.00  0.00    -0.000 C 
ATOM     10  C   UNL A   1     -26.155  -3.232  30.065  0.00  0.00    -0.004 C 
ENDBRANCH   4   5
BRANCH   4  11
ATOM     11  C   UNL A   1     -25.387  -0.679  31.571  0.00  0.00    +0.081 C 
ATOM     12  C   UNL A   1     -25.189   0.773  32.028  0.00  0.00    +0.019 C 
ATOM     13  C   UNL A   1     -25.336   0.684  33.544  0.00  0.00    +0.020 C 
ATOM     14  C   UNL A   1     -24.829  -0.715  33.905  0.00  0.00    +0.089 C 
ATOM     15  N   UNL A   1     -24.758  -1.481  32.646  0.00  0.00    -0.219 NA
ENDBRANCH   4  11
ENDBRANCH   1   4
BRANCH   2  16
ATOM     16  C   UNL A   1     -29.041   0.860  30.716  0.00  0.00    +0.120 C 
BRANCH  16  23
ATOM     17  C   UNL A   1     -27.183   3.210  32.498  0.00  0.00    +0.140 C 
ATOM     18  C   UNL A   1     -27.110   4.300  30.605  0.00  0.00    +0.314 C 
ATOM     19  O   UNL A   1     -26.085   4.697  31.297  0.00  0.00    -0.430 OA
ATOM     20  O   UNL A   1     -29.325   2.827  29.619  0.00  0.00    -0.274 OA
ATOM     21  N   UNL A   1     -27.738   3.293  31.234  0.00  0.00    -0.214 N 
ATOM     22  C   UNL A   1     -26.128   4.000  32.500  0.00  0.00    +0.300 C 
ATOM     23  C   UNL A   1     -28.730   2.411  30.521  0.00  0.00    +0.237 C 
ATOM     24  F   UNL A   1     -25.104   4.170  33.374  0.00  0.00    -0.162 F 
ENDBRANCH  16  23
ENDBRANCH   2  16
BRANCH   1  25
ATOM     25  C   UNL A   1     -24.908   1.259  27.791  0.00  0.00    +0.120 C 
BRANCH  25  26
ATOM     26  C   UNL A   1     -25.688   1.614  26.461  0.00  0.00    +0.092 C 
ATOM     27  C   UNL A   1     -26.250   2.920  26.395  0.00  0.00    +0.057 C 
ATOM     28  C   UNL A   1     -27.438   3.091  25.645  0.00  0.00    +0.102 C 
ATOM     29  N   UNL A   1     -28.075   2.089  25.003  0.00  0.00    -0.212 NA
ATOM     30  C   UNL A   1     -27.543   0.849  25.079  0.00  0.00    +0.234 C 
ATOM     31  C   UNL A   1     -26.354   0.576  25.777  0.00  0.00    +0.242 C 
ATOM     32  F   UNL A   1     -25.860  -0.681  25.795  0.00  0.00    -0.227 F 
BRANCH  27  33
ATOM     33  C   UNL A   1     -25.642   4.093  27.123  0.00  0.00    +0.263 C 
ATOM     34  N   UNL A   1     -25.614   5.252  26.449  0.00  0.00    -0.200 NA
ATOM     35  C   UNL A   1     -25.026   6.479  26.963  0.00  0.00    +0.139 C 
ATOM     36  O   UNL A   1     -25.143   3.966  28.243  0.00  0.00    -0.269 OA
ENDBRANCH  27  33
BRANCH  30  37
ATOM     37  O   UNL A   1     -28.193  -0.208  24.477  0.00  0.00    -0.459 OA
BRANCH  37  38
ATOM     38  C   UNL A   1     -29.460   0.005  23.866  0.00  0.00    +0.242 C 
BRANCH  38  39
ATOM     39  C   UNL A   1     -30.065  -1.377  23.573  0.00  0.00    +0.229 C 
ATOM     40  O   UNL A   1     -30.729  -1.878  24.721  0.00  0.00    -0.216 OA
ENDBRANCH  38  39
ENDBRANCH  37  38
ENDBRANCH  30  37
ENDBRANCH  25  26
BRANCH  25  41
ATOM     41  N   UNL A   1     -23.538   1.441  27.252  0.00  0.00    -0.131 NA
ATOM     42  O   UNL A   1     -23.331   2.378  26.251  0.00  0.00    -0.118 OA
BRANCH  41  44
ATOM     43  C   UNL A   1     -21.203   1.584  27.898  0.00  0.00    +0.020 C 
ATOM     44  C   UNL A   1     -22.443   0.668  27.811  0.00  0.00    +0.087 C 
BRANCH  44  46
ATOM     45  C   UNL A   1     -23.114   1.618  29.997  0.00  0.00    +0.002 C 
ATOM     46  C   UNL A   1     -22.708   0.263  29.320  0.00  0.00    +0.018 C 
ENDBRANCH  44  46
ENDBRANCH  41  44
ENDBRANCH  25  41
ENDBRANCH   1  25
TORSDOF 14
