REMARK  Name = outputs/IAG933/test6/raw/output_5721_IAG933_linker_design_.xyz
REMARK  13 active torsions:
REMARK  status: ('A' for Active; 'I' for Inactive)
REMARK    1  A    between atoms: C_1  and  C_2
REMARK    2  A    between atoms: C_1  and  C_8
REMARK    3  A    between atoms: C_1  and  N_39
REMARK    4  A    between atoms: C_13  and  N_35
REMARK    5  A    between atoms: C_14  and  C_15
REMARK    6  A    between atoms: C_21  and  O_22
REMARK    7  A    between atoms: O_22  and  C_23
REMARK    8  A    between atoms: C_23  and  C_24
REMARK    9  A    between atoms: C_28  and  N_39
REMARK   10  A    between atoms: C_30  and  C_36
REMARK   11  A    between atoms: C_31  and  N_35
REMARK   12  A    between atoms: C_34  and  C_37
REMARK   13  A    between atoms: C_36  and  N_39
REMARK                            x       y       z     vdW  Elec       q    Type
REMARK                         _______ _______ _______ _____ _____    ______ ____
ROOT
ATOM      1  C   UNL A   1     -23.549   0.440  28.705  0.00  0.00    +0.340 C 
ATOM      2  C   UNL A   1     -23.747   1.142  27.527  0.00  0.00    +0.158 C 
ATOM      3  C   UNL A   1     -21.383   1.540  27.345  0.00  0.00    +0.058 C 
ATOM      4  N   UNL A   1     -22.236   0.191  29.137  0.00  0.00    -0.035 NA
ATOM      5  C   UNL A   1     -22.640   1.587  26.826  0.00  0.00    +0.094 C 
ATOM      6  C   UNL A   1     -21.181   0.832  28.518  0.00  0.00    +0.236 C 
ENDROOT
BRANCH   5   8
ATOM      7  O   UNL A   1     -23.873   1.707  24.661  0.00  0.00    -0.254 OA
ATOM      8  C   UNL A   1     -23.042   2.017  25.402  0.00  0.00    +0.335 C 
ATOM      9  F   UNL A   1     -22.058   2.817  24.948  0.00  0.00    -0.159 F 
ENDBRANCH   5   8
BRANCH   2  10
ATOM     10  N   UNL A   1     -24.714   1.234  27.326  0.00  0.00    -0.202 NA
BRANCH  10  11
ATOM     11  C   UNL A   1     -25.688   1.614  26.461  0.00  0.00    +0.109 C 
ATOM     12  C   UNL A   1     -26.250   2.920  26.395  0.00  0.00    +0.092 C 
ATOM     13  C   UNL A   1     -27.438   3.091  25.645  0.00  0.00    +0.108 C 
ATOM     14  N   UNL A   1     -28.075   2.089  25.003  0.00  0.00    -0.208 NA
ATOM     15  C   UNL A   1     -27.543   0.849  25.079  0.00  0.00    +0.255 C 
ATOM     16  C   UNL A   1     -26.354   0.576  25.777  0.00  0.00    +0.208 C 
ATOM     17  F   UNL A   1     -25.860  -0.681  25.795  0.00  0.00    -0.198 F 
BRANCH  12  18
ATOM     18  C   UNL A   1     -25.642   4.093  27.123  0.00  0.00    +0.268 C 
ATOM     19  N   UNL A   1     -25.614   5.252  26.449  0.00  0.00    -0.200 NA
ATOM     20  C   UNL A   1     -25.026   6.479  26.963  0.00  0.00    +0.139 C 
ATOM     21  O   UNL A   1     -25.143   3.966  28.243  0.00  0.00    -0.268 OA
ENDBRANCH  12  18
BRANCH  15  22
ATOM     22  O   UNL A   1     -28.193  -0.208  24.477  0.00  0.00    -0.456 OA
BRANCH  22  23
ATOM     23  C   UNL A   1     -29.460   0.005  23.866  0.00  0.00    +0.243 C 
BRANCH  23  24
ATOM     24  C   UNL A   1     -30.065  -1.377  23.573  0.00  0.00    +0.229 C 
ATOM     25  O   UNL A   1     -30.729  -1.878  24.721  0.00  0.00    -0.216 OA
ENDBRANCH  23  24
ENDBRANCH  22  23
ENDBRANCH  15  22
ENDBRANCH  10  11
ENDBRANCH   2  10
BRANCH   1  26
ATOM     26  N   UNL A   1     -24.807   0.026  29.251  0.00  0.00    -0.181 N 
BRANCH  26  27
ATOM     27  C   UNL A   1     -24.855  -1.012  30.143  0.00  0.00    +0.199 C 
BRANCH  27  28
ATOM     28  C   UNL A   1     -24.973  -2.505  29.788  0.00  0.00    +0.021 C 
ATOM     29  C   UNL A   1     -23.906  -3.173  29.146  0.00  0.00    -0.000 C 
ATOM     30  C   UNL A   1     -23.989  -4.549  28.853  0.00  0.00    -0.000 C 
ATOM     31  C   UNL A   1     -25.137  -5.280  29.205  0.00  0.00    -0.000 C 
ATOM     32  C   UNL A   1     -26.232  -4.611  29.784  0.00  0.00    -0.000 C 
ATOM     33  C   UNL A   1     -26.155  -3.232  30.065  0.00  0.00    -0.000 C 
ENDBRANCH  27  28
BRANCH  27  34
ATOM     34  C   UNL A   1     -25.387  -0.679  31.571  0.00  0.00    +0.120 C 
ATOM     35  C   UNL A   1     -25.189   0.773  32.028  0.00  0.00    +0.023 C 
ATOM     36  C   UNL A   1     -25.336   0.684  33.544  0.00  0.00    +0.020 C 
ATOM     37  C   UNL A   1     -24.829  -0.715  33.905  0.00  0.00    +0.089 C 
ATOM     38  N   UNL A   1     -24.758  -1.481  32.646  0.00  0.00    -0.215 NA
ENDBRANCH  27  34
ENDBRANCH  26  27
BRANCH  26  39
ATOM     39  C   UNL A   1     -26.064   0.660  29.035  0.00  0.00    +0.275 C 
BRANCH  39  40
ATOM     40  C   UNL A   1     -27.316  -0.113  29.090  0.00  0.00    +0.259 C 
ATOM     41  O   UNL A   1     -27.975  -0.994  28.438  0.00  0.00    -0.284 OA
ENDBRANCH  39  40
ENDBRANCH  26  39
ENDBRANCH   1  26
TORSDOF 13
