REMARK  Name = outputs/IAG933/test6/raw/output_5723_IAG933_linker_design_.xyz
REMARK  13 active torsions:
REMARK  status: ('A' for Active; 'I' for Inactive)
REMARK    1  A    between atoms: C_1  and  C_2
REMARK    2  A    between atoms: C_1  and  C_8
REMARK    3  A    between atoms: C_1  and  C_31
REMARK    4  A    between atoms: C_13  and  C_34
REMARK    5  A    between atoms: C_14  and  C_15
REMARK    6  A    between atoms: C_21  and  O_22
REMARK    7  A    between atoms: O_22  and  C_23
REMARK    8  A    between atoms: C_23  and  C_24
REMARK    9  A    between atoms: C_31  and  C_34
REMARK   10  A    between atoms: C_31  and  C_39
REMARK   11  A    between atoms: N_33  and  C_34
REMARK   12  A    between atoms: O_36  and  C_37
REMARK   13  A    between atoms: C_41  and  N_42
REMARK                            x       y       z     vdW  Elec       q    Type
REMARK                         _______ _______ _______ _____ _____    ______ ____
ROOT
ATOM      1  C   UNL A   1     -25.034   0.116  28.999  0.00  0.00    +0.104 C 
ENDROOT
BRANCH   1   2
ATOM      2  C   UNL A   1     -26.605   0.326  28.913  0.00  0.00    +0.245 C 
ATOM      3  N   UNL A   1     -27.046   1.611  28.968  0.00  0.00    -0.176 NA
ATOM      4  O   UNL A   1     -27.313  -0.581  28.784  0.00  0.00    -0.273 OA
BRANCH   3   8
ATOM      5  O   UNL A   1     -28.131   1.154  30.982  0.00  0.00    -0.201 OA
ATOM      6  C   UNL A   1     -29.321   2.728  29.636  0.00  0.00    +0.167 C 
ATOM      7  C   UNL A   1     -28.149   3.460  30.103  0.00  0.00    +0.088 C 
ATOM      8  C   UNL A   1     -28.120   1.973  29.984  0.00  0.00    +0.231 C 
BRANCH   6  10
ATOM      9  C   UNL A   1     -30.660   4.483  30.704  0.00  0.00    +0.174 C 
ATOM     10  O   UNL A   1     -30.292   3.124  30.678  0.00  0.00    -0.349 OA
ENDBRANCH   6  10
ENDBRANCH   3   8
ENDBRANCH   1   2
BRANCH   1  11
ATOM     11  C   UNL A   1     -24.855  -1.012  30.143  0.00  0.00    +0.049 C 
BRANCH  11  12
ATOM     12  C   UNL A   1     -24.973  -2.505  29.788  0.00  0.00    -0.021 C 
ATOM     13  C   UNL A   1     -23.906  -3.173  29.146  0.00  0.00    -0.004 C 
ATOM     14  C   UNL A   1     -23.989  -4.549  28.853  0.00  0.00    -0.000 C 
ATOM     15  C   UNL A   1     -25.137  -5.280  29.205  0.00  0.00    -0.000 C 
ATOM     16  C   UNL A   1     -26.232  -4.611  29.784  0.00  0.00    -0.000 C 
ATOM     17  C   UNL A   1     -26.155  -3.232  30.065  0.00  0.00    -0.004 C 
ENDBRANCH  11  12
BRANCH  11  18
ATOM     18  C   UNL A   1     -25.387  -0.679  31.571  0.00  0.00    +0.077 C 
ATOM     19  C   UNL A   1     -25.189   0.773  32.028  0.00  0.00    +0.019 C 
ATOM     20  C   UNL A   1     -25.336   0.684  33.544  0.00  0.00    +0.020 C 
ATOM     21  C   UNL A   1     -24.829  -0.715  33.905  0.00  0.00    +0.089 C 
ATOM     22  N   UNL A   1     -24.758  -1.481  32.646  0.00  0.00    -0.219 NA
ENDBRANCH  11  18
ENDBRANCH   1  11
BRANCH   1  23
ATOM     23  C   UNL A   1     -24.667   1.127  27.599  0.00  0.00    +0.110 C 
BRANCH  23  24
ATOM     24  C   UNL A   1     -25.688   1.614  26.461  0.00  0.00    +0.090 C 
ATOM     25  C   UNL A   1     -26.250   2.920  26.395  0.00  0.00    +0.057 C 
ATOM     26  C   UNL A   1     -27.438   3.091  25.645  0.00  0.00    +0.102 C 
ATOM     27  N   UNL A   1     -28.075   2.089  25.003  0.00  0.00    -0.212 NA
ATOM     28  C   UNL A   1     -27.543   0.849  25.079  0.00  0.00    +0.234 C 
ATOM     29  C   UNL A   1     -26.354   0.576  25.777  0.00  0.00    +0.242 C 
ATOM     30  F   UNL A   1     -25.860  -0.681  25.795  0.00  0.00    -0.227 F 
BRANCH  25  31
ATOM     31  C   UNL A   1     -25.642   4.093  27.123  0.00  0.00    +0.263 C 
ATOM     32  N   UNL A   1     -25.614   5.252  26.449  0.00  0.00    -0.200 NA
ATOM     33  C   UNL A   1     -25.026   6.479  26.963  0.00  0.00    +0.139 C 
ATOM     34  O   UNL A   1     -25.143   3.966  28.243  0.00  0.00    -0.269 OA
ENDBRANCH  25  31
BRANCH  28  35
ATOM     35  O   UNL A   1     -28.193  -0.208  24.477  0.00  0.00    -0.459 OA
BRANCH  35  36
ATOM     36  C   UNL A   1     -29.460   0.005  23.866  0.00  0.00    +0.242 C 
BRANCH  36  37
ATOM     37  C   UNL A   1     -30.065  -1.377  23.573  0.00  0.00    +0.229 C 
ATOM     38  O   UNL A   1     -30.729  -1.878  24.721  0.00  0.00    -0.216 OA
ENDBRANCH  36  37
ENDBRANCH  35  36
ENDBRANCH  28  35
ENDBRANCH  23  24
BRANCH  23  42
ATOM     39  N   UNL A   1     -21.168   1.320  28.088  0.00  0.00    -0.068 NA
ATOM     40  C   UNL A   1     -22.349   0.631  28.239  0.00  0.00    +0.356 C 
ATOM     41  O   UNL A   1     -22.277  -0.310  29.065  0.00  0.00    -0.248 OA
ATOM     42  N   UNL A   1     -23.496   1.107  27.476  0.00  0.00    -0.185 N 
ATOM     43 CL   UNL A   1     -22.801   1.957  25.996  0.00  0.00    +0.006 Cl
ENDBRANCH  23  42
ENDBRANCH   1  23
TORSDOF 13
