MODEL 572
MODEL 1
REMARK VINA RESULT:    -6.797      0.000      0.000
REMARK INTER + INTRA:          -6.797
REMARK INTER:                  -6.797
REMARK INTRA:                   0.000
REMARK UNBOUND:                 0.000
REMARK  Name = No_572-gen_results/8p0m/2024-11-27-11-27-31/
REMARK  0 active torsions:
REMARK  status: ('A' for Active; 'I' for Inactive)
REMARK                            x       y       z     vdW  Elec       q    Type
REMARK                         _______ _______ _______ _____ _____    ______ ____
ROOT
ATOM      1  C   UNL A   1     -22.675   0.494  28.554  0.00  0.00    -0.004 A 
ATOM      2  C   UNL A   1     -23.064   1.463  28.410  0.00  0.00    -0.000 A 
ATOM      3  C   UNL A   1     -23.593  -0.568  28.708  0.00  0.00    -0.015 A 
ATOM      4  C   UNL A   1     -24.959  -0.363  28.687  0.00  0.00    +0.035 A 
ATOM      5  C   UNL A   1     -25.384   0.940  28.485  0.00  0.00    +0.003 A 
ATOM      6  C   UNL A   1     -24.451   1.939  28.303  0.00  0.00    +0.000 A 
ATOM      7  C   UNL A   1     -23.177  -1.996  28.898  0.00  0.00    +0.053 C 
ATOM      8  C   UNL A   1     -24.170  -2.933  29.232  0.00  0.00    -0.015 A 
ATOM      9  C   UNL A   1     -24.038  -4.208  28.976  0.00  0.00    -0.004 A 
ATOM     10  C   UNL A   1     -25.219  -5.129  29.177  0.00  0.00    -0.000 A 
ATOM     11  C   UNL A   1     -26.435  -4.543  29.666  0.00  0.00    +0.000 A 
ATOM     12  C   UNL A   1     -26.474  -3.225  29.968  0.00  0.00    +0.003 A 
ATOM     13  C   UNL A   1     -25.414  -2.370  29.660  0.00  0.00    +0.035 A 
ATOM     14  C   UNL A   1     -25.860  -1.329  29.162  0.00  0.00    +0.195 C 
ATOM     15  O   UNL A   1     -27.179  -0.878  29.216  0.00  0.00    -0.287 OA
ENDROOT
TORSDOF 0
ENDMDL
ENDMDL
