REMARK  Name = outputs/IAG933/test6/raw/output_573_IAG933_linker_design_.xyz
REMARK  12 active torsions:
REMARK  status: ('A' for Active; 'I' for Inactive)
REMARK    1  A    between atoms: C_1  and  C_2
REMARK    2  A    between atoms: C_1  and  C_8
REMARK    3  A    between atoms: C_1  and  C_43
REMARK    4  A    between atoms: C_13  and  C_28
REMARK    5  A    between atoms: C_14  and  C_15
REMARK    6  A    between atoms: C_21  and  O_22
REMARK    7  A    between atoms: O_22  and  C_23
REMARK    8  A    between atoms: C_23  and  C_24
REMARK    9  A    between atoms: N_33  and  C_42
REMARK   10  A    between atoms: C_36  and  C_39
REMARK   11  A    between atoms: C_36  and  C_42
REMARK   12  A    between atoms: C_41  and  C_43
REMARK                            x       y       z     vdW  Elec       q    Type
REMARK                         _______ _______ _______ _____ _____    ______ ____
ROOT
ATOM      1  N   UNL A   1     -26.068   0.191  28.611  0.00  0.00    -0.183 NA
ATOM      2  C   UNL A   1     -24.925  -0.061  29.055  0.00  0.00    +0.056 C 
ENDROOT
BRANCH   2   7
ATOM      3  C   UNL A   1     -24.197   1.335  27.110  0.00  0.00    +0.004 C 
ATOM      4  C   UNL A   1     -23.102   1.899  26.429  0.00  0.00    +0.000 C 
ATOM      5  C   UNL A   1     -22.540   0.404  28.880  0.00  0.00    +0.001 C 
ATOM      6  C   UNL A   1     -21.788   1.756  26.975  0.00  0.00    +0.000 C 
ATOM      7  C   UNL A   1     -23.896   0.567  28.373  0.00  0.00    +0.012 C 
ATOM      8  C   UNL A   1     -21.488   1.021  28.143  0.00  0.00    +0.000 C 
BRANCH   3   9
ATOM      9  C   UNL A   1     -25.688   1.614  26.461  0.00  0.00    +0.038 C 
ATOM     10  C   UNL A   1     -26.250   2.920  26.395  0.00  0.00    +0.076 C 
ATOM     11  C   UNL A   1     -27.438   3.091  25.645  0.00  0.00    +0.107 C 
ATOM     12  N   UNL A   1     -28.075   2.089  25.003  0.00  0.00    -0.208 NA
ATOM     13  C   UNL A   1     -27.543   0.849  25.079  0.00  0.00    +0.253 C 
ATOM     14  C   UNL A   1     -26.354   0.576  25.777  0.00  0.00    +0.193 C 
ATOM     15  F   UNL A   1     -25.860  -0.681  25.795  0.00  0.00    -0.199 F 
BRANCH  10  16
ATOM     16  C   UNL A   1     -25.642   4.093  27.123  0.00  0.00    +0.266 C 
ATOM     17  N   UNL A   1     -25.614   5.252  26.449  0.00  0.00    -0.200 NA
ATOM     18  C   UNL A   1     -25.026   6.479  26.963  0.00  0.00    +0.139 C 
ATOM     19  O   UNL A   1     -25.143   3.966  28.243  0.00  0.00    -0.268 OA
ENDBRANCH  10  16
BRANCH  13  20
ATOM     20  O   UNL A   1     -28.193  -0.208  24.477  0.00  0.00    -0.456 OA
BRANCH  20  21
ATOM     21  C   UNL A   1     -29.460   0.005  23.866  0.00  0.00    +0.243 C 
BRANCH  21  22
ATOM     22  C   UNL A   1     -30.065  -1.377  23.573  0.00  0.00    +0.229 C 
ATOM     23  O   UNL A   1     -30.729  -1.878  24.721  0.00  0.00    -0.216 OA
ENDBRANCH  21  22
ENDBRANCH  20  21
ENDBRANCH  13  20
ENDBRANCH   3   9
ENDBRANCH   2   7
BRANCH   1  25
ATOM     24  O   UNL A   1     -27.459  -1.386  29.215  0.00  0.00    -0.273 OA
ATOM     25  C   UNL A   1     -27.261  -0.037  28.979  0.00  0.00    +0.250 C 
BRANCH  25  26
ATOM     26  C   UNL A   1     -28.199   0.889  29.282  0.00  0.00    +0.113 C 
BRANCH  26  31
ATOM     27  C   UNL A   1     -31.945  -0.537  27.475  0.00  0.00    -0.000 C 
ATOM     28  C   UNL A   1     -29.982   0.948  27.566  0.00  0.00    -0.004 C 
ATOM     29  C   UNL A   1     -29.814  -2.185  30.169  0.00  0.00    +0.031 C 
ATOM     30  C   UNL A   1     -31.214   0.529  26.948  0.00  0.00    -0.000 C 
ATOM     31  C   UNL A   1     -29.445   0.284  28.680  0.00  0.00    -0.017 C 
ATOM     32  C   UNL A   1     -30.141  -1.042  29.093  0.00  0.00    -0.025 C 
ATOM     33  C   UNL A   1     -31.356  -1.322  28.476  0.00  0.00    -0.005 C 
ENDBRANCH  26  31
ENDBRANCH  25  26
ENDBRANCH   1  25
BRANCH   2  34
ATOM     34  C   UNL A   1     -24.855  -1.012  30.143  0.00  0.00    +0.076 C 
BRANCH  34  35
ATOM     35  C   UNL A   1     -24.973  -2.505  29.788  0.00  0.00    -0.016 C 
ATOM     36  C   UNL A   1     -23.906  -3.173  29.146  0.00  0.00    -0.004 C 
ATOM     37  C   UNL A   1     -23.989  -4.549  28.853  0.00  0.00    -0.000 C 
ATOM     38  C   UNL A   1     -25.137  -5.280  29.205  0.00  0.00    -0.000 C 
ATOM     39  C   UNL A   1     -26.232  -4.611  29.784  0.00  0.00    -0.000 C 
ATOM     40  C   UNL A   1     -26.155  -3.232  30.065  0.00  0.00    -0.004 C 
ENDBRANCH  34  35
BRANCH  34  41
ATOM     41  C   UNL A   1     -25.387  -0.679  31.571  0.00  0.00    +0.082 C 
ATOM     42  C   UNL A   1     -25.189   0.773  32.028  0.00  0.00    +0.020 C 
ATOM     43  C   UNL A   1     -25.336   0.684  33.544  0.00  0.00    +0.020 C 
ATOM     44  C   UNL A   1     -24.829  -0.715  33.905  0.00  0.00    +0.089 C 
ATOM     45  N   UNL A   1     -24.758  -1.481  32.646  0.00  0.00    -0.219 NA
ENDBRANCH  34  41
ENDBRANCH   2  34
TORSDOF 12
