REMARK  Name = outputs/IAG933/test6/raw/output_5730_IAG933_linker_design_.xyz
REMARK  16 active torsions:
REMARK  status: ('A' for Active; 'I' for Inactive)
REMARK    1  A    between atoms: C_1  and  C_2
REMARK    2  A    between atoms: C_1  and  C_8
REMARK    3  A    between atoms: C_1  and  N_36
REMARK    4  A    between atoms: C_13  and  C_38
REMARK    5  A    between atoms: C_14  and  C_15
REMARK    6  A    between atoms: C_21  and  O_22
REMARK    7  A    between atoms: O_22  and  C_23
REMARK    8  A    between atoms: C_23  and  C_24
REMARK    9  A    between atoms: C_29  and  C_33
REMARK   10  A    between atoms: C_29  and  N_36
REMARK   11  A    between atoms: C_30  and  C_32
REMARK   12  A    between atoms: C_30  and  O_37
REMARK   13  A    between atoms: C_30  and  N_39
REMARK   14  A    between atoms: C_32  and  C_38
REMARK   15  A    between atoms: O_34  and  N_36
REMARK   16  A    between atoms: O_34  and  C_38
REMARK                            x       y       z     vdW  Elec       q    Type
REMARK                         _______ _______ _______ _____ _____    ______ ____
ROOT
ATOM      1  C   UNL A   1     -24.867   1.285  27.546  0.00  0.00    +0.149 C 
ENDROOT
BRANCH   1   2
ATOM      2  C   UNL A   1     -25.688   1.614  26.461  0.00  0.00    +0.099 C 
ATOM      3  C   UNL A   1     -26.250   2.920  26.395  0.00  0.00    +0.057 C 
ATOM      4  C   UNL A   1     -27.438   3.091  25.645  0.00  0.00    +0.102 C 
ATOM      5  N   UNL A   1     -28.075   2.089  25.003  0.00  0.00    -0.212 NA
ATOM      6  C   UNL A   1     -27.543   0.849  25.079  0.00  0.00    +0.234 C 
ATOM      7  C   UNL A   1     -26.354   0.576  25.777  0.00  0.00    +0.242 C 
ATOM      8  F   UNL A   1     -25.860  -0.681  25.795  0.00  0.00    -0.227 F 
BRANCH   3   9
ATOM      9  C   UNL A   1     -25.642   4.093  27.123  0.00  0.00    +0.263 C 
ATOM     10  N   UNL A   1     -25.614   5.252  26.449  0.00  0.00    -0.200 NA
ATOM     11  C   UNL A   1     -25.026   6.479  26.963  0.00  0.00    +0.139 C 
ATOM     12  O   UNL A   1     -25.143   3.966  28.243  0.00  0.00    -0.269 OA
ENDBRANCH   3   9
BRANCH   6  13
ATOM     13  O   UNL A   1     -28.193  -0.208  24.477  0.00  0.00    -0.459 OA
BRANCH  13  14
ATOM     14  C   UNL A   1     -29.460   0.005  23.866  0.00  0.00    +0.242 C 
BRANCH  14  15
ATOM     15  C   UNL A   1     -30.065  -1.377  23.573  0.00  0.00    +0.229 C 
ATOM     16  O   UNL A   1     -30.729  -1.878  24.721  0.00  0.00    -0.216 OA
ENDBRANCH  14  15
ENDBRANCH  13  14
ENDBRANCH   6  13
ENDBRANCH   1   2
BRANCH   1  17
ATOM     17  C   UNL A   1     -23.512   1.184  27.286  0.00  0.00    +0.084 C 
BRANCH  17  18
ATOM     18  C   UNL A   1     -22.649   1.654  26.553  0.00  0.00    +0.234 C 
BRANCH  18  20
ATOM     19  C   UNL A   1     -20.729   1.236  27.882  0.00  0.00    +0.110 C 
ATOM     20  N   UNL A   1     -21.334   1.873  26.842  0.00  0.00    -0.187 NA
ENDBRANCH  18  20
BRANCH  18  22
ATOM     21  F   UNL A   1     -23.614   2.928  25.194  0.00  0.00    -0.045 F 
ATOM     22  O   UNL A   1     -23.337   1.780  25.576  0.00  0.00    -0.164 OA
ENDBRANCH  18  22
ENDBRANCH  17  18
ENDBRANCH   1  17
BRANCH   1  23
ATOM     23  O   UNL A   1     -25.019   0.411  28.481  0.00  0.00    -0.284 OA
BRANCH  23  24
ATOM     24  N   UNL A   1     -24.043  -0.211  29.212  0.00  0.00    -0.162 NA
BRANCH  24  25
ATOM     25  C   UNL A   1     -24.855  -1.012  30.143  0.00  0.00    +0.122 C 
BRANCH  25  26
ATOM     26  C   UNL A   1     -24.973  -2.505  29.788  0.00  0.00    -0.004 C 
ATOM     27  C   UNL A   1     -23.906  -3.173  29.146  0.00  0.00    -0.003 C 
ATOM     28  C   UNL A   1     -23.989  -4.549  28.853  0.00  0.00    -0.000 C 
ATOM     29  C   UNL A   1     -25.137  -5.280  29.205  0.00  0.00    -0.000 C 
ATOM     30  C   UNL A   1     -26.232  -4.611  29.784  0.00  0.00    -0.000 C 
ATOM     31  C   UNL A   1     -26.155  -3.232  30.065  0.00  0.00    -0.003 C 
ENDBRANCH  25  26
BRANCH  25  32
ATOM     32  C   UNL A   1     -25.387  -0.679  31.571  0.00  0.00    +0.094 C 
ATOM     33  C   UNL A   1     -25.189   0.773  32.028  0.00  0.00    +0.021 C 
ATOM     34  C   UNL A   1     -25.336   0.684  33.544  0.00  0.00    +0.020 C 
ATOM     35  C   UNL A   1     -24.829  -0.715  33.905  0.00  0.00    +0.089 C 
ATOM     36  N   UNL A   1     -24.758  -1.481  32.646  0.00  0.00    -0.218 NA
ENDBRANCH  25  32
ENDBRANCH  24  25
BRANCH  24  37
ATOM     37  C   UNL A   1     -22.482  -0.361  29.008  0.00  0.00    +0.101 C 
BRANCH  37  39
ATOM     38  C   UNL A   1     -21.440   0.159  28.679  0.00  0.00    +0.002 C 
ATOM     39  C   UNL A   1     -21.821  -0.522  29.328  0.00  0.00    +0.020 C 
ENDBRANCH  37  39
ENDBRANCH  24  37
ENDBRANCH  23  24
ENDBRANCH   1  23
TORSDOF 16
