REMARK  Name = outputs/IAG933/test6/raw/output_5732_IAG933_linker_design_.xyz
REMARK  9 active torsions:
REMARK  status: ('A' for Active; 'I' for Inactive)
REMARK    1  A    between atoms: C_1  and  C_2
REMARK    2  A    between atoms: C_1  and  C_8
REMARK    3  A    between atoms: C_1  and  C_28
REMARK    4  A    between atoms: C_13  and  N_33
REMARK    5  A    between atoms: C_14  and  C_15
REMARK    6  A    between atoms: C_21  and  O_22
REMARK    7  A    between atoms: O_22  and  C_23
REMARK    8  A    between atoms: C_23  and  C_24
REMARK    9  A    between atoms: C_28  and  C_39
REMARK                            x       y       z     vdW  Elec       q    Type
REMARK                         _______ _______ _______ _____ _____    ______ ____
ROOT
ATOM      1  F   UNL A   1     -20.606   2.407  27.412  0.00  0.00    -0.198 F 
ATOM      2  F   UNL A   1     -22.591   3.033  25.485  0.00  0.00    -0.195 F 
ATOM      3  C   UNL A   1     -21.755   1.790  27.354  0.00  0.00    +0.220 C 
ATOM      4  C   UNL A   1     -22.200   1.147  28.541  0.00  0.00    +0.268 C 
ATOM      5  N   UNL A   1     -24.499   1.096  26.995  0.00  0.00    -0.119 N 
ATOM      6  N   UNL A   1     -23.301   0.972  29.155  0.00  0.00    -0.030 NA
ATOM      7  C   UNL A   1     -22.505   1.850  26.139  0.00  0.00    +0.237 C 
ATOM      8  C   UNL A   1     -23.484   0.900  25.864  0.00  0.00    +0.315 C 
ATOM      9  F   UNL A   1     -23.928   0.393  24.768  0.00  0.00    -0.157 F 
ATOM     10  C   UNL A   1     -24.330   0.752  28.392  0.00  0.00    +0.369 C 
ENDROOT
BRANCH   5  11
ATOM     11  C   UNL A   1     -25.688   1.614  26.461  0.00  0.00    +0.183 C 
ATOM     12  C   UNL A   1     -26.250   2.920  26.395  0.00  0.00    +0.114 C 
ATOM     13  C   UNL A   1     -27.438   3.091  25.645  0.00  0.00    +0.110 C 
ATOM     14  N   UNL A   1     -28.075   2.089  25.003  0.00  0.00    -0.208 NA
ATOM     15  C   UNL A   1     -27.543   0.849  25.079  0.00  0.00    +0.257 C 
ATOM     16  C   UNL A   1     -26.354   0.576  25.777  0.00  0.00    +0.230 C 
ATOM     17  F   UNL A   1     -25.860  -0.681  25.795  0.00  0.00    -0.196 F 
BRANCH  12  18
ATOM     18  C   UNL A   1     -25.642   4.093  27.123  0.00  0.00    +0.270 C 
ATOM     19  N   UNL A   1     -25.614   5.252  26.449  0.00  0.00    -0.200 NA
ATOM     20  C   UNL A   1     -25.026   6.479  26.963  0.00  0.00    +0.139 C 
ATOM     21  O   UNL A   1     -25.143   3.966  28.243  0.00  0.00    -0.268 OA
ENDBRANCH  12  18
BRANCH  15  22
ATOM     22  O   UNL A   1     -28.193  -0.208  24.477  0.00  0.00    -0.456 OA
BRANCH  22  23
ATOM     23  C   UNL A   1     -29.460   0.005  23.866  0.00  0.00    +0.243 C 
BRANCH  23  24
ATOM     24  C   UNL A   1     -30.065  -1.377  23.573  0.00  0.00    +0.229 C 
ATOM     25  O   UNL A   1     -30.729  -1.878  24.721  0.00  0.00    -0.216 OA
ENDBRANCH  23  24
ENDBRANCH  22  23
ENDBRANCH  15  22
ENDBRANCH   5  11
BRANCH  10  26
ATOM     26  C   UNL A   1     -25.317  -0.136  28.969  0.00  0.00    +0.260 C 
ATOM     27  O   UNL A   1     -26.459  -0.292  28.490  0.00  0.00    -0.283 OA
BRANCH  26  28
ATOM     28  C   UNL A   1     -24.855  -1.012  30.143  0.00  0.00    +0.108 C 
BRANCH  28  29
ATOM     29  C   UNL A   1     -24.973  -2.505  29.788  0.00  0.00    -0.014 C 
ATOM     30  C   UNL A   1     -23.906  -3.173  29.146  0.00  0.00    -0.004 C 
ATOM     31  C   UNL A   1     -23.989  -4.549  28.853  0.00  0.00    -0.000 C 
ATOM     32  C   UNL A   1     -25.137  -5.280  29.205  0.00  0.00    -0.000 C 
ATOM     33  C   UNL A   1     -26.232  -4.611  29.784  0.00  0.00    -0.000 C 
ATOM     34  C   UNL A   1     -26.155  -3.232  30.065  0.00  0.00    -0.004 C 
ENDBRANCH  28  29
BRANCH  28  35
ATOM     35  C   UNL A   1     -25.387  -0.679  31.571  0.00  0.00    +0.084 C 
ATOM     36  C   UNL A   1     -25.189   0.773  32.028  0.00  0.00    +0.020 C 
ATOM     37  C   UNL A   1     -25.336   0.684  33.544  0.00  0.00    +0.020 C 
ATOM     38  C   UNL A   1     -24.829  -0.715  33.905  0.00  0.00    +0.089 C 
ATOM     39  N   UNL A   1     -24.758  -1.481  32.646  0.00  0.00    -0.219 NA
ENDBRANCH  28  35
ENDBRANCH  26  28
ENDBRANCH  10  26
TORSDOF 9
