MODEL 573
MODEL 1
REMARK VINA RESULT:    -6.307      0.000      0.000
REMARK INTER + INTRA:          -7.029
REMARK INTER:                  -6.676
REMARK INTRA:                  -0.353
REMARK UNBOUND:                -0.353
REMARK  Name = No_573-gen_results/8p0m/2024-11-27-11-27-31/
REMARK  1 active torsions:
REMARK  status: ('A' for Active; 'I' for Inactive)
REMARK    1  A    between atoms: C_3  and  C_4
REMARK                            x       y       z     vdW  Elec       q    Type
REMARK                         _______ _______ _______ _____ _____    ______ ____
ROOT
ATOM      1  C   UNL A   1     -25.617  -4.278  29.375  0.00  0.00    +0.041 A 
ATOM      2  C   UNL A   1     -24.761  -3.490  29.044  0.00  0.00    +0.137 A 
ATOM      3  C   UNL A   1     -24.807  -2.129  29.346  0.00  0.00    +0.005 A 
ATOM      4  C   UNL A   1     -26.870  -3.749  29.995  0.00  0.00    +0.060 A 
ATOM      5  C   UNL A   1     -26.980  -2.450  30.405  0.00  0.00    +0.011 A 
ATOM      6  C   UNL A   1     -25.956  -1.526  30.062  0.00  0.00    -0.001 A 
ATOM      7 CL   UNL A   1     -28.125  -4.834  30.422  0.00  0.00    -0.082 Cl
ATOM      8  F   UNL A   1     -23.619  -3.920  28.448  0.00  0.00    -0.204 F 
ENDROOT
BRANCH   3   9
ATOM      9  C   UNL A   1     -23.819  -1.099  28.973  0.00  0.00    +0.032 C 
ATOM     10  C   UNL A   1     -22.427  -1.095  29.344  0.00  0.00    +0.005 C 
ATOM     11  C   UNL A   1     -21.569  -0.063  28.918  0.00  0.00    +0.008 C 
ATOM     12  C   UNL A   1     -21.954   0.849  27.887  0.00  0.00    +0.065 C 
ATOM     13  C   UNL A   1     -24.134  -0.071  27.981  0.00  0.00    +0.069 C 
ATOM     14  C   UNL A   1     -23.237   0.839  27.503  0.00  0.00    +0.151 C 
ATOM     15  O   UNL A   1     -23.675   1.706  26.563  0.00  0.00    -0.296 OA
ENDBRANCH   3   9
TORSDOF 1
ENDMDL
ENDMDL
