REMARK  Name = outputs/IAG933/test6/raw/output_5741_IAG933_linker_design_.xyz
REMARK  11 active torsions:
REMARK  status: ('A' for Active; 'I' for Inactive)
REMARK    1  A    between atoms: C_1  and  C_2
REMARK    2  A    between atoms: C_1  and  C_8
REMARK    3  A    between atoms: C_1  and  N_31
REMARK    4  A    between atoms: C_13  and  C_28
REMARK    5  A    between atoms: C_14  and  C_15
REMARK    6  A    between atoms: C_21  and  O_22
REMARK    7  A    between atoms: O_22  and  C_23
REMARK    8  A    between atoms: C_23  and  C_24
REMARK    9  A    between atoms: N_31  and  N_34
REMARK   10  A    between atoms: N_31  and  C_37
REMARK   11  A    between atoms: N_33  and  C_40
REMARK                            x       y       z     vdW  Elec       q    Type
REMARK                         _______ _______ _______ _____ _____    ______ ____
ROOT
ATOM      1  C   UNL A   1     -24.398   1.342  27.138  0.00  0.00    +0.065 A 
ATOM      2  C   UNL A   1     -23.047   1.787  26.640  0.00  0.00    +0.231 A 
ATOM      3  C   UNL A   1     -22.013   1.477  27.531  0.00  0.00    +0.210 A 
ATOM      4  C   UNL A   1     -24.316   0.645  28.341  0.00  0.00    +0.102 A 
ATOM      5  S   UNL A   1     -22.647   0.647  28.913  0.00  0.00    -0.038 S 
ATOM      6  O   UNL A   1     -22.807   2.439  25.503  0.00  0.00    -0.283 OA
ATOM      7  F   UNL A   1     -20.671   1.624  27.257  0.00  0.00    -0.194 F 
ENDROOT
BRANCH   1   8
ATOM      8  C   UNL A   1     -25.688   1.614  26.461  0.00  0.00    +0.043 C 
ATOM      9  C   UNL A   1     -26.250   2.920  26.395  0.00  0.00    +0.077 C 
ATOM     10  C   UNL A   1     -27.438   3.091  25.645  0.00  0.00    +0.107 C 
ATOM     11  N   UNL A   1     -28.075   2.089  25.003  0.00  0.00    -0.208 NA
ATOM     12  C   UNL A   1     -27.543   0.849  25.079  0.00  0.00    +0.253 C 
ATOM     13  C   UNL A   1     -26.354   0.576  25.777  0.00  0.00    +0.193 C 
ATOM     14  F   UNL A   1     -25.860  -0.681  25.795  0.00  0.00    -0.199 F 
BRANCH   9  15
ATOM     15  C   UNL A   1     -25.642   4.093  27.123  0.00  0.00    +0.266 C 
ATOM     16  N   UNL A   1     -25.614   5.252  26.449  0.00  0.00    -0.200 NA
ATOM     17  C   UNL A   1     -25.026   6.479  26.963  0.00  0.00    +0.139 C 
ATOM     18  O   UNL A   1     -25.143   3.966  28.243  0.00  0.00    -0.268 OA
ENDBRANCH   9  15
BRANCH  12  19
ATOM     19  O   UNL A   1     -28.193  -0.208  24.477  0.00  0.00    -0.456 OA
BRANCH  19  20
ATOM     20  C   UNL A   1     -29.460   0.005  23.866  0.00  0.00    +0.243 C 
BRANCH  20  21
ATOM     21  C   UNL A   1     -30.065  -1.377  23.573  0.00  0.00    +0.229 C 
ATOM     22  O   UNL A   1     -30.729  -1.878  24.721  0.00  0.00    -0.216 OA
ENDBRANCH  20  21
ENDBRANCH  19  20
ENDBRANCH  12  19
ENDBRANCH   1   8
BRANCH   4  23
ATOM     23  N   UNL A   1     -25.309  -0.177  28.974  0.00  0.00    -0.206 N 
BRANCH  23  26
ATOM     24  C   UNL A   1     -27.636  -0.561  28.995  0.00  0.00    +0.357 C 
ATOM     25  N   UNL A   1     -27.960   0.670  29.456  0.00  0.00    -0.186 NA
ATOM     26  N   UNL A   1     -26.471  -0.665  28.319  0.00  0.00    -0.090 NA
ATOM     27  O   UNL A   1     -28.387  -1.502  29.196  0.00  0.00    -0.247 OA
BRANCH  25  29
ATOM     28  C   UNL A   1     -30.410   0.785  29.991  0.00  0.00    +0.025 C 
ATOM     29  C   UNL A   1     -29.232   1.249  29.154  0.00  0.00    +0.117 C 
ENDBRANCH  25  29
ENDBRANCH  23  26
BRANCH  23  30
ATOM     30  C   UNL A   1     -24.855  -1.012  30.143  0.00  0.00    +0.133 C 
BRANCH  30  31
ATOM     31  C   UNL A   1     -24.973  -2.505  29.788  0.00  0.00    -0.001 C 
ATOM     32  C   UNL A   1     -23.906  -3.173  29.146  0.00  0.00    -0.003 C 
ATOM     33  C   UNL A   1     -23.989  -4.549  28.853  0.00  0.00    -0.000 C 
ATOM     34  C   UNL A   1     -25.137  -5.280  29.205  0.00  0.00    -0.000 C 
ATOM     35  C   UNL A   1     -26.232  -4.611  29.784  0.00  0.00    -0.000 C 
ATOM     36  C   UNL A   1     -26.155  -3.232  30.065  0.00  0.00    -0.003 C 
ENDBRANCH  30  31
BRANCH  30  37
ATOM     37  C   UNL A   1     -25.387  -0.679  31.571  0.00  0.00    +0.097 C 
ATOM     38  C   UNL A   1     -25.189   0.773  32.028  0.00  0.00    +0.021 C 
ATOM     39  C   UNL A   1     -25.336   0.684  33.544  0.00  0.00    +0.020 C 
ATOM     40  C   UNL A   1     -24.829  -0.715  33.905  0.00  0.00    +0.089 C 
ATOM     41  N   UNL A   1     -24.758  -1.481  32.646  0.00  0.00    -0.217 NA
ENDBRANCH  30  37
ENDBRANCH  23  30
ENDBRANCH   4  23
TORSDOF 11
