REMARK  Name = outputs/IAG933/test6/raw/output_5742_IAG933_linker_design_.xyz
REMARK  10 active torsions:
REMARK  status: ('A' for Active; 'I' for Inactive)
REMARK    1  A    between atoms: C_1  and  C_2
REMARK    2  A    between atoms: C_1  and  C_8
REMARK    3  A    between atoms: C_1  and  N_37
REMARK    4  A    between atoms: C_13  and  C_30
REMARK    5  A    between atoms: C_14  and  C_15
REMARK    6  A    between atoms: C_21  and  O_22
REMARK    7  A    between atoms: O_22  and  C_23
REMARK    8  A    between atoms: C_23  and  C_24
REMARK    9  A    between atoms: C_32  and  C_35
REMARK   10  A    between atoms: C_32  and  C_38
REMARK                            x       y       z     vdW  Elec       q    Type
REMARK                         _______ _______ _______ _____ _____    ______ ____
ROOT
ATOM      1  C   UNL A   1     -23.334   0.281  28.583  0.00  0.00    +0.069 A 
ATOM      2  O   UNL A   1     -23.123   2.513  25.814  0.00  0.00    -0.244 OA
ATOM      3  C   UNL A   1     -24.977   1.063  27.336  0.00  0.00    +0.011 A 
ATOM      4  C   UNL A   1     -22.703   1.800  26.752  0.00  0.00    +0.347 C 
ATOM      5  O   UNL A   1     -21.321   1.613  27.025  0.00  0.00    -0.418 OA
ATOM      6  C   UNL A   1     -20.973   0.774  28.042  0.00  0.00    +0.185 C 
ATOM      7  C   UNL A   1     -21.894   0.071  28.841  0.00  0.00    +0.058 C 
ATOM      8  N   UNL A   1     -24.642  -0.158  29.088  0.00  0.00    -0.322 N 
ATOM      9  C   UNL A   1     -25.797   0.333  28.320  0.00  0.00    +0.092 A 
ATOM     10  C   UNL A   1     -23.673   1.080  27.535  0.00  0.00    +0.090 A 
ENDROOT
BRANCH   3  11
ATOM     11  C   UNL A   1     -25.688   1.614  26.461  0.00  0.00    +0.094 C 
ATOM     12  C   UNL A   1     -26.250   2.920  26.395  0.00  0.00    +0.059 C 
ATOM     13  C   UNL A   1     -27.438   3.091  25.645  0.00  0.00    +0.102 C 
ATOM     14  N   UNL A   1     -28.075   2.089  25.003  0.00  0.00    -0.212 NA
ATOM     15  C   UNL A   1     -27.543   0.849  25.079  0.00  0.00    +0.234 C 
ATOM     16  C   UNL A   1     -26.354   0.576  25.777  0.00  0.00    +0.244 C 
ATOM     17  F   UNL A   1     -25.860  -0.681  25.795  0.00  0.00    -0.227 F 
BRANCH  12  18
ATOM     18  C   UNL A   1     -25.642   4.093  27.123  0.00  0.00    +0.263 C 
ATOM     19  N   UNL A   1     -25.614   5.252  26.449  0.00  0.00    -0.200 NA
ATOM     20  C   UNL A   1     -25.026   6.479  26.963  0.00  0.00    +0.139 C 
ATOM     21  O   UNL A   1     -25.143   3.966  28.243  0.00  0.00    -0.269 OA
ENDBRANCH  12  18
BRANCH  15  22
ATOM     22  O   UNL A   1     -28.193  -0.208  24.477  0.00  0.00    -0.459 OA
BRANCH  22  23
ATOM     23  C   UNL A   1     -29.460   0.005  23.866  0.00  0.00    +0.242 C 
BRANCH  23  24
ATOM     24  C   UNL A   1     -30.065  -1.377  23.573  0.00  0.00    +0.229 C 
ATOM     25  O   UNL A   1     -30.729  -1.878  24.721  0.00  0.00    -0.216 OA
ENDBRANCH  23  24
ENDBRANCH  22  23
ENDBRANCH  15  22
ENDBRANCH   3  11
BRANCH   9  26
ATOM     26  C   UNL A   1     -27.325   0.036  28.823  0.00  0.00    +0.188 C 
ATOM     27  O   UNL A   1     -27.796  -1.103  28.705  0.00  0.00    -0.290 OA
BRANCH  26  28
ATOM     28  C   UNL A   1     -28.133   1.186  29.350  0.00  0.00    +0.071 C 
ATOM     29  C   UNL A   1     -29.505   0.604  29.811  0.00  0.00    +0.009 C 
ENDBRANCH  26  28
ENDBRANCH   9  26
BRANCH   8  30
ATOM     30  C   UNL A   1     -24.855  -1.012  30.143  0.00  0.00    +0.124 C 
BRANCH  30  31
ATOM     31  C   UNL A   1     -24.973  -2.505  29.788  0.00  0.00    -0.000 C 
ATOM     32  C   UNL A   1     -23.906  -3.173  29.146  0.00  0.00    -0.002 C 
ATOM     33  C   UNL A   1     -23.989  -4.549  28.853  0.00  0.00    -0.000 C 
ATOM     34  C   UNL A   1     -25.137  -5.280  29.205  0.00  0.00    -0.000 C 
ATOM     35  C   UNL A   1     -26.232  -4.611  29.784  0.00  0.00    -0.000 C 
ATOM     36  C   UNL A   1     -26.155  -3.232  30.065  0.00  0.00    -0.002 C 
ENDBRANCH  30  31
BRANCH  30  37
ATOM     37  C   UNL A   1     -25.387  -0.679  31.571  0.00  0.00    +0.098 C 
ATOM     38  C   UNL A   1     -25.189   0.773  32.028  0.00  0.00    +0.021 C 
ATOM     39  C   UNL A   1     -25.336   0.684  33.544  0.00  0.00    +0.020 C 
ATOM     40  C   UNL A   1     -24.829  -0.715  33.905  0.00  0.00    +0.089 C 
ATOM     41  N   UNL A   1     -24.758  -1.481  32.646  0.00  0.00    -0.217 NA
ENDBRANCH  30  37
ENDBRANCH   8  30
TORSDOF 10
