REMARK  Name = outputs/IAG933/test6/raw/output_5747_IAG933_linker_design_.xyz
REMARK  11 active torsions:
REMARK  status: ('A' for Active; 'I' for Inactive)
REMARK    1  A    between atoms: C_1  and  C_2
REMARK    2  A    between atoms: C_1  and  C_8
REMARK    3  A    between atoms: C_1  and  C_34
REMARK    4  A    between atoms: C_13  and  C_38
REMARK    5  A    between atoms: C_14  and  C_15
REMARK    6  A    between atoms: C_21  and  O_22
REMARK    7  A    between atoms: O_22  and  C_23
REMARK    8  A    between atoms: C_23  and  C_24
REMARK    9  A    between atoms: C_31  and  C_34
REMARK   10  A    between atoms: O_32  and  C_34
REMARK   11  A    between atoms: O_32  and  C_39
REMARK                            x       y       z     vdW  Elec       q    Type
REMARK                         _______ _______ _______ _____ _____    ______ ____
ROOT
ATOM      1  C   UNL A   1     -23.341   1.602  26.723  0.00  0.00    +0.033 C 
ATOM      2  O   UNL A   1     -23.315   0.655  29.122  0.00  0.00    -0.356 OA
ATOM      3  C   UNL A   1     -22.572   0.919  27.859  0.00  0.00    +0.115 C 
ATOM      4  C   UNL A   1     -24.764   0.289  28.522  0.00  0.00    +0.143 C 
ATOM      5  C   UNL A   1     -21.105   1.468  27.996  0.00  0.00    +0.032 C 
ATOM      6  C   UNL A   1     -24.736   1.194  27.491  0.00  0.00    +0.040 C 
ENDROOT
BRANCH   6   7
ATOM      7  C   UNL A   1     -25.688   1.614  26.461  0.00  0.00    +0.073 C 
ATOM      8  C   UNL A   1     -26.250   2.920  26.395  0.00  0.00    +0.055 C 
ATOM      9  C   UNL A   1     -27.438   3.091  25.645  0.00  0.00    +0.102 C 
ATOM     10  N   UNL A   1     -28.075   2.089  25.003  0.00  0.00    -0.212 NA
ATOM     11  C   UNL A   1     -27.543   0.849  25.079  0.00  0.00    +0.234 C 
ATOM     12  C   UNL A   1     -26.354   0.576  25.777  0.00  0.00    +0.240 C 
ATOM     13  F   UNL A   1     -25.860  -0.681  25.795  0.00  0.00    -0.227 F 
BRANCH   8  14
ATOM     14  C   UNL A   1     -25.642   4.093  27.123  0.00  0.00    +0.262 C 
ATOM     15  N   UNL A   1     -25.614   5.252  26.449  0.00  0.00    -0.200 NA
ATOM     16  C   UNL A   1     -25.026   6.479  26.963  0.00  0.00    +0.139 C 
ATOM     17  O   UNL A   1     -25.143   3.966  28.243  0.00  0.00    -0.269 OA
ENDBRANCH   8  14
BRANCH  11  18
ATOM     18  O   UNL A   1     -28.193  -0.208  24.477  0.00  0.00    -0.459 OA
BRANCH  18  19
ATOM     19  C   UNL A   1     -29.460   0.005  23.866  0.00  0.00    +0.242 C 
BRANCH  19  20
ATOM     20  C   UNL A   1     -30.065  -1.377  23.573  0.00  0.00    +0.229 C 
ATOM     21  O   UNL A   1     -30.729  -1.878  24.721  0.00  0.00    -0.216 OA
ENDBRANCH  19  20
ENDBRANCH  18  19
ENDBRANCH  11  18
ENDBRANCH   6   7
BRANCH   4  22
ATOM     22  C   UNL A   1     -26.092  -0.339  29.038  0.00  0.00    +0.148 C 
BRANCH  22  23
ATOM     23  C   UNL A   1     -24.855  -1.012  30.143  0.00  0.00    +0.068 C 
BRANCH  23  24
ATOM     24  C   UNL A   1     -24.973  -2.505  29.788  0.00  0.00    -0.019 C 
ATOM     25  C   UNL A   1     -23.906  -3.173  29.146  0.00  0.00    -0.004 C 
ATOM     26  C   UNL A   1     -23.989  -4.549  28.853  0.00  0.00    -0.000 C 
ATOM     27  C   UNL A   1     -25.137  -5.280  29.205  0.00  0.00    -0.000 C 
ATOM     28  C   UNL A   1     -26.232  -4.611  29.784  0.00  0.00    -0.000 C 
ATOM     29  C   UNL A   1     -26.155  -3.232  30.065  0.00  0.00    -0.004 C 
ENDBRANCH  23  24
BRANCH  23  30
ATOM     30  C   UNL A   1     -25.387  -0.679  31.571  0.00  0.00    +0.079 C 
ATOM     31  C   UNL A   1     -25.189   0.773  32.028  0.00  0.00    +0.019 C 
ATOM     32  C   UNL A   1     -25.336   0.684  33.544  0.00  0.00    +0.020 C 
ATOM     33  C   UNL A   1     -24.829  -0.715  33.905  0.00  0.00    +0.089 C 
ATOM     34  N   UNL A   1     -24.758  -1.481  32.646  0.00  0.00    -0.219 NA
ENDBRANCH  23  30
ENDBRANCH  22  23
BRANCH  22  35
ATOM     35  O   UNL A   1     -27.552  -0.348  28.542  0.00  0.00    -0.350 OA
BRANCH  35  39
ATOM     36  C   UNL A   1     -29.901  -0.541  28.582  0.00  0.00    +0.214 C 
ATOM     37  O   UNL A   1     -29.424  -1.201  30.754  0.00  0.00    -0.218 OA
ATOM     38  O   UNL A   1     -29.903  -1.659  29.523  0.00  0.00    -0.218 OA
ATOM     39  C   UNL A   1     -28.764   0.327  29.098  0.00  0.00    +0.181 C 
ATOM     40  C   UNL A   1     -28.895   0.233  30.600  0.00  0.00    +0.214 C 
ENDBRANCH  35  39
ENDBRANCH  22  35
ENDBRANCH   4  22
TORSDOF 11
