REMARK  Name = outputs/IAG933/test6/raw/output_5748_IAG933_linker_design_.xyz
REMARK  15 active torsions:
REMARK  status: ('A' for Active; 'I' for Inactive)
REMARK    1  A    between atoms: C_1  and  C_2
REMARK    2  A    between atoms: C_1  and  C_8
REMARK    3  A    between atoms: C_1  and  C_28
REMARK    4  A    between atoms: C_13  and  C_42
REMARK    5  A    between atoms: C_14  and  C_15
REMARK    6  A    between atoms: C_21  and  O_22
REMARK    7  A    between atoms: O_22  and  C_23
REMARK    8  A    between atoms: C_23  and  C_24
REMARK    9  A    between atoms: C_28  and  N_29
REMARK   10  A    between atoms: N_29  and  C_36
REMARK   11  A    between atoms: N_29  and  C_42
REMARK   12  A    between atoms: C_30  and  C_42
REMARK   13  A    between atoms: C_33  and  C_37
REMARK   14  A    between atoms: C_36  and  C_41
REMARK   15  A    between atoms: C_37  and  C_41
REMARK                            x       y       z     vdW  Elec       q    Type
REMARK                         _______ _______ _______ _____ _____    ______ ____
ROOT
ATOM      1  C   UNL A   1     -24.932   1.284  27.717  0.00  0.00    +0.094 C 
ENDROOT
BRANCH   1   2
ATOM      2  C   UNL A   1     -25.688   1.614  26.461  0.00  0.00    +0.089 C 
ATOM      3  C   UNL A   1     -26.250   2.920  26.395  0.00  0.00    +0.057 C 
ATOM      4  C   UNL A   1     -27.438   3.091  25.645  0.00  0.00    +0.102 C 
ATOM      5  N   UNL A   1     -28.075   2.089  25.003  0.00  0.00    -0.212 NA
ATOM      6  C   UNL A   1     -27.543   0.849  25.079  0.00  0.00    +0.234 C 
ATOM      7  C   UNL A   1     -26.354   0.576  25.777  0.00  0.00    +0.242 C 
ATOM      8  F   UNL A   1     -25.860  -0.681  25.795  0.00  0.00    -0.227 F 
BRANCH   3   9
ATOM      9  C   UNL A   1     -25.642   4.093  27.123  0.00  0.00    +0.263 C 
ATOM     10  N   UNL A   1     -25.614   5.252  26.449  0.00  0.00    -0.200 NA
ATOM     11  C   UNL A   1     -25.026   6.479  26.963  0.00  0.00    +0.139 C 
ATOM     12  O   UNL A   1     -25.143   3.966  28.243  0.00  0.00    -0.269 OA
ENDBRANCH   3   9
BRANCH   6  13
ATOM     13  O   UNL A   1     -28.193  -0.208  24.477  0.00  0.00    -0.459 OA
BRANCH  13  14
ATOM     14  C   UNL A   1     -29.460   0.005  23.866  0.00  0.00    +0.242 C 
BRANCH  14  15
ATOM     15  C   UNL A   1     -30.065  -1.377  23.573  0.00  0.00    +0.229 C 
ATOM     16  O   UNL A   1     -30.729  -1.878  24.721  0.00  0.00    -0.216 OA
ENDBRANCH  14  15
ENDBRANCH  13  14
ENDBRANCH   6  13
ENDBRANCH   1   2
BRANCH   1  17
ATOM     17  C   UNL A   1     -23.532   1.302  27.515  0.00  0.00    +0.069 C 
ATOM     18  C   UNL A   1     -21.424   0.965  28.653  0.00  0.00    +0.041 C 
ATOM     19  C   UNL A   1     -22.862   1.889  26.474  0.00  0.00    +0.343 C 
ATOM     20  C   UNL A   1     -22.794   0.753  28.551  0.00  0.00    +0.007 C 
ATOM     21  O   UNL A   1     -21.528   2.108  26.600  0.00  0.00    -0.418 OA
ATOM     22  O   UNL A   1     -23.418   2.264  25.298  0.00  0.00    -0.245 OA
ATOM     23  C   UNL A   1     -20.821   1.704  27.652  0.00  0.00    +0.183 C 
ENDBRANCH   1  17
BRANCH   1  24
ATOM     24  N   UNL A   1     -25.499   1.101  28.938  0.00  0.00    -0.269 NA
BRANCH  24  25
ATOM     25  C   UNL A   1     -25.733  -0.384  29.088  0.00  0.00    +0.078 C 
BRANCH  25  26
ATOM     26  C   UNL A   1     -24.855  -1.012  30.143  0.00  0.00    +0.054 C 
BRANCH  26  27
ATOM     27  C   UNL A   1     -24.973  -2.505  29.788  0.00  0.00    -0.020 C 
ATOM     28  C   UNL A   1     -23.906  -3.173  29.146  0.00  0.00    -0.004 C 
ATOM     29  C   UNL A   1     -23.989  -4.549  28.853  0.00  0.00    -0.000 C 
ATOM     30  C   UNL A   1     -25.137  -5.280  29.205  0.00  0.00    -0.000 C 
ATOM     31  C   UNL A   1     -26.232  -4.611  29.784  0.00  0.00    -0.000 C 
ATOM     32  C   UNL A   1     -26.155  -3.232  30.065  0.00  0.00    -0.004 C 
ENDBRANCH  26  27
BRANCH  26  33
ATOM     33  C   UNL A   1     -25.387  -0.679  31.571  0.00  0.00    +0.078 C 
ATOM     34  C   UNL A   1     -25.189   0.773  32.028  0.00  0.00    +0.019 C 
ATOM     35  C   UNL A   1     -25.336   0.684  33.544  0.00  0.00    +0.020 C 
ATOM     36  C   UNL A   1     -24.829  -0.715  33.905  0.00  0.00    +0.089 C 
ATOM     37  N   UNL A   1     -24.758  -1.481  32.646  0.00  0.00    -0.219 NA
ENDBRANCH  26  33
ENDBRANCH  25  26
ENDBRANCH  24  25
BRANCH  24  38
ATOM     38  C   UNL A   1     -26.758   1.652  29.437  0.00  0.00    +0.072 C 
BRANCH  38  39
ATOM     39  C   UNL A   1     -26.754   2.984  30.197  0.00  0.00    +0.017 C 
BRANCH  39  40
ATOM     40  C   UNL A   1     -28.144   3.451  30.688  0.00  0.00    +0.001 C 
BRANCH  40  41
ATOM     41  C   UNL A   1     -28.219   4.961  30.346  0.00  0.00    +0.000 C 
ATOM     42  C   UNL A   1     -28.798   5.649  31.596  0.00  0.00    +0.000 C 
ENDBRANCH  40  41
ENDBRANCH  39  40
ENDBRANCH  38  39
ENDBRANCH  24  38
ENDBRANCH   1  24
TORSDOF 15
