MODEL 574
MODEL 1
REMARK VINA RESULT:    -4.438      0.000      0.000
REMARK INTER + INTRA:          -4.438
REMARK INTER:                  -4.438
REMARK INTRA:                   0.000
REMARK UNBOUND:                 0.000
REMARK  Name = No_574-gen_results/8p0m/2024-11-27-11-27-31/
REMARK  0 active torsions:
REMARK  status: ('A' for Active; 'I' for Inactive)
REMARK                            x       y       z     vdW  Elec       q    Type
REMARK                         _______ _______ _______ _____ _____    ______ ____
ROOT
ATOM      1  C   UNL A   1     -24.870  -5.153  28.943  0.00  0.00    +0.001 A 
ATOM      2  C   UNL A   1     -24.027  -4.303  28.771  0.00  0.00    +0.011 A 
ATOM      3  C   UNL A   1     -24.176  -2.977  29.176  0.00  0.00    +0.058 A 
ATOM      4  C   UNL A   1     -25.423  -2.560  29.786  0.00  0.00    +0.011 A 
ATOM      5  C   UNL A   1     -26.363  -3.604  29.946  0.00  0.00    +0.001 A 
ATOM      6  C   UNL A   1     -26.136  -4.823  29.527  0.00  0.00    +0.000 A 
ATOM      7 CL   UNL A   1     -23.013  -1.735  28.960  0.00  0.00    -0.082 Cl
ENDROOT
TORSDOF 0
ENDMDL
ENDMDL
