REMARK  Name = outputs/IAG933/test6/raw/output_575_IAG933_linker_design_.xyz
REMARK  13 active torsions:
REMARK  status: ('A' for Active; 'I' for Inactive)
REMARK    1  A    between atoms: C_1  and  C_2
REMARK    2  A    between atoms: C_1  and  C_8
REMARK    3  A    between atoms: C_9  and  C_41
REMARK    4  A    between atoms: C_14  and  C_15
REMARK    5  A    between atoms: C_21  and  O_22
REMARK    6  A    between atoms: O_22  and  C_23
REMARK    7  A    between atoms: C_23  and  C_24
REMARK    8  A    between atoms: C_28  and  C_44
REMARK    9  A    between atoms: C_30  and  C_36
REMARK   10  A    between atoms: C_36  and  C_40
REMARK   11  A    between atoms: N_38  and  C_40
REMARK   12  A    between atoms: N_38  and  C_41
REMARK   13  A    between atoms: C_41  and  N_46
REMARK                            x       y       z     vdW  Elec       q    Type
REMARK                         _______ _______ _______ _____ _____    ______ ____
ROOT
ATOM      1  C   UNL A   1     -25.128   1.777  31.268  0.00  0.00    +0.157 C 
ENDROOT
BRANCH   1   7
ATOM      2  O   UNL A   1     -27.319   2.466  31.933  0.00  0.00    -0.281 OA
ATOM      3  C   UNL A   1     -28.349   4.728  31.829  0.00  0.00    +0.036 C 
ATOM      4  C   UNL A   1     -25.793   4.294  31.541  0.00  0.00    +0.103 C 
ATOM      5  C   UNL A   1     -28.259   3.245  31.476  0.00  0.00    +0.167 C 
ATOM      6  C   UNL A   1     -26.747   5.021  32.400  0.00  0.00    +0.026 C 
ATOM      7  N   UNL A   1     -26.211   2.888  31.525  0.00  0.00    -0.151 NA
BRANCH   6   8
ATOM      8  C   UNL A   1     -26.741   5.638  33.776  0.00  0.00    +0.063 C 
ATOM      9  O   UNL A   1     -27.294   7.483  35.278  0.00  0.00    -0.220 OA
ATOM     10  C   UNL A   1     -25.410   6.440  34.166  0.00  0.00    +0.184 C 
ATOM     11  C   UNL A   1     -27.765   6.869  34.044  0.00  0.00    +0.184 C 
ATOM     12  O   UNL A   1     -25.887   7.352  35.295  0.00  0.00    -0.220 OA
ATOM     13  C   UNL A   1     -26.963   4.529  34.934  0.00  0.00    +0.005 C 
ENDBRANCH   6   8
ENDBRANCH   1   7
BRANCH   1  15
ATOM     14  C   UNL A   1     -25.387  -0.679  31.571  0.00  0.00    +0.080 C 
ATOM     15  C   UNL A   1     -25.189   0.773  32.028  0.00  0.00    +0.051 C 
ATOM     16  C   UNL A   1     -25.336   0.684  33.544  0.00  0.00    +0.023 C 
ATOM     17  C   UNL A   1     -24.829  -0.715  33.905  0.00  0.00    +0.089 C 
ATOM     18  N   UNL A   1     -24.758  -1.481  32.646  0.00  0.00    -0.219 NA
BRANCH  14  19
ATOM     19  C   UNL A   1     -24.855  -1.012  30.143  0.00  0.00    +0.044 C 
BRANCH  19  20
ATOM     20  C   UNL A   1     -24.973  -2.505  29.788  0.00  0.00    -0.021 C 
ATOM     21  C   UNL A   1     -23.906  -3.173  29.146  0.00  0.00    -0.004 C 
ATOM     22  C   UNL A   1     -23.989  -4.549  28.853  0.00  0.00    -0.000 C 
ATOM     23  C   UNL A   1     -25.137  -5.280  29.205  0.00  0.00    -0.000 C 
ATOM     24  C   UNL A   1     -26.232  -4.611  29.784  0.00  0.00    -0.000 C 
ATOM     25  C   UNL A   1     -26.155  -3.232  30.065  0.00  0.00    -0.004 C 
ENDBRANCH  19  20
ENDBRANCH  14  19
ENDBRANCH   1  15
BRANCH   1  26
ATOM     26  N   UNL A   1     -24.173   1.896  30.308  0.00  0.00    -0.201 NA
BRANCH  26  27
ATOM     27  C   UNL A   1     -22.843   1.777  29.562  0.00  0.00    +0.095 C 
BRANCH  27  28
ATOM     28  C   UNL A   1     -22.413   1.091  28.411  0.00  0.00    +0.047 C 
ATOM     29  C   UNL A   1     -21.343   1.683  27.467  0.00  0.00    +0.007 C 
BRANCH  28  37
ATOM     30  C   UNL A   1     -25.688   1.614  26.461  0.00  0.00    +0.059 C 
ATOM     31  C   UNL A   1     -26.250   2.920  26.395  0.00  0.00    +0.080 C 
ATOM     32  C   UNL A   1     -27.438   3.091  25.645  0.00  0.00    +0.107 C 
ATOM     33  N   UNL A   1     -28.075   2.089  25.003  0.00  0.00    -0.211 NA
ATOM     34  C   UNL A   1     -27.543   0.849  25.079  0.00  0.00    +0.239 C 
ATOM     35  C   UNL A   1     -26.354   0.576  25.777  0.00  0.00    +0.265 C 
ATOM     36  F   UNL A   1     -25.860  -0.681  25.795  0.00  0.00    -0.222 F 
ATOM     37  C   UNL A   1     -23.625   0.639  27.635  0.00  0.00    +0.016 C 
ATOM     38  C   UNL A   1     -24.589   1.237  27.010  0.00  0.00    -0.107 C 
BRANCH  31  39
ATOM     39  C   UNL A   1     -25.642   4.093  27.123  0.00  0.00    +0.267 C 
ATOM     40  N   UNL A   1     -25.614   5.252  26.449  0.00  0.00    -0.200 NA
ATOM     41  C   UNL A   1     -25.026   6.479  26.963  0.00  0.00    +0.139 C 
ATOM     42  O   UNL A   1     -25.143   3.966  28.243  0.00  0.00    -0.268 OA
ENDBRANCH  31  39
BRANCH  34  43
ATOM     43  O   UNL A   1     -28.193  -0.208  24.477  0.00  0.00    -0.458 OA
BRANCH  43  44
ATOM     44  C   UNL A   1     -29.460   0.005  23.866  0.00  0.00    +0.242 C 
BRANCH  44  45
ATOM     45  C   UNL A   1     -30.065  -1.377  23.573  0.00  0.00    +0.229 C 
ATOM     46  O   UNL A   1     -30.729  -1.878  24.721  0.00  0.00    -0.216 OA
ENDBRANCH  44  45
ENDBRANCH  43  44
ENDBRANCH  34  43
ENDBRANCH  28  37
ENDBRANCH  27  28
ENDBRANCH  26  27
ENDBRANCH   1  26
TORSDOF 13
