REMARK  Name = outputs/IAG933/test6/raw/output_5751_IAG933_linker_design_.xyz
REMARK  13 active torsions:
REMARK  status: ('A' for Active; 'I' for Inactive)
REMARK    1  A    between atoms: C_1  and  C_2
REMARK    2  A    between atoms: C_1  and  C_8
REMARK    3  A    between atoms: C_1  and  N_41
REMARK    4  A    between atoms: C_13  and  C_35
REMARK    5  A    between atoms: C_14  and  C_15
REMARK    6  A    between atoms: C_21  and  O_22
REMARK    7  A    between atoms: O_22  and  C_23
REMARK    8  A    between atoms: C_23  and  C_24
REMARK    9  A    between atoms: C_28  and  C_35
REMARK   10  A    between atoms: C_28  and  N_36
REMARK   11  A    between atoms: C_28  and  N_41
REMARK   12  A    between atoms: C_30  and  N_40
REMARK   13  A    between atoms: C_33  and  C_39
REMARK                            x       y       z     vdW  Elec       q    Type
REMARK                         _______ _______ _______ _____ _____    ______ ____
ROOT
ATOM      1  C   UNL A   1     -25.169   0.969  28.637  0.00  0.00    +0.180 C 
ENDROOT
BRANCH   1   3
ATOM      2  O   UNL A   1     -28.060  -1.224  29.225  0.00  0.00    -0.273 OA
ATOM      3  N   UNL A   1     -26.563   0.545  28.774  0.00  0.00    -0.186 NA
ATOM      4  C   UNL A   1     -27.720  -0.055  29.259  0.00  0.00    +0.246 C 
BRANCH   4   7
ATOM      5  C   UNL A   1     -30.976   2.668  29.486  0.00  0.00    +0.215 C 
ATOM      6  C   UNL A   1     -29.743   0.835  28.349  0.00  0.00    +0.166 C 
ATOM      7  C   UNL A   1     -28.677   0.959  29.649  0.00  0.00    +0.125 C 
ATOM      8  O   UNL A   1     -30.776  -0.005  28.307  0.00  0.00    -0.222 OA
ATOM      9  C   UNL A   1     -29.293   1.337  30.841  0.00  0.00    +0.086 C 
ATOM     10  N   UNL A   1     -30.309   2.405  30.650  0.00  0.00    -0.248 NA
ATOM     11  O   UNL A   1     -32.209   2.087  29.375  0.00  0.00    -0.205 OA
ATOM     12  C   UNL A   1     -30.060   2.371  28.259  0.00  0.00    +0.084 C 
BRANCH  10  13
ATOM     13  C   UNL A   1     -30.695   3.123  31.828  0.00  0.00    +0.074 C 
ATOM     14  C   UNL A   1     -31.824   2.772  32.784  0.00  0.00    +0.019 C 
ENDBRANCH  10  13
ENDBRANCH   4   7
ENDBRANCH   1   3
BRANCH   1  15
ATOM     15  C   UNL A   1     -24.779   1.081  27.495  0.00  0.00    +0.023 C 
ATOM     16  C   UNL A   1     -21.475   1.366  27.362  0.00  0.00    +0.074 C 
ATOM     17  S   UNL A   1     -23.084   1.378  26.842  0.00  0.00    -0.118 S 
BRANCH  15  18
ATOM     18  C   UNL A   1     -25.688   1.614  26.461  0.00  0.00    +0.097 C 
ATOM     19  C   UNL A   1     -26.250   2.920  26.395  0.00  0.00    +0.059 C 
ATOM     20  C   UNL A   1     -27.438   3.091  25.645  0.00  0.00    +0.102 C 
ATOM     21  N   UNL A   1     -28.075   2.089  25.003  0.00  0.00    -0.212 NA
ATOM     22  C   UNL A   1     -27.543   0.849  25.079  0.00  0.00    +0.234 C 
ATOM     23  C   UNL A   1     -26.354   0.576  25.777  0.00  0.00    +0.244 C 
ATOM     24  F   UNL A   1     -25.860  -0.681  25.795  0.00  0.00    -0.227 F 
BRANCH  19  25
ATOM     25  C   UNL A   1     -25.642   4.093  27.123  0.00  0.00    +0.263 C 
ATOM     26  N   UNL A   1     -25.614   5.252  26.449  0.00  0.00    -0.200 NA
ATOM     27  C   UNL A   1     -25.026   6.479  26.963  0.00  0.00    +0.139 C 
ATOM     28  O   UNL A   1     -25.143   3.966  28.243  0.00  0.00    -0.269 OA
ENDBRANCH  19  25
BRANCH  22  29
ATOM     29  O   UNL A   1     -28.193  -0.208  24.477  0.00  0.00    -0.459 OA
BRANCH  29  30
ATOM     30  C   UNL A   1     -29.460   0.005  23.866  0.00  0.00    +0.242 C 
BRANCH  30  31
ATOM     31  C   UNL A   1     -30.065  -1.377  23.573  0.00  0.00    +0.229 C 
ATOM     32  O   UNL A   1     -30.729  -1.878  24.721  0.00  0.00    -0.216 OA
ENDBRANCH  30  31
ENDBRANCH  29  30
ENDBRANCH  22  29
ENDBRANCH  15  18
ENDBRANCH   1  15
BRANCH   1  34
ATOM     33  C   UNL A   1     -22.831   0.178  29.601  0.00  0.00    +0.092 C 
ATOM     34  N   UNL A   1     -24.272   0.096  29.397  0.00  0.00    -0.248 NA
BRANCH  34  35
ATOM     35  C   UNL A   1     -24.855  -1.012  30.143  0.00  0.00    +0.098 C 
BRANCH  35  36
ATOM     36  C   UNL A   1     -24.973  -2.505  29.788  0.00  0.00    -0.006 C 
ATOM     37  C   UNL A   1     -23.906  -3.173  29.146  0.00  0.00    -0.003 C 
ATOM     38  C   UNL A   1     -23.989  -4.549  28.853  0.00  0.00    -0.000 C 
ATOM     39  C   UNL A   1     -25.137  -5.280  29.205  0.00  0.00    -0.000 C 
ATOM     40  C   UNL A   1     -26.232  -4.611  29.784  0.00  0.00    -0.000 C 
ATOM     41  C   UNL A   1     -26.155  -3.232  30.065  0.00  0.00    -0.003 C 
ENDBRANCH  35  36
BRANCH  35  42
ATOM     42  C   UNL A   1     -25.387  -0.679  31.571  0.00  0.00    +0.092 C 
ATOM     43  C   UNL A   1     -25.189   0.773  32.028  0.00  0.00    +0.021 C 
ATOM     44  C   UNL A   1     -25.336   0.684  33.544  0.00  0.00    +0.020 C 
ATOM     45  C   UNL A   1     -24.829  -0.715  33.905  0.00  0.00    +0.089 C 
ATOM     46  N   UNL A   1     -24.758  -1.481  32.646  0.00  0.00    -0.218 NA
ENDBRANCH  35  42
ENDBRANCH  34  35
ENDBRANCH   1  34
TORSDOF 13
