REMARK  Name = outputs/IAG933/test6/raw/output_5753_IAG933_linker_design_.xyz
REMARK  11 active torsions:
REMARK  status: ('A' for Active; 'I' for Inactive)
REMARK    1  A    between atoms: C_1  and  C_2
REMARK    2  A    between atoms: C_1  and  C_8
REMARK    3  A    between atoms: C_1  and  C_35
REMARK    4  A    between atoms: C_13  and  N_33
REMARK    5  A    between atoms: C_14  and  C_15
REMARK    6  A    between atoms: C_21  and  O_22
REMARK    7  A    between atoms: O_22  and  C_23
REMARK    8  A    between atoms: C_23  and  C_24
REMARK    9  A    between atoms: C_28  and  N_33
REMARK   10  A    between atoms: N_33  and  C_35
REMARK   11  A    between atoms: C_35  and  C_40
REMARK                            x       y       z     vdW  Elec       q    Type
REMARK                         _______ _______ _______ _____ _____    ______ ____
ROOT
ATOM      1  N   UNL A   1     -24.877   0.996  27.504  0.00  0.00    -0.287 N 
ENDROOT
BRANCH   1   2
ATOM      2  C   UNL A   1     -23.640   1.055  27.463  0.00  0.00    +0.104 C 
ATOM      3  C   UNL A   1     -22.494   1.081  28.250  0.00  0.00    +0.109 C 
ATOM      4  C   UNL A   1     -23.503   1.411  26.153  0.00  0.00    -0.046 C 
ATOM      5  N   UNL A   1     -22.573   0.908  29.570  0.00  0.00    -0.126 NA
ATOM      6  C   UNL A   1     -23.011   1.825  25.225  0.00  0.00    +0.217 C 
ATOM      7  C   UNL A   1     -20.995   1.802  26.343  0.00  0.00    +0.234 C 
ATOM      8  O   UNL A   1     -21.678   2.077  25.180  0.00  0.00    -0.460 OA
ATOM      9  C   UNL A   1     -21.278   1.385  27.604  0.00  0.00    +0.041 C 
ENDBRANCH   1   2
BRANCH   1  10
ATOM     10  C   UNL A   1     -25.688   1.614  26.461  0.00  0.00    +0.144 C 
ATOM     11  C   UNL A   1     -26.250   2.920  26.395  0.00  0.00    +0.073 C 
ATOM     12  C   UNL A   1     -27.438   3.091  25.645  0.00  0.00    +0.104 C 
ATOM     13  N   UNL A   1     -28.075   2.089  25.003  0.00  0.00    -0.212 NA
ATOM     14  C   UNL A   1     -27.543   0.849  25.079  0.00  0.00    +0.236 C 
ATOM     15  C   UNL A   1     -26.354   0.576  25.777  0.00  0.00    +0.258 C 
ATOM     16  F   UNL A   1     -25.860  -0.681  25.795  0.00  0.00    -0.225 F 
BRANCH  11  17
ATOM     17  C   UNL A   1     -25.642   4.093  27.123  0.00  0.00    +0.264 C 
ATOM     18  N   UNL A   1     -25.614   5.252  26.449  0.00  0.00    -0.200 NA
ATOM     19  C   UNL A   1     -25.026   6.479  26.963  0.00  0.00    +0.139 C 
ATOM     20  O   UNL A   1     -25.143   3.966  28.243  0.00  0.00    -0.269 OA
ENDBRANCH  11  17
BRANCH  14  21
ATOM     21  O   UNL A   1     -28.193  -0.208  24.477  0.00  0.00    -0.459 OA
BRANCH  21  22
ATOM     22  C   UNL A   1     -29.460   0.005  23.866  0.00  0.00    +0.242 C 
BRANCH  22  23
ATOM     23  C   UNL A   1     -30.065  -1.377  23.573  0.00  0.00    +0.229 C 
ATOM     24  O   UNL A   1     -30.729  -1.878  24.721  0.00  0.00    -0.216 OA
ENDBRANCH  22  23
ENDBRANCH  21  22
ENDBRANCH  14  21
ENDBRANCH   1  10
BRANCH   1  25
ATOM     25  C   UNL A   1     -25.189  -0.038  28.888  0.00  0.00    +0.183 C 
BRANCH  25  28
ATOM     26  O   UNL A   1     -26.925   1.445  29.142  0.00  0.00    -0.244 OA
ATOM     27  O   UNL A   1     -27.415  -0.713  28.961  0.00  0.00    -0.244 OA
ATOM     28  C   UNL A   1     -26.658   0.295  28.964  0.00  0.00    +0.383 C 
ENDBRANCH  25  28
BRANCH  25  29
ATOM     29  C   UNL A   1     -24.855  -1.012  30.143  0.00  0.00    +0.068 C 
BRANCH  29  30
ATOM     30  C   UNL A   1     -24.973  -2.505  29.788  0.00  0.00    -0.019 C 
ATOM     31  C   UNL A   1     -23.906  -3.173  29.146  0.00  0.00    -0.004 C 
ATOM     32  C   UNL A   1     -23.989  -4.549  28.853  0.00  0.00    -0.000 C 
ATOM     33  C   UNL A   1     -25.137  -5.280  29.205  0.00  0.00    -0.000 C 
ATOM     34  C   UNL A   1     -26.232  -4.611  29.784  0.00  0.00    -0.000 C 
ATOM     35  C   UNL A   1     -26.155  -3.232  30.065  0.00  0.00    -0.004 C 
ENDBRANCH  29  30
BRANCH  29  36
ATOM     36  C   UNL A   1     -25.387  -0.679  31.571  0.00  0.00    +0.079 C 
ATOM     37  C   UNL A   1     -25.189   0.773  32.028  0.00  0.00    +0.019 C 
ATOM     38  C   UNL A   1     -25.336   0.684  33.544  0.00  0.00    +0.020 C 
ATOM     39  C   UNL A   1     -24.829  -0.715  33.905  0.00  0.00    +0.089 C 
ATOM     40  N   UNL A   1     -24.758  -1.481  32.646  0.00  0.00    -0.219 NA
ENDBRANCH  29  36
ENDBRANCH  25  29
ENDBRANCH   1  25
TORSDOF 11
