REMARK  Name = outputs/IAG933/test6/raw/output_5754_IAG933_linker_design_.xyz
REMARK  16 active torsions:
REMARK  status: ('A' for Active; 'I' for Inactive)
REMARK    1  A    between atoms: C_1  and  C_2
REMARK    2  A    between atoms: C_1  and  C_8
REMARK    3  A    between atoms: C_9  and  C_34
REMARK    4  A    between atoms: C_13  and  O_36
REMARK    5  A    between atoms: C_14  and  C_15
REMARK    6  A    between atoms: C_21  and  O_22
REMARK    7  A    between atoms: O_22  and  C_23
REMARK    8  A    between atoms: C_23  and  C_24
REMARK    9  A    between atoms: C_28  and  C_30
REMARK   10  A    between atoms: C_28  and  O_36
REMARK   11  A    between atoms: C_29  and  C_30
REMARK   12  A    between atoms: C_29  and  C_40
REMARK   13  A    between atoms: C_32  and  C_34
REMARK   14  A    between atoms: C_32  and  C_40
REMARK   15  A    between atoms: C_34  and  N_42
REMARK   16  A    between atoms: C_35  and  N_42
REMARK                            x       y       z     vdW  Elec       q    Type
REMARK                         _______ _______ _______ _____ _____    ______ ____
ROOT
ATOM      1  C   UNL A   1     -23.247   1.113  30.445  0.00  0.00    +0.022 C 
ENDROOT
BRANCH   1   2
ATOM      2  C   UNL A   1     -22.837   0.379  29.170  0.00  0.00    +0.005 C 
BRANCH   2   3
ATOM      3  C   UNL A   1     -21.770   0.881  28.205  0.00  0.00    +0.039 C 
BRANCH   3   4
ATOM      4  C   UNL A   1     -22.132   1.714  26.966  0.00  0.00    +0.204 C 
ATOM      5  F   UNL A   1     -20.955   2.331  26.727  0.00  0.00    -0.233 F 
BRANCH   4   6
ATOM      6  C   UNL A   1     -23.333   1.902  26.130  0.00  0.00    +0.240 C 
BRANCH   6   7
ATOM      7  O   UNL A   1     -24.385   1.420  26.950  0.00  0.00    -0.470 OA
BRANCH   7   8
ATOM      8  C   UNL A   1     -25.688   1.614  26.461  0.00  0.00    +0.176 C 
ATOM      9  C   UNL A   1     -26.250   2.920  26.395  0.00  0.00    +0.111 C 
ATOM     10  C   UNL A   1     -27.438   3.091  25.645  0.00  0.00    +0.110 C 
ATOM     11  N   UNL A   1     -28.075   2.089  25.003  0.00  0.00    -0.208 NA
ATOM     12  C   UNL A   1     -27.543   0.849  25.079  0.00  0.00    +0.256 C 
ATOM     13  C   UNL A   1     -26.354   0.576  25.777  0.00  0.00    +0.227 C 
ATOM     14  F   UNL A   1     -25.860  -0.681  25.795  0.00  0.00    -0.196 F 
BRANCH   9  15
ATOM     15  C   UNL A   1     -25.642   4.093  27.123  0.00  0.00    +0.269 C 
ATOM     16  N   UNL A   1     -25.614   5.252  26.449  0.00  0.00    -0.200 NA
ATOM     17  C   UNL A   1     -25.026   6.479  26.963  0.00  0.00    +0.139 C 
ATOM     18  O   UNL A   1     -25.143   3.966  28.243  0.00  0.00    -0.268 OA
ENDBRANCH   9  15
BRANCH  12  19
ATOM     19  O   UNL A   1     -28.193  -0.208  24.477  0.00  0.00    -0.456 OA
BRANCH  19  20
ATOM     20  C   UNL A   1     -29.460   0.005  23.866  0.00  0.00    +0.243 C 
BRANCH  20  21
ATOM     21  C   UNL A   1     -30.065  -1.377  23.573  0.00  0.00    +0.229 C 
ATOM     22  O   UNL A   1     -30.729  -1.878  24.721  0.00  0.00    -0.216 OA
ENDBRANCH  20  21
ENDBRANCH  19  20
ENDBRANCH  12  19
ENDBRANCH   7   8
ENDBRANCH   6   7
ENDBRANCH   4   6
ENDBRANCH   3   4
ENDBRANCH   2   3
ENDBRANCH   1   2
BRANCH   1  23
ATOM     23  C   UNL A   1     -24.673   1.651  30.896  0.00  0.00    +0.094 C 
BRANCH  23  25
ATOM     24  C   UNL A   1     -25.387  -0.679  31.571  0.00  0.00    +0.079 C 
ATOM     25  C   UNL A   1     -25.189   0.773  32.028  0.00  0.00    +0.038 C 
ATOM     26  C   UNL A   1     -25.336   0.684  33.544  0.00  0.00    +0.022 C 
ATOM     27  C   UNL A   1     -24.829  -0.715  33.905  0.00  0.00    +0.089 C 
ATOM     28  N   UNL A   1     -24.758  -1.481  32.646  0.00  0.00    -0.219 NA
BRANCH  24  29
ATOM     29  C   UNL A   1     -24.855  -1.012  30.143  0.00  0.00    +0.044 C 
BRANCH  29  30
ATOM     30  C   UNL A   1     -24.973  -2.505  29.788  0.00  0.00    -0.021 C 
ATOM     31  C   UNL A   1     -23.906  -3.173  29.146  0.00  0.00    -0.004 C 
ATOM     32  C   UNL A   1     -23.989  -4.549  28.853  0.00  0.00    -0.000 C 
ATOM     33  C   UNL A   1     -25.137  -5.280  29.205  0.00  0.00    -0.000 C 
ATOM     34  C   UNL A   1     -26.232  -4.611  29.784  0.00  0.00    -0.000 C 
ATOM     35  C   UNL A   1     -26.155  -3.232  30.065  0.00  0.00    -0.004 C 
ENDBRANCH  29  30
ENDBRANCH  24  29
ENDBRANCH  23  25
BRANCH  23  36
ATOM     36  N   UNL A   1     -25.185   2.807  30.766  0.00  0.00    -0.239 NA
BRANCH  36  38
ATOM     37  C   UNL A   1     -24.653   4.143  32.677  0.00  0.00    +0.016 C 
ATOM     38  C   UNL A   1     -25.341   3.996  31.480  0.00  0.00    +0.065 C 
ATOM     39  C   UNL A   1     -26.228   6.235  31.739  0.00  0.00    +0.001 C 
ATOM     40  C   UNL A   1     -24.768   5.309  33.407  0.00  0.00    +0.001 C 
ATOM     41  C   UNL A   1     -25.556   6.339  32.942  0.00  0.00    +0.000 C 
ATOM     42  C   UNL A   1     -26.102   5.067  30.995  0.00  0.00    +0.016 C 
ENDBRANCH  36  38
ENDBRANCH  23  36
ENDBRANCH   1  23
TORSDOF 16
