REMARK  Name = outputs/IAG933/test6/raw/output_5756_IAG933_linker_design_.xyz
REMARK  14 active torsions:
REMARK  status: ('A' for Active; 'I' for Inactive)
REMARK    1  A    between atoms: C_1  and  C_2
REMARK    2  A    between atoms: C_1  and  C_8
REMARK    3  A    between atoms: C_9  and  S_38
REMARK    4  A    between atoms: C_13  and  C_40
REMARK    5  A    between atoms: C_14  and  C_15
REMARK    6  A    between atoms: C_21  and  O_22
REMARK    7  A    between atoms: O_22  and  C_23
REMARK    8  A    between atoms: C_23  and  C_24
REMARK    9  A    between atoms: C_29  and  C_30
REMARK   10  A    between atoms: C_29  and  N_33
REMARK   11  A    between atoms: N_33  and  S_38
REMARK   12  A    between atoms: O_34  and  C_37
REMARK   13  A    between atoms: O_34  and  S_38
REMARK   14  A    between atoms: N_39  and  C_40
REMARK                            x       y       z     vdW  Elec       q    Type
REMARK                         _______ _______ _______ _____ _____    ______ ____
ROOT
ATOM      1  O   UNL A   1     -21.366   1.612  27.423  0.00  0.00    -0.454 OA
ATOM      2  C   UNL A   1     -22.544   1.600  28.219  0.00  0.00    +0.264 C 
ATOM      3  C   UNL A   1     -21.740   1.671  25.959  0.00  0.00    +0.190 C 
ATOM      4  C   UNL A   1     -23.058   1.601  25.768  0.00  0.00    +0.105 C 
ATOM      5  N   UNL A   1     -23.527   1.516  27.132  0.00  0.00    -0.267 N 
ENDROOT
BRANCH   2   6
ATOM      6  C   UNL A   1     -22.644   1.103  29.462  0.00  0.00    +0.170 C 
BRANCH   6   7
ATOM      7  N   UNL A   1     -23.643   1.970  30.281  0.00  0.00    -0.127 NA
BRANCH   7   9
ATOM      8  O   UNL A   1     -26.252   2.447  30.419  0.00  0.00    -0.129 OA
ATOM      9  S   UNL A   1     -25.046   2.243  31.122  0.00  0.00    +0.098 S 
BRANCH   9  11
ATOM     10  C   UNL A   1     -25.387  -0.679  31.571  0.00  0.00    +0.091 C 
ATOM     11  C   UNL A   1     -25.189   0.773  32.028  0.00  0.00    +0.114 C 
ATOM     12  C   UNL A   1     -25.336   0.684  33.544  0.00  0.00    +0.035 C 
ATOM     13  C   UNL A   1     -24.829  -0.715  33.905  0.00  0.00    +0.090 C 
ATOM     14  N   UNL A   1     -24.758  -1.481  32.646  0.00  0.00    -0.218 NA
BRANCH  10  15
ATOM     15  C   UNL A   1     -24.855  -1.012  30.143  0.00  0.00    +0.045 C 
BRANCH  15  16
ATOM     16  C   UNL A   1     -24.973  -2.505  29.788  0.00  0.00    -0.021 C 
ATOM     17  C   UNL A   1     -23.906  -3.173  29.146  0.00  0.00    -0.004 C 
ATOM     18  C   UNL A   1     -23.989  -4.549  28.853  0.00  0.00    -0.000 C 
ATOM     19  C   UNL A   1     -25.137  -5.280  29.205  0.00  0.00    -0.000 C 
ATOM     20  C   UNL A   1     -26.232  -4.611  29.784  0.00  0.00    -0.000 C 
ATOM     21  C   UNL A   1     -26.155  -3.232  30.065  0.00  0.00    -0.004 C 
ENDBRANCH  15  16
ENDBRANCH  10  15
ENDBRANCH   9  11
BRANCH   9  22
ATOM     22  O   UNL A   1     -24.460   3.383  32.065  0.00  0.00    -0.248 OA
BRANCH  22  24
ATOM     23  O   UNL A   1     -25.319   5.503  31.418  0.00  0.00    -0.183 OA
ATOM     24  C   UNL A   1     -25.099   4.593  32.358  0.00  0.00    +0.341 C 
ENDBRANCH  22  24
ENDBRANCH   9  22
ENDBRANCH   7   9
ENDBRANCH   6   7
ENDBRANCH   2   6
BRANCH   5  25
ATOM     25  C   UNL A   1     -24.667   1.129  27.410  0.00  0.00    +0.123 C 
BRANCH  25  26
ATOM     26  C   UNL A   1     -25.688   1.614  26.461  0.00  0.00    +0.036 C 
ATOM     27  C   UNL A   1     -26.250   2.920  26.395  0.00  0.00    +0.074 C 
ATOM     28  C   UNL A   1     -27.438   3.091  25.645  0.00  0.00    +0.106 C 
ATOM     29  N   UNL A   1     -28.075   2.089  25.003  0.00  0.00    -0.208 NA
ATOM     30  C   UNL A   1     -27.543   0.849  25.079  0.00  0.00    +0.253 C 
ATOM     31  C   UNL A   1     -26.354   0.576  25.777  0.00  0.00    +0.191 C 
ATOM     32  F   UNL A   1     -25.860  -0.681  25.795  0.00  0.00    -0.200 F 
BRANCH  27  33
ATOM     33  C   UNL A   1     -25.642   4.093  27.123  0.00  0.00    +0.266 C 
ATOM     34  N   UNL A   1     -25.614   5.252  26.449  0.00  0.00    -0.200 NA
ATOM     35  C   UNL A   1     -25.026   6.479  26.963  0.00  0.00    +0.139 C 
ATOM     36  O   UNL A   1     -25.143   3.966  28.243  0.00  0.00    -0.268 OA
ENDBRANCH  27  33
BRANCH  30  37
ATOM     37  O   UNL A   1     -28.193  -0.208  24.477  0.00  0.00    -0.456 OA
BRANCH  37  38
ATOM     38  C   UNL A   1     -29.460   0.005  23.866  0.00  0.00    +0.243 C 
BRANCH  38  39
ATOM     39  C   UNL A   1     -30.065  -1.377  23.573  0.00  0.00    +0.229 C 
ATOM     40  O   UNL A   1     -30.729  -1.878  24.721  0.00  0.00    -0.216 OA
ENDBRANCH  38  39
ENDBRANCH  37  38
ENDBRANCH  30  37
ENDBRANCH  25  26
ENDBRANCH   5  25
TORSDOF 14
