MODEL 575
MODEL 1
REMARK VINA RESULT:    -8.133      0.000      0.000
REMARK INTER + INTRA:         -12.878
REMARK INTER:                 -10.986
REMARK INTRA:                  -1.892
REMARK UNBOUND:                -1.892
REMARK  Name = No_575-gen_results/8p0m/2024-11-27-11-27-31/
REMARK  6 active torsions:
REMARK  status: ('A' for Active; 'I' for Inactive)
REMARK    1  A    between atoms: C_2  and  C_14
REMARK    2  A    between atoms: C_3  and  O_17
REMARK    3  A    between atoms: C_4  and  C_7
REMARK    4  A    between atoms: C_5  and  C_27
REMARK    5  A    between atoms: C_7  and  C_8
REMARK    6  A    between atoms: O_17  and  C_18
REMARK                            x       y       z     vdW  Elec       q    Type
REMARK                         _______ _______ _______ _____ _____    ______ ____
ROOT
ATOM      1  C   UNL A   1     -24.058   0.883  29.430  0.00  0.00    +0.044 A 
ATOM      2  C   UNL A   1     -24.191  -0.154  29.561  0.00  0.00    +0.083 A 
ATOM      3  C   UNL A   1     -24.198   1.398  28.059  0.00  0.00    +0.148 A 
ATOM      4  C   UNL A   1     -24.633   0.542  27.005  0.00  0.00    +0.073 A 
ATOM      5  C   UNL A   1     -24.691  -1.231  28.664  0.00  0.00    +0.007 A 
ATOM      6  C   UNL A   1     -24.824  -0.795  27.380  0.00  0.00    +0.006 A 
ENDROOT
BRANCH   5   7
ATOM      7  C   UNL A   1     -24.938  -2.619  29.098  0.00  0.00    +0.000 A 
ATOM      8  C   UNL A   1     -23.909  -3.466  28.665  0.00  0.00    +0.000 A 
ATOM      9  C   UNL A   1     -24.256  -4.786  28.784  0.00  0.00    +0.000 A 
ATOM     10  C   UNL A   1     -25.440  -5.198  29.369  0.00  0.00    +0.000 A 
ATOM     11  C   UNL A   1     -26.406  -4.297  29.732  0.00  0.00    +0.000 A 
ATOM     12  C   UNL A   1     -26.166  -2.963  29.490  0.00  0.00    +0.000 A 
ENDBRANCH   5   7
BRANCH   2  13
ATOM     13  C   UNL A   1     -24.025  -0.731  31.070  0.00  0.00    +0.388 C 
ATOM     14  O   UNL A   1     -22.881  -1.118  31.434  0.00  0.00    -0.241 OA
ATOM     15  O   UNL A   1     -25.001  -0.685  31.801  0.00  0.00    -0.241 OA
ENDBRANCH   2  13
BRANCH   4  16
ATOM     16  C   UNL A   1     -24.795   0.992  25.662  0.00  0.00    +0.199 C 
ATOM     17  O   UNL A   1     -23.821   1.281  24.989  0.00  0.00    -0.286 OA
BRANCH  16  18
ATOM     18  C   UNL A   1     -26.118   1.080  25.210  0.00  0.00    +0.039 A 
ATOM     19  C   UNL A   1     -26.754  -0.016  24.559  0.00  0.00    -0.001 A 
ATOM     20  C   UNL A   1     -28.080   0.025  24.217  0.00  0.00    -0.022 A 
ATOM     21  C   UNL A   1     -26.903   2.281  25.289  0.00  0.00    +0.003 A 
ATOM     22  C   UNL A   1     -28.264   2.320  25.067  0.00  0.00    -0.000 A 
ATOM     23  C   UNL A   1     -28.895   1.170  24.487  0.00  0.00    -0.004 A 
ATOM     24  C   UNL A   1     -28.733  -1.197  23.669  0.00  0.00    +0.031 C 
ENDBRANCH  16  18
ENDBRANCH   4  16
BRANCH   3  25
ATOM     25  O   UNL A   1     -24.015   2.703  27.566  0.00  0.00    -0.453 OA
BRANCH  25  26
ATOM     26  C   UNL A   1     -25.051   3.562  27.825  0.00  0.00    +0.146 A 
ATOM     27  C   UNL A   1     -24.945   4.830  27.195  0.00  0.00    +0.037 A 
ATOM     28  C   UNL A   1     -26.035   3.463  28.788  0.00  0.00    +0.049 A 
ATOM     29  C   UNL A   1     -26.936   4.401  29.061  0.00  0.00    +0.061 A 
ATOM     30  C   UNL A   1     -26.835   5.610  28.388  0.00  0.00    +0.012 A 
ATOM     31  C   UNL A   1     -25.850   5.814  27.442  0.00  0.00    +0.004 A 
ATOM     32 CL   UNL A   1     -28.149   4.092  30.254  0.00  0.00    -0.082 Cl
ENDBRANCH  25  26
ENDBRANCH   3  25
TORSDOF 6
ENDMDL
ENDMDL
