REMARK  Name = outputs/IAG933/test6/raw/output_5761_IAG933_linker_design_.xyz
REMARK  11 active torsions:
REMARK  status: ('A' for Active; 'I' for Inactive)
REMARK    1  A    between atoms: C_1  and  C_2
REMARK    2  A    between atoms: C_1  and  C_8
REMARK    3  A    between atoms: C_1  and  N_35
REMARK    4  A    between atoms: C_13  and  N_32
REMARK    5  A    between atoms: C_14  and  C_15
REMARK    6  A    between atoms: C_21  and  O_22
REMARK    7  A    between atoms: O_22  and  C_23
REMARK    8  A    between atoms: C_23  and  C_24
REMARK    9  A    between atoms: C_31  and  C_38
REMARK   10  A    between atoms: C_34  and  C_37
REMARK   11  A    between atoms: C_34  and  N_39
REMARK                            x       y       z     vdW  Elec       q    Type
REMARK                         _______ _______ _______ _____ _____    ______ ____
ROOT
ATOM      1 CL   UNL A   1     -22.796   1.929  25.444  0.00  0.00    -0.085 Cl
ATOM      2  F   UNL A   1     -22.161  -0.268  29.884  0.00  0.00    -0.186 F 
ATOM      3  N   UNL A   1     -24.755   1.313  27.381  0.00  0.00    -0.270 N 
ATOM      4  F   UNL A   1     -21.170   1.698  27.972  0.00  0.00    -0.202 F 
ATOM      5  N   UNL A   1     -24.295   0.002  29.199  0.00  0.00    -0.258 N 
ATOM      6  C   UNL A   1     -22.439   1.201  28.029  0.00  0.00    +0.193 C 
ATOM      7  C   UNL A   1     -25.179   0.756  28.560  0.00  0.00    +0.234 C 
ATOM      8  C   UNL A   1     -23.438   1.513  27.129  0.00  0.00    +0.209 C 
ATOM      9  C   UNL A   1     -22.986   0.306  29.020  0.00  0.00    +0.220 C 
ENDROOT
BRANCH   3  10
ATOM     10  C   UNL A   1     -25.688   1.614  26.461  0.00  0.00    +0.072 C 
ATOM     11  C   UNL A   1     -26.250   2.920  26.395  0.00  0.00    +0.070 C 
ATOM     12  C   UNL A   1     -27.438   3.091  25.645  0.00  0.00    +0.160 C 
ATOM     13  N   UNL A   1     -28.075   2.089  25.003  0.00  0.00    -0.234 NA
ATOM     14  C   UNL A   1     -27.543   0.849  25.079  0.00  0.00    +0.235 C 
ATOM     15  C   UNL A   1     -26.354   0.576  25.777  0.00  0.00    +0.271 C 
ATOM     16  F   UNL A   1     -25.860  -0.681  25.795  0.00  0.00    -0.221 F 
BRANCH  11  17
ATOM     17  C   UNL A   1     -25.642   4.093  27.123  0.00  0.00    +0.264 C 
ATOM     18  N   UNL A   1     -25.614   5.252  26.449  0.00  0.00    -0.200 NA
ATOM     19  C   UNL A   1     -25.026   6.479  26.963  0.00  0.00    +0.139 C 
ATOM     20  O   UNL A   1     -25.143   3.966  28.243  0.00  0.00    -0.269 OA
ENDBRANCH  11  17
BRANCH  14  21
ATOM     21  O   UNL A   1     -28.193  -0.208  24.477  0.00  0.00    -0.459 OA
BRANCH  21  22
ATOM     22  C   UNL A   1     -29.460   0.005  23.866  0.00  0.00    +0.242 C 
BRANCH  22  23
ATOM     23  C   UNL A   1     -30.065  -1.377  23.573  0.00  0.00    +0.229 C 
ATOM     24  O   UNL A   1     -30.729  -1.878  24.721  0.00  0.00    -0.216 OA
ENDBRANCH  22  23
ENDBRANCH  21  22
ENDBRANCH  14  21
ENDBRANCH   3  10
BRANCH   7  26
ATOM     25  O   UNL A   1     -27.321  -0.219  28.910  0.00  0.00    -0.270 OA
ATOM     26  C   UNL A   1     -26.625   0.757  29.030  0.00  0.00    +0.279 C 
ATOM     27  N   UNL A   1     -27.101   1.935  29.581  0.00  0.00    -0.200 NA
BRANCH  27  28
ATOM     28  C   UNL A   1     -28.578   2.103  29.655  0.00  0.00    +0.151 C 
BRANCH  28  29
ATOM     29  C   UNL A   1     -28.890   3.077  30.770  0.00  0.00    +0.205 C 
ATOM     30  O   UNL A   1     -28.433   4.344  30.274  0.00  0.00    -0.218 OA
ENDBRANCH  28  29
ENDBRANCH  27  28
ENDBRANCH   7  26
BRANCH   5  31
ATOM     31  C   UNL A   1     -24.855  -1.012  30.143  0.00  0.00    +0.115 C 
BRANCH  31  32
ATOM     32  C   UNL A   1     -24.973  -2.505  29.788  0.00  0.00    -0.003 C 
ATOM     33  C   UNL A   1     -23.906  -3.173  29.146  0.00  0.00    -0.003 C 
ATOM     34  C   UNL A   1     -23.989  -4.549  28.853  0.00  0.00    -0.000 C 
ATOM     35  C   UNL A   1     -25.137  -5.280  29.205  0.00  0.00    -0.000 C 
ATOM     36  C   UNL A   1     -26.232  -4.611  29.784  0.00  0.00    -0.000 C 
ATOM     37  C   UNL A   1     -26.155  -3.232  30.065  0.00  0.00    -0.003 C 
ENDBRANCH  31  32
BRANCH  31  38
ATOM     38  C   UNL A   1     -25.387  -0.679  31.571  0.00  0.00    +0.095 C 
ATOM     39  C   UNL A   1     -25.189   0.773  32.028  0.00  0.00    +0.021 C 
ATOM     40  C   UNL A   1     -25.336   0.684  33.544  0.00  0.00    +0.020 C 
ATOM     41  C   UNL A   1     -24.829  -0.715  33.905  0.00  0.00    +0.089 C 
ATOM     42  N   UNL A   1     -24.758  -1.481  32.646  0.00  0.00    -0.217 NA
ENDBRANCH  31  38
ENDBRANCH   5  31
TORSDOF 11
