REMARK  Name = outputs/IAG933/test6/raw/output_5762_IAG933_linker_design_.xyz
REMARK  12 active torsions:
REMARK  status: ('A' for Active; 'I' for Inactive)
REMARK    1  A    between atoms: C_1  and  C_2
REMARK    2  A    between atoms: C_1  and  C_8
REMARK    3  A    between atoms: C_1  and  N_31
REMARK    4  A    between atoms: C_13  and  C_39
REMARK    5  A    between atoms: C_14  and  C_15
REMARK    6  A    between atoms: C_21  and  O_22
REMARK    7  A    between atoms: O_22  and  C_23
REMARK    8  A    between atoms: C_23  and  C_24
REMARK    9  A    between atoms: N_31  and  C_36
REMARK   10  A    between atoms: N_31  and  C_38
REMARK   11  A    between atoms: P_34  and  C_36
REMARK   12  A    between atoms: C_40  and  C_42
REMARK                            x       y       z     vdW  Elec       q    Type
REMARK                         _______ _______ _______ _____ _____    ______ ____
ROOT
ATOM      1  F   UNL A   1     -22.680   0.267  29.942  0.00  0.00    -0.224 F 
ATOM      2  C   UNL A   1     -22.597   1.365  27.930  0.00  0.00    +0.160 C 
ATOM      3  C   UNL A   1     -23.345   0.677  28.832  0.00  0.00    +0.245 C 
ATOM      4  C   UNL A   1     -24.697   0.586  28.389  0.00  0.00    +0.065 C 
ATOM      5  C   UNL A   1     -24.713   1.277  27.233  0.00  0.00    +0.021 C 
ATOM      6  C   UNL A   1     -23.419   1.607  26.926  0.00  0.00    +0.099 C 
ATOM      7  F   UNL A   1     -21.313   1.597  27.949  0.00  0.00    -0.206 F 
ENDROOT
BRANCH   5   8
ATOM      8  C   UNL A   1     -25.688   1.614  26.461  0.00  0.00    +0.039 C 
ATOM      9  C   UNL A   1     -26.250   2.920  26.395  0.00  0.00    +0.077 C 
ATOM     10  C   UNL A   1     -27.438   3.091  25.645  0.00  0.00    +0.107 C 
ATOM     11  N   UNL A   1     -28.075   2.089  25.003  0.00  0.00    -0.208 NA
ATOM     12  C   UNL A   1     -27.543   0.849  25.079  0.00  0.00    +0.253 C 
ATOM     13  C   UNL A   1     -26.354   0.576  25.777  0.00  0.00    +0.193 C 
ATOM     14  F   UNL A   1     -25.860  -0.681  25.795  0.00  0.00    -0.199 F 
BRANCH   9  15
ATOM     15  C   UNL A   1     -25.642   4.093  27.123  0.00  0.00    +0.266 C 
ATOM     16  N   UNL A   1     -25.614   5.252  26.449  0.00  0.00    -0.200 NA
ATOM     17  C   UNL A   1     -25.026   6.479  26.963  0.00  0.00    +0.139 C 
ATOM     18  O   UNL A   1     -25.143   3.966  28.243  0.00  0.00    -0.268 OA
ENDBRANCH   9  15
BRANCH  12  19
ATOM     19  O   UNL A   1     -28.193  -0.208  24.477  0.00  0.00    -0.456 OA
BRANCH  19  20
ATOM     20  C   UNL A   1     -29.460   0.005  23.866  0.00  0.00    +0.243 C 
BRANCH  20  21
ATOM     21  C   UNL A   1     -30.065  -1.377  23.573  0.00  0.00    +0.229 C 
ATOM     22  O   UNL A   1     -30.729  -1.878  24.721  0.00  0.00    -0.216 OA
ENDBRANCH  20  21
ENDBRANCH  19  20
ENDBRANCH  12  19
ENDBRANCH   5   8
BRANCH   6  25
ATOM     23  F   UNL A   1     -23.327   3.402  25.543  0.00  0.00    -0.166 F 
ATOM     24  F   UNL A   1     -23.692   1.425  24.602  0.00  0.00    -0.166 F 
ATOM     25  C   UNL A   1     -23.039   2.094  25.639  0.00  0.00    +0.420 C 
ATOM     26  F   UNL A   1     -21.756   1.960  25.347  0.00  0.00    -0.166 F 
ENDBRANCH   6  25
BRANCH   4  27
ATOM     27  N   UNL A   1     -25.486  -0.238  29.096  0.00  0.00    -0.297 N 
BRANCH  27  28
ATOM     28  C   UNL A   1     -24.855  -1.012  30.143  0.00  0.00    +0.112 C 
BRANCH  28  29
ATOM     29  C   UNL A   1     -24.973  -2.505  29.788  0.00  0.00    -0.003 C 
ATOM     30  C   UNL A   1     -23.906  -3.173  29.146  0.00  0.00    -0.003 C 
ATOM     31  C   UNL A   1     -23.989  -4.549  28.853  0.00  0.00    -0.000 C 
ATOM     32  C   UNL A   1     -25.137  -5.280  29.205  0.00  0.00    -0.000 C 
ATOM     33  C   UNL A   1     -26.232  -4.611  29.784  0.00  0.00    -0.000 C 
ATOM     34  C   UNL A   1     -26.155  -3.232  30.065  0.00  0.00    -0.003 C 
ENDBRANCH  28  29
BRANCH  28  35
ATOM     35  C   UNL A   1     -25.387  -0.679  31.571  0.00  0.00    +0.095 C 
ATOM     36  C   UNL A   1     -25.189   0.773  32.028  0.00  0.00    +0.021 C 
ATOM     37  C   UNL A   1     -25.336   0.684  33.544  0.00  0.00    +0.020 C 
ATOM     38  C   UNL A   1     -24.829  -0.715  33.905  0.00  0.00    +0.089 C 
ATOM     39  N   UNL A   1     -24.758  -1.481  32.646  0.00  0.00    -0.217 NA
ENDBRANCH  28  35
ENDBRANCH  27  28
BRANCH  27  40
ATOM     40  C   UNL A   1     -26.744  -0.731  28.663  0.00  0.00    +0.181 C 
BRANCH  40  43
ATOM     41  O   UNL A   1     -28.093   1.325  28.868  0.00  0.00    -0.166 OA
ATOM     42  C   UNL A   1     -28.411  -0.017  31.025  0.00  0.00    +0.101 C 
ATOM     43  P   UNL A   1     -28.177  -0.057  29.190  0.00  0.00    +0.274 P 
ATOM     44  O   UNL A   1     -29.176  -0.827  28.507  0.00  0.00    -0.285 OA
ENDBRANCH  40  43
ENDBRANCH  27  40
ENDBRANCH   4  27
TORSDOF 12
