REMARK  Name = outputs/IAG933/test6/raw/output_577_IAG933_linker_design_.xyz
REMARK  8 active torsions:
REMARK  status: ('A' for Active; 'I' for Inactive)
REMARK    1  A    between atoms: C_1  and  C_2
REMARK    2  A    between atoms: C_1  and  C_8
REMARK    3  A    between atoms: C_1  and  O_38
REMARK    4  A    between atoms: C_21  and  O_22
REMARK    5  A    between atoms: O_22  and  C_23
REMARK    6  A    between atoms: C_23  and  C_24
REMARK    7  A    between atoms: C_33  and  O_38
REMARK    8  A    between atoms: C_36  and  N_42
REMARK                            x       y       z     vdW  Elec       q    Type
REMARK                         _______ _______ _______ _____ _____    ______ ____
ROOT
ATOM      1  C   UNL A   1     -25.688   1.614  26.461  0.00  0.00    +0.232 C 
ATOM      2  C   UNL A   1     -26.250   2.920  26.395  0.00  0.00    +0.095 C 
ATOM      3  C   UNL A   1     -25.642   4.093  27.123  0.00  0.00    +0.222 C 
ATOM      4  N   UNL A   1     -25.614   5.252  26.449  0.00  0.00    -0.236 NA
ATOM      5  C   UNL A   1     -25.026   6.479  26.963  0.00  0.00    +0.155 C 
ATOM      6  O   UNL A   1     -25.143   3.966  28.243  0.00  0.00    -0.464 OA
ATOM      7  C   UNL A   1     -27.438   3.091  25.645  0.00  0.00    +0.106 C 
ATOM      8  N   UNL A   1     -28.075   2.089  25.003  0.00  0.00    -0.212 NA
ATOM      9  C   UNL A   1     -27.543   0.849  25.079  0.00  0.00    +0.238 C 
ATOM     10  C   UNL A   1     -26.354   0.576  25.777  0.00  0.00    +0.282 C 
ATOM     11  F   UNL A   1     -25.860  -0.681  25.795  0.00  0.00    -0.223 F 
ATOM     12  C   UNL A   1     -27.985   2.404  29.300  0.00  0.00    +0.084 C 
ATOM     13  C   UNL A   1     -25.747   1.095  28.818  0.00  0.00    +0.288 C 
ATOM     14  C   UNL A   1     -28.920   2.998  30.346  0.00  0.00    +0.089 C 
ATOM     15  C   UNL A   1     -27.498   4.917  29.810  0.00  0.00    +0.076 C 
ATOM     16  C   UNL A   1     -26.415   2.177  29.303  0.00  0.00    +0.129 C 
ATOM     17  N   UNL A   1     -28.389   3.828  29.372  0.00  0.00    -0.271 NA
ATOM     18  N   UNL A   1     -24.938   1.273  27.605  0.00  0.00    -0.165 N 
ATOM     19  C   UNL A   1     -25.536   3.347  29.497  0.00  0.00    +0.177 C 
ATOM     20  C   UNL A   1     -26.202   4.356  30.433  0.00  0.00    +0.061 C 
ENDROOT
BRANCH  18  26
ATOM     21  C   UNL A   1     -20.892   1.504  27.907  0.00  0.00    +0.149 C 
ATOM     22  N   UNL A   1     -23.038   0.519  28.609  0.00  0.00    -0.033 NA
ATOM     23  C   UNL A   1     -21.674   0.780  28.747  0.00  0.00    +0.256 C 
ATOM     24  C   UNL A   1     -23.178   2.412  25.201  0.00  0.00    +0.060 C 
ATOM     25  N   UNL A   1     -21.481   2.063  26.880  0.00  0.00    -0.237 NA
ATOM     26  C   UNL A   1     -23.606   1.321  27.567  0.00  0.00    +0.340 C 
ATOM     27  C   UNL A   1     -22.779   1.916  26.602  0.00  0.00    +0.141 C 
ENDBRANCH  18  26
BRANCH   9  28
ATOM     28  O   UNL A   1     -28.193  -0.208  24.477  0.00  0.00    -0.458 OA
BRANCH  28  29
ATOM     29  C   UNL A   1     -29.460   0.005  23.866  0.00  0.00    +0.242 C 
BRANCH  29  30
ATOM     30  C   UNL A   1     -30.065  -1.377  23.573  0.00  0.00    +0.229 C 
ATOM     31  O   UNL A   1     -30.729  -1.878  24.721  0.00  0.00    -0.216 OA
ENDBRANCH  29  30
ENDBRANCH  28  29
ENDBRANCH   9  28
BRANCH  13  32
ATOM     32  O   UNL A   1     -25.721  -0.305  29.216  0.00  0.00    -0.315 OA
BRANCH  32  33
ATOM     33  C   UNL A   1     -24.855  -1.012  30.143  0.00  0.00    +0.157 C 
BRANCH  33  34
ATOM     34  C   UNL A   1     -24.973  -2.505  29.788  0.00  0.00    +0.006 C 
ATOM     35  C   UNL A   1     -23.906  -3.173  29.146  0.00  0.00    -0.002 C 
ATOM     36  C   UNL A   1     -23.989  -4.549  28.853  0.00  0.00    -0.000 C 
ATOM     37  C   UNL A   1     -25.137  -5.280  29.205  0.00  0.00    -0.000 C 
ATOM     38  C   UNL A   1     -26.232  -4.611  29.784  0.00  0.00    -0.000 C 
ATOM     39  C   UNL A   1     -26.155  -3.232  30.065  0.00  0.00    -0.002 C 
ENDBRANCH  33  34
BRANCH  33  40
ATOM     40  C   UNL A   1     -25.387  -0.679  31.571  0.00  0.00    +0.104 C 
ATOM     41  C   UNL A   1     -25.189   0.773  32.028  0.00  0.00    +0.022 C 
ATOM     42  C   UNL A   1     -25.336   0.684  33.544  0.00  0.00    +0.020 C 
ATOM     43  C   UNL A   1     -24.829  -0.715  33.905  0.00  0.00    +0.089 C 
ATOM     44  N   UNL A   1     -24.758  -1.481  32.646  0.00  0.00    -0.217 NA
ENDBRANCH  33  40
ENDBRANCH  32  33
ENDBRANCH  13  32
TORSDOF 8
