REMARK  Name = outputs/IAG933/test6/raw/output_5771_IAG933_linker_design_.xyz
REMARK  13 active torsions:
REMARK  status: ('A' for Active; 'I' for Inactive)
REMARK    1  A    between atoms: C_1  and  C_2
REMARK    2  A    between atoms: C_1  and  C_8
REMARK    3  A    between atoms: C_1  and  O_33
REMARK    4  A    between atoms: C_9  and  C_39
REMARK    5  A    between atoms: C_13  and  C_37
REMARK    6  A    between atoms: C_14  and  C_15
REMARK    7  A    between atoms: C_21  and  O_22
REMARK    8  A    between atoms: O_22  and  C_23
REMARK    9  A    between atoms: C_23  and  C_24
REMARK   10  A    between atoms: C_28  and  C_29
REMARK   11  A    between atoms: C_28  and  C_35
REMARK   12  A    between atoms: C_29  and  C_39
REMARK   13  A    between atoms: C_30  and  O_33
REMARK                            x       y       z     vdW  Elec       q    Type
REMARK                         _______ _______ _______ _____ _____    ______ ____
ROOT
ATOM      1  C   UNL A   1     -24.331   0.560  28.386  0.00  0.00    +0.140 C 
ATOM      2  C   UNL A   1     -23.184   0.670  29.124  0.00  0.00    +0.037 C 
ATOM      3  C   UNL A   1     -24.417   1.349  27.164  0.00  0.00    +0.047 C 
ATOM      4  C   UNL A   1     -23.226   1.937  26.648  0.00  0.00    +0.061 C 
ATOM      5 CL   UNL A   1     -23.006   2.702  25.078  0.00  0.00    -0.082 Cl
ATOM      6  C   UNL A   1     -22.090   1.944  27.460  0.00  0.00    +0.012 C 
ATOM      7  C   UNL A   1     -22.088   1.373  28.696  0.00  0.00    +0.004 C 
ENDROOT
BRANCH   3   8
ATOM      8  C   UNL A   1     -25.688   1.614  26.461  0.00  0.00    +0.042 C 
ATOM      9  C   UNL A   1     -26.250   2.920  26.395  0.00  0.00    +0.077 C 
ATOM     10  C   UNL A   1     -27.438   3.091  25.645  0.00  0.00    +0.107 C 
ATOM     11  N   UNL A   1     -28.075   2.089  25.003  0.00  0.00    -0.208 NA
ATOM     12  C   UNL A   1     -27.543   0.849  25.079  0.00  0.00    +0.253 C 
ATOM     13  C   UNL A   1     -26.354   0.576  25.777  0.00  0.00    +0.193 C 
ATOM     14  F   UNL A   1     -25.860  -0.681  25.795  0.00  0.00    -0.199 F 
BRANCH   9  15
ATOM     15  C   UNL A   1     -25.642   4.093  27.123  0.00  0.00    +0.266 C 
ATOM     16  N   UNL A   1     -25.614   5.252  26.449  0.00  0.00    -0.200 NA
ATOM     17  C   UNL A   1     -25.026   6.479  26.963  0.00  0.00    +0.139 C 
ATOM     18  O   UNL A   1     -25.143   3.966  28.243  0.00  0.00    -0.268 OA
ENDBRANCH   9  15
BRANCH  12  19
ATOM     19  O   UNL A   1     -28.193  -0.208  24.477  0.00  0.00    -0.456 OA
BRANCH  19  20
ATOM     20  C   UNL A   1     -29.460   0.005  23.866  0.00  0.00    +0.243 C 
BRANCH  20  21
ATOM     21  C   UNL A   1     -30.065  -1.377  23.573  0.00  0.00    +0.229 C 
ATOM     22  O   UNL A   1     -30.729  -1.878  24.721  0.00  0.00    -0.216 OA
ENDBRANCH  20  21
ENDBRANCH  19  20
ENDBRANCH  12  19
ENDBRANCH   3   8
BRANCH   1  23
ATOM     23  O   UNL A   1     -25.292  -0.276  28.979  0.00  0.00    -0.473 OA
BRANCH  23  24
ATOM     24  C   UNL A   1     -24.855  -1.012  30.143  0.00  0.00    +0.204 C 
BRANCH  24  25
ATOM     25  C   UNL A   1     -24.973  -2.505  29.788  0.00  0.00    +0.019 C 
ATOM     26  C   UNL A   1     -23.906  -3.173  29.146  0.00  0.00    -0.001 C 
ATOM     27  C   UNL A   1     -23.989  -4.549  28.853  0.00  0.00    -0.000 C 
ATOM     28  C   UNL A   1     -25.137  -5.280  29.205  0.00  0.00    -0.000 C 
ATOM     29  C   UNL A   1     -26.232  -4.611  29.784  0.00  0.00    -0.000 C 
ATOM     30  C   UNL A   1     -26.155  -3.232  30.065  0.00  0.00    -0.001 C 
ENDBRANCH  24  25
BRANCH  24  31
ATOM     31  C   UNL A   1     -25.387  -0.679  31.571  0.00  0.00    +0.119 C 
ATOM     32  C   UNL A   1     -25.189   0.773  32.028  0.00  0.00    +0.054 C 
ATOM     33  C   UNL A   1     -25.336   0.684  33.544  0.00  0.00    +0.023 C 
ATOM     34  C   UNL A   1     -24.829  -0.715  33.905  0.00  0.00    +0.089 C 
ATOM     35  N   UNL A   1     -24.758  -1.481  32.646  0.00  0.00    -0.215 NA
BRANCH  32  37
ATOM     36  O   UNL A   1     -26.715   1.433  30.437  0.00  0.00    -0.220 OA
ATOM     37  C   UNL A   1     -25.886   1.728  31.392  0.00  0.00    +0.183 C 
BRANCH  37  38
ATOM     38  C   UNL A   1     -25.861   3.119  31.775  0.00  0.00    +0.182 C 
ATOM     39  O   UNL A   1     -24.732   3.700  31.518  0.00  0.00    -0.220 OA
BRANCH  38  40
ATOM     40  C   UNL A   1     -27.085   3.571  32.337  0.00  0.00    +0.035 C 
BRANCH  40  42
ATOM     41  C   UNL A   1     -26.765   5.214  30.424  0.00  0.00    +0.000 C 
ATOM     42  C   UNL A   1     -27.677   4.280  31.166  0.00  0.00    +0.003 C 
ENDBRANCH  40  42
ENDBRANCH  38  40
ENDBRANCH  37  38
ENDBRANCH  32  37
ENDBRANCH  24  31
ENDBRANCH  23  24
ENDBRANCH   1  23
TORSDOF 13
