REMARK  Name = outputs/IAG933/test6/raw/output_5774_IAG933_linker_design_.xyz
REMARK  12 active torsions:
REMARK  status: ('A' for Active; 'I' for Inactive)
REMARK    1  A    between atoms: C_1  and  C_2
REMARK    2  A    between atoms: C_1  and  C_8
REMARK    3  A    between atoms: C_1  and  N_41
REMARK    4  A    between atoms: C_13  and  C_29
REMARK    5  A    between atoms: C_14  and  C_15
REMARK    6  A    between atoms: C_21  and  O_22
REMARK    7  A    between atoms: O_22  and  C_23
REMARK    8  A    between atoms: C_23  and  C_24
REMARK    9  A    between atoms: C_29  and  C_38
REMARK   10  A    between atoms: C_33  and  C_38
REMARK   11  A    between atoms: C_34  and  N_41
REMARK   12  A    between atoms: C_35  and  C_38
REMARK                            x       y       z     vdW  Elec       q    Type
REMARK                         _______ _______ _______ _____ _____    ______ ____
ROOT
ATOM      1  C   UNL A   1     -23.356   0.385  29.237  0.00  0.00    +0.232 C 
ATOM      2  O   UNL A   1     -22.470  -0.007  30.029  0.00  0.00    -0.274 OA
ATOM      3  N   UNL A   1     -24.809   0.083  29.401  0.00  0.00    -0.247 N 
ENDROOT
BRANCH   3   8
ATOM      4  C   UNL A   1     -30.553   0.883  29.887  0.00  0.00    -0.000 C 
ATOM      5  C   UNL A   1     -27.007   1.284  29.227  0.00  0.00    -0.089 C 
ATOM      6  C   UNL A   1     -28.636   2.871  30.191  0.00  0.00    +0.051 C 
ATOM      7  C   UNL A   1     -29.979   3.147  30.455  0.00  0.00    -0.021 C 
ATOM      8  C   UNL A   1     -25.864   1.124  29.099  0.00  0.00    +0.110 C 
ATOM      9  C   UNL A   1     -30.944   2.172  30.270  0.00  0.00    -0.004 C 
ATOM     10  C   UNL A   1     -29.223   0.617  29.602  0.00  0.00    +0.004 C 
ATOM     11  C   UNL A   1     -28.285   1.650  29.638  0.00  0.00    +0.017 C 
ATOM     12  C   UNL A   1     -27.551   3.888  30.514  0.00  0.00    +0.010 C 
ENDBRANCH   3   8
BRANCH   3  13
ATOM     13  C   UNL A   1     -24.855  -1.012  30.143  0.00  0.00    +0.119 C 
BRANCH  13  14
ATOM     14  C   UNL A   1     -24.973  -2.505  29.788  0.00  0.00    -0.003 C 
ATOM     15  C   UNL A   1     -23.906  -3.173  29.146  0.00  0.00    -0.003 C 
ATOM     16  C   UNL A   1     -23.989  -4.549  28.853  0.00  0.00    -0.000 C 
ATOM     17  C   UNL A   1     -25.137  -5.280  29.205  0.00  0.00    -0.000 C 
ATOM     18  C   UNL A   1     -26.232  -4.611  29.784  0.00  0.00    -0.000 C 
ATOM     19  C   UNL A   1     -26.155  -3.232  30.065  0.00  0.00    -0.003 C 
ENDBRANCH  13  14
BRANCH  13  20
ATOM     20  C   UNL A   1     -25.387  -0.679  31.571  0.00  0.00    +0.096 C 
ATOM     21  C   UNL A   1     -25.189   0.773  32.028  0.00  0.00    +0.021 C 
ATOM     22  C   UNL A   1     -25.336   0.684  33.544  0.00  0.00    +0.020 C 
ATOM     23  C   UNL A   1     -24.829  -0.715  33.905  0.00  0.00    +0.089 C 
ATOM     24  N   UNL A   1     -24.758  -1.481  32.646  0.00  0.00    -0.217 NA
ENDBRANCH  13  20
ENDBRANCH   3  13
BRANCH   1  25
ATOM     25  C   UNL A   1     -22.999   1.248  27.954  0.00  0.00    +0.110 C 
BRANCH  25  26
ATOM     26  C   UNL A   1     -21.479   0.916  27.768  0.00  0.00    +0.191 C 
ATOM     27  O   UNL A   1     -20.852   1.867  27.049  0.00  0.00    -0.220 OA
ENDBRANCH  25  26
BRANCH  25  28
ATOM     28  C   UNL A   1     -24.180   1.298  26.807  0.00  0.00    +0.020 C 
BRANCH  28  29
ATOM     29  C   UNL A   1     -25.688   1.614  26.461  0.00  0.00    +0.071 C 
ATOM     30  C   UNL A   1     -26.250   2.920  26.395  0.00  0.00    +0.055 C 
ATOM     31  C   UNL A   1     -27.438   3.091  25.645  0.00  0.00    +0.102 C 
ATOM     32  N   UNL A   1     -28.075   2.089  25.003  0.00  0.00    -0.212 NA
ATOM     33  C   UNL A   1     -27.543   0.849  25.079  0.00  0.00    +0.234 C 
ATOM     34  C   UNL A   1     -26.354   0.576  25.777  0.00  0.00    +0.240 C 
ATOM     35  F   UNL A   1     -25.860  -0.681  25.795  0.00  0.00    -0.227 F 
BRANCH  30  36
ATOM     36  C   UNL A   1     -25.642   4.093  27.123  0.00  0.00    +0.262 C 
ATOM     37  N   UNL A   1     -25.614   5.252  26.449  0.00  0.00    -0.200 NA
ATOM     38  C   UNL A   1     -25.026   6.479  26.963  0.00  0.00    +0.139 C 
ATOM     39  O   UNL A   1     -25.143   3.966  28.243  0.00  0.00    -0.269 OA
ENDBRANCH  30  36
BRANCH  33  40
ATOM     40  O   UNL A   1     -28.193  -0.208  24.477  0.00  0.00    -0.459 OA
BRANCH  40  41
ATOM     41  C   UNL A   1     -29.460   0.005  23.866  0.00  0.00    +0.242 C 
BRANCH  41  42
ATOM     42  C   UNL A   1     -30.065  -1.377  23.573  0.00  0.00    +0.229 C 
ATOM     43  O   UNL A   1     -30.729  -1.878  24.721  0.00  0.00    -0.216 OA
ENDBRANCH  41  42
ENDBRANCH  40  41
ENDBRANCH  33  40
ENDBRANCH  28  29
ENDBRANCH  25  28
ENDBRANCH   1  25
TORSDOF 12
