REMARK  Name = outputs/IAG933/test6/raw/output_5778_IAG933_linker_design_.xyz
REMARK  10 active torsions:
REMARK  status: ('A' for Active; 'I' for Inactive)
REMARK    1  A    between atoms: C_1  and  C_2
REMARK    2  A    between atoms: C_1  and  C_8
REMARK    3  A    between atoms: C_1  and  N_37
REMARK    4  A    between atoms: C_13  and  C_33
REMARK    5  A    between atoms: C_14  and  C_15
REMARK    6  A    between atoms: C_21  and  O_22
REMARK    7  A    between atoms: O_22  and  C_23
REMARK    8  A    between atoms: C_23  and  C_24
REMARK    9  A    between atoms: O_30  and  C_34
REMARK   10  A    between atoms: C_34  and  C_42
REMARK                            x       y       z     vdW  Elec       q    Type
REMARK                         _______ _______ _______ _____ _____    ______ ____
ROOT
ATOM      1  O   UNL A   1     -21.577   1.846  26.482  0.00  0.00    -0.329 OA
ATOM      2  O   UNL A   1     -24.540  -0.508  27.926  0.00  0.00    -0.157 OA
ATOM      3  O   UNL A   1     -25.696   1.440  29.037  0.00  0.00    -0.157 OA
ATOM      4  C   UNL A   1     -24.181   1.558  26.863  0.00  0.00    +0.186 C 
ATOM      5  O   UNL A   1     -22.267   2.005  28.711  0.00  0.00    -0.328 OA
ATOM      6  N   UNL A   1     -24.056   0.194  30.034  0.00  0.00    -0.153 NA
ATOM      7  C   UNL A   1     -22.650  -0.026  30.192  0.00  0.00    +0.128 C 
ATOM      8  C   UNL A   1     -22.375   2.275  25.107  0.00  0.00    +0.147 C 
ATOM      9  C   UNL A   1     -23.727   1.904  25.413  0.00  0.00    +0.061 C 
ATOM     10  C   UNL A   1     -22.465   2.022  27.438  0.00  0.00    +0.258 C 
ATOM     11  C   UNL A   1     -22.129   0.545  28.827  0.00  0.00    +0.165 C 
ATOM     12  S   UNL A   1     -24.575   0.759  28.483  0.00  0.00    +0.046 S 
ENDROOT
BRANCH   4  13
ATOM     13  C   UNL A   1     -25.688   1.614  26.461  0.00  0.00    +0.097 C 
ATOM     14  C   UNL A   1     -26.250   2.920  26.395  0.00  0.00    +0.057 C 
ATOM     15  C   UNL A   1     -27.438   3.091  25.645  0.00  0.00    +0.102 C 
ATOM     16  N   UNL A   1     -28.075   2.089  25.003  0.00  0.00    -0.212 NA
ATOM     17  C   UNL A   1     -27.543   0.849  25.079  0.00  0.00    +0.234 C 
ATOM     18  C   UNL A   1     -26.354   0.576  25.777  0.00  0.00    +0.242 C 
ATOM     19  F   UNL A   1     -25.860  -0.681  25.795  0.00  0.00    -0.227 F 
BRANCH  14  20
ATOM     20  C   UNL A   1     -25.642   4.093  27.123  0.00  0.00    +0.263 C 
ATOM     21  N   UNL A   1     -25.614   5.252  26.449  0.00  0.00    -0.200 NA
ATOM     22  C   UNL A   1     -25.026   6.479  26.963  0.00  0.00    +0.139 C 
ATOM     23  O   UNL A   1     -25.143   3.966  28.243  0.00  0.00    -0.269 OA
ENDBRANCH  14  20
BRANCH  17  24
ATOM     24  O   UNL A   1     -28.193  -0.208  24.477  0.00  0.00    -0.459 OA
BRANCH  24  25
ATOM     25  C   UNL A   1     -29.460   0.005  23.866  0.00  0.00    +0.242 C 
BRANCH  25  26
ATOM     26  C   UNL A   1     -30.065  -1.377  23.573  0.00  0.00    +0.229 C 
ATOM     27  O   UNL A   1     -30.729  -1.878  24.721  0.00  0.00    -0.216 OA
ENDBRANCH  25  26
ENDBRANCH  24  25
ENDBRANCH  17  24
ENDBRANCH   4  13
BRANCH   6  28
ATOM     28  C   UNL A   1     -24.855  -1.012  30.143  0.00  0.00    +0.117 C 
BRANCH  28  29
ATOM     29  C   UNL A   1     -24.973  -2.505  29.788  0.00  0.00    -0.005 C 
ATOM     30  C   UNL A   1     -23.906  -3.173  29.146  0.00  0.00    -0.003 C 
ATOM     31  C   UNL A   1     -23.989  -4.549  28.853  0.00  0.00    -0.000 C 
ATOM     32  C   UNL A   1     -25.137  -5.280  29.205  0.00  0.00    -0.000 C 
ATOM     33  C   UNL A   1     -26.232  -4.611  29.784  0.00  0.00    -0.000 C 
ATOM     34  C   UNL A   1     -26.155  -3.232  30.065  0.00  0.00    -0.003 C 
ENDBRANCH  28  29
BRANCH  28  35
ATOM     35  C   UNL A   1     -25.387  -0.679  31.571  0.00  0.00    +0.093 C 
ATOM     36  C   UNL A   1     -25.189   0.773  32.028  0.00  0.00    +0.019 C 
ATOM     37  C   UNL A   1     -25.336   0.684  33.544  0.00  0.00    +0.020 C 
ATOM     38  C   UNL A   1     -24.829  -0.715  33.905  0.00  0.00    +0.089 C 
ATOM     39  N   UNL A   1     -24.758  -1.481  32.646  0.00  0.00    -0.218 NA
ATOM     40  C   UNL A   1     -24.023   1.589  31.463  0.00  0.00    +0.002 C 
ENDBRANCH  28  35
ENDBRANCH   6  28
BRANCH  11  41
ATOM     41  C   UNL A   1     -20.705   0.116  28.469  0.00  0.00    +0.173 C 
BRANCH  41  42
ATOM     42  O   UNL A   1     -19.853   1.240  28.292  0.00  0.00    -0.348 OA
ATOM     43  C   UNL A   1     -19.699   2.623  28.335  0.00  0.00    +0.174 C 
ENDBRANCH  41  42
ENDBRANCH  11  41
TORSDOF 10
