MODEL 577
MODEL 1
REMARK VINA RESULT:    -5.176      0.000      0.000
REMARK INTER + INTRA:          -5.519
REMARK INTER:                  -5.478
REMARK INTRA:                  -0.041
REMARK UNBOUND:                -0.041
REMARK  Name = No_577-gen_results/8p0m/2024-11-27-11-27-31/
REMARK  1 active torsions:
REMARK  status: ('A' for Active; 'I' for Inactive)
REMARK    1  A    between atoms: C_2  and  C_8
REMARK                            x       y       z     vdW  Elec       q    Type
REMARK                         _______ _______ _______ _____ _____    ______ ____
ROOT
ATOM      1  C   UNL A   1     -28.165 -11.808  31.511  0.00  0.00    +0.018 A 
ATOM      2  C   UNL A   1     -28.144 -11.349  32.629  0.00  0.00    +0.081 A 
ATOM      3  C   UNL A   1     -28.997 -10.313  32.995  0.00  0.00    +0.007 A 
ATOM      4  C   UNL A   1     -29.899  -9.723  32.040  0.00  0.00    +0.001 A 
ATOM      5  C   UNL A   1     -29.840 -10.300  30.765  0.00  0.00    +0.011 A 
ATOM      6  C   UNL A   1     -29.004 -11.267  30.465  0.00  0.00    +0.058 A 
ATOM      7 CL   UNL A   1     -28.978 -11.854  28.866  0.00  0.00    -0.082 Cl
ENDROOT
BRANCH   2   8
ATOM      8  C   UNL A   1     -27.254 -11.812  33.737  0.00  0.00    +0.388 C 
ATOM      9  O   UNL A   1     -26.735 -12.836  33.763  0.00  0.00    -0.241 OA
ATOM     10  O   UNL A   1     -26.960 -10.868  34.612  0.00  0.00    -0.241 OA
ENDBRANCH   2   8
TORSDOF 1
ENDMDL
ENDMDL
