REMARK  Name = outputs/IAG933/test6/raw/output_578_IAG933_linker_design_.xyz
REMARK  13 active torsions:
REMARK  status: ('A' for Active; 'I' for Inactive)
REMARK    1  A    between atoms: C_1  and  C_2
REMARK    2  A    between atoms: C_1  and  C_8
REMARK    3  A    between atoms: C_1  and  N_32
REMARK    4  A    between atoms: C_13  and  C_30
REMARK    5  A    between atoms: C_14  and  C_15
REMARK    6  A    between atoms: C_21  and  O_22
REMARK    7  A    between atoms: O_22  and  C_23
REMARK    8  A    between atoms: C_23  and  C_24
REMARK    9  A    between atoms: C_28  and  N_33
REMARK   10  A    between atoms: C_28  and  C_39
REMARK   11  A    between atoms: O_31  and  C_39
REMARK   12  A    between atoms: O_31  and  C_40
REMARK   13  A    between atoms: N_32  and  C_37
REMARK                            x       y       z     vdW  Elec       q    Type
REMARK                         _______ _______ _______ _____ _____    ______ ____
ROOT
ATOM      1  C   UNL A   1     -22.160   1.844  25.445  0.00  0.00    +0.180 C 
ATOM      2  C   UNL A   1     -24.408   1.388  26.899  0.00  0.00    +0.021 C 
ATOM      3  C   UNL A   1     -22.680   0.992  28.483  0.00  0.00    +0.140 C 
ATOM      4  C   UNL A   1     -23.577   1.756  25.773  0.00  0.00    +0.042 C 
ATOM      5  C   UNL A   1     -24.152   0.731  28.220  0.00  0.00    +0.076 C 
ATOM      6  C   UNL A   1     -21.533   1.563  27.678  0.00  0.00    +0.199 C 
ATOM      7  O   UNL A   1     -21.158   1.853  26.365  0.00  0.00    -0.446 OA
ATOM      8  N   UNL A   1     -22.267   0.540  29.627  0.00  0.00    -0.123 NA
ENDROOT
BRANCH   2   9
ATOM      9  C   UNL A   1     -25.688   1.614  26.461  0.00  0.00    +0.039 C 
ATOM     10  C   UNL A   1     -26.250   2.920  26.395  0.00  0.00    +0.077 C 
ATOM     11  C   UNL A   1     -27.438   3.091  25.645  0.00  0.00    +0.107 C 
ATOM     12  N   UNL A   1     -28.075   2.089  25.003  0.00  0.00    -0.208 NA
ATOM     13  C   UNL A   1     -27.543   0.849  25.079  0.00  0.00    +0.253 C 
ATOM     14  C   UNL A   1     -26.354   0.576  25.777  0.00  0.00    +0.193 C 
ATOM     15  F   UNL A   1     -25.860  -0.681  25.795  0.00  0.00    -0.199 F 
BRANCH  10  16
ATOM     16  C   UNL A   1     -25.642   4.093  27.123  0.00  0.00    +0.266 C 
ATOM     17  N   UNL A   1     -25.614   5.252  26.449  0.00  0.00    -0.200 NA
ATOM     18  C   UNL A   1     -25.026   6.479  26.963  0.00  0.00    +0.139 C 
ATOM     19  O   UNL A   1     -25.143   3.966  28.243  0.00  0.00    -0.268 OA
ENDBRANCH  10  16
BRANCH  13  20
ATOM     20  O   UNL A   1     -28.193  -0.208  24.477  0.00  0.00    -0.456 OA
BRANCH  20  21
ATOM     21  C   UNL A   1     -29.460   0.005  23.866  0.00  0.00    +0.243 C 
BRANCH  21  22
ATOM     22  C   UNL A   1     -30.065  -1.377  23.573  0.00  0.00    +0.229 C 
ATOM     23  O   UNL A   1     -30.729  -1.878  24.721  0.00  0.00    -0.216 OA
ENDBRANCH  21  22
ENDBRANCH  20  21
ENDBRANCH  13  20
ENDBRANCH   2   9
BRANCH   5  24
ATOM     24  N   UNL A   1     -25.166   0.006  29.067  0.00  0.00    -0.237 N 
ATOM     25  N   UNL A   1     -26.657   1.829  29.284  0.00  0.00    -0.185 NA
ATOM     26  C   UNL A   1     -26.579   0.519  29.016  0.00  0.00    +0.327 C 
ATOM     27  O   UNL A   1     -27.385  -0.322  28.701  0.00  0.00    -0.250 OA
BRANCH  24  28
ATOM     28  C   UNL A   1     -24.855  -1.012  30.143  0.00  0.00    +0.120 C 
BRANCH  28  29
ATOM     29  C   UNL A   1     -24.973  -2.505  29.788  0.00  0.00    -0.003 C 
ATOM     30  C   UNL A   1     -23.906  -3.173  29.146  0.00  0.00    -0.003 C 
ATOM     31  C   UNL A   1     -23.989  -4.549  28.853  0.00  0.00    -0.000 C 
ATOM     32  C   UNL A   1     -25.137  -5.280  29.205  0.00  0.00    -0.000 C 
ATOM     33  C   UNL A   1     -26.232  -4.611  29.784  0.00  0.00    -0.000 C 
ATOM     34  C   UNL A   1     -26.155  -3.232  30.065  0.00  0.00    -0.003 C 
ENDBRANCH  28  29
BRANCH  28  35
ATOM     35  C   UNL A   1     -25.387  -0.679  31.571  0.00  0.00    +0.096 C 
ATOM     36  C   UNL A   1     -25.189   0.773  32.028  0.00  0.00    +0.021 C 
ATOM     37  C   UNL A   1     -25.336   0.684  33.544  0.00  0.00    +0.020 C 
ATOM     38  C   UNL A   1     -24.829  -0.715  33.905  0.00  0.00    +0.089 C 
ATOM     39  N   UNL A   1     -24.758  -1.481  32.646  0.00  0.00    -0.217 NA
ENDBRANCH  28  35
ENDBRANCH  24  28
BRANCH  25  40
ATOM     40  C   UNL A   1     -27.413   2.847  29.991  0.00  0.00    +0.149 C 
BRANCH  40  41
ATOM     41  C   UNL A   1     -26.770   3.923  30.820  0.00  0.00    +0.167 C 
BRANCH  41  42
ATOM     42  O   UNL A   1     -25.431   3.751  31.237  0.00  0.00    -0.334 OA
BRANCH  42  44
ATOM     43  N   UNL A   1     -25.885   3.930  33.595  0.00  0.00    -0.096 NA
ATOM     44  C   UNL A   1     -25.021   4.329  32.503  0.00  0.00    +0.253 C 
ENDBRANCH  42  44
ENDBRANCH  41  42
ENDBRANCH  40  41
ENDBRANCH  25  40
ENDBRANCH   5  24
TORSDOF 13
