REMARK  Name = outputs/IAG933/test6/raw/output_5780_IAG933_linker_design_.xyz
REMARK  9 active torsions:
REMARK  status: ('A' for Active; 'I' for Inactive)
REMARK    1  A    between atoms: C_1  and  C_2
REMARK    2  A    between atoms: C_1  and  C_8
REMARK    3  A    between atoms: C_1  and  N_34
REMARK    4  A    between atoms: C_13  and  C_33
REMARK    5  A    between atoms: C_14  and  C_15
REMARK    6  A    between atoms: C_21  and  O_22
REMARK    7  A    between atoms: O_22  and  C_23
REMARK    8  A    between atoms: C_23  and  C_24
REMARK    9  A    between atoms: N_34  and  C_40
REMARK                            x       y       z     vdW  Elec       q    Type
REMARK                         _______ _______ _______ _____ _____    ______ ____
ROOT
ATOM      1  C   UNL A   1     -23.502   1.786  26.112  0.00  0.00    -0.000 C 
ATOM      2  C   UNL A   1     -23.615   1.146  29.428  0.00  0.00    +0.074 C 
ATOM      3  C   UNL A   1     -24.504   1.397  27.045  0.00  0.00    -0.001 C 
ATOM      4  F   UNL A   1     -20.489   1.706  28.119  0.00  0.00    -0.203 F 
ATOM      5  C   UNL A   1     -21.711   1.474  27.723  0.00  0.00    +0.155 C 
ATOM      6  C   UNL A   1     -22.447   0.691  28.736  0.00  0.00    +0.110 C 
ATOM      7  C   UNL A   1     -22.150   1.933  26.456  0.00  0.00    +0.031 C 
ATOM      8  N   UNL A   1     -21.973  -0.362  29.155  0.00  0.00    -0.150 NA
ATOM      9  C   UNL A   1     -24.733   0.967  28.476  0.00  0.00    +0.104 C 
ENDROOT
BRANCH   3  10
ATOM     10  C   UNL A   1     -25.688   1.614  26.461  0.00  0.00    +0.036 C 
ATOM     11  C   UNL A   1     -26.250   2.920  26.395  0.00  0.00    +0.076 C 
ATOM     12  C   UNL A   1     -27.438   3.091  25.645  0.00  0.00    +0.107 C 
ATOM     13  N   UNL A   1     -28.075   2.089  25.003  0.00  0.00    -0.208 NA
ATOM     14  C   UNL A   1     -27.543   0.849  25.079  0.00  0.00    +0.253 C 
ATOM     15  C   UNL A   1     -26.354   0.576  25.777  0.00  0.00    +0.193 C 
ATOM     16  F   UNL A   1     -25.860  -0.681  25.795  0.00  0.00    -0.199 F 
BRANCH  11  17
ATOM     17  C   UNL A   1     -25.642   4.093  27.123  0.00  0.00    +0.266 C 
ATOM     18  N   UNL A   1     -25.614   5.252  26.449  0.00  0.00    -0.200 NA
ATOM     19  C   UNL A   1     -25.026   6.479  26.963  0.00  0.00    +0.139 C 
ATOM     20  O   UNL A   1     -25.143   3.966  28.243  0.00  0.00    -0.268 OA
ENDBRANCH  11  17
BRANCH  14  21
ATOM     21  O   UNL A   1     -28.193  -0.208  24.477  0.00  0.00    -0.456 OA
BRANCH  21  22
ATOM     22  C   UNL A   1     -29.460   0.005  23.866  0.00  0.00    +0.243 C 
BRANCH  22  23
ATOM     23  C   UNL A   1     -30.065  -1.377  23.573  0.00  0.00    +0.229 C 
ATOM     24  O   UNL A   1     -30.729  -1.878  24.721  0.00  0.00    -0.216 OA
ENDBRANCH  22  23
ENDBRANCH  21  22
ENDBRANCH  14  21
ENDBRANCH   3  10
BRANCH   9  28
ATOM     25  C   UNL A   1     -27.122  -0.093  29.065  0.00  0.00    +0.227 C 
ATOM     26  O   UNL A   1     -27.676  -0.977  28.486  0.00  0.00    -0.275 OA
ATOM     27  C   UNL A   1     -27.751   1.127  29.466  0.00  0.00    +0.095 C 
ATOM     28  N   UNL A   1     -25.626  -0.074  29.203  0.00  0.00    -0.274 N 
BRANCH  28  29
ATOM     29  C   UNL A   1     -24.855  -1.012  30.143  0.00  0.00    +0.114 C 
BRANCH  29  30
ATOM     30  C   UNL A   1     -24.973  -2.505  29.788  0.00  0.00    -0.003 C 
ATOM     31  C   UNL A   1     -23.906  -3.173  29.146  0.00  0.00    -0.003 C 
ATOM     32  C   UNL A   1     -23.989  -4.549  28.853  0.00  0.00    -0.000 C 
ATOM     33  C   UNL A   1     -25.137  -5.280  29.205  0.00  0.00    -0.000 C 
ATOM     34  C   UNL A   1     -26.232  -4.611  29.784  0.00  0.00    -0.000 C 
ATOM     35  C   UNL A   1     -26.155  -3.232  30.065  0.00  0.00    -0.003 C 
ENDBRANCH  29  30
BRANCH  29  36
ATOM     36  C   UNL A   1     -25.387  -0.679  31.571  0.00  0.00    +0.095 C 
ATOM     37  C   UNL A   1     -25.189   0.773  32.028  0.00  0.00    +0.021 C 
ATOM     38  C   UNL A   1     -25.336   0.684  33.544  0.00  0.00    +0.020 C 
ATOM     39  C   UNL A   1     -24.829  -0.715  33.905  0.00  0.00    +0.089 C 
ATOM     40  N   UNL A   1     -24.758  -1.481  32.646  0.00  0.00    -0.217 NA
ENDBRANCH  29  36
ENDBRANCH  28  29
ENDBRANCH   9  28
TORSDOF 9
