REMARK  Name = outputs/IAG933/test6/raw/output_5782_IAG933_linker_design_.xyz
REMARK  13 active torsions:
REMARK  status: ('A' for Active; 'I' for Inactive)
REMARK    1  A    between atoms: C_1  and  C_2
REMARK    2  A    between atoms: C_1  and  C_8
REMARK    3  A    between atoms: C_9  and  C_39
REMARK    4  A    between atoms: C_13  and  N_35
REMARK    5  A    between atoms: C_14  and  C_15
REMARK    6  A    between atoms: C_21  and  O_22
REMARK    7  A    between atoms: O_22  and  C_23
REMARK    8  A    between atoms: C_23  and  C_24
REMARK    9  A    between atoms: C_30  and  N_36
REMARK   10  A    between atoms: C_30  and  C_39
REMARK   11  A    between atoms: N_35  and  C_41
REMARK   12  A    between atoms: C_39  and  N_42
REMARK   13  A    between atoms: C_40  and  C_41
REMARK                            x       y       z     vdW  Elec       q    Type
REMARK                         _______ _______ _______ _____ _____    ______ ____
ROOT
ATOM      1  C   UNL A   1     -25.881   0.906  28.589  0.00  0.00    +0.324 C 
ATOM      2  N   UNL A   1     -24.966   1.227  27.580  0.00  0.00    -0.259 N 
ATOM      3  N   UNL A   1     -26.144   1.491  29.613  0.00  0.00    -0.187 NA
ATOM      4  O   UNL A   1     -26.599  -0.153  28.319  0.00  0.00    -0.251 OA
ENDROOT
BRANCH   2   5
ATOM      5  C   UNL A   1     -25.688   1.614  26.461  0.00  0.00    +0.147 C 
ATOM      6  C   UNL A   1     -26.250   2.920  26.395  0.00  0.00    +0.073 C 
ATOM      7  C   UNL A   1     -27.438   3.091  25.645  0.00  0.00    +0.104 C 
ATOM      8  N   UNL A   1     -28.075   2.089  25.003  0.00  0.00    -0.212 NA
ATOM      9  C   UNL A   1     -27.543   0.849  25.079  0.00  0.00    +0.236 C 
ATOM     10  C   UNL A   1     -26.354   0.576  25.777  0.00  0.00    +0.258 C 
ATOM     11  F   UNL A   1     -25.860  -0.681  25.795  0.00  0.00    -0.225 F 
BRANCH   6  12
ATOM     12  C   UNL A   1     -25.642   4.093  27.123  0.00  0.00    +0.264 C 
ATOM     13  N   UNL A   1     -25.614   5.252  26.449  0.00  0.00    -0.200 NA
ATOM     14  C   UNL A   1     -25.026   6.479  26.963  0.00  0.00    +0.139 C 
ATOM     15  O   UNL A   1     -25.143   3.966  28.243  0.00  0.00    -0.269 OA
ENDBRANCH   6  12
BRANCH   9  16
ATOM     16  O   UNL A   1     -28.193  -0.208  24.477  0.00  0.00    -0.459 OA
BRANCH  16  17
ATOM     17  C   UNL A   1     -29.460   0.005  23.866  0.00  0.00    +0.242 C 
BRANCH  17  18
ATOM     18  C   UNL A   1     -30.065  -1.377  23.573  0.00  0.00    +0.229 C 
ATOM     19  O   UNL A   1     -30.729  -1.878  24.721  0.00  0.00    -0.216 OA
ENDBRANCH  17  18
ENDBRANCH  16  17
ENDBRANCH   9  16
ENDBRANCH   2   5
BRANCH   2  21
ATOM     20  C   UNL A   1     -22.955   1.712  28.893  0.00  0.00    +0.022 C 
ATOM     21  C   UNL A   1     -23.628   1.430  27.692  0.00  0.00    +0.077 C 
BRANCH  21  23
ATOM     22  C   UNL A   1     -23.048   1.221  25.171  0.00  0.00    +0.002 C 
ATOM     23  C   UNL A   1     -22.550   1.629  26.530  0.00  0.00    +0.018 C 
ATOM     24  C   UNL A   1     -21.145   1.512  26.899  0.00  0.00    +0.002 C 
ENDBRANCH  21  23
ENDBRANCH   2  21
BRANCH   3  25
ATOM     25  C   UNL A   1     -25.937   2.180  30.368  0.00  0.00    +0.138 C 
BRANCH  25  26
ATOM     26  C   UNL A   1     -25.846   2.208  31.834  0.00  0.00    +0.118 C 
BRANCH  26  31
ATOM     27  O   UNL A   1     -23.701   4.307  32.779  0.00  0.00    -0.251 OA
ATOM     28  N   UNL A   1     -25.895   5.320  33.242  0.00  0.00    -0.244 N 
ATOM     29  N   UNL A   1     -26.872   4.259  31.547  0.00  0.00    -0.104 NA
ATOM     30  C   UNL A   1     -25.005   4.317  32.647  0.00  0.00    +0.323 C 
ATOM     31  N   UNL A   1     -25.795   3.511  31.834  0.00  0.00    -0.190 N 
ATOM     32  C   UNL A   1     -26.969   5.372  32.478  0.00  0.00    +0.209 C 
ATOM     33  C   UNL A   1     -25.704   5.997  34.511  0.00  0.00    +0.118 C 
ENDBRANCH  26  31
BRANCH  26  35
ATOM     34  C   UNL A   1     -25.387  -0.679  31.571  0.00  0.00    +0.079 C 
ATOM     35  C   UNL A   1     -25.189   0.773  32.028  0.00  0.00    +0.039 C 
ATOM     36  C   UNL A   1     -25.336   0.684  33.544  0.00  0.00    +0.022 C 
ATOM     37  C   UNL A   1     -24.829  -0.715  33.905  0.00  0.00    +0.089 C 
ATOM     38  N   UNL A   1     -24.758  -1.481  32.646  0.00  0.00    -0.219 NA
BRANCH  34  39
ATOM     39  C   UNL A   1     -24.855  -1.012  30.143  0.00  0.00    +0.044 C 
BRANCH  39  40
ATOM     40  C   UNL A   1     -24.973  -2.505  29.788  0.00  0.00    -0.021 C 
ATOM     41  C   UNL A   1     -23.906  -3.173  29.146  0.00  0.00    -0.004 C 
ATOM     42  C   UNL A   1     -23.989  -4.549  28.853  0.00  0.00    -0.000 C 
ATOM     43  C   UNL A   1     -25.137  -5.280  29.205  0.00  0.00    -0.000 C 
ATOM     44  C   UNL A   1     -26.232  -4.611  29.784  0.00  0.00    -0.000 C 
ATOM     45  C   UNL A   1     -26.155  -3.232  30.065  0.00  0.00    -0.004 C 
ENDBRANCH  39  40
ENDBRANCH  34  39
ENDBRANCH  26  35
ENDBRANCH  25  26
ENDBRANCH   3  25
TORSDOF 13
