REMARK  Name = outputs/IAG933/test6/raw/output_5783_IAG933_linker_design_.xyz
REMARK  12 active torsions:
REMARK  status: ('A' for Active; 'I' for Inactive)
REMARK    1  A    between atoms: C_1  and  C_2
REMARK    2  A    between atoms: C_1  and  C_8
REMARK    3  A    between atoms: C_1  and  N_31
REMARK    4  A    between atoms: C_13  and  C_32
REMARK    5  A    between atoms: C_14  and  C_15
REMARK    6  A    between atoms: C_21  and  O_22
REMARK    7  A    between atoms: O_22  and  C_23
REMARK    8  A    between atoms: C_23  and  C_24
REMARK    9  A    between atoms: C_30  and  C_36
REMARK   10  A    between atoms: C_30  and  C_41
REMARK   11  A    between atoms: N_31  and  C_38
REMARK   12  A    between atoms: N_31  and  C_41
REMARK                            x       y       z     vdW  Elec       q    Type
REMARK                         _______ _______ _______ _____ _____    ______ ____
ROOT
ATOM      1  N   UNL A   1     -24.766  -0.153  28.905  0.00  0.00    -0.302 N 
ENDROOT
BRANCH   1   5
ATOM      2  C   UNL A   1     -22.637   0.760  28.468  0.00  0.00    +0.209 C 
ATOM      3  C   UNL A   1     -24.352   1.359  26.858  0.00  0.00    +0.001 C 
ATOM      4  O   UNL A   1     -22.324   0.158  29.607  0.00  0.00    -0.285 OA
ATOM      5  C   UNL A   1     -23.973   0.648  28.066  0.00  0.00    +0.084 C 
ATOM      6  C   UNL A   1     -22.041   1.963  26.439  0.00  0.00    +0.003 C 
ATOM      7  C   UNL A   1     -23.373   1.923  26.024  0.00  0.00    -0.002 C 
ATOM      8  C   UNL A   1     -21.664   1.403  27.664  0.00  0.00    +0.043 C 
BRANCH   3   9
ATOM      9  C   UNL A   1     -25.688   1.614  26.461  0.00  0.00    +0.094 C 
ATOM     10  C   UNL A   1     -26.250   2.920  26.395  0.00  0.00    +0.059 C 
ATOM     11  C   UNL A   1     -27.438   3.091  25.645  0.00  0.00    +0.102 C 
ATOM     12  N   UNL A   1     -28.075   2.089  25.003  0.00  0.00    -0.212 NA
ATOM     13  C   UNL A   1     -27.543   0.849  25.079  0.00  0.00    +0.234 C 
ATOM     14  C   UNL A   1     -26.354   0.576  25.777  0.00  0.00    +0.244 C 
ATOM     15  F   UNL A   1     -25.860  -0.681  25.795  0.00  0.00    -0.227 F 
BRANCH  10  16
ATOM     16  C   UNL A   1     -25.642   4.093  27.123  0.00  0.00    +0.263 C 
ATOM     17  N   UNL A   1     -25.614   5.252  26.449  0.00  0.00    -0.200 NA
ATOM     18  C   UNL A   1     -25.026   6.479  26.963  0.00  0.00    +0.139 C 
ATOM     19  O   UNL A   1     -25.143   3.966  28.243  0.00  0.00    -0.269 OA
ENDBRANCH  10  16
BRANCH  13  20
ATOM     20  O   UNL A   1     -28.193  -0.208  24.477  0.00  0.00    -0.459 OA
BRANCH  20  21
ATOM     21  C   UNL A   1     -29.460   0.005  23.866  0.00  0.00    +0.242 C 
BRANCH  21  22
ATOM     22  C   UNL A   1     -30.065  -1.377  23.573  0.00  0.00    +0.229 C 
ATOM     23  O   UNL A   1     -30.729  -1.878  24.721  0.00  0.00    -0.216 OA
ENDBRANCH  21  22
ENDBRANCH  20  21
ENDBRANCH  13  20
ENDBRANCH   3   9
ENDBRANCH   1   5
BRANCH   1  24
ATOM     24  C   UNL A   1     -24.855  -1.012  30.143  0.00  0.00    +0.111 C 
BRANCH  24  25
ATOM     25  C   UNL A   1     -24.973  -2.505  29.788  0.00  0.00    -0.003 C 
ATOM     26  C   UNL A   1     -23.906  -3.173  29.146  0.00  0.00    -0.003 C 
ATOM     27  C   UNL A   1     -23.989  -4.549  28.853  0.00  0.00    -0.000 C 
ATOM     28  C   UNL A   1     -25.137  -5.280  29.205  0.00  0.00    -0.000 C 
ATOM     29  C   UNL A   1     -26.232  -4.611  29.784  0.00  0.00    -0.000 C 
ATOM     30  C   UNL A   1     -26.155  -3.232  30.065  0.00  0.00    -0.003 C 
ENDBRANCH  24  25
BRANCH  24  31
ATOM     31  C   UNL A   1     -25.387  -0.679  31.571  0.00  0.00    +0.095 C 
ATOM     32  C   UNL A   1     -25.189   0.773  32.028  0.00  0.00    +0.021 C 
ATOM     33  C   UNL A   1     -25.336   0.684  33.544  0.00  0.00    +0.020 C 
ATOM     34  C   UNL A   1     -24.829  -0.715  33.905  0.00  0.00    +0.089 C 
ATOM     35  N   UNL A   1     -24.758  -1.481  32.646  0.00  0.00    -0.217 NA
ENDBRANCH  24  31
ENDBRANCH   1  24
BRANCH   1  36
ATOM     36  C   UNL A   1     -26.029   0.072  28.523  0.00  0.00    +0.094 C 
BRANCH  36  37
ATOM     37  C   UNL A   1     -26.841   1.078  29.199  0.00  0.00    +0.053 C 
BRANCH  37  41
ATOM     38  N   UNL A   1     -29.583   1.024  31.103  0.00  0.00    -0.269 NA
ATOM     39  C   UNL A   1     -30.904   0.079  29.210  0.00  0.00    +0.020 C 
ATOM     40  O   UNL A   1     -28.076  -0.783  28.795  0.00  0.00    -0.224 OA
ATOM     41  C   UNL A   1     -28.397   0.736  28.998  0.00  0.00    +0.143 C 
ATOM     42  C   UNL A   1     -30.811   0.555  30.683  0.00  0.00    +0.072 C 
ATOM     43  C   UNL A   1     -28.874   1.824  30.109  0.00  0.00    +0.103 C 
ATOM     44  C   UNL A   1     -29.839   0.710  28.284  0.00  0.00    +0.033 C 
ATOM     45  C   UNL A   1     -28.770  -0.037  31.832  0.00  0.00    +0.090 C 
ENDBRANCH  37  41
ENDBRANCH  36  37
ENDBRANCH   1  36
TORSDOF 12
