REMARK  Name = outputs/IAG933/test6/raw/output_5786_IAG933_linker_design_.xyz
REMARK  12 active torsions:
REMARK  status: ('A' for Active; 'I' for Inactive)
REMARK    1  A    between atoms: C_1  and  C_2
REMARK    2  A    between atoms: C_1  and  C_8
REMARK    3  A    between atoms: C_1  and  O_33
REMARK    4  A    between atoms: C_13  and  C_40
REMARK    5  A    between atoms: C_14  and  C_15
REMARK    6  A    between atoms: C_21  and  O_22
REMARK    7  A    between atoms: O_22  and  C_23
REMARK    8  A    between atoms: C_23  and  C_24
REMARK    9  A    between atoms: C_31  and  C_40
REMARK   10  A    between atoms: O_33  and  C_35
REMARK   11  A    between atoms: C_35  and  C_36
REMARK   12  A    between atoms: C_35  and  C_40
REMARK                            x       y       z     vdW  Elec       q    Type
REMARK                         _______ _______ _______ _____ _____    ______ ____
ROOT
ATOM      1  C   UNL A   1     -24.884   1.372  27.734  0.00  0.00    +0.058 C 
ENDROOT
BRANCH   1   2
ATOM      2  C   UNL A   1     -25.688   1.614  26.461  0.00  0.00    +0.077 C 
ATOM      3  C   UNL A   1     -26.250   2.920  26.395  0.00  0.00    +0.055 C 
ATOM      4  C   UNL A   1     -27.438   3.091  25.645  0.00  0.00    +0.102 C 
ATOM      5  N   UNL A   1     -28.075   2.089  25.003  0.00  0.00    -0.212 NA
ATOM      6  C   UNL A   1     -27.543   0.849  25.079  0.00  0.00    +0.234 C 
ATOM      7  C   UNL A   1     -26.354   0.576  25.777  0.00  0.00    +0.240 C 
ATOM      8  F   UNL A   1     -25.860  -0.681  25.795  0.00  0.00    -0.227 F 
BRANCH   3   9
ATOM      9  C   UNL A   1     -25.642   4.093  27.123  0.00  0.00    +0.263 C 
ATOM     10  N   UNL A   1     -25.614   5.252  26.449  0.00  0.00    -0.200 NA
ATOM     11  C   UNL A   1     -25.026   6.479  26.963  0.00  0.00    +0.139 C 
ATOM     12  O   UNL A   1     -25.143   3.966  28.243  0.00  0.00    -0.269 OA
ENDBRANCH   3   9
BRANCH   6  13
ATOM     13  O   UNL A   1     -28.193  -0.208  24.477  0.00  0.00    -0.459 OA
BRANCH  13  14
ATOM     14  C   UNL A   1     -29.460   0.005  23.866  0.00  0.00    +0.242 C 
BRANCH  14  15
ATOM     15  C   UNL A   1     -30.065  -1.377  23.573  0.00  0.00    +0.229 C 
ATOM     16  O   UNL A   1     -30.729  -1.878  24.721  0.00  0.00    -0.216 OA
ENDBRANCH  14  15
ENDBRANCH  13  14
ENDBRANCH   6  13
ENDBRANCH   1   2
BRANCH   1  18
ATOM     17  C   UNL A   1     -21.647   0.650  28.773  0.00  0.00    -0.021 C 
ATOM     18  C   UNL A   1     -23.532   1.289  27.731  0.00  0.00    -0.026 C 
ATOM     19 CL   UNL A   1     -22.521   2.236  25.288  0.00  0.00    -0.083 Cl
ATOM     20  C   UNL A   1     -23.049   0.586  28.827  0.00  0.00    +0.049 C 
ATOM     21  C   UNL A   1     -21.289   1.353  27.619  0.00  0.00    +0.006 C 
ATOM     22  C   UNL A   1     -22.463   1.660  26.908  0.00  0.00    +0.050 C 
ENDBRANCH   1  18
BRANCH   1  23
ATOM     23  C   UNL A   1     -25.567   1.203  29.114  0.00  0.00    +0.142 C 
BRANCH  23  28
ATOM     24  C   UNL A   1     -27.951   4.836  29.890  0.00  0.00    -0.000 C 
ATOM     25  C   UNL A   1     -28.473   3.831  29.048  0.00  0.00    -0.000 C 
ATOM     26  C   UNL A   1     -26.826   4.533  30.719  0.00  0.00    -0.000 C 
ATOM     27  C   UNL A   1     -26.191   3.242  30.612  0.00  0.00    -0.002 C 
ATOM     28  C   UNL A   1     -26.568   2.306  29.579  0.00  0.00    +0.005 C 
ATOM     29  C   UNL A   1     -27.827   2.553  28.933  0.00  0.00    -0.002 C 
ENDBRANCH  23  28
BRANCH  23  30
ATOM     30  O   UNL A   1     -25.808  -0.243  29.325  0.00  0.00    -0.348 OA
BRANCH  30  31
ATOM     31  C   UNL A   1     -24.855  -1.012  30.143  0.00  0.00    +0.154 C 
BRANCH  31  32
ATOM     32  C   UNL A   1     -24.973  -2.505  29.788  0.00  0.00    +0.006 C 
ATOM     33  C   UNL A   1     -23.906  -3.173  29.146  0.00  0.00    -0.002 C 
ATOM     34  C   UNL A   1     -23.989  -4.549  28.853  0.00  0.00    -0.000 C 
ATOM     35  C   UNL A   1     -25.137  -5.280  29.205  0.00  0.00    -0.000 C 
ATOM     36  C   UNL A   1     -26.232  -4.611  29.784  0.00  0.00    -0.000 C 
ATOM     37  C   UNL A   1     -26.155  -3.232  30.065  0.00  0.00    -0.002 C 
ENDBRANCH  31  32
BRANCH  31  38
ATOM     38  C   UNL A   1     -25.387  -0.679  31.571  0.00  0.00    +0.104 C 
ATOM     39  C   UNL A   1     -25.189   0.773  32.028  0.00  0.00    +0.022 C 
ATOM     40  C   UNL A   1     -25.336   0.684  33.544  0.00  0.00    +0.020 C 
ATOM     41  C   UNL A   1     -24.829  -0.715  33.905  0.00  0.00    +0.089 C 
ATOM     42  N   UNL A   1     -24.758  -1.481  32.646  0.00  0.00    -0.217 NA
ENDBRANCH  31  38
ENDBRANCH  30  31
ENDBRANCH  23  30
ENDBRANCH   1  23
TORSDOF 12
