REMARK  Name = outputs/IAG933/test6/raw/output_5787_IAG933_linker_design_.xyz
REMARK  10 active torsions:
REMARK  status: ('A' for Active; 'I' for Inactive)
REMARK    1  A    between atoms: C_1  and  C_2
REMARK    2  A    between atoms: C_1  and  C_8
REMARK    3  A    between atoms: C_1  and  C_31
REMARK    4  A    between atoms: C_13  and  C_29
REMARK    5  A    between atoms: C_14  and  C_15
REMARK    6  A    between atoms: C_21  and  O_22
REMARK    7  A    between atoms: O_22  and  C_23
REMARK    8  A    between atoms: C_23  and  C_24
REMARK    9  A    between atoms: C_28  and  C_39
REMARK   10  A    between atoms: C_30  and  N_33
REMARK                            x       y       z     vdW  Elec       q    Type
REMARK                         _______ _______ _______ _____ _____    ______ ____
ROOT
ATOM      1  C   UNL A   1     -24.690   1.290  27.310  0.00  0.00    +0.030 C 
ATOM      2  C   UNL A   1     -25.099   0.826  28.513  0.00  0.00    +0.071 C 
ATOM      3  C   UNL A   1     -24.281  -0.023  29.217  0.00  0.00    +0.001 C 
ATOM      4  C   UNL A   1     -22.857   0.107  28.991  0.00  0.00    +0.028 C 
ATOM      5  F   UNL A   1     -21.134   1.270  27.807  0.00  0.00    -0.203 F 
ATOM      6  C   UNL A   1     -22.451   0.888  27.943  0.00  0.00    +0.150 C 
ATOM      7  C   UNL A   1     -23.361   1.401  27.008  0.00  0.00    +0.086 C 
ATOM      8 CL   UNL A   1     -22.801   2.279  25.519  0.00  0.00    -0.080 Cl
ENDROOT
BRANCH   1   9
ATOM      9  C   UNL A   1     -25.688   1.614  26.461  0.00  0.00    +0.040 C 
ATOM     10  C   UNL A   1     -26.250   2.920  26.395  0.00  0.00    +0.077 C 
ATOM     11  C   UNL A   1     -27.438   3.091  25.645  0.00  0.00    +0.107 C 
ATOM     12  N   UNL A   1     -28.075   2.089  25.003  0.00  0.00    -0.208 NA
ATOM     13  C   UNL A   1     -27.543   0.849  25.079  0.00  0.00    +0.253 C 
ATOM     14  C   UNL A   1     -26.354   0.576  25.777  0.00  0.00    +0.193 C 
ATOM     15  F   UNL A   1     -25.860  -0.681  25.795  0.00  0.00    -0.199 F 
BRANCH  10  16
ATOM     16  C   UNL A   1     -25.642   4.093  27.123  0.00  0.00    +0.266 C 
ATOM     17  N   UNL A   1     -25.614   5.252  26.449  0.00  0.00    -0.200 NA
ATOM     18  C   UNL A   1     -25.026   6.479  26.963  0.00  0.00    +0.139 C 
ATOM     19  O   UNL A   1     -25.143   3.966  28.243  0.00  0.00    -0.268 OA
ENDBRANCH  10  16
BRANCH  13  20
ATOM     20  O   UNL A   1     -28.193  -0.208  24.477  0.00  0.00    -0.456 OA
BRANCH  20  21
ATOM     21  C   UNL A   1     -29.460   0.005  23.866  0.00  0.00    +0.243 C 
BRANCH  21  22
ATOM     22  C   UNL A   1     -30.065  -1.377  23.573  0.00  0.00    +0.229 C 
ATOM     23  O   UNL A   1     -30.729  -1.878  24.721  0.00  0.00    -0.216 OA
ENDBRANCH  21  22
ENDBRANCH  20  21
ENDBRANCH  13  20
ENDBRANCH   1   9
BRANCH   2  24
ATOM     24  N   UNL A   1     -26.285   1.255  28.976  0.00  0.00    -0.179 NA
ATOM     25  C   UNL A   1     -27.432   0.446  29.123  0.00  0.00    +0.246 C 
ATOM     26  O   UNL A   1     -27.470  -0.760  28.921  0.00  0.00    -0.273 OA
BRANCH  25  27
ATOM     27  C   UNL A   1     -28.358   1.410  29.425  0.00  0.00    +0.096 C 
ATOM     28  C   UNL A   1     -28.375   3.622  29.688  0.00  0.00    +0.073 C 
ATOM     29  C   UNL A   1     -28.095   2.405  30.375  0.00  0.00    +0.028 C 
ATOM     30  C   UNL A   1     -30.467   4.181  28.618  0.00  0.00    +0.090 C 
ATOM     31  C   UNL A   1     -29.453   1.923  28.642  0.00  0.00    +0.081 C 
ATOM     32  N   UNL A   1     -29.224   3.339  28.626  0.00  0.00    -0.271 NA
ENDBRANCH  25  27
ENDBRANCH   2  24
BRANCH   3  33
ATOM     33  C   UNL A   1     -24.855  -1.012  30.143  0.00  0.00    +0.062 C 
BRANCH  33  34
ATOM     34  C   UNL A   1     -24.973  -2.505  29.788  0.00  0.00    -0.017 C 
ATOM     35  C   UNL A   1     -23.906  -3.173  29.146  0.00  0.00    -0.004 C 
ATOM     36  C   UNL A   1     -23.989  -4.549  28.853  0.00  0.00    -0.000 C 
ATOM     37  C   UNL A   1     -25.137  -5.280  29.205  0.00  0.00    -0.000 C 
ATOM     38  C   UNL A   1     -26.232  -4.611  29.784  0.00  0.00    -0.000 C 
ATOM     39  C   UNL A   1     -26.155  -3.232  30.065  0.00  0.00    -0.004 C 
ENDBRANCH  33  34
BRANCH  33  40
ATOM     40  C   UNL A   1     -25.387  -0.679  31.571  0.00  0.00    +0.081 C 
ATOM     41  C   UNL A   1     -25.189   0.773  32.028  0.00  0.00    +0.019 C 
ATOM     42  C   UNL A   1     -25.336   0.684  33.544  0.00  0.00    +0.020 C 
ATOM     43  C   UNL A   1     -24.829  -0.715  33.905  0.00  0.00    +0.089 C 
ATOM     44  N   UNL A   1     -24.758  -1.481  32.646  0.00  0.00    -0.219 NA
ENDBRANCH  33  40
ENDBRANCH   3  33
TORSDOF 10
