MODEL 578
MODEL 1
REMARK VINA RESULT:    -5.548      0.000      0.000
REMARK INTER + INTRA:          -5.951
REMARK INTER:                  -5.872
REMARK INTRA:                  -0.079
REMARK UNBOUND:                -0.079
REMARK  Name = No_578-gen_results/8p0m/2024-11-27-11-27-31/
REMARK  1 active torsions:
REMARK  status: ('A' for Active; 'I' for Inactive)
REMARK    1  A    between atoms: C_5  and  C_7
REMARK                            x       y       z     vdW  Elec       q    Type
REMARK                         _______ _______ _______ _____ _____    ______ ____
ROOT
ATOM      1  C   UNL A   1     -26.391  -4.023  29.779  0.00  0.00    +0.058 A 
ATOM      2  C   UNL A   1     -25.879  -5.073  29.468  0.00  0.00    +0.011 A 
ATOM      3  C   UNL A   1     -24.638  -5.172  28.869  0.00  0.00    +0.001 A 
ATOM      4  C   UNL A   1     -23.909  -3.970  28.645  0.00  0.00    +0.005 A 
ATOM      5  C   UNL A   1     -24.447  -2.842  29.164  0.00  0.00    +0.056 A 
ATOM      6  C   UNL A   1     -25.624  -2.848  29.759  0.00  0.00    +0.016 A 
ATOM      7 CL   UNL A   1     -27.967  -3.994  30.567  0.00  0.00    -0.082 Cl
ENDROOT
BRANCH   5   8
ATOM      8  C   UNL A   1     -23.661  -1.609  28.947  0.00  0.00    +0.265 C 
ATOM      9  N   UNL A   1     -22.522  -1.564  29.062  0.00  0.00    -0.200 NA
ATOM     10  O   UNL A   1     -24.311  -0.519  28.712  0.00  0.00    -0.268 OA
ATOM     11  C   UNL A   1     -21.647  -0.359  28.874  0.00  0.00    +0.139 C 
ENDBRANCH   5   8
TORSDOF 1
ENDMDL
ENDMDL
