REMARK  Name = outputs/IAG933/test6/raw/output_5798_IAG933_linker_design_.xyz
REMARK  10 active torsions:
REMARK  status: ('A' for Active; 'I' for Inactive)
REMARK    1  A    between atoms: C_1  and  C_2
REMARK    2  A    between atoms: C_1  and  C_8
REMARK    3  A    between atoms: C_1  and  N_37
REMARK    4  A    between atoms: C_13  and  N_38
REMARK    5  A    between atoms: C_14  and  C_15
REMARK    6  A    between atoms: C_21  and  O_22
REMARK    7  A    between atoms: O_22  and  C_23
REMARK    8  A    between atoms: C_23  and  C_24
REMARK    9  A    between atoms: C_32  and  C_42
REMARK   10  A    between atoms: S_33  and  C_35
REMARK                            x       y       z     vdW  Elec       q    Type
REMARK                         _______ _______ _______ _____ _____    ______ ____
ROOT
ATOM      1  C   UNL A   1     -23.786   1.128  27.608  0.00  0.00    +0.074 C 
ATOM      2  C   UNL A   1     -22.779   1.758  26.887  0.00  0.00    +0.083 C 
ATOM      3  C   UNL A   1     -25.919   0.359  28.330  0.00  0.00    +0.292 C 
ATOM      4  C   UNL A   1     -23.529   0.326  28.617  0.00  0.00    +0.065 C 
ATOM      5  N   UNL A   1     -24.658  -0.152  28.996  0.00  0.00    -0.270 N 
ATOM      6  N   UNL A   1     -25.068   1.146  27.523  0.00  0.00    -0.267 N 
ATOM      7  C   UNL A   1     -21.093   0.830  28.267  0.00  0.00    +0.002 C 
ATOM      8  C   UNL A   1     -21.424   1.640  27.188  0.00  0.00    +0.012 C 
ATOM      9  C   UNL A   1     -22.075   0.160  28.947  0.00  0.00    +0.016 C 
ENDROOT
BRANCH   6  10
ATOM     10  C   UNL A   1     -25.688   1.614  26.461  0.00  0.00    +0.146 C 
ATOM     11  C   UNL A   1     -26.250   2.920  26.395  0.00  0.00    +0.073 C 
ATOM     12  C   UNL A   1     -27.438   3.091  25.645  0.00  0.00    +0.104 C 
ATOM     13  N   UNL A   1     -28.075   2.089  25.003  0.00  0.00    -0.212 NA
ATOM     14  C   UNL A   1     -27.543   0.849  25.079  0.00  0.00    +0.236 C 
ATOM     15  C   UNL A   1     -26.354   0.576  25.777  0.00  0.00    +0.258 C 
ATOM     16  F   UNL A   1     -25.860  -0.681  25.795  0.00  0.00    -0.225 F 
BRANCH  11  17
ATOM     17  C   UNL A   1     -25.642   4.093  27.123  0.00  0.00    +0.264 C 
ATOM     18  N   UNL A   1     -25.614   5.252  26.449  0.00  0.00    -0.200 NA
ATOM     19  C   UNL A   1     -25.026   6.479  26.963  0.00  0.00    +0.139 C 
ATOM     20  O   UNL A   1     -25.143   3.966  28.243  0.00  0.00    -0.269 OA
ENDBRANCH  11  17
BRANCH  14  21
ATOM     21  O   UNL A   1     -28.193  -0.208  24.477  0.00  0.00    -0.459 OA
BRANCH  21  22
ATOM     22  C   UNL A   1     -29.460   0.005  23.866  0.00  0.00    +0.242 C 
BRANCH  22  23
ATOM     23  C   UNL A   1     -30.065  -1.377  23.573  0.00  0.00    +0.229 C 
ATOM     24  O   UNL A   1     -30.729  -1.878  24.721  0.00  0.00    -0.216 OA
ENDBRANCH  22  23
ENDBRANCH  21  22
ENDBRANCH  14  21
ENDBRANCH   6  10
BRANCH   3  27
ATOM     25  O   UNL A   1     -27.863  -1.546  29.096  0.00  0.00    -0.066 OA
ATOM     26  O   UNL A   1     -28.399   0.540  30.010  0.00  0.00    -0.066 OA
ATOM     27  S   UNL A   1     -27.714  -0.131  28.880  0.00  0.00    +0.057 S 
ATOM     28  O   UNL A   1     -28.338   0.282  27.683  0.00  0.00    -0.066 OA
ENDBRANCH   3  27
BRANCH   2  30
ATOM     29  N   UNL A   1     -23.588   3.123  24.980  0.00  0.00    -0.191 NA
ATOM     30  C   UNL A   1     -23.202   2.523  25.814  0.00  0.00    +0.102 C 
ENDBRANCH   2  30
BRANCH   5  31
ATOM     31  C   UNL A   1     -24.855  -1.012  30.143  0.00  0.00    +0.114 C 
BRANCH  31  32
ATOM     32  C   UNL A   1     -24.973  -2.505  29.788  0.00  0.00    -0.003 C 
ATOM     33  C   UNL A   1     -23.906  -3.173  29.146  0.00  0.00    -0.003 C 
ATOM     34  C   UNL A   1     -23.989  -4.549  28.853  0.00  0.00    -0.000 C 
ATOM     35  C   UNL A   1     -25.137  -5.280  29.205  0.00  0.00    -0.000 C 
ATOM     36  C   UNL A   1     -26.232  -4.611  29.784  0.00  0.00    -0.000 C 
ATOM     37  C   UNL A   1     -26.155  -3.232  30.065  0.00  0.00    -0.003 C 
ENDBRANCH  31  32
BRANCH  31  38
ATOM     38  C   UNL A   1     -25.387  -0.679  31.571  0.00  0.00    +0.095 C 
ATOM     39  C   UNL A   1     -25.189   0.773  32.028  0.00  0.00    +0.021 C 
ATOM     40  C   UNL A   1     -25.336   0.684  33.544  0.00  0.00    +0.020 C 
ATOM     41  C   UNL A   1     -24.829  -0.715  33.905  0.00  0.00    +0.089 C 
ATOM     42  N   UNL A   1     -24.758  -1.481  32.646  0.00  0.00    -0.217 NA
ENDBRANCH  31  38
ENDBRANCH   5  31
TORSDOF 10
