MODEL 579
MODEL 1
REMARK VINA RESULT:    -5.722      0.000      0.000
REMARK INTER + INTRA:          -6.084
REMARK INTER:                  -6.056
REMARK INTRA:                  -0.028
REMARK UNBOUND:                -0.028
REMARK  Name = No_579-gen_results/8p0m/2024-11-27-11-27-31/
REMARK  1 active torsions:
REMARK  status: ('A' for Active; 'I' for Inactive)
REMARK    1  A    between atoms: C_5  and  C_11
REMARK                            x       y       z     vdW  Elec       q    Type
REMARK                         _______ _______ _______ _____ _____    ______ ____
ROOT
ATOM      1  C   UNL A   1     -30.641  -9.847  29.291  0.00  0.00    +0.000 A 
ATOM      2  C   UNL A   1     -29.929 -10.372  30.115  0.00  0.00    +0.000 A 
ATOM      3  C   UNL A   1     -29.000 -11.318  29.823  0.00  0.00    +0.000 A 
ATOM      4  C   UNL A   1     -28.120 -11.968  30.819  0.00  0.00    +0.002 A 
ATOM      5  C   UNL A   1     -28.255 -11.541  32.181  0.00  0.00    +0.021 A 
ATOM      6  C   UNL A   1     -29.181 -10.504  32.433  0.00  0.00    +0.002 A 
ATOM      7  C   UNL A   1     -29.965  -9.948  31.457  0.00  0.00    +0.000 A 
ATOM      8  C   UNL A   1     -30.938 -10.549  28.122  0.00  0.00    +0.000 A 
ATOM      9  C   UNL A   1     -30.086 -11.571  27.702  0.00  0.00    +0.000 A 
ATOM     10  C   UNL A   1     -29.178 -12.085  28.614  0.00  0.00    +0.000 A 
ENDROOT
BRANCH   5  11
ATOM     11  C   UNL A   1     -27.357 -11.954  33.235  0.00  0.00    +0.122 C 
ATOM     12  N   UNL A   1     -27.312 -12.269  34.404  0.00  0.00    -0.146 NA
ENDBRANCH   5  11
TORSDOF 1
ENDMDL
ENDMDL
