MODEL 57
MODEL 1
REMARK VINA RESULT:    -6.976      0.000      0.000
REMARK INTER + INTRA:          -9.439
REMARK INTER:                  -8.608
REMARK INTRA:                  -0.831
REMARK UNBOUND:                -0.831
REMARK  Name = No_57-gen_results/8p0m/2024-11-27-11-27-31/
REMARK  4 active torsions:
REMARK  status: ('A' for Active; 'I' for Inactive)
REMARK    1  A    between atoms: C_2  and  C_13
REMARK    2  A    between atoms: C_4  and  C_7
REMARK    3  A    between atoms: C_13  and  O_14
REMARK    4  A    between atoms: O_14  and  C_16
REMARK                            x       y       z     vdW  Elec       q    Type
REMARK                         _______ _______ _______ _____ _____    ______ ____
ROOT
ATOM      1  C   UNL A   1     -25.553   2.675  26.059  0.00  0.00    +0.006 A 
ATOM      2  C   UNL A   1     -24.821   1.937  25.888  0.00  0.00    +0.076 A 
ATOM      3  C   UNL A   1     -26.894   2.425  25.406  0.00  0.00    +0.000 A 
ATOM      4  C   UNL A   1     -27.127   1.196  24.753  0.00  0.00    +0.000 A 
ATOM      5  C   UNL A   1     -24.813   0.582  25.291  0.00  0.00    +0.006 A 
ATOM      6  C   UNL A   1     -26.033   0.314  24.685  0.00  0.00    +0.000 A 
ENDROOT
BRANCH   4   7
ATOM      7  C   UNL A   1     -28.294   0.693  24.188  0.00  0.00    +0.000 A 
ATOM      8  C   UNL A   1     -29.280   0.983  24.048  0.00  0.00    +0.000 A 
ATOM      9  C   UNL A   1     -30.493   0.320  23.543  0.00  0.00    +0.000 A 
ATOM     10  C   UNL A   1     -30.271  -1.002  23.359  0.00  0.00    +0.000 A 
ATOM     11  C   UNL A   1     -28.203  -0.839  23.901  0.00  0.00    +0.000 A 
ATOM     12  C   UNL A   1     -29.095  -1.599  23.520  0.00  0.00    +0.000 A 
ENDBRANCH   4   7
BRANCH   2  13
ATOM     13  C   UNL A   1     -23.359   2.259  26.512  0.00  0.00    +0.346 C 
ATOM     14  O   UNL A   1     -22.410   2.265  25.740  0.00  0.00    -0.244 OA
BRANCH  13  15
ATOM     15  O   UNL A   1     -23.242   2.386  27.770  0.00  0.00    -0.419 OA
BRANCH  15  16
ATOM     16  C   UNL A   1     -22.979   1.501  28.555  0.00  0.00    +0.168 A 
ATOM     17  C   UNL A   1     -22.025   0.449  28.380  0.00  0.00    +0.041 A 
ATOM     18  C   UNL A   1     -21.846  -0.506  29.239  0.00  0.00    +0.024 A 
ATOM     19  C   UNL A   1     -22.625  -0.507  30.430  0.00  0.00    +0.099 A 
ATOM     20  C   UNL A   1     -23.711   1.357  29.796  0.00  0.00    +0.136 A 
ATOM     21  N   UNL A   1     -23.470   0.380  30.637  0.00  0.00    -0.239 NA
ENDBRANCH  15  16
ENDBRANCH  13  15
ENDBRANCH   2  13
TORSDOF 4
ENDMDL
ENDMDL
