REMARK  Name = outputs/IAG933/test6/raw/output_58_IAG933_linker_design_.xyz
REMARK  12 active torsions:
REMARK  status: ('A' for Active; 'I' for Inactive)
REMARK    1  A    between atoms: C_1  and  C_2
REMARK    2  A    between atoms: C_1  and  C_8
REMARK    3  A    between atoms: C_1  and  C_30
REMARK    4  A    between atoms: C_13  and  C_40
REMARK    5  A    between atoms: C_14  and  C_15
REMARK    6  A    between atoms: C_21  and  O_22
REMARK    7  A    between atoms: O_22  and  C_23
REMARK    8  A    between atoms: C_23  and  C_24
REMARK    9  A    between atoms: C_32  and  C_44
REMARK   10  A    between atoms: C_37  and  C_41
REMARK   11  A    between atoms: C_37  and  N_43
REMARK   12  A    between atoms: C_39  and  C_41
REMARK                            x       y       z     vdW  Elec       q    Type
REMARK                         _______ _______ _______ _____ _____    ______ ____
ROOT
ATOM      1  C   UNL A   1     -23.512   1.388  27.399  0.00  0.00    +0.081 C 
ATOM      2  N   UNL A   1     -21.346   1.408  28.210  0.00  0.00    +0.073 NA
ATOM      3  C   UNL A   1     -24.478   0.050  29.343  0.00  0.00    +0.211 C 
ATOM      4  C   UNL A   1     -23.021   2.152  25.144  0.00  0.00    +0.053 C 
ATOM      5  N   UNL A   1     -21.299   1.950  26.955  0.00  0.00    -0.008 NA
ATOM      6  C   UNL A   1     -22.535   1.868  26.488  0.00  0.00    +0.098 C 
ATOM      7  C   UNL A   1     -22.671   0.926  28.409  0.00  0.00    +0.382 C 
ATOM      8  C   UNL A   1     -25.422   0.976  28.684  0.00  0.00    +0.054 C 
ATOM      9  C   UNL A   1     -24.878   1.299  27.469  0.00  0.00    +0.042 C 
ATOM     10  N   UNL A   1     -23.134  -0.008  29.346  0.00  0.00    -0.034 NA
ENDROOT
BRANCH   9  11
ATOM     11  C   UNL A   1     -25.688   1.614  26.461  0.00  0.00    +0.075 C 
ATOM     12  C   UNL A   1     -26.250   2.920  26.395  0.00  0.00    +0.055 C 
ATOM     13  C   UNL A   1     -27.438   3.091  25.645  0.00  0.00    +0.102 C 
ATOM     14  N   UNL A   1     -28.075   2.089  25.003  0.00  0.00    -0.212 NA
ATOM     15  C   UNL A   1     -27.543   0.849  25.079  0.00  0.00    +0.234 C 
ATOM     16  C   UNL A   1     -26.354   0.576  25.777  0.00  0.00    +0.240 C 
ATOM     17  F   UNL A   1     -25.860  -0.681  25.795  0.00  0.00    -0.227 F 
BRANCH  12  18
ATOM     18  C   UNL A   1     -25.642   4.093  27.123  0.00  0.00    +0.262 C 
ATOM     19  N   UNL A   1     -25.614   5.252  26.449  0.00  0.00    -0.200 NA
ATOM     20  C   UNL A   1     -25.026   6.479  26.963  0.00  0.00    +0.139 C 
ATOM     21  O   UNL A   1     -25.143   3.966  28.243  0.00  0.00    -0.269 OA
ENDBRANCH  12  18
BRANCH  15  22
ATOM     22  O   UNL A   1     -28.193  -0.208  24.477  0.00  0.00    -0.459 OA
BRANCH  22  23
ATOM     23  C   UNL A   1     -29.460   0.005  23.866  0.00  0.00    +0.242 C 
BRANCH  23  24
ATOM     24  C   UNL A   1     -30.065  -1.377  23.573  0.00  0.00    +0.229 C 
ATOM     25  O   UNL A   1     -30.729  -1.878  24.721  0.00  0.00    -0.216 OA
ENDBRANCH  23  24
ENDBRANCH  22  23
ENDBRANCH  15  22
ENDBRANCH   9  11
BRANCH   3  26
ATOM     26  C   UNL A   1     -24.855  -1.012  30.143  0.00  0.00    +0.085 C 
BRANCH  26  27
ATOM     27  C   UNL A   1     -24.973  -2.505  29.788  0.00  0.00    -0.017 C 
ATOM     28  C   UNL A   1     -23.906  -3.173  29.146  0.00  0.00    -0.004 C 
ATOM     29  C   UNL A   1     -23.989  -4.549  28.853  0.00  0.00    -0.000 C 
ATOM     30  C   UNL A   1     -25.137  -5.280  29.205  0.00  0.00    -0.000 C 
ATOM     31  C   UNL A   1     -26.232  -4.611  29.784  0.00  0.00    -0.000 C 
ATOM     32  C   UNL A   1     -26.155  -3.232  30.065  0.00  0.00    -0.004 C 
ENDBRANCH  26  27
BRANCH  26  33
ATOM     33  C   UNL A   1     -25.387  -0.679  31.571  0.00  0.00    +0.081 C 
ATOM     34  C   UNL A   1     -25.189   0.773  32.028  0.00  0.00    +0.019 C 
ATOM     35  C   UNL A   1     -25.336   0.684  33.544  0.00  0.00    +0.020 C 
ATOM     36  C   UNL A   1     -24.829  -0.715  33.905  0.00  0.00    +0.089 C 
ATOM     37  N   UNL A   1     -24.758  -1.481  32.646  0.00  0.00    -0.219 NA
ENDBRANCH  26  33
ENDBRANCH   3  26
BRANCH   8  38
ATOM     38  C   UNL A   1     -26.727   1.391  29.159  0.00  0.00    +0.028 C 
BRANCH  38  39
ATOM     39  C   UNL A   1     -27.433   2.488  29.506  0.00  0.00    +0.115 C 
BRANCH  39  42
ATOM     40  C   UNL A   1     -26.266   4.098  30.943  0.00  0.00    +0.275 C 
ATOM     41  O   UNL A   1     -25.084   3.969  30.792  0.00  0.00    -0.271 OA
ATOM     42  N   UNL A   1     -27.177   3.693  30.117  0.00  0.00    -0.203 NA
BRANCH  40  44
ATOM     43  O   UNL A   1     -28.002   4.077  32.569  0.00  0.00    -0.210 OA
ATOM     44  C   UNL A   1     -26.900   4.805  32.114  0.00  0.00    +0.268 C 
ENDBRANCH  40  44
ENDBRANCH  39  42
ENDBRANCH  38  39
ENDBRANCH   8  38
TORSDOF 12
