REMARK  Name = outputs/IAG933/test6/raw/output_580_IAG933_linker_design_.xyz
REMARK  14 active torsions:
REMARK  status: ('A' for Active; 'I' for Inactive)
REMARK    1  A    between atoms: C_1  and  C_2
REMARK    2  A    between atoms: C_1  and  C_8
REMARK    3  A    between atoms: C_1  and  C_37
REMARK    4  A    between atoms: C_13  and  N_34
REMARK    5  A    between atoms: C_14  and  C_15
REMARK    6  A    between atoms: C_21  and  O_22
REMARK    7  A    between atoms: O_22  and  C_23
REMARK    8  A    between atoms: C_23  and  C_24
REMARK    9  A    between atoms: C_28  and  C_41
REMARK   10  A    between atoms: C_28  and  C_42
REMARK   11  A    between atoms: C_31  and  C_37
REMARK   12  A    between atoms: C_31  and  O_38
REMARK   13  A    between atoms: O_36  and  C_41
REMARK   14  A    between atoms: O_38  and  C_42
REMARK                            x       y       z     vdW  Elec       q    Type
REMARK                         _______ _______ _______ _____ _____    ______ ____
ROOT
ATOM      1  C   UNL A   1     -22.389   1.008  27.764  0.00  0.00    +0.406 C 
ATOM      2  F   UNL A   1     -21.080   1.007  27.609  0.00  0.00    -0.178 F 
ATOM      3  O   UNL A   1     -22.971   2.259  25.742  0.00  0.00    -0.267 OA
ATOM      4  C   UNL A   1     -23.325   1.607  26.786  0.00  0.00    +0.311 C 
ATOM      5  N   UNL A   1     -24.508   1.258  27.147  0.00  0.00    -0.201 N 
ATOM      6  O   UNL A   1     -23.122   0.283  28.600  0.00  0.00    -0.430 OA
ATOM      7  C   UNL A   1     -25.481  -0.122  29.115  0.00  0.00    +0.040 C 
ATOM      8  C   UNL A   1     -24.445   0.472  28.256  0.00  0.00    +0.201 C 
ENDROOT
BRANCH   5   9
ATOM      9  C   UNL A   1     -25.688   1.614  26.461  0.00  0.00    +0.099 C 
ATOM     10  C   UNL A   1     -26.250   2.920  26.395  0.00  0.00    +0.091 C 
ATOM     11  C   UNL A   1     -27.438   3.091  25.645  0.00  0.00    +0.108 C 
ATOM     12  N   UNL A   1     -28.075   2.089  25.003  0.00  0.00    -0.208 NA
ATOM     13  C   UNL A   1     -27.543   0.849  25.079  0.00  0.00    +0.255 C 
ATOM     14  C   UNL A   1     -26.354   0.576  25.777  0.00  0.00    +0.207 C 
ATOM     15  F   UNL A   1     -25.860  -0.681  25.795  0.00  0.00    -0.198 F 
BRANCH  10  16
ATOM     16  C   UNL A   1     -25.642   4.093  27.123  0.00  0.00    +0.268 C 
ATOM     17  N   UNL A   1     -25.614   5.252  26.449  0.00  0.00    -0.200 NA
ATOM     18  C   UNL A   1     -25.026   6.479  26.963  0.00  0.00    +0.139 C 
ATOM     19  O   UNL A   1     -25.143   3.966  28.243  0.00  0.00    -0.268 OA
ENDBRANCH  10  16
BRANCH  13  20
ATOM     20  O   UNL A   1     -28.193  -0.208  24.477  0.00  0.00    -0.456 OA
BRANCH  20  21
ATOM     21  C   UNL A   1     -29.460   0.005  23.866  0.00  0.00    +0.243 C 
BRANCH  21  22
ATOM     22  C   UNL A   1     -30.065  -1.377  23.573  0.00  0.00    +0.229 C 
ATOM     23  O   UNL A   1     -30.729  -1.878  24.721  0.00  0.00    -0.216 OA
ENDBRANCH  21  22
ENDBRANCH  20  21
ENDBRANCH  13  20
ENDBRANCH   5   9
BRANCH   7  24
ATOM     24  C   UNL A   1     -24.855  -1.012  30.143  0.00  0.00    +0.063 C 
BRANCH  24  25
ATOM     25  C   UNL A   1     -24.973  -2.505  29.788  0.00  0.00    -0.017 C 
ATOM     26  C   UNL A   1     -23.906  -3.173  29.146  0.00  0.00    -0.004 C 
ATOM     27  C   UNL A   1     -23.989  -4.549  28.853  0.00  0.00    -0.000 C 
ATOM     28  C   UNL A   1     -25.137  -5.280  29.205  0.00  0.00    -0.000 C 
ATOM     29  C   UNL A   1     -26.232  -4.611  29.784  0.00  0.00    -0.000 C 
ATOM     30  C   UNL A   1     -26.155  -3.232  30.065  0.00  0.00    -0.004 C 
ENDBRANCH  24  25
BRANCH  24  31
ATOM     31  C   UNL A   1     -25.387  -0.679  31.571  0.00  0.00    +0.081 C 
ATOM     32  C   UNL A   1     -25.189   0.773  32.028  0.00  0.00    +0.019 C 
ATOM     33  C   UNL A   1     -25.336   0.684  33.544  0.00  0.00    +0.020 C 
ATOM     34  C   UNL A   1     -24.829  -0.715  33.905  0.00  0.00    +0.089 C 
ATOM     35  N   UNL A   1     -24.758  -1.481  32.646  0.00  0.00    -0.219 NA
ENDBRANCH  24  31
ENDBRANCH   7  24
BRANCH   7  36
ATOM     36  C   UNL A   1     -27.122  -0.188  29.047  0.00  0.00    +0.169 C 
BRANCH  36  37
ATOM     37  O   UNL A   1     -28.119  -1.155  29.506  0.00  0.00    -0.349 OA
BRANCH  37  38
ATOM     38  C   UNL A   1     -29.239  -0.604  30.223  0.00  0.00    +0.145 C 
BRANCH  38  39
ATOM     39  C   UNL A   1     -29.113   0.112  31.348  0.00  0.00    +0.064 C 
BRANCH  39  40
ATOM     40  C   UNL A   1     -29.723  -0.323  32.699  0.00  0.00    +0.145 C 
BRANCH  40  41
ATOM     41  O   UNL A   1     -31.124  -0.576  32.646  0.00  0.00    -0.351 OA
ATOM     42  C   UNL A   1     -31.860  -0.004  33.769  0.00  0.00    +0.174 C 
ENDBRANCH  40  41
ENDBRANCH  39  40
ENDBRANCH  38  39
ENDBRANCH  37  38
ENDBRANCH  36  37
ENDBRANCH   7  36
TORSDOF 14
