REMARK  Name = outputs/IAG933/test6/raw/output_5802_IAG933_linker_design_.xyz
REMARK  19 active torsions:
REMARK  status: ('A' for Active; 'I' for Inactive)
REMARK    1  A    between atoms: C_1  and  C_2
REMARK    2  A    between atoms: C_1  and  C_8
REMARK    3  A    between atoms: C_1  and  N_31
REMARK    4  A    between atoms: C_9  and  C_39
REMARK    5  A    between atoms: C_13  and  C_33
REMARK    6  A    between atoms: C_14  and  C_15
REMARK    7  A    between atoms: C_21  and  O_22
REMARK    8  A    between atoms: O_22  and  C_23
REMARK    9  A    between atoms: C_23  and  C_24
REMARK   10  A    between atoms: C_30  and  C_40
REMARK   11  A    between atoms: N_31  and  C_42
REMARK   12  A    between atoms: C_32  and  O_38
REMARK   13  A    between atoms: C_32  and  C_43
REMARK   14  A    between atoms: C_33  and  C_40
REMARK   15  A    between atoms: C_35  and  O_41
REMARK   16  A    between atoms: C_35  and  C_43
REMARK   17  A    between atoms: C_36  and  C_42
REMARK   18  A    between atoms: O_38  and  C_39
REMARK   19  A    between atoms: C_42  and  C_44
REMARK                            x       y       z     vdW  Elec       q    Type
REMARK                         _______ _______ _______ _____ _____    ______ ____
ROOT
ATOM      1  C   UNL A   1     -23.242   0.248  29.082  0.00  0.00    +0.127 C 
ENDROOT
BRANCH   1   3
ATOM      2  C   UNL A   1     -21.921   0.806  27.217  0.00  0.00    +0.040 C 
ATOM      3  C   UNL A   1     -21.807   0.525  28.275  0.00  0.00    +0.181 C 
ATOM      4  F   UNL A   1     -21.220   0.884  28.122  0.00  0.00    -0.235 F 
ENDBRANCH   1   3
BRANCH   1   6
ATOM      5  C   UNL A   1     -24.386   1.311  27.124  0.00  0.00    -0.012 C 
ATOM      6  C   UNL A   1     -24.365   0.740  28.347  0.00  0.00    -0.010 C 
BRANCH   5   7
ATOM      7  C   UNL A   1     -25.688   1.614  26.461  0.00  0.00    +0.034 C 
ATOM      8  C   UNL A   1     -26.250   2.920  26.395  0.00  0.00    +0.076 C 
ATOM      9  C   UNL A   1     -27.438   3.091  25.645  0.00  0.00    +0.107 C 
ATOM     10  N   UNL A   1     -28.075   2.089  25.003  0.00  0.00    -0.208 NA
ATOM     11  C   UNL A   1     -27.543   0.849  25.079  0.00  0.00    +0.253 C 
ATOM     12  C   UNL A   1     -26.354   0.576  25.777  0.00  0.00    +0.193 C 
ATOM     13  F   UNL A   1     -25.860  -0.681  25.795  0.00  0.00    -0.199 F 
BRANCH   8  14
ATOM     14  C   UNL A   1     -25.642   4.093  27.123  0.00  0.00    +0.266 C 
ATOM     15  N   UNL A   1     -25.614   5.252  26.449  0.00  0.00    -0.200 NA
ATOM     16  C   UNL A   1     -25.026   6.479  26.963  0.00  0.00    +0.139 C 
ATOM     17  O   UNL A   1     -25.143   3.966  28.243  0.00  0.00    -0.268 OA
ENDBRANCH   8  14
BRANCH  11  18
ATOM     18  O   UNL A   1     -28.193  -0.208  24.477  0.00  0.00    -0.456 OA
BRANCH  18  19
ATOM     19  C   UNL A   1     -29.460   0.005  23.866  0.00  0.00    +0.243 C 
BRANCH  19  20
ATOM     20  C   UNL A   1     -30.065  -1.377  23.573  0.00  0.00    +0.229 C 
ATOM     21  O   UNL A   1     -30.729  -1.878  24.721  0.00  0.00    -0.216 OA
ENDBRANCH  19  20
ENDBRANCH  18  19
ENDBRANCH  11  18
ENDBRANCH   5   7
BRANCH   5  22
ATOM     22  C   UNL A   1     -23.037   1.527  26.603  0.00  0.00    +0.127 C 
BRANCH  22  23
ATOM     23  C   UNL A   1     -22.977   2.115  25.386  0.00  0.00    +0.315 C 
ATOM     24  F   UNL A   1     -21.911   1.883  24.605  0.00  0.00    -0.163 F 
ATOM     25  O   UNL A   1     -23.739   3.007  24.988  0.00  0.00    -0.259 OA
ENDBRANCH  22  23
ENDBRANCH   5  22
ENDBRANCH   1   6
BRANCH   1  26
ATOM     26  N   UNL A   1     -23.504  -0.474  30.253  0.00  0.00    -0.208 NA
BRANCH  26  27
ATOM     27  C   UNL A   1     -24.855  -1.012  30.143  0.00  0.00    +0.111 C 
BRANCH  27  28
ATOM     28  C   UNL A   1     -24.973  -2.505  29.788  0.00  0.00    -0.005 C 
ATOM     29  C   UNL A   1     -23.906  -3.173  29.146  0.00  0.00    -0.003 C 
ATOM     30  C   UNL A   1     -23.989  -4.549  28.853  0.00  0.00    -0.000 C 
ATOM     31  C   UNL A   1     -25.137  -5.280  29.205  0.00  0.00    -0.000 C 
ATOM     32  C   UNL A   1     -26.232  -4.611  29.784  0.00  0.00    -0.000 C 
ATOM     33  C   UNL A   1     -26.155  -3.232  30.065  0.00  0.00    -0.003 C 
ENDBRANCH  27  28
BRANCH  27  34
ATOM     34  C   UNL A   1     -25.387  -0.679  31.571  0.00  0.00    +0.095 C 
ATOM     35  C   UNL A   1     -25.189   0.773  32.028  0.00  0.00    +0.049 C 
ATOM     36  C   UNL A   1     -25.336   0.684  33.544  0.00  0.00    +0.023 C 
ATOM     37  C   UNL A   1     -24.829  -0.715  33.905  0.00  0.00    +0.089 C 
ATOM     38  N   UNL A   1     -24.758  -1.481  32.646  0.00  0.00    -0.218 NA
BRANCH  35  39
ATOM     39  C   UNL A   1     -24.361   1.655  31.621  0.00  0.00    +0.144 C 
BRANCH  39  40
ATOM     40  O   UNL A   1     -23.930   2.809  31.522  0.00  0.00    -0.354 OA
BRANCH  40  41
ATOM     41  C   UNL A   1     -24.930   3.860  31.686  0.00  0.00    +0.145 C 
BRANCH  41  42
ATOM     42  C   UNL A   1     -24.087   4.925  32.195  0.00  0.00    +0.064 C 
BRANCH  42  43
ATOM     43  C   UNL A   1     -24.851   5.916  33.021  0.00  0.00    +0.145 C 
BRANCH  43  45
ATOM     44  C   UNL A   1     -25.483   6.586  35.151  0.00  0.00    +0.174 C 
ATOM     45  O   UNL A   1     -25.121   5.473  34.308  0.00  0.00    -0.351 OA
ENDBRANCH  43  45
ENDBRANCH  42  43
ENDBRANCH  41  42
ENDBRANCH  40  41
ENDBRANCH  39  40
ENDBRANCH  35  39
ENDBRANCH  27  34
ENDBRANCH  26  27
ENDBRANCH   1  26
TORSDOF 19
