REMARK  Name = outputs/IAG933/test6/raw/output_581_IAG933_linker_design_.xyz
REMARK  14 active torsions:
REMARK  status: ('A' for Active; 'I' for Inactive)
REMARK    1  A    between atoms: C_1  and  C_2
REMARK    2  A    between atoms: C_1  and  C_8
REMARK    3  A    between atoms: C_1  and  C_38
REMARK    4  A    between atoms: C_13  and  C_37
REMARK    5  A    between atoms: C_14  and  C_15
REMARK    6  A    between atoms: C_21  and  O_22
REMARK    7  A    between atoms: O_22  and  C_23
REMARK    8  A    between atoms: C_23  and  C_24
REMARK    9  A    between atoms: O_31  and  C_39
REMARK   10  A    between atoms: C_34  and  C_39
REMARK   11  A    between atoms: N_35  and  C_38
REMARK   12  A    between atoms: C_37  and  C_39
REMARK   13  A    between atoms: C_37  and  C_40
REMARK   14  A    between atoms: C_38  and  C_40
REMARK                            x       y       z     vdW  Elec       q    Type
REMARK                         _______ _______ _______ _____ _____    ______ ____
ROOT
ATOM      1  C   UNL A   1     -24.758   1.340  27.416  0.00  0.00    +0.067 C 
ENDROOT
BRANCH   1   2
ATOM      2  C   UNL A   1     -25.688   1.614  26.461  0.00  0.00    +0.077 C 
ATOM      3  C   UNL A   1     -26.250   2.920  26.395  0.00  0.00    +0.055 C 
ATOM      4  C   UNL A   1     -27.438   3.091  25.645  0.00  0.00    +0.102 C 
ATOM      5  N   UNL A   1     -28.075   2.089  25.003  0.00  0.00    -0.212 NA
ATOM      6  C   UNL A   1     -27.543   0.849  25.079  0.00  0.00    +0.234 C 
ATOM      7  C   UNL A   1     -26.354   0.576  25.777  0.00  0.00    +0.240 C 
ATOM      8  F   UNL A   1     -25.860  -0.681  25.795  0.00  0.00    -0.227 F 
BRANCH   3   9
ATOM      9  C   UNL A   1     -25.642   4.093  27.123  0.00  0.00    +0.263 C 
ATOM     10  N   UNL A   1     -25.614   5.252  26.449  0.00  0.00    -0.200 NA
ATOM     11  C   UNL A   1     -25.026   6.479  26.963  0.00  0.00    +0.139 C 
ATOM     12  O   UNL A   1     -25.143   3.966  28.243  0.00  0.00    -0.269 OA
ENDBRANCH   3   9
BRANCH   6  13
ATOM     13  O   UNL A   1     -28.193  -0.208  24.477  0.00  0.00    -0.459 OA
BRANCH  13  14
ATOM     14  C   UNL A   1     -29.460   0.005  23.866  0.00  0.00    +0.242 C 
BRANCH  14  15
ATOM     15  C   UNL A   1     -30.065  -1.377  23.573  0.00  0.00    +0.229 C 
ATOM     16  O   UNL A   1     -30.729  -1.878  24.721  0.00  0.00    -0.216 OA
ENDBRANCH  14  15
ENDBRANCH  13  14
ENDBRANCH   6  13
ENDBRANCH   1   2
BRANCH   1  19
ATOM     17  C   UNL A   1     -23.677   0.218  28.722  0.00  0.00    +0.126 C 
ATOM     18  O   UNL A   1     -22.631  -0.164  29.151  0.00  0.00    -0.232 OA
ATOM     19  C   UNL A   1     -24.968   0.385  28.464  0.00  0.00    +0.053 C 
BRANCH  19  20
ATOM     20  C   UNL A   1     -25.791  -0.335  29.140  0.00  0.00    +0.129 C 
BRANCH  20  23
ATOM     21  O   UNL A   1     -29.291  -0.897  28.716  0.00  0.00    -0.273 OA
ATOM     22  C   UNL A   1     -28.759  -1.945  30.787  0.00  0.00    +0.096 C 
ATOM     23  N   UNL A   1     -27.211  -0.765  29.335  0.00  0.00    -0.202 NA
ATOM     24  C   UNL A   1     -28.437  -1.206  29.528  0.00  0.00    +0.242 C 
ENDBRANCH  20  23
BRANCH  20  25
ATOM     25  C   UNL A   1     -24.855  -1.012  30.143  0.00  0.00    +0.063 C 
BRANCH  25  26
ATOM     26  C   UNL A   1     -24.973  -2.505  29.788  0.00  0.00    -0.019 C 
ATOM     27  C   UNL A   1     -23.906  -3.173  29.146  0.00  0.00    -0.004 C 
ATOM     28  C   UNL A   1     -23.989  -4.549  28.853  0.00  0.00    -0.000 C 
ATOM     29  C   UNL A   1     -25.137  -5.280  29.205  0.00  0.00    -0.000 C 
ATOM     30  C   UNL A   1     -26.232  -4.611  29.784  0.00  0.00    -0.000 C 
ATOM     31  C   UNL A   1     -26.155  -3.232  30.065  0.00  0.00    -0.004 C 
ENDBRANCH  25  26
BRANCH  25  32
ATOM     32  C   UNL A   1     -25.387  -0.679  31.571  0.00  0.00    +0.079 C 
ATOM     33  C   UNL A   1     -25.189   0.773  32.028  0.00  0.00    +0.019 C 
ATOM     34  C   UNL A   1     -25.336   0.684  33.544  0.00  0.00    +0.020 C 
ATOM     35  C   UNL A   1     -24.829  -0.715  33.905  0.00  0.00    +0.089 C 
ATOM     36  N   UNL A   1     -24.758  -1.481  32.646  0.00  0.00    -0.219 NA
ENDBRANCH  25  32
ENDBRANCH  20  25
ENDBRANCH  19  20
ENDBRANCH   1  19
BRANCH   1  37
ATOM     37  C   UNL A   1     -23.651   1.280  26.616  0.00  0.00    +0.153 C 
BRANCH  37  39
ATOM     38  C   UNL A   1     -22.157   2.370  24.816  0.00  0.00    +0.174 C 
ATOM     39  O   UNL A   1     -23.438   1.962  25.355  0.00  0.00    -0.350 OA
ENDBRANCH  37  39
BRANCH  37  41
ATOM     40  O   UNL A   1     -21.284   1.353  27.907  0.00  0.00    -0.218 OA
ATOM     41  C   UNL A   1     -22.387   1.727  27.307  0.00  0.00    +0.212 C 
ENDBRANCH  37  41
ENDBRANCH   1  37
TORSDOF 14
