REMARK  Name = outputs/IAG933/test6/raw/output_5812_IAG933_linker_design_.xyz
REMARK  13 active torsions:
REMARK  status: ('A' for Active; 'I' for Inactive)
REMARK    1  A    between atoms: C_1  and  C_2
REMARK    2  A    between atoms: C_1  and  C_8
REMARK    3  A    between atoms: C_1  and  C_34
REMARK    4  A    between atoms: C_13  and  C_28
REMARK    5  A    between atoms: C_14  and  C_15
REMARK    6  A    between atoms: C_21  and  O_22
REMARK    7  A    between atoms: O_22  and  C_23
REMARK    8  A    between atoms: C_23  and  C_24
REMARK    9  A    between atoms: C_31  and  C_34
REMARK   10  A    between atoms: C_34  and  N_35
REMARK   11  A    between atoms: N_35  and  C_45
REMARK   12  A    between atoms: O_37  and  C_44
REMARK   13  A    between atoms: C_38  and  C_45
REMARK                            x       y       z     vdW  Elec       q    Type
REMARK                         _______ _______ _______ _____ _____    ______ ____
ROOT
ATOM      1  C   UNL A   1     -25.332   0.046  29.141  0.00  0.00    +0.110 C 
ENDROOT
BRANCH   1   4
ATOM      2  C   UNL A   1     -24.276   1.357  27.091  0.00  0.00    +0.004 C 
ATOM      3  C   UNL A   1     -21.869   1.145  28.957  0.00  0.00    +0.147 C 
ATOM      4  C   UNL A   1     -24.088   0.787  28.527  0.00  0.00    +0.153 C 
ATOM      5  C   UNL A   1     -22.938   1.958  26.588  0.00  0.00    -0.025 C 
ATOM      6  O   UNL A   1     -22.795   0.076  28.669  0.00  0.00    -0.350 OA
ATOM      7  C   UNL A   1     -21.657   1.819  27.495  0.00  0.00    +0.058 C 
BRANCH   2   8
ATOM      8  C   UNL A   1     -25.688   1.614  26.461  0.00  0.00    +0.036 C 
ATOM      9  C   UNL A   1     -26.250   2.920  26.395  0.00  0.00    +0.076 C 
ATOM     10  C   UNL A   1     -27.438   3.091  25.645  0.00  0.00    +0.107 C 
ATOM     11  N   UNL A   1     -28.075   2.089  25.003  0.00  0.00    -0.208 NA
ATOM     12  C   UNL A   1     -27.543   0.849  25.079  0.00  0.00    +0.253 C 
ATOM     13  C   UNL A   1     -26.354   0.576  25.777  0.00  0.00    +0.193 C 
ATOM     14  F   UNL A   1     -25.860  -0.681  25.795  0.00  0.00    -0.199 F 
BRANCH   9  15
ATOM     15  C   UNL A   1     -25.642   4.093  27.123  0.00  0.00    +0.266 C 
ATOM     16  N   UNL A   1     -25.614   5.252  26.449  0.00  0.00    -0.200 NA
ATOM     17  C   UNL A   1     -25.026   6.479  26.963  0.00  0.00    +0.139 C 
ATOM     18  O   UNL A   1     -25.143   3.966  28.243  0.00  0.00    -0.268 OA
ENDBRANCH   9  15
BRANCH  12  19
ATOM     19  O   UNL A   1     -28.193  -0.208  24.477  0.00  0.00    -0.456 OA
BRANCH  19  20
ATOM     20  C   UNL A   1     -29.460   0.005  23.866  0.00  0.00    +0.243 C 
BRANCH  20  21
ATOM     21  C   UNL A   1     -30.065  -1.377  23.573  0.00  0.00    +0.229 C 
ATOM     22  O   UNL A   1     -30.729  -1.878  24.721  0.00  0.00    -0.216 OA
ENDBRANCH  20  21
ENDBRANCH  19  20
ENDBRANCH  12  19
ENDBRANCH   2   8
ENDBRANCH   1   4
BRANCH   1  23
ATOM     23  C   UNL A   1     -24.855  -1.012  30.143  0.00  0.00    +0.057 C 
BRANCH  23  24
ATOM     24  C   UNL A   1     -24.973  -2.505  29.788  0.00  0.00    -0.020 C 
ATOM     25  C   UNL A   1     -23.906  -3.173  29.146  0.00  0.00    -0.004 C 
ATOM     26  C   UNL A   1     -23.989  -4.549  28.853  0.00  0.00    -0.000 C 
ATOM     27  C   UNL A   1     -25.137  -5.280  29.205  0.00  0.00    -0.000 C 
ATOM     28  C   UNL A   1     -26.232  -4.611  29.784  0.00  0.00    -0.000 C 
ATOM     29  C   UNL A   1     -26.155  -3.232  30.065  0.00  0.00    -0.004 C 
ENDBRANCH  23  24
BRANCH  23  30
ATOM     30  C   UNL A   1     -25.387  -0.679  31.571  0.00  0.00    +0.078 C 
ATOM     31  C   UNL A   1     -25.189   0.773  32.028  0.00  0.00    +0.019 C 
ATOM     32  C   UNL A   1     -25.336   0.684  33.544  0.00  0.00    +0.020 C 
ATOM     33  C   UNL A   1     -24.829  -0.715  33.905  0.00  0.00    +0.089 C 
ATOM     34  N   UNL A   1     -24.758  -1.481  32.646  0.00  0.00    -0.219 NA
ENDBRANCH  23  30
ENDBRANCH   1  23
BRANCH   1  35
ATOM     35  N   UNL A   1     -26.715  -0.426  28.575  0.00  0.00    -0.207 NA
BRANCH  35  36
ATOM     36  C   UNL A   1     -27.747  -0.489  29.159  0.00  0.00    +0.174 C 
BRANCH  36  40
ATOM     37  C   UNL A   1     -29.541   1.182  30.858  0.00  0.00    +0.123 C 
ATOM     38  C   UNL A   1     -30.605   3.061  29.868  0.00  0.00    +0.053 C 
ATOM     39  N   UNL A   1     -29.694   0.865  29.471  0.00  0.00    -0.276 N 
ATOM     40  C   UNL A   1     -29.167  -0.114  28.791  0.00  0.00    +0.243 C 
ATOM     41  C   UNL A   1     -30.474   1.941  28.830  0.00  0.00    +0.096 C 
ATOM     42  O   UNL A   1     -29.681  -0.640  27.808  0.00  0.00    -0.273 OA
ATOM     43  C   UNL A   1     -29.658   2.702  31.002  0.00  0.00    +0.137 C 
BRANCH  43  44
ATOM     44  O   UNL A   1     -28.363   3.328  30.818  0.00  0.00    -0.352 OA
ATOM     45  C   UNL A   1     -28.367   4.555  30.121  0.00  0.00    +0.174 C 
ENDBRANCH  43  44
ENDBRANCH  36  40
ENDBRANCH  35  36
ENDBRANCH   1  35
TORSDOF 13
