REMARK  Name = outputs/IAG933/test6/raw/output_5814_IAG933_linker_design_.xyz
REMARK  12 active torsions:
REMARK  status: ('A' for Active; 'I' for Inactive)
REMARK    1  A    between atoms: C_1  and  C_2
REMARK    2  A    between atoms: C_1  and  C_8
REMARK    3  A    between atoms: C_1  and  N_41
REMARK    4  A    between atoms: C_14  and  C_15
REMARK    5  A    between atoms: C_21  and  O_22
REMARK    6  A    between atoms: O_22  and  C_23
REMARK    7  A    between atoms: C_23  and  C_24
REMARK    8  A    between atoms: C_29  and  C_35
REMARK    9  A    between atoms: C_29  and  C_39
REMARK   10  A    between atoms: C_36  and  O_37
REMARK   11  A    between atoms: C_38  and  N_41
REMARK   12  A    between atoms: C_39  and  N_41
REMARK                            x       y       z     vdW  Elec       q    Type
REMARK                         _______ _______ _______ _____ _____    ______ ____
ROOT
ATOM      1  C   UNL A   1     -25.688   1.614  26.461  0.00  0.00    +0.059 C 
ATOM      2  C   UNL A   1     -26.250   2.920  26.395  0.00  0.00    +0.080 C 
ATOM      3  C   UNL A   1     -27.438   3.091  25.645  0.00  0.00    +0.107 C 
ATOM      4  N   UNL A   1     -28.075   2.089  25.003  0.00  0.00    -0.211 NA
ATOM      5  C   UNL A   1     -27.543   0.849  25.079  0.00  0.00    +0.239 C 
ATOM      6  C   UNL A   1     -26.354   0.576  25.777  0.00  0.00    +0.265 C 
ATOM      7  F   UNL A   1     -25.860  -0.681  25.795  0.00  0.00    -0.222 F 
ATOM      8  C   UNL A   1     -21.513   0.628  28.911  0.00  0.00    +0.057 C 
ATOM      9  C   UNL A   1     -24.700   1.278  27.099  0.00  0.00    -0.098 C 
ATOM     10  C   UNL A   1     -22.704   0.094  29.350  0.00  0.00    -0.006 C 
ATOM     11  C   UNL A   1     -23.772   1.000  27.536  0.00  0.00    +0.085 C 
ATOM     12  C   UNL A   1     -22.554   1.569  27.063  0.00  0.00    +0.193 C 
ATOM     13  C   UNL A   1     -23.850   0.367  28.550  0.00  0.00    +0.054 C 
ATOM     14  C   UNL A   1     -21.436   1.369  27.749  0.00  0.00    +0.021 C 
ENDROOT
BRANCH   2  15
ATOM     15  C   UNL A   1     -25.642   4.093  27.123  0.00  0.00    +0.267 C 
ATOM     16  N   UNL A   1     -25.614   5.252  26.449  0.00  0.00    -0.200 NA
ATOM     17  C   UNL A   1     -25.026   6.479  26.963  0.00  0.00    +0.139 C 
ATOM     18  O   UNL A   1     -25.143   3.966  28.243  0.00  0.00    -0.268 OA
ENDBRANCH   2  15
BRANCH  12  20
ATOM     19  F   UNL A   1     -21.488   2.325  25.299  0.00  0.00    +0.014 F 
ATOM     20  O   UNL A   1     -22.651   2.313  25.925  0.00  0.00    -0.292 OA
ENDBRANCH  12  20
BRANCH   5  21
ATOM     21  O   UNL A   1     -28.193  -0.208  24.477  0.00  0.00    -0.458 OA
BRANCH  21  22
ATOM     22  C   UNL A   1     -29.460   0.005  23.866  0.00  0.00    +0.242 C 
BRANCH  22  23
ATOM     23  C   UNL A   1     -30.065  -1.377  23.573  0.00  0.00    +0.229 C 
ATOM     24  O   UNL A   1     -30.729  -1.878  24.721  0.00  0.00    -0.216 OA
ENDBRANCH  22  23
ENDBRANCH  21  22
ENDBRANCH   5  21
BRANCH  13  25
ATOM     25  N   UNL A   1     -25.140  -0.218  28.946  0.00  0.00    -0.304 N 
BRANCH  25  26
ATOM     26  C   UNL A   1     -24.855  -1.012  30.143  0.00  0.00    +0.111 C 
BRANCH  26  27
ATOM     27  C   UNL A   1     -24.973  -2.505  29.788  0.00  0.00    -0.003 C 
ATOM     28  C   UNL A   1     -23.906  -3.173  29.146  0.00  0.00    -0.003 C 
ATOM     29  C   UNL A   1     -23.989  -4.549  28.853  0.00  0.00    -0.000 C 
ATOM     30  C   UNL A   1     -25.137  -5.280  29.205  0.00  0.00    -0.000 C 
ATOM     31  C   UNL A   1     -26.232  -4.611  29.784  0.00  0.00    -0.000 C 
ATOM     32  C   UNL A   1     -26.155  -3.232  30.065  0.00  0.00    -0.003 C 
ENDBRANCH  26  27
BRANCH  26  33
ATOM     33  C   UNL A   1     -25.387  -0.679  31.571  0.00  0.00    +0.095 C 
ATOM     34  C   UNL A   1     -25.189   0.773  32.028  0.00  0.00    +0.021 C 
ATOM     35  C   UNL A   1     -25.336   0.684  33.544  0.00  0.00    +0.020 C 
ATOM     36  C   UNL A   1     -24.829  -0.715  33.905  0.00  0.00    +0.089 C 
ATOM     37  N   UNL A   1     -24.758  -1.481  32.646  0.00  0.00    -0.217 NA
ENDBRANCH  26  33
ENDBRANCH  25  26
BRANCH  25  38
ATOM     38  C   UNL A   1     -26.637  -0.244  28.762  0.00  0.00    +0.094 C 
BRANCH  38  39
ATOM     39  C   UNL A   1     -26.985   1.101  29.246  0.00  0.00    +0.054 C 
BRANCH  39  41
ATOM     40  O   UNL A   1     -28.470  -0.400  30.419  0.00  0.00    -0.223 OA
ATOM     41  C   UNL A   1     -28.284   0.738  29.801  0.00  0.00    +0.154 C 
ATOM     42  C   UNL A   1     -29.403   1.707  29.855  0.00  0.00    +0.035 C 
ENDBRANCH  39  41
ENDBRANCH  38  39
ENDBRANCH  25  38
ENDBRANCH  13  25
TORSDOF 12
