REMARK  Name = outputs/IAG933/test6/raw/output_5817_IAG933_linker_design_.xyz
REMARK  13 active torsions:
REMARK  status: ('A' for Active; 'I' for Inactive)
REMARK    1  A    between atoms: C_1  and  C_2
REMARK    2  A    between atoms: C_1  and  C_8
REMARK    3  A    between atoms: C_1  and  N_29
REMARK    4  A    between atoms: C_13  and  C_30
REMARK    5  A    between atoms: C_14  and  C_15
REMARK    6  A    between atoms: C_21  and  O_22
REMARK    7  A    between atoms: O_22  and  C_23
REMARK    8  A    between atoms: C_23  and  C_24
REMARK    9  A    between atoms: N_29  and  C_32
REMARK   10  A    between atoms: C_30  and  C_32
REMARK   11  A    between atoms: C_30  and  C_43
REMARK   12  A    between atoms: C_31  and  C_46
REMARK   13  A    between atoms: C_32  and  C_46
REMARK                            x       y       z     vdW  Elec       q    Type
REMARK                         _______ _______ _______ _____ _____    ______ ____
ROOT
ATOM      1  C   UNL A   1     -26.126   0.146  28.545  0.00  0.00    +0.078 C 
ENDROOT
BRANCH   1   2
ATOM      2  N   UNL A   1     -25.346  -0.347  29.185  0.00  0.00    -0.215 NA
BRANCH   2   3
ATOM      3  C   UNL A   1     -24.855  -1.012  30.143  0.00  0.00    +0.111 C 
BRANCH   3   4
ATOM      4  C   UNL A   1     -24.973  -2.505  29.788  0.00  0.00    -0.005 C 
ATOM      5  C   UNL A   1     -23.906  -3.173  29.146  0.00  0.00    -0.003 C 
ATOM      6  C   UNL A   1     -23.989  -4.549  28.853  0.00  0.00    -0.000 C 
ATOM      7  C   UNL A   1     -25.137  -5.280  29.205  0.00  0.00    -0.000 C 
ATOM      8  C   UNL A   1     -26.232  -4.611  29.784  0.00  0.00    -0.000 C 
ATOM      9  C   UNL A   1     -26.155  -3.232  30.065  0.00  0.00    -0.003 C 
ENDBRANCH   3   4
BRANCH   3  10
ATOM     10  C   UNL A   1     -25.387  -0.679  31.571  0.00  0.00    +0.093 C 
ATOM     11  C   UNL A   1     -25.189   0.773  32.028  0.00  0.00    +0.021 C 
ATOM     12  C   UNL A   1     -25.336   0.684  33.544  0.00  0.00    +0.020 C 
ATOM     13  C   UNL A   1     -24.829  -0.715  33.905  0.00  0.00    +0.089 C 
ATOM     14  N   UNL A   1     -24.758  -1.481  32.646  0.00  0.00    -0.218 NA
ENDBRANCH   3  10
ENDBRANCH   2   3
ENDBRANCH   1   2
BRANCH   1  15
ATOM     15  C   UNL A   1     -25.210   1.025  27.824  0.00  0.00    +0.046 C 
BRANCH  15  16
ATOM     16  C   UNL A   1     -25.688   1.614  26.461  0.00  0.00    +0.075 C 
ATOM     17  C   UNL A   1     -26.250   2.920  26.395  0.00  0.00    +0.055 C 
ATOM     18  C   UNL A   1     -27.438   3.091  25.645  0.00  0.00    +0.102 C 
ATOM     19  N   UNL A   1     -28.075   2.089  25.003  0.00  0.00    -0.212 NA
ATOM     20  C   UNL A   1     -27.543   0.849  25.079  0.00  0.00    +0.234 C 
ATOM     21  C   UNL A   1     -26.354   0.576  25.777  0.00  0.00    +0.240 C 
ATOM     22  F   UNL A   1     -25.860  -0.681  25.795  0.00  0.00    -0.227 F 
BRANCH  17  23
ATOM     23  C   UNL A   1     -25.642   4.093  27.123  0.00  0.00    +0.263 C 
ATOM     24  N   UNL A   1     -25.614   5.252  26.449  0.00  0.00    -0.200 NA
ATOM     25  C   UNL A   1     -25.026   6.479  26.963  0.00  0.00    +0.139 C 
ATOM     26  O   UNL A   1     -25.143   3.966  28.243  0.00  0.00    -0.269 OA
ENDBRANCH  17  23
BRANCH  20  27
ATOM     27  O   UNL A   1     -28.193  -0.208  24.477  0.00  0.00    -0.459 OA
BRANCH  27  28
ATOM     28  C   UNL A   1     -29.460   0.005  23.866  0.00  0.00    +0.242 C 
BRANCH  28  29
ATOM     29  C   UNL A   1     -30.065  -1.377  23.573  0.00  0.00    +0.229 C 
ATOM     30  O   UNL A   1     -30.729  -1.878  24.721  0.00  0.00    -0.216 OA
ENDBRANCH  28  29
ENDBRANCH  27  28
ENDBRANCH  20  27
ENDBRANCH  15  16
BRANCH  15  35
ATOM     31  C   UNL A   1     -23.204   1.595  26.716  0.00  0.00    -0.004 C 
ATOM     32  C   UNL A   1     -21.815   1.574  26.665  0.00  0.00    -0.000 C 
ATOM     33  C   UNL A   1     -23.101   0.940  29.020  0.00  0.00    -0.004 C 
ATOM     34  C   UNL A   1     -21.101   1.149  27.744  0.00  0.00    -0.000 C 
ATOM     35  C   UNL A   1     -23.898   1.173  27.905  0.00  0.00    -0.021 C 
ATOM     36  C   UNL A   1     -21.705   0.838  28.926  0.00  0.00    -0.000 C 
ENDBRANCH  15  35
ENDBRANCH   1  15
BRANCH   1  37
ATOM     37  C   UNL A   1     -27.500  -0.035  29.056  0.00  0.00    +0.019 C 
BRANCH  37  39
ATOM     38  N   UNL A   1     -30.066  -2.501  31.300  0.00  0.00    -0.069 NA
ATOM     39  C   UNL A   1     -28.752   0.507  28.598  0.00  0.00    +0.021 C 
ATOM     40  C   UNL A   1     -30.829   0.286  27.467  0.00  0.00    +0.022 C 
ATOM     41  C   UNL A   1     -29.348   1.410  29.631  0.00  0.00    +0.023 C 
ATOM     42  C   UNL A   1     -29.864   0.383  30.634  0.00  0.00    +0.095 C 
ATOM     43  O   UNL A   1     -32.129  -2.251  30.497  0.00  0.00    -0.249 OA
ATOM     44  N   UNL A   1     -30.613  -0.633  29.877  0.00  0.00    -0.263 N 
ATOM     45  C   UNL A   1     -29.961  -0.518  28.492  0.00  0.00    +0.077 C 
ATOM     46  C   UNL A   1     -30.973  -1.828  30.566  0.00  0.00    +0.343 C 
ENDBRANCH  37  39
ENDBRANCH   1  37
TORSDOF 13
