MODEL 581
MODEL 1
REMARK VINA RESULT:    -6.523      0.000      0.000
REMARK INTER + INTRA:          -6.726
REMARK INTER:                  -6.904
REMARK INTRA:                   0.178
REMARK UNBOUND:                 0.178
REMARK  Name = No_581-gen_results/8p0m/2024-11-27-11-27-31/
REMARK  1 active torsions:
REMARK  status: ('A' for Active; 'I' for Inactive)
REMARK    1  A    between atoms: C_2  and  C_7
REMARK                            x       y       z     vdW  Elec       q    Type
REMARK                         _______ _______ _______ _____ _____    ______ ____
ROOT
ATOM      1  C   UNL A   1     -23.431  -1.404  28.897  0.00  0.00    +0.249 C 
ATOM      2  O   UNL A   1     -22.418  -1.608  29.309  0.00  0.00    -0.270 OA
ATOM      3  N   UNL A   1     -23.780  -0.275  28.149  0.00  0.00    -0.276 N 
ATOM      4  C   UNL A   1     -22.771   0.707  27.907  0.00  0.00    +0.094 C 
ATOM      5  C   UNL A   1     -22.975   1.427  26.945  0.00  0.00    +0.022 C 
ATOM      6  C   UNL A   1     -24.188   1.474  26.273  0.00  0.00    +0.004 C 
ATOM      7  C   UNL A   1     -25.178   0.484  26.409  0.00  0.00    +0.022 C 
ATOM      8  C   UNL A   1     -24.927  -0.434  27.310  0.00  0.00    +0.094 C 
ENDROOT
BRANCH   1  10
ATOM      9  C   UNL A   1     -25.345  -2.326  29.726  0.00  0.00    +0.004 A 
ATOM     10  C   UNL A   1     -24.496  -2.578  29.156  0.00  0.00    +0.054 A 
ATOM     11  C   UNL A   1     -26.325  -3.453  29.966  0.00  0.00    +0.000 A 
ATOM     12  C   UNL A   1     -25.989  -4.760  29.556  0.00  0.00    +0.000 A 
ATOM     13  C   UNL A   1     -23.903  -3.838  28.652  0.00  0.00    +0.004 A 
ATOM     14  C   UNL A   1     -24.773  -4.898  28.860  0.00  0.00    +0.000 A 
ENDBRANCH   1  10
TORSDOF 1
ENDMDL
ENDMDL
