REMARK  Name = outputs/IAG933/test6/raw/output_582_IAG933_linker_design_.xyz
REMARK  14 active torsions:
REMARK  status: ('A' for Active; 'I' for Inactive)
REMARK    1  A    between atoms: C_1  and  C_2
REMARK    2  A    between atoms: C_1  and  C_8
REMARK    3  A    between atoms: C_9  and  C_34
REMARK    4  A    between atoms: C_13  and  C_45
REMARK    5  A    between atoms: C_14  and  C_15
REMARK    6  A    between atoms: C_21  and  O_22
REMARK    7  A    between atoms: O_22  and  C_23
REMARK    8  A    between atoms: C_23  and  C_24
REMARK    9  A    between atoms: O_28  and  C_33
REMARK   10  A    between atoms: O_28  and  C_47
REMARK   11  A    between atoms: C_34  and  O_40
REMARK   12  A    between atoms: C_34  and  C_47
REMARK   13  A    between atoms: C_37  and  C_41
REMARK   14  A    between atoms: O_40  and  C_41
REMARK                            x       y       z     vdW  Elec       q    Type
REMARK                         _______ _______ _______ _____ _____    ______ ____
ROOT
ATOM      1  C   UNL A   1     -25.753   1.982  31.226  0.00  0.00    +0.161 C 
ENDROOT
BRANCH   1   3
ATOM      2  C   UNL A   1     -25.387  -0.679  31.571  0.00  0.00    +0.080 C 
ATOM      3  C   UNL A   1     -25.189   0.773  32.028  0.00  0.00    +0.049 C 
ATOM      4  C   UNL A   1     -25.336   0.684  33.544  0.00  0.00    +0.023 C 
ATOM      5  C   UNL A   1     -24.829  -0.715  33.905  0.00  0.00    +0.089 C 
ATOM      6  N   UNL A   1     -24.758  -1.481  32.646  0.00  0.00    -0.219 NA
BRANCH   2   7
ATOM      7  C   UNL A   1     -24.855  -1.012  30.143  0.00  0.00    +0.044 C 
BRANCH   7   8
ATOM      8  C   UNL A   1     -24.973  -2.505  29.788  0.00  0.00    -0.021 C 
ATOM      9  C   UNL A   1     -23.906  -3.173  29.146  0.00  0.00    -0.004 C 
ATOM     10  C   UNL A   1     -23.989  -4.549  28.853  0.00  0.00    -0.000 C 
ATOM     11  C   UNL A   1     -25.137  -5.280  29.205  0.00  0.00    -0.000 C 
ATOM     12  C   UNL A   1     -26.232  -4.611  29.784  0.00  0.00    -0.000 C 
ATOM     13  C   UNL A   1     -26.155  -3.232  30.065  0.00  0.00    -0.004 C 
ENDBRANCH   7   8
ENDBRANCH   2   7
ENDBRANCH   1   3
BRANCH   1  14
ATOM     14  O   UNL A   1     -24.886   1.932  29.993  0.00  0.00    -0.346 OA
BRANCH  14  15
ATOM     15  C   UNL A   1     -23.401   1.818  29.791  0.00  0.00    +0.188 C 
BRANCH  15  19
ATOM     16  S   UNL A   1     -21.638   1.615  26.170  0.00  0.00    -0.106 S 
ATOM     17  C   UNL A   1     -23.265   1.726  25.791  0.00  0.00    +0.104 C 
ATOM     18  C   UNL A   1     -21.446   1.597  27.784  0.00  0.00    +0.048 C 
ATOM     19  C   UNL A   1     -22.682   1.723  28.499  0.00  0.00    +0.094 C 
ATOM     20  C   UNL A   1     -24.244   1.659  26.773  0.00  0.00    +0.055 C 
ATOM     21  N   UNL A   1     -23.750   1.860  28.140  0.00  0.00    -0.254 NA
BRANCH  20  22
ATOM     22  C   UNL A   1     -25.688   1.614  26.461  0.00  0.00    +0.107 C 
ATOM     23  C   UNL A   1     -26.250   2.920  26.395  0.00  0.00    +0.060 C 
ATOM     24  C   UNL A   1     -27.438   3.091  25.645  0.00  0.00    +0.102 C 
ATOM     25  N   UNL A   1     -28.075   2.089  25.003  0.00  0.00    -0.212 NA
ATOM     26  C   UNL A   1     -27.543   0.849  25.079  0.00  0.00    +0.234 C 
ATOM     27  C   UNL A   1     -26.354   0.576  25.777  0.00  0.00    +0.245 C 
ATOM     28  F   UNL A   1     -25.860  -0.681  25.795  0.00  0.00    -0.227 F 
BRANCH  23  29
ATOM     29  C   UNL A   1     -25.642   4.093  27.123  0.00  0.00    +0.263 C 
ATOM     30  N   UNL A   1     -25.614   5.252  26.449  0.00  0.00    -0.200 NA
ATOM     31  C   UNL A   1     -25.026   6.479  26.963  0.00  0.00    +0.139 C 
ATOM     32  O   UNL A   1     -25.143   3.966  28.243  0.00  0.00    -0.269 OA
ENDBRANCH  23  29
BRANCH  26  33
ATOM     33  O   UNL A   1     -28.193  -0.208  24.477  0.00  0.00    -0.459 OA
BRANCH  33  34
ATOM     34  C   UNL A   1     -29.460   0.005  23.866  0.00  0.00    +0.242 C 
BRANCH  34  35
ATOM     35  C   UNL A   1     -30.065  -1.377  23.573  0.00  0.00    +0.229 C 
ATOM     36  O   UNL A   1     -30.729  -1.878  24.721  0.00  0.00    -0.216 OA
ENDBRANCH  34  35
ENDBRANCH  33  34
ENDBRANCH  26  33
ENDBRANCH  20  22
ENDBRANCH  15  19
ENDBRANCH  14  15
ENDBRANCH   1  14
BRANCH   1  37
ATOM     37  C   UNL A   1     -26.216   3.310  31.968  0.00  0.00    +0.235 C 
BRANCH  37  38
ATOM     38  O   UNL A   1     -25.444   4.541  31.854  0.00  0.00    -0.469 OA
BRANCH  38  41
ATOM     39  O   UNL A   1     -23.188   6.148  33.468  0.00  0.00    -0.281 OA
ATOM     40  C   UNL A   1     -25.785   8.377  33.119  0.00  0.00    +0.009 C 
ATOM     41  C   UNL A   1     -25.426   5.686  32.632  0.00  0.00    +0.180 C 
ATOM     42  C   UNL A   1     -24.473   7.987  32.731  0.00  0.00    +0.178 C 
ATOM     43  C   UNL A   1     -26.554   6.105  33.362  0.00  0.00    +0.040 C 
ATOM     44  F   UNL A   1     -23.384   8.860  32.565  0.00  0.00    -0.201 F 
ATOM     45  C   UNL A   1     -26.385   9.691  32.679  0.00  0.00    +0.034 C 
ATOM     46  C   UNL A   1     -24.298   6.553  32.785  0.00  0.00    +0.256 C 
ATOM     47  C   UNL A   1     -26.675   7.455  33.752  0.00  0.00    +0.001 C 
ENDBRANCH  38  41
ENDBRANCH  37  38
ENDBRANCH   1  37
TORSDOF 14
