REMARK  Name = outputs/IAG933/test6/raw/output_5822_IAG933_linker_design_.xyz
REMARK  14 active torsions:
REMARK  status: ('A' for Active; 'I' for Inactive)
REMARK    1  A    between atoms: C_1  and  C_2
REMARK    2  A    between atoms: C_1  and  C_8
REMARK    3  A    between atoms: C_1  and  N_30
REMARK    4  A    between atoms: C_13  and  C_39
REMARK    5  A    between atoms: C_14  and  C_15
REMARK    6  A    between atoms: C_21  and  O_22
REMARK    7  A    between atoms: O_22  and  C_23
REMARK    8  A    between atoms: C_23  and  C_24
REMARK    9  A    between atoms: N_30  and  C_42
REMARK   10  A    between atoms: N_30  and  C_43
REMARK   11  A    between atoms: O_32  and  C_37
REMARK   12  A    between atoms: C_36  and  C_37
REMARK   13  A    between atoms: C_36  and  C_44
REMARK   14  A    between atoms: C_43  and  C_44
REMARK                            x       y       z     vdW  Elec       q    Type
REMARK                         _______ _______ _______ _____ _____    ______ ____
ROOT
ATOM      1  C   UNL A   1     -23.326   0.163  28.611  0.00  0.00    -0.035 C 
ATOM      2  C   UNL A   1     -21.885   1.701  26.790  0.00  0.00    +0.325 C 
ATOM      3  O   UNL A   1     -23.497   2.414  25.258  0.00  0.00    -0.285 OA
ATOM      4  O   UNL A   1     -21.386   1.170  27.927  0.00  0.00    -0.403 OA
ATOM      5  C   UNL A   1     -23.328   1.702  26.363  0.00  0.00    +0.246 C 
ATOM      6  F   UNL A   1     -21.181   2.328  25.964  0.00  0.00    -0.160 F 
ATOM      7  C   UNL A   1     -24.459   1.221  26.995  0.00  0.00    +0.135 C 
ATOM      8  N   UNL A   1     -21.766  -0.305  29.605  0.00  0.00    -0.080 NA
ATOM      9  C   UNL A   1     -22.110   0.264  28.745  0.00  0.00    +0.275 C 
ATOM     10  C   UNL A   1     -24.472   0.323  28.186  0.00  0.00    +0.076 C 
ENDROOT
BRANCH   7  11
ATOM     11  C   UNL A   1     -25.688   1.614  26.461  0.00  0.00    +0.029 C 
ATOM     12  C   UNL A   1     -26.250   2.920  26.395  0.00  0.00    +0.073 C 
ATOM     13  C   UNL A   1     -27.438   3.091  25.645  0.00  0.00    +0.106 C 
ATOM     14  N   UNL A   1     -28.075   2.089  25.003  0.00  0.00    -0.208 NA
ATOM     15  C   UNL A   1     -27.543   0.849  25.079  0.00  0.00    +0.253 C 
ATOM     16  C   UNL A   1     -26.354   0.576  25.777  0.00  0.00    +0.190 C 
ATOM     17  F   UNL A   1     -25.860  -0.681  25.795  0.00  0.00    -0.200 F 
BRANCH  12  18
ATOM     18  C   UNL A   1     -25.642   4.093  27.123  0.00  0.00    +0.266 C 
ATOM     19  N   UNL A   1     -25.614   5.252  26.449  0.00  0.00    -0.200 NA
ATOM     20  C   UNL A   1     -25.026   6.479  26.963  0.00  0.00    +0.139 C 
ATOM     21  O   UNL A   1     -25.143   3.966  28.243  0.00  0.00    -0.268 OA
ENDBRANCH  12  18
BRANCH  15  22
ATOM     22  O   UNL A   1     -28.193  -0.208  24.477  0.00  0.00    -0.456 OA
BRANCH  22  23
ATOM     23  C   UNL A   1     -29.460   0.005  23.866  0.00  0.00    +0.243 C 
BRANCH  23  24
ATOM     24  C   UNL A   1     -30.065  -1.377  23.573  0.00  0.00    +0.229 C 
ATOM     25  O   UNL A   1     -30.729  -1.878  24.721  0.00  0.00    -0.216 OA
ENDBRANCH  23  24
ENDBRANCH  22  23
ENDBRANCH  15  22
ENDBRANCH   7  11
BRANCH  10  26
ATOM     26  N   UNL A   1     -25.578  -0.134  29.120  0.00  0.00    -0.301 N 
BRANCH  26  27
ATOM     27  C   UNL A   1     -24.855  -1.012  30.143  0.00  0.00    +0.112 C 
BRANCH  27  28
ATOM     28  C   UNL A   1     -24.973  -2.505  29.788  0.00  0.00    -0.003 C 
ATOM     29  C   UNL A   1     -23.906  -3.173  29.146  0.00  0.00    -0.003 C 
ATOM     30  C   UNL A   1     -23.989  -4.549  28.853  0.00  0.00    -0.000 C 
ATOM     31  C   UNL A   1     -25.137  -5.280  29.205  0.00  0.00    -0.000 C 
ATOM     32  C   UNL A   1     -26.232  -4.611  29.784  0.00  0.00    -0.000 C 
ATOM     33  C   UNL A   1     -26.155  -3.232  30.065  0.00  0.00    -0.003 C 
ENDBRANCH  27  28
BRANCH  27  34
ATOM     34  C   UNL A   1     -25.387  -0.679  31.571  0.00  0.00    +0.095 C 
ATOM     35  C   UNL A   1     -25.189   0.773  32.028  0.00  0.00    +0.021 C 
ATOM     36  C   UNL A   1     -25.336   0.684  33.544  0.00  0.00    +0.020 C 
ATOM     37  C   UNL A   1     -24.829  -0.715  33.905  0.00  0.00    +0.089 C 
ATOM     38  N   UNL A   1     -24.758  -1.481  32.646  0.00  0.00    -0.217 NA
ENDBRANCH  27  34
ENDBRANCH  26  27
BRANCH  26  39
ATOM     39  C   UNL A   1     -27.084   0.480  28.930  0.00  0.00    +0.091 C 
BRANCH  39  40
ATOM     40  C   UNL A   1     -27.071   1.730  29.169  0.00  0.00    +0.024 C 
BRANCH  40  41
ATOM     41  C   UNL A   1     -27.819   2.551  30.079  0.00  0.00    +0.034 C 
BRANCH  41  42
ATOM     42  C   UNL A   1     -27.044   3.808  30.343  0.00  0.00    +0.142 C 
BRANCH  42  44
ATOM     43  C   UNL A   1     -25.337   4.205  32.067  0.00  0.00    +0.174 C 
ATOM     44  O   UNL A   1     -25.845   3.442  31.014  0.00  0.00    -0.351 OA
ENDBRANCH  42  44
ENDBRANCH  41  42
ENDBRANCH  40  41
ENDBRANCH  39  40
ENDBRANCH  26  39
ENDBRANCH  10  26
TORSDOF 14
