REMARK  Name = outputs/IAG933/test6/raw/output_5828_IAG933_linker_design_.xyz
REMARK  13 active torsions:
REMARK  status: ('A' for Active; 'I' for Inactive)
REMARK    1  A    between atoms: C_1  and  C_2
REMARK    2  A    between atoms: C_1  and  C_8
REMARK    3  A    between atoms: C_1  and  N_43
REMARK    4  A    between atoms: C_13  and  C_31
REMARK    5  A    between atoms: C_14  and  C_15
REMARK    6  A    between atoms: C_15  and  O_18
REMARK    7  A    between atoms: O_18  and  C_32
REMARK    8  A    between atoms: C_21  and  O_22
REMARK    9  A    between atoms: O_22  and  C_23
REMARK   10  A    between atoms: C_23  and  C_24
REMARK   11  A    between atoms: C_28  and  C_34
REMARK   12  A    between atoms: C_34  and  C_41
REMARK   13  A    between atoms: O_35  and  C_41
REMARK                            x       y       z     vdW  Elec       q    Type
REMARK                         _______ _______ _______ _____ _____    ______ ____
ROOT
ATOM      1  C   UNL A   1     -25.688   1.614  26.461  0.00  0.00    +0.068 C 
ATOM      2  C   UNL A   1     -26.250   2.920  26.395  0.00  0.00    +0.075 C 
ATOM      3  C   UNL A   1     -27.438   3.091  25.645  0.00  0.00    +0.107 C 
ATOM      4  N   UNL A   1     -28.075   2.089  25.003  0.00  0.00    -0.208 NA
ATOM      5  C   UNL A   1     -27.543   0.849  25.079  0.00  0.00    +0.253 C 
ATOM      6  C   UNL A   1     -26.354   0.576  25.777  0.00  0.00    +0.194 C 
ATOM      7  F   UNL A   1     -25.860  -0.681  25.795  0.00  0.00    -0.199 F 
ENDROOT
BRANCH   1  10
ATOM      8  O   UNL A   1     -21.088   1.582  26.515  0.00  0.00    -0.337 OA
ATOM      9  C   UNL A   1     -23.484   0.396  29.072  0.00  0.00    +0.340 C 
ATOM     10  C   UNL A   1     -24.439   1.371  27.306  0.00  0.00    +0.263 C 
ATOM     11  N   UNL A   1     -24.606   0.672  28.415  0.00  0.00    -0.061 NA
ATOM     12  C   UNL A   1     -22.873   2.100  25.345  0.00  0.00    +0.225 C 
ATOM     13  C   UNL A   1     -22.160   1.343  27.358  0.00  0.00    +0.171 C 
ATOM     14  N   UNL A   1     -23.513  -0.544  30.116  0.00  0.00    -0.034 NA
ATOM     15  C   UNL A   1     -22.263   0.829  28.617  0.00  0.00    +0.188 C 
ATOM     16  O   UNL A   1     -21.625   1.946  25.250  0.00  0.00    -0.168 OA
ATOM     17  C   UNL A   1     -23.276   1.664  26.752  0.00  0.00    +0.076 C 
BRANCH  14  18
ATOM     18  C   UNL A   1     -24.855  -1.012  30.143  0.00  0.00    +0.243 C 
BRANCH  18  19
ATOM     19  C   UNL A   1     -24.973  -2.505  29.788  0.00  0.00    +0.025 C 
ATOM     20  C   UNL A   1     -23.906  -3.173  29.146  0.00  0.00    -0.000 C 
ATOM     21  C   UNL A   1     -23.989  -4.549  28.853  0.00  0.00    -0.000 C 
ATOM     22  C   UNL A   1     -25.137  -5.280  29.205  0.00  0.00    -0.000 C 
ATOM     23  C   UNL A   1     -26.232  -4.611  29.784  0.00  0.00    -0.000 C 
ATOM     24  C   UNL A   1     -26.155  -3.232  30.065  0.00  0.00    -0.000 C 
ENDBRANCH  18  19
BRANCH  18  25
ATOM     25  C   UNL A   1     -25.387  -0.679  31.571  0.00  0.00    +0.124 C 
ATOM     26  C   UNL A   1     -25.189   0.773  32.028  0.00  0.00    +0.024 C 
ATOM     27  C   UNL A   1     -25.336   0.684  33.544  0.00  0.00    +0.020 C 
ATOM     28  C   UNL A   1     -24.829  -0.715  33.905  0.00  0.00    +0.089 C 
ATOM     29  N   UNL A   1     -24.758  -1.481  32.646  0.00  0.00    -0.215 NA
ENDBRANCH  18  25
ENDBRANCH  14  18
ENDBRANCH   1  10
BRANCH   2  30
ATOM     30  C   UNL A   1     -25.642   4.093  27.123  0.00  0.00    +0.229 C 
ATOM     31  N   UNL A   1     -25.614   5.252  26.449  0.00  0.00    -0.235 NA
ATOM     32  C   UNL A   1     -25.026   6.479  26.963  0.00  0.00    +0.155 C 
BRANCH  30  33
ATOM     33  O   UNL A   1     -25.143   3.966  28.243  0.00  0.00    -0.419 OA
BRANCH  33  35
ATOM     34  C   UNL A   1     -27.775   4.908  30.263  0.00  0.00    +0.113 C 
ATOM     35  C   UNL A   1     -25.756   4.322  29.517  0.00  0.00    +0.227 C 
ATOM     36  N   UNL A   1     -26.970   4.569  29.287  0.00  0.00    -0.239 NA
ATOM     37  C   UNL A   1     -25.216   4.498  30.855  0.00  0.00    +0.053 C 
ATOM     38  C   UNL A   1     -25.963   5.208  31.756  0.00  0.00    -0.019 C 
ATOM     39  C   UNL A   1     -27.252   5.519  31.377  0.00  0.00    +0.051 C 
BRANCH  34  40
ATOM     40  C   UNL A   1     -29.187   4.423  30.096  0.00  0.00    +0.057 C 
BRANCH  40  41
ATOM     41  C   UNL A   1     -29.641   5.079  28.789  0.00  0.00    +0.144 C 
BRANCH  41  42
ATOM     42  O   UNL A   1     -29.498   6.487  29.077  0.00  0.00    -0.351 OA
ATOM     43  C   UNL A   1     -28.395   7.359  28.862  0.00  0.00    +0.174 C 
ENDBRANCH  41  42
ENDBRANCH  40  41
ENDBRANCH  34  40
ENDBRANCH  33  35
ENDBRANCH  30  33
ENDBRANCH   2  30
BRANCH   5  44
ATOM     44  O   UNL A   1     -28.193  -0.208  24.477  0.00  0.00    -0.456 OA
BRANCH  44  45
ATOM     45  C   UNL A   1     -29.460   0.005  23.866  0.00  0.00    +0.243 C 
BRANCH  45  46
ATOM     46  C   UNL A   1     -30.065  -1.377  23.573  0.00  0.00    +0.229 C 
ATOM     47  O   UNL A   1     -30.729  -1.878  24.721  0.00  0.00    -0.216 OA
ENDBRANCH  45  46
ENDBRANCH  44  45
ENDBRANCH   5  44
TORSDOF 13
