MODEL 582
MODEL 1
REMARK VINA RESULT:    -8.811      0.000      0.000
REMARK INTER + INTRA:         -11.430
REMARK INTER:                 -10.356
REMARK INTRA:                  -1.073
REMARK UNBOUND:                -1.073
REMARK  Name = No_582-gen_results/8p0m/2024-11-27-11-27-31/
REMARK  3 active torsions:
REMARK  status: ('A' for Active; 'I' for Inactive)
REMARK    1  A    between atoms: C_5  and  C_13
REMARK    2  A    between atoms: C_17  and  C_18
REMARK    3  A    between atoms: C_18  and  C_20
REMARK                            x       y       z     vdW  Elec       q    Type
REMARK                         _______ _______ _______ _____ _____    ______ ____
ROOT
ATOM      1  C   UNL A   1     -23.586   0.383  27.765  0.00  0.00    -0.015 A 
ATOM      2  C   UNL A   1     -22.645   1.152  27.398  0.00  0.00    -0.004 A 
ATOM      3  C   UNL A   1     -21.379   1.000  27.953  0.00  0.00    -0.000 A 
ATOM      4  C   UNL A   1     -21.162  -0.103  28.862  0.00  0.00    -0.000 A 
ATOM      5  C   UNL A   1     -23.479  -0.651  28.696  0.00  0.00    +0.011 A 
ATOM      6  C   UNL A   1     -22.234  -0.929  29.237  0.00  0.00    -0.002 A 
ENDROOT
BRANCH   1  11
ATOM      7  O   UNL A   1     -25.251   2.185  28.994  0.00  0.00    -0.273 OA
ATOM      8  C   UNL A   1     -25.837   1.681  28.029  0.00  0.00    +0.251 C 
ATOM      9  N   UNL A   1     -26.872   1.806  27.587  0.00  0.00    -0.160 NA
ATOM     10  C   UNL A   1     -27.404   1.263  26.308  0.00  0.00    +0.155 A 
ATOM     11  C   UNL A   1     -24.957   0.612  27.129  0.00  0.00    +0.105 C 
ATOM     12  C   UNL A   1     -26.635   0.388  25.636  0.00  0.00    +0.031 A 
ATOM     13  C   UNL A   1     -25.389   0.129  26.050  0.00  0.00    +0.044 C 
ATOM     14  N   UNL A   1     -28.679   1.543  25.908  0.00  0.00    -0.195 NA
ATOM     15  C   UNL A   1     -29.096   1.111  24.664  0.00  0.00    +0.258 A 
ATOM     16  N   UNL A   1     -28.371   0.388  23.908  0.00  0.00    -0.210 NA
ATOM     17  C   UNL A   1     -27.215  -0.063  24.326  0.00  0.00    +0.101 A 
ATOM     18  N   UNL A   1     -30.340   1.479  24.228  0.00  0.00    -0.086 NA
ENDBRANCH   1  11
BRANCH   5  19
ATOM     19  C   UNL A   1     -24.684  -1.474  29.105  0.00  0.00    +0.205 C 
ATOM     20  F   UNL A   1     -24.982  -0.957  30.471  0.00  0.00    -0.228 F 
BRANCH  19  21
ATOM     21  C   UNL A   1     -24.854  -2.546  29.078  0.00  0.00    +0.014 A 
ATOM     22  C   UNL A   1     -26.082  -3.161  29.708  0.00  0.00    -0.001 A 
ATOM     23  C   UNL A   1     -26.220  -4.570  29.727  0.00  0.00    -0.000 A 
ATOM     24  C   UNL A   1     -25.211  -5.280  29.092  0.00  0.00    -0.000 A 
ATOM     25  C   UNL A   1     -24.100  -4.833  28.545  0.00  0.00    -0.000 A 
ATOM     26  C   UNL A   1     -23.927  -3.455  28.557  0.00  0.00    -0.001 A 
ENDBRANCH  19  21
ENDBRANCH   5  19
TORSDOF 3
ENDMDL
ENDMDL
