MODEL 583
MODEL 1
REMARK VINA RESULT:    -4.309      0.000      0.000
REMARK INTER + INTRA:          -4.309
REMARK INTER:                  -4.309
REMARK INTRA:                   0.000
REMARK UNBOUND:                 0.000
REMARK  Name = No_583-gen_results/8p0m/2024-11-27-11-27-31/
REMARK  0 active torsions:
REMARK  status: ('A' for Active; 'I' for Inactive)
REMARK                            x       y       z     vdW  Elec       q    Type
REMARK                         _______ _______ _______ _____ _____    ______ ____
ROOT
ATOM      1  C   UNL A   1     -23.927  -3.473  28.610  0.00  0.00    +0.007 A 
ATOM      2  C   UNL A   1     -24.745  -2.675  29.004  0.00  0.00    +0.035 A 
ATOM      3  C   UNL A   1     -25.934  -3.094  29.591  0.00  0.00    +0.007 A 
ATOM      4  C   UNL A   1     -26.249  -4.495  29.707  0.00  0.00    +0.001 A 
ATOM      5  C   UNL A   1     -25.258  -5.349  29.205  0.00  0.00    +0.000 A 
ATOM      6  C   UNL A   1     -24.159  -4.901  28.643  0.00  0.00    +0.001 A 
ATOM      7 BR   UNL A   1     -24.530  -0.807  28.900  0.00  0.00    -0.049 Br
ENDROOT
TORSDOF 0
ENDMDL
ENDMDL
