REMARK  Name = outputs/IAG933/test6/raw/output_5842_IAG933_linker_design_.xyz
REMARK  13 active torsions:
REMARK  status: ('A' for Active; 'I' for Inactive)
REMARK    1  A    between atoms: C_1  and  C_2
REMARK    2  A    between atoms: C_1  and  C_8
REMARK    3  A    between atoms: C_13  and  N_42
REMARK    4  A    between atoms: C_14  and  C_15
REMARK    5  A    between atoms: C_21  and  O_22
REMARK    6  A    between atoms: O_22  and  C_23
REMARK    7  A    between atoms: C_23  and  C_24
REMARK    8  A    between atoms: O_30  and  C_41
REMARK    9  A    between atoms: C_31  and  C_32
REMARK   10  A    between atoms: C_31  and  N_34
REMARK   11  A    between atoms: C_32  and  C_41
REMARK   12  A    between atoms: C_38  and  N_42
REMARK   13  A    between atoms: C_39  and  C_43
REMARK                            x       y       z     vdW  Elec       q    Type
REMARK                         _______ _______ _______ _____ _____    ______ ____
ROOT
ATOM      1  C   UNL A   1     -21.138   1.594  27.382  0.00  0.00    +0.013 C 
ATOM      2  C   UNL A   1     -22.352   1.760  26.745  0.00  0.00    +0.072 C 
ATOM      3  C   UNL A   1     -22.188   0.100  28.991  0.00  0.00    -0.002 C 
ATOM      4 CL   UNL A   1     -22.413   2.568  25.171  0.00  0.00    -0.081 Cl
ATOM      5  C   UNL A   1     -23.529   1.176  27.226  0.00  0.00    +0.074 C 
ATOM      6  C   UNL A   1     -23.434   0.433  28.442  0.00  0.00    +0.010 C 
ATOM      7  C   UNL A   1     -21.041   0.692  28.455  0.00  0.00    +0.001 C 
ENDROOT
BRANCH   6  10
ATOM      8  C   UNL A   1     -24.855  -1.012  30.143  0.00  0.00    +0.097 C 
ATOM      9  N   UNL A   1     -26.007  -0.393  29.284  0.00  0.00    -0.265 NA
ATOM     10  C   UNL A   1     -24.740  -0.011  29.059  0.00  0.00    +0.100 C 
BRANCH   8  11
ATOM     11  C   UNL A   1     -24.973  -2.505  29.788  0.00  0.00    -0.006 C 
ATOM     12  C   UNL A   1     -23.906  -3.173  29.146  0.00  0.00    -0.003 C 
ATOM     13  C   UNL A   1     -23.989  -4.549  28.853  0.00  0.00    -0.000 C 
ATOM     14  C   UNL A   1     -25.137  -5.280  29.205  0.00  0.00    -0.000 C 
ATOM     15  C   UNL A   1     -26.232  -4.611  29.784  0.00  0.00    -0.000 C 
ATOM     16  C   UNL A   1     -26.155  -3.232  30.065  0.00  0.00    -0.003 C 
ENDBRANCH   8  11
BRANCH   8  17
ATOM     17  C   UNL A   1     -25.387  -0.679  31.571  0.00  0.00    +0.092 C 
ATOM     18  C   UNL A   1     -25.189   0.773  32.028  0.00  0.00    +0.021 C 
ATOM     19  C   UNL A   1     -25.336   0.684  33.544  0.00  0.00    +0.020 C 
ATOM     20  C   UNL A   1     -24.829  -0.715  33.905  0.00  0.00    +0.089 C 
ATOM     21  N   UNL A   1     -24.758  -1.481  32.646  0.00  0.00    -0.218 NA
ENDBRANCH   8  17
BRANCH   9  22
ATOM     22  C   UNL A   1     -27.484  -0.123  28.839  0.00  0.00    +0.084 C 
BRANCH  22  23
ATOM     23  C   UNL A   1     -28.008   1.343  28.900  0.00  0.00    +0.127 C 
BRANCH  23  25
ATOM     24  O   UNL A   1     -26.049   2.188  29.827  0.00  0.00    -0.250 OA
ATOM     25  C   UNL A   1     -27.214   2.314  29.694  0.00  0.00    +0.319 C 
BRANCH  25  27
ATOM     26  C   UNL A   1     -27.153   4.092  31.160  0.00  0.00    +0.256 C 
ATOM     27  O   UNL A   1     -27.846   3.313  30.189  0.00  0.00    -0.444 OA
ENDBRANCH  25  27
ENDBRANCH  23  25
ENDBRANCH  22  23
ENDBRANCH   9  22
ENDBRANCH   6  10
BRANCH   5  28
ATOM     28  N   UNL A   1     -24.627   1.253  26.650  0.00  0.00    -0.231 NA
BRANCH  28  29
ATOM     29  C   UNL A   1     -25.688   1.614  26.461  0.00  0.00    +0.162 C 
ATOM     30  C   UNL A   1     -26.250   2.920  26.395  0.00  0.00    +0.075 C 
ATOM     31  C   UNL A   1     -27.438   3.091  25.645  0.00  0.00    +0.104 C 
ATOM     32  N   UNL A   1     -28.075   2.089  25.003  0.00  0.00    -0.212 NA
ATOM     33  C   UNL A   1     -27.543   0.849  25.079  0.00  0.00    +0.236 C 
ATOM     34  C   UNL A   1     -26.354   0.576  25.777  0.00  0.00    +0.260 C 
ATOM     35  F   UNL A   1     -25.860  -0.681  25.795  0.00  0.00    -0.225 F 
BRANCH  30  36
ATOM     36  C   UNL A   1     -25.642   4.093  27.123  0.00  0.00    +0.264 C 
ATOM     37  N   UNL A   1     -25.614   5.252  26.449  0.00  0.00    -0.200 NA
ATOM     38  C   UNL A   1     -25.026   6.479  26.963  0.00  0.00    +0.139 C 
ATOM     39  O   UNL A   1     -25.143   3.966  28.243  0.00  0.00    -0.269 OA
ENDBRANCH  30  36
BRANCH  33  40
ATOM     40  O   UNL A   1     -28.193  -0.208  24.477  0.00  0.00    -0.459 OA
BRANCH  40  41
ATOM     41  C   UNL A   1     -29.460   0.005  23.866  0.00  0.00    +0.242 C 
BRANCH  41  42
ATOM     42  C   UNL A   1     -30.065  -1.377  23.573  0.00  0.00    +0.229 C 
ATOM     43  O   UNL A   1     -30.729  -1.878  24.721  0.00  0.00    -0.216 OA
ENDBRANCH  41  42
ENDBRANCH  40  41
ENDBRANCH  33  40
ENDBRANCH  28  29
ENDBRANCH   5  28
TORSDOF 13
