MODEL 584
MODEL 1
REMARK VINA RESULT:    -8.100      0.000      0.000
REMARK INTER + INTRA:         -11.311
REMARK INTER:                 -10.468
REMARK INTRA:                  -0.843
REMARK UNBOUND:                -0.843
REMARK  Name = No_584-gen_results/8p0m/2024-11-27-11-27-31/
REMARK  5 active torsions:
REMARK  status: ('A' for Active; 'I' for Inactive)
REMARK    1  A    between atoms: C_3  and  C_7
REMARK    2  A    between atoms: C_8  and  C_23
REMARK    3  A    between atoms: C_11  and  C_13
REMARK    4  A    between atoms: N_15  and  C_16
REMARK    5  A    between atoms: C_23  and  C_25
REMARK                            x       y       z     vdW  Elec       q    Type
REMARK                         _______ _______ _______ _____ _____    ______ ____
ROOT
ATOM      1  C   UNL A   1     -24.338   0.149  27.386  0.00  0.00    +0.001 A 
ATOM      2  C   UNL A   1     -23.234   0.695  28.030  0.00  0.00    -0.015 A 
ATOM      3  C   UNL A   1     -22.705   1.885  27.365  0.00  0.00    -0.004 A 
ATOM      4  C   UNL A   1     -23.105   2.207  26.098  0.00  0.00    -0.000 A 
ATOM      5  C   UNL A   1     -24.656   0.681  26.172  0.00  0.00    +0.055 A 
ATOM      6  C   UNL A   1     -24.102   1.595  25.520  0.00  0.00    +0.005 A 
ENDROOT
BRANCH   1   9
ATOM      7  C   UNL A   1     -24.714  -2.215  28.343  0.00  0.00    +0.011 A 
ATOM      8  C   UNL A   1     -25.341  -2.779  28.975  0.00  0.00    +0.058 A 
ATOM      9  C   UNL A   1     -25.124  -0.818  28.206  0.00  0.00    +0.001 A 
ATOM     10  C   UNL A   1     -26.217  -0.310  28.864  0.00  0.00    +0.000 A 
ATOM     11  C   UNL A   1     -26.530  -2.516  29.785  0.00  0.00    +0.011 A 
ATOM     12  C   UNL A   1     -26.936  -1.166  29.659  0.00  0.00    +0.001 A 
ATOM     13 CL   UNL A   1     -24.951  -4.568  29.178  0.00  0.00    -0.082 Cl
ENDBRANCH   1   9
BRANCH   5  14
ATOM     14  C   UNL A   1     -25.814  -0.056  25.430  0.00  0.00    +0.269 C 
ATOM     15  O   UNL A   1     -25.723  -1.060  24.820  0.00  0.00    -0.268 OA
ATOM     16  N   UNL A   1     -27.098   0.608  25.432  0.00  0.00    -0.175 NA
BRANCH  16  17
ATOM     17  C   UNL A   1     -28.224   0.008  24.775  0.00  0.00    +0.074 A 
ATOM     18  C   UNL A   1     -29.311   0.180  25.495  0.00  0.00    +0.017 A 
ATOM     19  C   UNL A   1     -30.526  -0.500  25.146  0.00  0.00    +0.001 A 
ATOM     20  C   UNL A   1     -30.474  -1.294  23.964  0.00  0.00    +0.000 A 
ATOM     21  C   UNL A   1     -29.274  -1.437  23.309  0.00  0.00    +0.001 A 
ATOM     22  C   UNL A   1     -28.136  -0.824  23.756  0.00  0.00    +0.017 A 
ENDBRANCH  16  17
ENDBRANCH   5  14
BRANCH   2  23
ATOM     23  C   UNL A   1     -22.699   0.444  29.347  0.00  0.00    +0.087 C 
ATOM     24  C   UNL A   1     -23.317   1.108  30.428  0.00  0.00    +0.013 C 
BRANCH  23  25
ATOM     25  C   UNL A   1     -21.640  -0.458  29.583  0.00  0.00    +0.211 C 
ATOM     26  O   UNL A   1     -21.192  -1.213  28.789  0.00  0.00    -0.288 OA
ENDBRANCH  23  25
ENDBRANCH   2  23
TORSDOF 5
ENDMDL
ENDMDL
