REMARK  Name = outputs/IAG933/test6/raw/output_5852_IAG933_linker_design_.xyz
REMARK  13 active torsions:
REMARK  status: ('A' for Active; 'I' for Inactive)
REMARK    1  A    between atoms: C_1  and  C_2
REMARK    2  A    between atoms: C_1  and  C_8
REMARK    3  A    between atoms: C_1  and  N_37
REMARK    4  A    between atoms: C_13  and  C_42
REMARK    5  A    between atoms: C_14  and  C_15
REMARK    6  A    between atoms: C_15  and  O_18
REMARK    7  A    between atoms: O_18  and  C_41
REMARK    8  A    between atoms: C_21  and  O_22
REMARK    9  A    between atoms: O_22  and  C_23
REMARK   10  A    between atoms: C_23  and  C_24
REMARK   11  A    between atoms: C_29  and  N_37
REMARK   12  A    between atoms: C_41  and  C_44
REMARK   13  A    between atoms: C_44  and  C_45
REMARK                            x       y       z     vdW  Elec       q    Type
REMARK                         _______ _______ _______ _____ _____    ______ ____
ROOT
ATOM      1  C   UNL A   1     -25.688   1.614  26.461  0.00  0.00    +0.040 C 
ATOM      2  C   UNL A   1     -26.250   2.920  26.395  0.00  0.00    +0.074 C 
ATOM      3  C   UNL A   1     -27.438   3.091  25.645  0.00  0.00    +0.107 C 
ATOM      4  N   UNL A   1     -28.075   2.089  25.003  0.00  0.00    -0.208 NA
ATOM      5  C   UNL A   1     -27.543   0.849  25.079  0.00  0.00    +0.253 C 
ATOM      6  C   UNL A   1     -26.354   0.576  25.777  0.00  0.00    +0.193 C 
ATOM      7  F   UNL A   1     -25.860  -0.681  25.795  0.00  0.00    -0.199 F 
ENDROOT
BRANCH   1  14
ATOM      8  C   UNL A   1     -24.341   0.527  28.350  0.00  0.00    +0.108 C 
ATOM      9  C   UNL A   1     -23.137   1.760  26.779  0.00  0.00    +0.090 C 
ATOM     10  C   UNL A   1     -22.306   1.345  27.773  0.00  0.00    +0.191 C 
ATOM     11  F   UNL A   1     -20.962   1.603  27.888  0.00  0.00    -0.200 F 
ATOM     12  C   UNL A   1     -22.987   0.587  28.707  0.00  0.00    +0.238 C 
ATOM     13 CL   UNL A   1     -22.618   2.607  25.378  0.00  0.00    -0.080 Cl
ATOM     14  C   UNL A   1     -24.398   1.376  27.134  0.00  0.00    +0.034 C 
ATOM     15  O   UNL A   1     -22.441   0.072  29.727  0.00  0.00    -0.283 OA
BRANCH   8  16
ATOM     16  N   UNL A   1     -25.364  -0.100  29.075  0.00  0.00    -0.230 NA
BRANCH  16  17
ATOM     17  C   UNL A   1     -24.855  -1.012  30.143  0.00  0.00    +0.131 C 
BRANCH  17  18
ATOM     18  C   UNL A   1     -24.973  -2.505  29.788  0.00  0.00    -0.001 C 
ATOM     19  C   UNL A   1     -23.906  -3.173  29.146  0.00  0.00    -0.003 C 
ATOM     20  C   UNL A   1     -23.989  -4.549  28.853  0.00  0.00    -0.000 C 
ATOM     21  C   UNL A   1     -25.137  -5.280  29.205  0.00  0.00    -0.000 C 
ATOM     22  C   UNL A   1     -26.232  -4.611  29.784  0.00  0.00    -0.000 C 
ATOM     23  C   UNL A   1     -26.155  -3.232  30.065  0.00  0.00    -0.003 C 
ENDBRANCH  17  18
BRANCH  17  24
ATOM     24  C   UNL A   1     -25.387  -0.679  31.571  0.00  0.00    +0.097 C 
ATOM     25  C   UNL A   1     -25.189   0.773  32.028  0.00  0.00    +0.021 C 
ATOM     26  C   UNL A   1     -25.336   0.684  33.544  0.00  0.00    +0.020 C 
ATOM     27  C   UNL A   1     -24.829  -0.715  33.905  0.00  0.00    +0.089 C 
ATOM     28  N   UNL A   1     -24.758  -1.481  32.646  0.00  0.00    -0.217 NA
ENDBRANCH  17  24
ENDBRANCH  16  17
ENDBRANCH   8  16
ENDBRANCH   1  14
BRANCH   2  29
ATOM     29  C   UNL A   1     -25.642   4.093  27.123  0.00  0.00    +0.222 C 
ATOM     30  N   UNL A   1     -25.614   5.252  26.449  0.00  0.00    -0.236 NA
ATOM     31  C   UNL A   1     -25.026   6.479  26.963  0.00  0.00    +0.155 C 
BRANCH  29  32
ATOM     32  O   UNL A   1     -25.143   3.966  28.243  0.00  0.00    -0.460 OA
BRANCH  32  33
ATOM     33  C   UNL A   1     -25.364   3.157  29.300  0.00  0.00    +0.212 C 
BRANCH  33  34
ATOM     34  C   UNL A   1     -25.628   3.418  30.702  0.00  0.00    +0.074 C 
BRANCH  34  42
ATOM     35  C   UNL A   1     -27.200   5.873  33.142  0.00  0.00    -0.015 C 
ATOM     36  C   UNL A   1     -27.321   7.181  32.767  0.00  0.00    +0.049 C 
ATOM     37  C   UNL A   1     -27.773   8.919  31.089  0.00  0.00    +0.027 C 
ATOM     38 BR   UNL A   1     -27.840   3.179  32.765  0.00  0.00    -0.050 Br
ATOM     39  C   UNL A   1     -27.078   7.719  31.504  0.00  0.00    -0.040 C 
ATOM     40  C   UNL A   1     -26.886   4.741  32.335  0.00  0.00    +0.027 C 
ATOM     41  C   UNL A   1     -26.197   7.222  30.561  0.00  0.00    -0.009 C 
ATOM     42  C   UNL A   1     -26.097   4.749  31.191  0.00  0.00    -0.013 C 
ATOM     43  C   UNL A   1     -25.741   5.917  30.431  0.00  0.00    -0.004 C 
ENDBRANCH  34  42
ENDBRANCH  33  34
ENDBRANCH  32  33
ENDBRANCH  29  32
ENDBRANCH   2  29
BRANCH   5  44
ATOM     44  O   UNL A   1     -28.193  -0.208  24.477  0.00  0.00    -0.456 OA
BRANCH  44  45
ATOM     45  C   UNL A   1     -29.460   0.005  23.866  0.00  0.00    +0.243 C 
BRANCH  45  46
ATOM     46  C   UNL A   1     -30.065  -1.377  23.573  0.00  0.00    +0.229 C 
ATOM     47  O   UNL A   1     -30.729  -1.878  24.721  0.00  0.00    -0.216 OA
ENDBRANCH  45  46
ENDBRANCH  44  45
ENDBRANCH   5  44
TORSDOF 13
