REMARK  Name = outputs/IAG933/test6/raw/output_5857_IAG933_linker_design_.xyz
REMARK  18 active torsions:
REMARK  status: ('A' for Active; 'I' for Inactive)
REMARK    1  A    between atoms: C_1  and  C_2
REMARK    2  A    between atoms: C_1  and  C_8
REMARK    3  A    between atoms: C_9  and  N_42
REMARK    4  A    between atoms: C_13  and  N_33
REMARK    5  A    between atoms: C_14  and  C_15
REMARK    6  A    between atoms: C_21  and  O_22
REMARK    7  A    between atoms: O_22  and  C_23
REMARK    8  A    between atoms: C_23  and  C_24
REMARK    9  A    between atoms: O_28  and  C_36
REMARK   10  A    between atoms: C_29  and  C_30
REMARK   11  A    between atoms: C_29  and  N_42
REMARK   12  A    between atoms: C_30  and  C_38
REMARK   13  A    between atoms: C_31  and  C_36
REMARK   14  A    between atoms: C_31  and  S_41
REMARK   15  A    between atoms: N_33  and  C_35
REMARK   16  A    between atoms: C_34  and  S_41
REMARK   17  A    between atoms: C_34  and  N_42
REMARK   18  A    between atoms: C_35  and  C_38
REMARK                            x       y       z     vdW  Elec       q    Type
REMARK                         _______ _______ _______ _____ _____    ______ ____
ROOT
ATOM      1  C   UNL A   1     -23.637   2.010  30.604  0.00  0.00    +0.073 C 
ENDROOT
BRANCH   1   2
ATOM      2  N   UNL A   1     -25.064   1.863  31.033  0.00  0.00    -0.263 NA
BRANCH   2   4
ATOM      3  C   UNL A   1     -25.387  -0.679  31.571  0.00  0.00    +0.092 C 
ATOM      4  C   UNL A   1     -25.189   0.773  32.028  0.00  0.00    +0.076 C 
ATOM      5  C   UNL A   1     -25.336   0.684  33.544  0.00  0.00    +0.036 C 
ATOM      6  C   UNL A   1     -24.829  -0.715  33.905  0.00  0.00    +0.090 C 
ATOM      7  N   UNL A   1     -24.758  -1.481  32.646  0.00  0.00    -0.218 NA
BRANCH   3   8
ATOM      8  C   UNL A   1     -24.855  -1.012  30.143  0.00  0.00    +0.045 C 
BRANCH   8   9
ATOM      9  C   UNL A   1     -24.973  -2.505  29.788  0.00  0.00    -0.021 C 
ATOM     10  C   UNL A   1     -23.906  -3.173  29.146  0.00  0.00    -0.004 C 
ATOM     11  C   UNL A   1     -23.989  -4.549  28.853  0.00  0.00    -0.000 C 
ATOM     12  C   UNL A   1     -25.137  -5.280  29.205  0.00  0.00    -0.000 C 
ATOM     13  C   UNL A   1     -26.232  -4.611  29.784  0.00  0.00    -0.000 C 
ATOM     14  C   UNL A   1     -26.155  -3.232  30.065  0.00  0.00    -0.004 C 
ENDBRANCH   8   9
ENDBRANCH   3   8
ENDBRANCH   2   4
BRANCH   2  15
ATOM     15  C   UNL A   1     -25.750   3.041  31.369  0.00  0.00    +0.132 C 
BRANCH  15  16
ATOM     16  S   UNL A   1     -25.204   3.914  32.829  0.00  0.00    -0.113 S 
BRANCH  16  17
ATOM     17  C   UNL A   1     -26.099   5.414  32.480  0.00  0.00    +0.145 C 
BRANCH  17  18
ATOM     18  C   UNL A   1     -25.366   6.710  32.877  0.00  0.00    +0.231 C 
ATOM     19  N   UNL A   1     -25.768   7.888  32.481  0.00  0.00    -0.111 NA
BRANCH  18  20
ATOM     20  O   UNL A   1     -24.229   6.469  33.597  0.00  0.00    -0.458 OA
ATOM     21  C   UNL A   1     -23.945   7.601  34.477  0.00  0.00    +0.254 C 
ENDBRANCH  18  20
ENDBRANCH  17  18
ENDBRANCH  16  17
ENDBRANCH  15  16
ENDBRANCH   2  15
ENDBRANCH   1   2
BRANCH   1  22
ATOM     22  C   UNL A   1     -23.606   1.953  29.060  0.00  0.00    +0.019 C 
BRANCH  22  24
ATOM     23  C   UNL A   1     -21.214   1.266  28.013  0.00  0.00    +0.002 C 
ATOM     24  C   UNL A   1     -22.575   1.967  27.993  0.00  0.00    +0.021 C 
BRANCH  24  26
ATOM     25  C   UNL A   1     -22.726   2.436  25.506  0.00  0.00    +0.023 C 
ATOM     26  C   UNL A   1     -23.189   1.458  26.650  0.00  0.00    +0.093 C 
BRANCH  26  27
ATOM     27  N   UNL A   1     -24.621   1.126  27.065  0.00  0.00    -0.237 NA
BRANCH  27  28
ATOM     28  C   UNL A   1     -25.688   1.614  26.461  0.00  0.00    +0.103 C 
ATOM     29  C   UNL A   1     -26.250   2.920  26.395  0.00  0.00    +0.091 C 
ATOM     30  C   UNL A   1     -27.438   3.091  25.645  0.00  0.00    +0.108 C 
ATOM     31  N   UNL A   1     -28.075   2.089  25.003  0.00  0.00    -0.208 NA
ATOM     32  C   UNL A   1     -27.543   0.849  25.079  0.00  0.00    +0.255 C 
ATOM     33  C   UNL A   1     -26.354   0.576  25.777  0.00  0.00    +0.208 C 
ATOM     34  F   UNL A   1     -25.860  -0.681  25.795  0.00  0.00    -0.198 F 
BRANCH  29  35
ATOM     35  C   UNL A   1     -25.642   4.093  27.123  0.00  0.00    +0.268 C 
ATOM     36  N   UNL A   1     -25.614   5.252  26.449  0.00  0.00    -0.200 NA
ATOM     37  C   UNL A   1     -25.026   6.479  26.963  0.00  0.00    +0.139 C 
ATOM     38  O   UNL A   1     -25.143   3.966  28.243  0.00  0.00    -0.268 OA
ENDBRANCH  29  35
BRANCH  32  39
ATOM     39  O   UNL A   1     -28.193  -0.208  24.477  0.00  0.00    -0.456 OA
BRANCH  39  40
ATOM     40  C   UNL A   1     -29.460   0.005  23.866  0.00  0.00    +0.243 C 
BRANCH  40  41
ATOM     41  C   UNL A   1     -30.065  -1.377  23.573  0.00  0.00    +0.229 C 
ATOM     42  O   UNL A   1     -30.729  -1.878  24.721  0.00  0.00    -0.216 OA
ENDBRANCH  40  41
ENDBRANCH  39  40
ENDBRANCH  32  39
ENDBRANCH  27  28
ENDBRANCH  26  27
ENDBRANCH  24  26
ENDBRANCH  22  24
ENDBRANCH   1  22
TORSDOF 18
