REMARK  Name = outputs/IAG933/test6/raw/output_5859_IAG933_linker_design_.xyz
REMARK  13 active torsions:
REMARK  status: ('A' for Active; 'I' for Inactive)
REMARK    1  A    between atoms: C_1  and  C_2
REMARK    2  A    between atoms: C_1  and  C_8
REMARK    3  A    between atoms: C_1  and  O_35
REMARK    4  A    between atoms: C_21  and  O_22
REMARK    5  A    between atoms: O_22  and  C_23
REMARK    6  A    between atoms: C_23  and  C_24
REMARK    7  A    between atoms: O_28  and  C_30
REMARK    8  A    between atoms: C_30  and  C_36
REMARK    9  A    between atoms: C_32  and  C_38
REMARK   10  A    between atoms: C_32  and  O_42
REMARK   11  A    between atoms: C_33  and  C_41
REMARK   12  A    between atoms: O_35  and  C_44
REMARK   13  A    between atoms: C_43  and  C_44
REMARK                            x       y       z     vdW  Elec       q    Type
REMARK                         _______ _______ _______ _____ _____    ______ ____
ROOT
ATOM      1  C   UNL A   1     -25.688   1.614  26.461  0.00  0.00    +0.025 C 
ATOM      2  C   UNL A   1     -26.250   2.920  26.395  0.00  0.00    +0.071 C 
ATOM      3  C   UNL A   1     -25.642   4.093  27.123  0.00  0.00    +0.224 C 
ATOM      4  N   UNL A   1     -25.614   5.252  26.449  0.00  0.00    -0.236 NA
ATOM      5  C   UNL A   1     -25.026   6.479  26.963  0.00  0.00    +0.155 C 
ATOM      6  O   UNL A   1     -25.143   3.966  28.243  0.00  0.00    -0.428 OA
ATOM      7  C   UNL A   1     -27.438   3.091  25.645  0.00  0.00    +0.106 C 
ATOM      8  N   UNL A   1     -28.075   2.089  25.003  0.00  0.00    -0.208 NA
ATOM      9  C   UNL A   1     -27.543   0.849  25.079  0.00  0.00    +0.253 C 
ATOM     10  C   UNL A   1     -26.354   0.576  25.777  0.00  0.00    +0.190 C 
ATOM     11  F   UNL A   1     -25.860  -0.681  25.795  0.00  0.00    -0.200 F 
ATOM     12  O   UNL A   1     -24.460   2.298  29.446  0.00  0.00    -0.311 OA
ATOM     13  C   UNL A   1     -25.461   3.322  29.444  0.00  0.00    +0.392 C 
ATOM     14  C   UNL A   1     -24.291   1.424  27.034  0.00  0.00    +0.117 C 
ATOM     15  C   UNL A   1     -24.457   1.337  28.302  0.00  0.00    +0.160 C 
ENDROOT
BRANCH  14  16
ATOM     16  C   UNL A   1     -22.802   1.696  26.675  0.00  0.00    +0.195 C 
ATOM     17  F   UNL A   1     -20.610   1.388  27.538  0.00  0.00    -0.203 F 
ATOM     18  C   UNL A   1     -21.937   1.291  27.668  0.00  0.00    +0.187 C 
BRANCH  16  20
ATOM     19  O   UNL A   1     -23.624   2.529  24.630  0.00  0.00    +0.028 OA
ATOM     20  O   UNL A   1     -22.456   2.281  25.551  0.00  0.00    -0.305 OA
ENDBRANCH  16  20
BRANCH  18  21
ATOM     21  C   UNL A   1     -22.204   0.804  28.940  0.00  0.00    +0.252 C 
ATOM     22  F   UNL A   1     -22.159  -0.222  29.378  0.00  0.00    -0.226 F 
ENDBRANCH  18  21
ENDBRANCH  14  16
BRANCH  13  23
ATOM     23  C   UNL A   1     -25.672   4.204  30.632  0.00  0.00    +0.389 C 
ATOM     24  O   UNL A   1     -26.467   5.161  30.582  0.00  0.00    -0.243 OA
BRANCH  23  25
ATOM     25  O   UNL A   1     -24.914   3.972  31.717  0.00  0.00    -0.440 OA
ATOM     26  C   UNL A   1     -25.209   4.626  32.960  0.00  0.00    +0.256 C 
ENDBRANCH  23  25
ENDBRANCH  13  23
BRANCH   9  27
ATOM     27  O   UNL A   1     -28.193  -0.208  24.477  0.00  0.00    -0.456 OA
BRANCH  27  28
ATOM     28  C   UNL A   1     -29.460   0.005  23.866  0.00  0.00    +0.243 C 
BRANCH  28  29
ATOM     29  C   UNL A   1     -30.065  -1.377  23.573  0.00  0.00    +0.229 C 
ATOM     30  O   UNL A   1     -30.729  -1.878  24.721  0.00  0.00    -0.216 OA
ENDBRANCH  28  29
ENDBRANCH  27  28
ENDBRANCH   9  27
BRANCH  15  31
ATOM     31  C   UNL A   1     -24.613   0.240  28.325  0.00  0.00    +0.173 C 
BRANCH  31  32
ATOM     32  O   UNL A   1     -25.576  -0.361  29.209  0.00  0.00    -0.348 OA
BRANCH  32  33
ATOM     33  C   UNL A   1     -24.855  -1.012  30.143  0.00  0.00    +0.153 C 
BRANCH  33  34
ATOM     34  C   UNL A   1     -24.973  -2.505  29.788  0.00  0.00    +0.006 C 
ATOM     35  C   UNL A   1     -23.906  -3.173  29.146  0.00  0.00    -0.002 C 
ATOM     36  C   UNL A   1     -23.989  -4.549  28.853  0.00  0.00    -0.000 C 
ATOM     37  C   UNL A   1     -25.137  -5.280  29.205  0.00  0.00    -0.000 C 
ATOM     38  C   UNL A   1     -26.232  -4.611  29.784  0.00  0.00    -0.000 C 
ATOM     39  C   UNL A   1     -26.155  -3.232  30.065  0.00  0.00    -0.002 C 
ENDBRANCH  33  34
BRANCH  33  40
ATOM     40  C   UNL A   1     -25.387  -0.679  31.571  0.00  0.00    +0.104 C 
ATOM     41  C   UNL A   1     -25.189   0.773  32.028  0.00  0.00    +0.022 C 
ATOM     42  C   UNL A   1     -25.336   0.684  33.544  0.00  0.00    +0.020 C 
ATOM     43  C   UNL A   1     -24.829  -0.715  33.905  0.00  0.00    +0.089 C 
ATOM     44  N   UNL A   1     -24.758  -1.481  32.646  0.00  0.00    -0.217 NA
ENDBRANCH  33  40
ENDBRANCH  32  33
ENDBRANCH  31  32
ENDBRANCH  15  31
TORSDOF 13
