REMARK  Name = outputs/IAG933/test6/raw/output_5861_IAG933_linker_design_.xyz
REMARK  16 active torsions:
REMARK  status: ('A' for Active; 'I' for Inactive)
REMARK    1  A    between atoms: C_1  and  C_2
REMARK    2  A    between atoms: C_1  and  C_8
REMARK    3  A    between atoms: C_1  and  C_40
REMARK    4  A    between atoms: C_13  and  N_43
REMARK    5  A    between atoms: C_14  and  C_15
REMARK    6  A    between atoms: C_21  and  O_22
REMARK    7  A    between atoms: O_22  and  C_23
REMARK    8  A    between atoms: C_23  and  C_24
REMARK    9  A    between atoms: C_28  and  S_29
REMARK   10  A    between atoms: C_28  and  C_30
REMARK   11  A    between atoms: C_30  and  N_31
REMARK   12  A    between atoms: C_32  and  C_40
REMARK   13  A    between atoms: C_37  and  N_43
REMARK   14  A    between atoms: C_39  and  C_41
REMARK   15  A    between atoms: C_40  and  C_41
REMARK   16  A    between atoms: C_41  and  N_43
REMARK                            x       y       z     vdW  Elec       q    Type
REMARK                         _______ _______ _______ _____ _____    ______ ____
ROOT
ATOM      1  C   UNL A   1     -25.522  -0.090  29.056  0.00  0.00    +0.104 C 
ENDROOT
BRANCH   1   3
ATOM      2  N   UNL A   1     -27.325   1.559  29.655  0.00  0.00    -0.203 NA
ATOM      3  C   UNL A   1     -27.063   0.293  29.123  0.00  0.00    +0.243 C 
ATOM      4  O   UNL A   1     -27.808  -0.496  28.646  0.00  0.00    -0.273 OA
BRANCH   2   5
ATOM      5  C   UNL A   1     -27.949   2.796  30.276  0.00  0.00    +0.139 C 
BRANCH   5   6
ATOM      6  C   UNL A   1     -29.311   2.993  30.441  0.00  0.00    +0.157 C 
ATOM      7  C   UNL A   1     -30.110   1.900  29.619  0.00  0.00    +0.028 C 
BRANCH   6   8
ATOM      8  S   UNL A   1     -29.758   3.565  32.096  0.00  0.00    +0.023 S 
ATOM      9  O   UNL A   1     -30.037   2.275  32.789  0.00  0.00    -0.070 OA
ATOM     10  O   UNL A   1     -30.826   4.580  31.949  0.00  0.00    -0.070 OA
ATOM     11  O   UNL A   1     -28.573   4.314  32.688  0.00  0.00    -0.070 OA
ENDBRANCH   6   8
ENDBRANCH   5   6
ENDBRANCH   2   5
ENDBRANCH   1   3
BRANCH   1  12
ATOM     12  C   UNL A   1     -24.855  -1.012  30.143  0.00  0.00    +0.049 C 
BRANCH  12  13
ATOM     13  C   UNL A   1     -24.973  -2.505  29.788  0.00  0.00    -0.021 C 
ATOM     14  C   UNL A   1     -23.906  -3.173  29.146  0.00  0.00    -0.004 C 
ATOM     15  C   UNL A   1     -23.989  -4.549  28.853  0.00  0.00    -0.000 C 
ATOM     16  C   UNL A   1     -25.137  -5.280  29.205  0.00  0.00    -0.000 C 
ATOM     17  C   UNL A   1     -26.232  -4.611  29.784  0.00  0.00    -0.000 C 
ATOM     18  C   UNL A   1     -26.155  -3.232  30.065  0.00  0.00    -0.004 C 
ENDBRANCH  12  13
BRANCH  12  19
ATOM     19  C   UNL A   1     -25.387  -0.679  31.571  0.00  0.00    +0.077 C 
ATOM     20  C   UNL A   1     -25.189   0.773  32.028  0.00  0.00    +0.019 C 
ATOM     21  C   UNL A   1     -25.336   0.684  33.544  0.00  0.00    +0.020 C 
ATOM     22  C   UNL A   1     -24.829  -0.715  33.905  0.00  0.00    +0.089 C 
ATOM     23  N   UNL A   1     -24.758  -1.481  32.646  0.00  0.00    -0.219 NA
ENDBRANCH  12  19
ENDBRANCH   1  12
BRANCH   1  24
ATOM     24  C   UNL A   1     -24.729   0.522  28.267  0.00  0.00    +0.115 C 
BRANCH  24  26
ATOM     25  O   UNL A   1     -22.702   0.714  29.530  0.00  0.00    -0.219 OA
ATOM     26  C   UNL A   1     -23.385   0.115  28.357  0.00  0.00    +0.202 C 
ENDBRANCH  24  26
BRANCH  24  27
ATOM     27  N   UNL A   1     -24.617   1.255  27.182  0.00  0.00    -0.304 N 
BRANCH  27  28
ATOM     28  C   UNL A   1     -25.688   1.614  26.461  0.00  0.00    +0.086 C 
ATOM     29  C   UNL A   1     -26.250   2.920  26.395  0.00  0.00    +0.090 C 
ATOM     30  C   UNL A   1     -27.438   3.091  25.645  0.00  0.00    +0.108 C 
ATOM     31  N   UNL A   1     -28.075   2.089  25.003  0.00  0.00    -0.208 NA
ATOM     32  C   UNL A   1     -27.543   0.849  25.079  0.00  0.00    +0.255 C 
ATOM     33  C   UNL A   1     -26.354   0.576  25.777  0.00  0.00    +0.206 C 
ATOM     34  F   UNL A   1     -25.860  -0.681  25.795  0.00  0.00    -0.198 F 
BRANCH  29  35
ATOM     35  C   UNL A   1     -25.642   4.093  27.123  0.00  0.00    +0.268 C 
ATOM     36  N   UNL A   1     -25.614   5.252  26.449  0.00  0.00    -0.200 NA
ATOM     37  C   UNL A   1     -25.026   6.479  26.963  0.00  0.00    +0.139 C 
ATOM     38  O   UNL A   1     -25.143   3.966  28.243  0.00  0.00    -0.268 OA
ENDBRANCH  29  35
BRANCH  32  39
ATOM     39  O   UNL A   1     -28.193  -0.208  24.477  0.00  0.00    -0.456 OA
BRANCH  39  40
ATOM     40  C   UNL A   1     -29.460   0.005  23.866  0.00  0.00    +0.243 C 
BRANCH  40  41
ATOM     41  C   UNL A   1     -30.065  -1.377  23.573  0.00  0.00    +0.229 C 
ATOM     42  O   UNL A   1     -30.729  -1.878  24.721  0.00  0.00    -0.216 OA
ENDBRANCH  40  41
ENDBRANCH  39  40
ENDBRANCH  32  39
ENDBRANCH  27  28
BRANCH  27  44
ATOM     43  C   UNL A   1     -22.177   2.064  26.869  0.00  0.00    +0.023 C 
ATOM     44  C   UNL A   1     -23.517   1.554  26.237  0.00  0.00    +0.091 C 
ENDBRANCH  27  44
ENDBRANCH  24  27
ENDBRANCH   1  24
TORSDOF 16
