MODEL 586
MODEL 1
REMARK VINA RESULT:    -4.279      0.000      0.000
REMARK INTER + INTRA:          -4.279
REMARK INTER:                  -4.279
REMARK INTRA:                   0.000
REMARK UNBOUND:                 0.000
REMARK  Name = No_586-gen_results/8p0m/2024-11-27-11-27-31/
REMARK  0 active torsions:
REMARK  status: ('A' for Active; 'I' for Inactive)
REMARK                            x       y       z     vdW  Elec       q    Type
REMARK                         _______ _______ _______ _____ _____    ______ ____
ROOT
ATOM      1  C   UNL A   1     -26.067  -4.838  29.664  0.00  0.00    +0.000 A 
ATOM      2  C   UNL A   1     -26.193  -3.637  29.728  0.00  0.00    +0.000 A 
ATOM      3  C   UNL A   1     -25.219  -2.743  29.326  0.00  0.00    +0.000 A 
ATOM      4  C   UNL A   1     -24.019  -3.270  28.771  0.00  0.00    +0.000 A 
ATOM      5  C   UNL A   1     -23.996  -4.607  28.564  0.00  0.00    +0.000 A 
ATOM      6  C   UNL A   1     -24.994  -5.383  28.944  0.00  0.00    +0.000 A 
ENDROOT
TORSDOF 0
ENDMDL
ENDMDL
