REMARK  Name = outputs/IAG933/test6/raw/output_5877_IAG933_linker_design_.xyz
REMARK  17 active torsions:
REMARK  status: ('A' for Active; 'I' for Inactive)
REMARK    1  A    between atoms: C_1  and  C_2
REMARK    2  A    between atoms: C_1  and  C_8
REMARK    3  A    between atoms: C_9  and  C_42
REMARK    4  A    between atoms: C_13  and  C_47
REMARK    5  A    between atoms: C_14  and  C_15
REMARK    6  A    between atoms: C_21  and  O_22
REMARK    7  A    between atoms: O_22  and  C_23
REMARK    8  A    between atoms: C_23  and  C_24
REMARK    9  A    between atoms: C_28  and  O_35
REMARK   10  A    between atoms: C_29  and  C_42
REMARK   11  A    between atoms: C_29  and  C_46
REMARK   12  A    between atoms: N_30  and  O_36
REMARK   13  A    between atoms: N_30  and  C_44
REMARK   14  A    between atoms: C_31  and  O_36
REMARK   15  A    between atoms: N_32  and  C_46
REMARK   16  A    between atoms: C_39  and  N_43
REMARK   17  A    between atoms: C_42  and  C_44
REMARK                            x       y       z     vdW  Elec       q    Type
REMARK                         _______ _______ _______ _____ _____    ______ ____
ROOT
ATOM      1  C   UNL A   1     -24.654   2.164  31.649  0.00  0.00    +0.024 C 
ENDROOT
BRANCH   1   3
ATOM      2  C   UNL A   1     -25.387  -0.679  31.571  0.00  0.00    +0.077 C 
ATOM      3  C   UNL A   1     -25.189   0.773  32.028  0.00  0.00    +0.019 C 
ATOM      4  C   UNL A   1     -25.336   0.684  33.544  0.00  0.00    +0.020 C 
ATOM      5  C   UNL A   1     -24.829  -0.715  33.905  0.00  0.00    +0.089 C 
ATOM      6  N   UNL A   1     -24.758  -1.481  32.646  0.00  0.00    -0.219 NA
BRANCH   2   7
ATOM      7  C   UNL A   1     -24.855  -1.012  30.143  0.00  0.00    +0.044 C 
BRANCH   7   8
ATOM      8  C   UNL A   1     -24.973  -2.505  29.788  0.00  0.00    -0.021 C 
ATOM      9  C   UNL A   1     -23.906  -3.173  29.146  0.00  0.00    -0.004 C 
ATOM     10  C   UNL A   1     -23.989  -4.549  28.853  0.00  0.00    -0.000 C 
ATOM     11  C   UNL A   1     -25.137  -5.280  29.205  0.00  0.00    -0.000 C 
ATOM     12  C   UNL A   1     -26.232  -4.611  29.784  0.00  0.00    -0.000 C 
ATOM     13  C   UNL A   1     -26.155  -3.232  30.065  0.00  0.00    -0.004 C 
ENDBRANCH   7   8
ENDBRANCH   2   7
ENDBRANCH   1   3
BRANCH   1  14
ATOM     14  C   UNL A   1     -25.117   3.537  32.049  0.00  0.00    +0.135 C 
BRANCH  14  15
ATOM     15  N   UNL A   1     -25.268   4.166  33.215  0.00  0.00    -0.018 NA
ATOM     16  O   UNL A   1     -26.371   3.990  33.822  0.00  0.00    -0.091 OA
BRANCH  15  17
ATOM     17  O   UNL A   1     -24.463   5.326  33.408  0.00  0.00    -0.251 OA
BRANCH  17  19
ATOM     18  C   UNL A   1     -22.926   7.439  33.695  0.00  0.00    +0.304 C 
ATOM     19  C   UNL A   1     -23.659   6.171  34.261  0.00  0.00    +0.229 C 
ATOM     20  C   UNL A   1     -24.948   7.880  32.528  0.00  0.00    +0.177 C 
ATOM     21  C   UNL A   1     -24.434   6.657  35.493  0.00  0.00    +0.179 C 
ATOM     22  C   UNL A   1     -25.776   7.831  33.840  0.00  0.00    +0.174 C 
ATOM     23  O   UNL A   1     -25.199   7.758  35.176  0.00  0.00    -0.348 OA
ATOM     24  O   UNL A   1     -23.596   8.296  32.963  0.00  0.00    -0.324 OA
BRANCH  18  26
ATOM     25  O   UNL A   1     -20.585   7.730  33.173  0.00  0.00    -0.032 OA
ATOM     26  O   UNL A   1     -21.587   7.752  34.163  0.00  0.00    -0.158 OA
ENDBRANCH  18  26
ENDBRANCH  17  19
ENDBRANCH  15  17
ENDBRANCH  14  15
ENDBRANCH   1  14
BRANCH   1  27
ATOM     27  C   UNL A   1     -23.253   2.024  30.964  0.00  0.00    +0.025 C 
BRANCH  27  28
ATOM     28  C   UNL A   1     -22.930   1.667  29.670  0.00  0.00    +0.117 C 
BRANCH  28  29
ATOM     29  N   UNL A   1     -22.033   1.057  28.819  0.00  0.00    -0.187 NA
ATOM     30  C   UNL A   1     -22.257   1.593  27.577  0.00  0.00    +0.343 C 
ATOM     31  O   UNL A   1     -21.398   1.877  26.751  0.00  0.00    -0.249 OA
BRANCH  30  32
ATOM     32  N   UNL A   1     -23.639   2.033  27.342  0.00  0.00    -0.164 NA
ATOM     33  C   UNL A   1     -24.499   1.451  26.785  0.00  0.00    +0.071 C 
BRANCH  33  34
ATOM     34  C   UNL A   1     -25.688   1.614  26.461  0.00  0.00    +0.109 C 
ATOM     35  C   UNL A   1     -26.250   2.920  26.395  0.00  0.00    +0.060 C 
ATOM     36  C   UNL A   1     -27.438   3.091  25.645  0.00  0.00    +0.102 C 
ATOM     37  N   UNL A   1     -28.075   2.089  25.003  0.00  0.00    -0.212 NA
ATOM     38  C   UNL A   1     -27.543   0.849  25.079  0.00  0.00    +0.234 C 
ATOM     39  C   UNL A   1     -26.354   0.576  25.777  0.00  0.00    +0.245 C 
ATOM     40  F   UNL A   1     -25.860  -0.681  25.795  0.00  0.00    -0.227 F 
BRANCH  35  41
ATOM     41  C   UNL A   1     -25.642   4.093  27.123  0.00  0.00    +0.263 C 
ATOM     42  N   UNL A   1     -25.614   5.252  26.449  0.00  0.00    -0.200 NA
ATOM     43  C   UNL A   1     -25.026   6.479  26.963  0.00  0.00    +0.139 C 
ATOM     44  O   UNL A   1     -25.143   3.966  28.243  0.00  0.00    -0.269 OA
ENDBRANCH  35  41
BRANCH  38  45
ATOM     45  O   UNL A   1     -28.193  -0.208  24.477  0.00  0.00    -0.459 OA
BRANCH  45  46
ATOM     46  C   UNL A   1     -29.460   0.005  23.866  0.00  0.00    +0.242 C 
BRANCH  46  47
ATOM     47  C   UNL A   1     -30.065  -1.377  23.573  0.00  0.00    +0.229 C 
ATOM     48  O   UNL A   1     -30.729  -1.878  24.721  0.00  0.00    -0.216 OA
ENDBRANCH  46  47
ENDBRANCH  45  46
ENDBRANCH  38  45
ENDBRANCH  33  34
ENDBRANCH  30  32
ENDBRANCH  28  29
ENDBRANCH  27  28
ENDBRANCH   1  27
TORSDOF 17
