REMARK  Name = outputs/IAG933/test6/raw/output_5878_IAG933_linker_design_.xyz
REMARK  12 active torsions:
REMARK  status: ('A' for Active; 'I' for Inactive)
REMARK    1  A    between atoms: C_1  and  C_2
REMARK    2  A    between atoms: C_1  and  C_8
REMARK    3  A    between atoms: C_1  and  N_42
REMARK    4  A    between atoms: C_13  and  C_40
REMARK    5  A    between atoms: C_14  and  C_15
REMARK    6  A    between atoms: C_21  and  O_22
REMARK    7  A    between atoms: O_22  and  C_23
REMARK    8  A    between atoms: C_23  and  C_24
REMARK    9  A    between atoms: C_29  and  C_34
REMARK   10  A    between atoms: C_31  and  C_33
REMARK   11  A    between atoms: C_31  and  C_38
REMARK   12  A    between atoms: C_35  and  C_38
REMARK                            x       y       z     vdW  Elec       q    Type
REMARK                         _______ _______ _______ _____ _____    ______ ____
ROOT
ATOM      1  C   UNL A   1     -23.383   1.585  26.795  0.00  0.00    +0.086 C 
ATOM      2  C   UNL A   1     -22.186   0.690  28.632  0.00  0.00    +0.047 C 
ATOM      3  C   UNL A   1     -25.201   0.462  28.483  0.00  0.00    +0.030 C 
ATOM      4  C   UNL A   1     -23.094   0.288  29.482  0.00  0.00    +0.068 C 
ATOM      5  C   UNL A   1     -24.629   1.248  27.271  0.00  0.00    +0.025 C 
ATOM      6  N   UNL A   1     -24.364   0.071  29.349  0.00  0.00    -0.286 N 
ATOM      7 CL   UNL A   1     -23.140   2.408  25.200  0.00  0.00    -0.080 Cl
ATOM      8  C   UNL A   1     -22.195   1.351  27.448  0.00  0.00    +0.152 C 
ATOM      9  F   UNL A   1     -21.002   1.791  27.059  0.00  0.00    -0.203 F 
ENDROOT
BRANCH   5  10
ATOM     10  C   UNL A   1     -25.688   1.614  26.461  0.00  0.00    +0.040 C 
ATOM     11  C   UNL A   1     -26.250   2.920  26.395  0.00  0.00    +0.077 C 
ATOM     12  C   UNL A   1     -27.438   3.091  25.645  0.00  0.00    +0.107 C 
ATOM     13  N   UNL A   1     -28.075   2.089  25.003  0.00  0.00    -0.208 NA
ATOM     14  C   UNL A   1     -27.543   0.849  25.079  0.00  0.00    +0.253 C 
ATOM     15  C   UNL A   1     -26.354   0.576  25.777  0.00  0.00    +0.193 C 
ATOM     16  F   UNL A   1     -25.860  -0.681  25.795  0.00  0.00    -0.199 F 
BRANCH  11  17
ATOM     17  C   UNL A   1     -25.642   4.093  27.123  0.00  0.00    +0.266 C 
ATOM     18  N   UNL A   1     -25.614   5.252  26.449  0.00  0.00    -0.200 NA
ATOM     19  C   UNL A   1     -25.026   6.479  26.963  0.00  0.00    +0.139 C 
ATOM     20  O   UNL A   1     -25.143   3.966  28.243  0.00  0.00    -0.268 OA
ENDBRANCH  11  17
BRANCH  14  21
ATOM     21  O   UNL A   1     -28.193  -0.208  24.477  0.00  0.00    -0.456 OA
BRANCH  21  22
ATOM     22  C   UNL A   1     -29.460   0.005  23.866  0.00  0.00    +0.243 C 
BRANCH  22  23
ATOM     23  C   UNL A   1     -30.065  -1.377  23.573  0.00  0.00    +0.229 C 
ATOM     24  O   UNL A   1     -30.729  -1.878  24.721  0.00  0.00    -0.216 OA
ENDBRANCH  22  23
ENDBRANCH  21  22
ENDBRANCH  14  21
ENDBRANCH   5  10
BRANCH   6  25
ATOM     25  C   UNL A   1     -24.855  -1.012  30.143  0.00  0.00    +0.115 C 
BRANCH  25  26
ATOM     26  C   UNL A   1     -24.973  -2.505  29.788  0.00  0.00    -0.003 C 
ATOM     27  C   UNL A   1     -23.906  -3.173  29.146  0.00  0.00    -0.003 C 
ATOM     28  C   UNL A   1     -23.989  -4.549  28.853  0.00  0.00    -0.000 C 
ATOM     29  C   UNL A   1     -25.137  -5.280  29.205  0.00  0.00    -0.000 C 
ATOM     30  C   UNL A   1     -26.232  -4.611  29.784  0.00  0.00    -0.000 C 
ATOM     31  C   UNL A   1     -26.155  -3.232  30.065  0.00  0.00    -0.003 C 
ENDBRANCH  25  26
BRANCH  25  32
ATOM     32  C   UNL A   1     -25.387  -0.679  31.571  0.00  0.00    +0.095 C 
ATOM     33  C   UNL A   1     -25.189   0.773  32.028  0.00  0.00    +0.021 C 
ATOM     34  C   UNL A   1     -25.336   0.684  33.544  0.00  0.00    +0.020 C 
ATOM     35  C   UNL A   1     -24.829  -0.715  33.905  0.00  0.00    +0.089 C 
ATOM     36  N   UNL A   1     -24.758  -1.481  32.646  0.00  0.00    -0.217 NA
ENDBRANCH  25  32
ENDBRANCH   6  25
BRANCH   3  37
ATOM     37  C   UNL A   1     -26.422   0.015  28.522  0.00  0.00    +0.046 C 
BRANCH  37  38
ATOM     38  C   UNL A   1     -27.697  -0.264  29.210  0.00  0.00    +0.032 C 
BRANCH  38  39
ATOM     39  C   UNL A   1     -28.990  -0.054  28.403  0.00  0.00    -0.028 C 
ATOM     40  C   UNL A   1     -29.870   1.216  28.596  0.00  0.00    -0.003 C 
BRANCH  40  41
ATOM     41  C   UNL A   1     -29.811   2.386  29.329  0.00  0.00    +0.186 C 
ATOM     42  C   UNL A   1     -32.258   5.079  29.704  0.00  0.00    +0.117 C 
ATOM     43  C   UNL A   1     -30.286   3.756  28.591  0.00  0.00    +0.263 C 
ATOM     44  O   UNL A   1     -29.161   2.545  31.605  0.00  0.00    -0.117 OA
ATOM     45  N   UNL A   1     -31.571   4.287  28.664  0.00  0.00    -0.204 NA
ATOM     46  O   UNL A   1     -29.392   4.442  27.994  0.00  0.00    -0.271 OA
ATOM     47  C   UNL A   1     -31.428   4.859  30.982  0.00  0.00    +0.043 C 
ATOM     48  N   UNL A   1     -30.020   2.630  30.684  0.00  0.00    -0.121 NA
ATOM     49  C   UNL A   1     -31.193   3.398  31.225  0.00  0.00    +0.107 C 
ENDBRANCH  40  41
ENDBRANCH  38  39
ENDBRANCH  37  38
ENDBRANCH   3  37
TORSDOF 12
