MODEL 587
MODEL 1
REMARK VINA RESULT:    -5.136      0.000      0.000
REMARK INTER + INTRA:          -5.474
REMARK INTER:                  -5.436
REMARK INTRA:                  -0.038
REMARK UNBOUND:                -0.038
REMARK  Name = No_587-gen_results/8p0m/2024-11-27-11-27-31/
REMARK  1 active torsions:
REMARK  status: ('A' for Active; 'I' for Inactive)
REMARK    1  A    between atoms: C_2  and  C_8
REMARK                            x       y       z     vdW  Elec       q    Type
REMARK                         _______ _______ _______ _____ _____    ______ ____
ROOT
ATOM      1  C   UNL A   1     -28.188 -11.712  31.528  0.00  0.00    +0.018 A 
ATOM      2  C   UNL A   1     -28.265 -11.264  32.479  0.00  0.00    +0.081 A 
ATOM      3  C   UNL A   1     -29.034 -11.232  30.504  0.00  0.00    +0.058 A 
ATOM      4  C   UNL A   1     -29.948 -10.220  30.724  0.00  0.00    +0.011 A 
ATOM      5  C   UNL A   1     -29.139 -10.182  32.972  0.00  0.00    +0.007 A 
ATOM      6  C   UNL A   1     -29.967  -9.694  32.022  0.00  0.00    +0.001 A 
ATOM      7 CL   UNL A   1     -28.972 -11.851  28.892  0.00  0.00    -0.082 Cl
ENDROOT
BRANCH   2   8
ATOM      8  C   UNL A   1     -27.290 -11.702  33.672  0.00  0.00    +0.388 C 
ATOM      9  O   UNL A   1     -26.744 -12.832  33.798  0.00  0.00    -0.241 OA
ATOM     10  O   UNL A   1     -26.959 -10.848  34.625  0.00  0.00    -0.241 OA
ENDBRANCH   2   8
TORSDOF 1
ENDMDL
ENDMDL
