REMARK  Name = No_588-gen_results/8p0m/2024-11-27-11-27-31/
REMARK  0 active torsions:
REMARK  status: ('A' for Active; 'I' for Inactive)
REMARK                            x       y       z     vdW  Elec       q    Type
REMARK                         _______ _______ _______ _____ _____    ______ ____
ROOT
ATOM      1  N   UNL A   1     -28.054  -1.050  28.725  0.00  0.00    -0.225 NA
ATOM      2  C   UNL A   1     -26.966  -0.472  28.771  0.00  0.00    +0.162 A 
ATOM      3  C   UNL A   1     -26.448   0.341  27.933  0.00  0.00    +0.036 A 
ATOM      4  C   UNL A   1     -27.317   0.763  26.820  0.00  0.00    +0.004 A 
ATOM      5  C   UNL A   1     -28.557   0.244  26.834  0.00  0.00    +0.019 A 
ATOM      6  C   UNL A   1     -28.945  -0.496  28.036  0.00  0.00    +0.101 A 
ATOM      7  C   UNL A   1     -29.467   0.689  25.807  0.00  0.00    +0.002 A 
ATOM      8  C   UNL A   1     -29.075   1.192  24.696  0.00  0.00    +0.000 A 
ATOM      9  C   UNL A   1     -27.662   1.725  24.625  0.00  0.00    +0.000 A 
ATOM     10  C   UNL A   1     -26.784   1.496  25.727  0.00  0.00    +0.000 A 
ATOM     11  N   UNL A   1     -25.972  -0.979  29.807  0.00  0.00    -0.225 NA
ATOM     12  C   UNL A   1     -24.705  -0.721  29.800  0.00  0.00    +0.101 A 
ATOM     13  C   UNL A   1     -24.251   0.261  28.909  0.00  0.00    +0.021 A 
ATOM     14  C   UNL A   1     -25.004   0.751  27.877  0.00  0.00    +0.005 A 
ENDROOT
TORSDOF 0
