REMARK  Name = outputs/IAG933/test6/raw/output_5883_IAG933_linker_design_.xyz
REMARK  14 active torsions:
REMARK  status: ('A' for Active; 'I' for Inactive)
REMARK    1  A    between atoms: C_1  and  C_2
REMARK    2  A    between atoms: C_1  and  C_8
REMARK    3  A    between atoms: C_1  and  C_40
REMARK    4  A    between atoms: C_13  and  C_35
REMARK    5  A    between atoms: C_14  and  C_15
REMARK    6  A    between atoms: C_21  and  O_22
REMARK    7  A    between atoms: O_22  and  C_23
REMARK    8  A    between atoms: C_23  and  C_24
REMARK    9  A    between atoms: C_29  and  C_37
REMARK   10  A    between atoms: N_30  and  C_33
REMARK   11  A    between atoms: C_33  and  C_35
REMARK   12  A    between atoms: C_35  and  C_39
REMARK   13  A    between atoms: C_38  and  C_40
REMARK   14  A    between atoms: C_39  and  C_40
REMARK                            x       y       z     vdW  Elec       q    Type
REMARK                         _______ _______ _______ _____ _____    ______ ____
ROOT
ATOM      1  S   UNL A   1     -22.420   0.128  29.097  0.00  0.00    -0.082 S 
ATOM      2  C   UNL A   1     -24.002   0.448  28.188  0.00  0.00    +0.073 C 
ENDROOT
BRANCH   2   3
ATOM      3  C   UNL A   1     -24.372   1.246  26.949  0.00  0.00    +0.058 C 
BRANCH   3   4
ATOM      4  C   UNL A   1     -25.688   1.614  26.461  0.00  0.00    +0.018 C 
ATOM      5  C   UNL A   1     -26.250   2.920  26.395  0.00  0.00    +0.073 C 
ATOM      6  C   UNL A   1     -27.438   3.091  25.645  0.00  0.00    +0.106 C 
ATOM      7  N   UNL A   1     -28.075   2.089  25.003  0.00  0.00    -0.208 NA
ATOM      8  C   UNL A   1     -27.543   0.849  25.079  0.00  0.00    +0.253 C 
ATOM      9  C   UNL A   1     -26.354   0.576  25.777  0.00  0.00    +0.189 C 
ATOM     10  F   UNL A   1     -25.860  -0.681  25.795  0.00  0.00    -0.200 F 
BRANCH   5  11
ATOM     11  C   UNL A   1     -25.642   4.093  27.123  0.00  0.00    +0.266 C 
ATOM     12  N   UNL A   1     -25.614   5.252  26.449  0.00  0.00    -0.200 NA
ATOM     13  C   UNL A   1     -25.026   6.479  26.963  0.00  0.00    +0.139 C 
ATOM     14  O   UNL A   1     -25.143   3.966  28.243  0.00  0.00    -0.268 OA
ENDBRANCH   5  11
BRANCH   8  15
ATOM     15  O   UNL A   1     -28.193  -0.208  24.477  0.00  0.00    -0.456 OA
BRANCH  15  16
ATOM     16  C   UNL A   1     -29.460   0.005  23.866  0.00  0.00    +0.243 C 
BRANCH  16  17
ATOM     17  C   UNL A   1     -30.065  -1.377  23.573  0.00  0.00    +0.229 C 
ATOM     18  O   UNL A   1     -30.729  -1.878  24.721  0.00  0.00    -0.216 OA
ENDBRANCH  16  17
ENDBRANCH  15  16
ENDBRANCH   8  15
ENDBRANCH   3   4
BRANCH   3  19
ATOM     19  C   UNL A   1     -23.493   1.639  26.044  0.00  0.00    +0.121 C 
BRANCH  19  20
ATOM     20  N   UNL A   1     -22.319   2.016  26.267  0.00  0.00    -0.197 NA
ATOM     21  C   UNL A   1     -21.813   1.552  27.369  0.00  0.00    +0.320 C 
ATOM     22  O   UNL A   1     -20.787   1.505  27.788  0.00  0.00    -0.263 OA
ENDBRANCH  19  20
ENDBRANCH   3  19
ENDBRANCH   2   3
BRANCH   2  23
ATOM     23  C   UNL A   1     -25.000   0.088  29.138  0.00  0.00    +0.095 C 
BRANCH  23  28
ATOM     24  O   UNL A   1     -28.984  -1.472  29.375  0.00  0.00    -0.273 OA
ATOM     25  O   UNL A   1     -26.652   1.860  29.298  0.00  0.00    -0.273 OA
ATOM     26  N   UNL A   1     -27.241  -0.263  28.683  0.00  0.00    -0.145 NA
ATOM     27  C   UNL A   1     -28.463  -0.383  29.157  0.00  0.00    +0.248 C 
ATOM     28  C   UNL A   1     -26.340   0.657  29.087  0.00  0.00    +0.249 C 
BRANCH  27  29
ATOM     29  C   UNL A   1     -29.263   0.876  29.391  0.00  0.00    +0.087 C 
ATOM     30  C   UNL A   1     -30.666   0.638  29.895  0.00  0.00    +0.010 C 
ENDBRANCH  27  29
ENDBRANCH  23  28
BRANCH  23  31
ATOM     31  C   UNL A   1     -24.855  -1.012  30.143  0.00  0.00    +0.048 C 
BRANCH  31  32
ATOM     32  C   UNL A   1     -24.973  -2.505  29.788  0.00  0.00    -0.021 C 
ATOM     33  C   UNL A   1     -23.906  -3.173  29.146  0.00  0.00    -0.004 C 
ATOM     34  C   UNL A   1     -23.989  -4.549  28.853  0.00  0.00    -0.000 C 
ATOM     35  C   UNL A   1     -25.137  -5.280  29.205  0.00  0.00    -0.000 C 
ATOM     36  C   UNL A   1     -26.232  -4.611  29.784  0.00  0.00    -0.000 C 
ATOM     37  C   UNL A   1     -26.155  -3.232  30.065  0.00  0.00    -0.004 C 
ENDBRANCH  31  32
BRANCH  31  38
ATOM     38  C   UNL A   1     -25.387  -0.679  31.571  0.00  0.00    +0.077 C 
ATOM     39  C   UNL A   1     -25.189   0.773  32.028  0.00  0.00    +0.019 C 
ATOM     40  C   UNL A   1     -25.336   0.684  33.544  0.00  0.00    +0.020 C 
ATOM     41  C   UNL A   1     -24.829  -0.715  33.905  0.00  0.00    +0.089 C 
ATOM     42  N   UNL A   1     -24.758  -1.481  32.646  0.00  0.00    -0.219 NA
ENDBRANCH  31  38
ENDBRANCH  23  31
ENDBRANCH   2  23
TORSDOF 14
