MODEL 588
MODEL 1
REMARK VINA RESULT:    -6.278      0.000      0.000
REMARK INTER + INTRA:          -6.278
REMARK INTER:                  -6.278
REMARK INTRA:                   0.000
REMARK UNBOUND:                 0.000
REMARK  Name = No_588-gen_results/8p0m/2024-11-27-11-27-31/
REMARK  0 active torsions:
REMARK  status: ('A' for Active; 'I' for Inactive)
REMARK                            x       y       z     vdW  Elec       q    Type
REMARK                         _______ _______ _______ _____ _____    ______ ____
ROOT
ATOM      1  N   UNL A   1     -26.127  -0.924  30.950  0.00  0.00    -0.225 NA
ATOM      2  C   UNL A   1     -25.181  -0.524  30.269  0.00  0.00    +0.162 A 
ATOM      3  C   UNL A   1     -24.395  -1.186  29.510  0.00  0.00    +0.036 A 
ATOM      4  C   UNL A   1     -24.739  -2.603  29.302  0.00  0.00    +0.004 A 
ATOM      5  C   UNL A   1     -25.851  -3.020  29.933  0.00  0.00    +0.019 A 
ATOM      6  C   UNL A   1     -26.673  -1.987  30.565  0.00  0.00    +0.101 A 
ATOM      7  C   UNL A   1     -26.270  -4.380  29.696  0.00  0.00    +0.002 A 
ATOM      8  C   UNL A   1     -25.472  -5.296  29.287  0.00  0.00    +0.000 A 
ATOM      9  C   UNL A   1     -24.180  -4.862  28.632  0.00  0.00    +0.000 A 
ATOM     10  C   UNL A   1     -23.831  -3.478  28.650  0.00  0.00    +0.000 A 
ATOM     11  N   UNL A   1     -24.687   0.888  30.558  0.00  0.00    -0.225 NA
ATOM     12  C   UNL A   1     -23.543   1.359  30.182  0.00  0.00    +0.101 A 
ATOM     13  C   UNL A   1     -22.801   0.599  29.268  0.00  0.00    +0.021 A 
ATOM     14  C   UNL A   1     -23.076  -0.708  28.972  0.00  0.00    +0.005 A 
ENDROOT
TORSDOF 0
ENDMDL
ENDMDL
