REMARK  Name = outputs/IAG933/test6/raw/output_5890_IAG933_linker_design_.xyz
REMARK  15 active torsions:
REMARK  status: ('A' for Active; 'I' for Inactive)
REMARK    1  A    between atoms: C_1  and  C_2
REMARK    2  A    between atoms: C_1  and  C_8
REMARK    3  A    between atoms: C_9  and  C_32
REMARK    4  A    between atoms: C_13  and  C_40
REMARK    5  A    between atoms: C_14  and  C_15
REMARK    6  A    between atoms: C_21  and  O_22
REMARK    7  A    between atoms: O_22  and  C_23
REMARK    8  A    between atoms: C_23  and  C_24
REMARK    9  A    between atoms: C_31  and  C_40
REMARK   10  A    between atoms: C_32  and  C_35
REMARK   11  A    between atoms: C_34  and  C_41
REMARK   12  A    between atoms: C_35  and  N_36
REMARK   13  A    between atoms: C_35  and  C_41
REMARK   14  A    between atoms: C_40  and  N_43
REMARK   15  A    between atoms: N_43  and  C_44
REMARK                            x       y       z     vdW  Elec       q    Type
REMARK                         _______ _______ _______ _____ _____    ______ ____
ROOT
ATOM      1  C   UNL A   1     -24.398   1.843  28.995  0.00  0.00    +0.264 C 
ATOM      2  N   UNL A   1     -25.559   2.129  29.424  0.00  0.00    -0.205 NA
ATOM      3  O   UNL A   1     -23.392   1.993  29.681  0.00  0.00    -0.271 OA
ENDROOT
BRANCH   2   4
ATOM      4  C   UNL A   1     -25.661   2.830  30.896  0.00  0.00    +0.096 C 
BRANCH   4   5
ATOM      5  C   UNL A   1     -26.435   1.597  31.525  0.00  0.00    +0.023 C 
BRANCH   5   7
ATOM      6  C   UNL A   1     -25.387  -0.679  31.571  0.00  0.00    +0.077 C 
ATOM      7  C   UNL A   1     -25.189   0.773  32.028  0.00  0.00    +0.019 C 
ATOM      8  C   UNL A   1     -25.336   0.684  33.544  0.00  0.00    +0.020 C 
ATOM      9  C   UNL A   1     -24.829  -0.715  33.905  0.00  0.00    +0.089 C 
ATOM     10  N   UNL A   1     -24.758  -1.481  32.646  0.00  0.00    -0.219 NA
BRANCH   6  11
ATOM     11  C   UNL A   1     -24.855  -1.012  30.143  0.00  0.00    +0.044 C 
BRANCH  11  12
ATOM     12  C   UNL A   1     -24.973  -2.505  29.788  0.00  0.00    -0.021 C 
ATOM     13  C   UNL A   1     -23.906  -3.173  29.146  0.00  0.00    -0.004 C 
ATOM     14  C   UNL A   1     -23.989  -4.549  28.853  0.00  0.00    -0.000 C 
ATOM     15  C   UNL A   1     -25.137  -5.280  29.205  0.00  0.00    -0.000 C 
ATOM     16  C   UNL A   1     -26.232  -4.611  29.784  0.00  0.00    -0.000 C 
ATOM     17  C   UNL A   1     -26.155  -3.232  30.065  0.00  0.00    -0.004 C 
ENDBRANCH  11  12
ENDBRANCH   6  11
ENDBRANCH   5   7
ENDBRANCH   4   5
BRANCH   4  18
ATOM     18  C   UNL A   1     -25.235   3.559  32.263  0.00  0.00    +0.024 C 
BRANCH  18  23
ATOM     19  C   UNL A   1     -26.215   6.349  32.525  0.00  0.00    +0.033 C 
ATOM     20  C   UNL A   1     -27.853   4.212  33.909  0.00  0.00    +0.003 C 
ATOM     21  C   UNL A   1     -27.986   5.709  34.138  0.00  0.00    +0.000 C 
ATOM     22  O   UNL A   1     -26.257   5.180  30.405  0.00  0.00    -0.223 OA
ATOM     23  C   UNL A   1     -26.605   4.029  32.861  0.00  0.00    +0.032 C 
ATOM     24  C   UNL A   1     -26.768   5.188  31.776  0.00  0.00    +0.152 C 
ATOM     25  C   UNL A   1     -26.646   6.372  33.897  0.00  0.00    +0.003 C 
ENDBRANCH  18  23
ENDBRANCH   4  18
ENDBRANCH   2   4
BRANCH   1  26
ATOM     26  C   UNL A   1     -24.448   1.288  27.402  0.00  0.00    +0.185 C 
BRANCH  26  27
ATOM     27  C   UNL A   1     -25.688   1.614  26.461  0.00  0.00    +0.043 C 
ATOM     28  C   UNL A   1     -26.250   2.920  26.395  0.00  0.00    +0.075 C 
ATOM     29  C   UNL A   1     -27.438   3.091  25.645  0.00  0.00    +0.106 C 
ATOM     30  N   UNL A   1     -28.075   2.089  25.003  0.00  0.00    -0.208 NA
ATOM     31  C   UNL A   1     -27.543   0.849  25.079  0.00  0.00    +0.253 C 
ATOM     32  C   UNL A   1     -26.354   0.576  25.777  0.00  0.00    +0.191 C 
ATOM     33  F   UNL A   1     -25.860  -0.681  25.795  0.00  0.00    -0.200 F 
BRANCH  28  34
ATOM     34  C   UNL A   1     -25.642   4.093  27.123  0.00  0.00    +0.266 C 
ATOM     35  N   UNL A   1     -25.614   5.252  26.449  0.00  0.00    -0.200 NA
ATOM     36  C   UNL A   1     -25.026   6.479  26.963  0.00  0.00    +0.139 C 
ATOM     37  O   UNL A   1     -25.143   3.966  28.243  0.00  0.00    -0.268 OA
ENDBRANCH  28  34
BRANCH  31  38
ATOM     38  O   UNL A   1     -28.193  -0.208  24.477  0.00  0.00    -0.456 OA
BRANCH  38  39
ATOM     39  C   UNL A   1     -29.460   0.005  23.866  0.00  0.00    +0.243 C 
BRANCH  39  40
ATOM     40  C   UNL A   1     -30.065  -1.377  23.573  0.00  0.00    +0.229 C 
ATOM     41  O   UNL A   1     -30.729  -1.878  24.721  0.00  0.00    -0.216 OA
ENDBRANCH  39  40
ENDBRANCH  38  39
ENDBRANCH  31  38
ENDBRANCH  26  27
BRANCH  26  43
ATOM     42  C   UNL A   1     -23.046   1.925  25.194  0.00  0.00    +0.125 C 
ATOM     43  N   UNL A   1     -23.113   1.620  26.657  0.00  0.00    -0.234 N 
BRANCH  43  45
ATOM     44  N   UNL A   1     -20.998   1.915  27.989  0.00  0.00    -0.174 NA
ATOM     45  C   UNL A   1     -21.997   1.812  27.348  0.00  0.00    +0.171 C 
ENDBRANCH  43  45
ENDBRANCH  26  43
ENDBRANCH   1  26
TORSDOF 15
