REMARK  Name = outputs/IAG933/test6/raw/output_5894_IAG933_linker_design_.xyz
REMARK  7 active torsions:
REMARK  status: ('A' for Active; 'I' for Inactive)
REMARK    1  A    between atoms: C_1  and  C_2
REMARK    2  A    between atoms: C_13  and  N_33
REMARK    3  A    between atoms: C_14  and  C_15
REMARK    4  A    between atoms: C_21  and  O_22
REMARK    5  A    between atoms: O_22  and  C_23
REMARK    6  A    between atoms: C_23  and  C_24
REMARK    7  A    between atoms: C_28  and  C_38
REMARK                            x       y       z     vdW  Elec       q    Type
REMARK                         _______ _______ _______ _____ _____    ______ ____
ROOT
ATOM      1  C   UNL A   1     -24.855  -1.012  30.143  0.00  0.00    +0.115 C 
ATOM      2  C   UNL A   1     -25.387  -0.679  31.571  0.00  0.00    +0.096 C 
ATOM      3  C   UNL A   1     -25.189   0.773  32.028  0.00  0.00    +0.028 C 
ATOM      4  C   UNL A   1     -25.336   0.684  33.544  0.00  0.00    +0.021 C 
ATOM      5  C   UNL A   1     -24.829  -0.715  33.905  0.00  0.00    +0.089 C 
ATOM      6  N   UNL A   1     -24.758  -1.481  32.646  0.00  0.00    -0.217 NA
ATOM      7  C   UNL A   1     -25.072   0.220  28.164  0.00  0.00    +0.315 C 
ATOM      8  O   UNL A   1     -26.230  -0.248  28.092  0.00  0.00    -0.252 OA
ATOM      9  O   UNL A   1     -21.399   1.758  27.741  0.00  0.00    -0.168 OA
ATOM     10  N   UNL A   1     -24.713   1.171  27.190  0.00  0.00    -0.217 N 
ATOM     11  C   UNL A   1     -23.420   1.141  29.247  0.00  0.00    +0.115 C 
ATOM     12  C   UNL A   1     -22.785   1.453  28.023  0.00  0.00    +0.222 C 
ATOM     13  C   UNL A   1     -23.470   1.956  30.540  0.00  0.00    +0.032 C 
ATOM     14  N   UNL A   1     -24.280   0.032  29.236  0.00  0.00    -0.259 N 
ATOM     15  C   UNL A   1     -24.851   2.004  31.242  0.00  0.00    +0.083 C 
ATOM     16  C   UNL A   1     -23.436   1.555  26.944  0.00  0.00    +0.111 C 
ATOM     17  C   UNL A   1     -22.597   2.075  25.824  0.00  0.00    +0.234 C 
ATOM     18  O   UNL A   1     -21.262   2.193  26.345  0.00  0.00    -0.329 OA
ENDROOT
BRANCH  10  19
ATOM     19  C   UNL A   1     -25.688   1.614  26.461  0.00  0.00    +0.097 C 
ATOM     20  C   UNL A   1     -26.250   2.920  26.395  0.00  0.00    +0.091 C 
ATOM     21  C   UNL A   1     -27.438   3.091  25.645  0.00  0.00    +0.108 C 
ATOM     22  N   UNL A   1     -28.075   2.089  25.003  0.00  0.00    -0.208 NA
ATOM     23  C   UNL A   1     -27.543   0.849  25.079  0.00  0.00    +0.255 C 
ATOM     24  C   UNL A   1     -26.354   0.576  25.777  0.00  0.00    +0.207 C 
ATOM     25  F   UNL A   1     -25.860  -0.681  25.795  0.00  0.00    -0.198 F 
BRANCH  20  26
ATOM     26  C   UNL A   1     -25.642   4.093  27.123  0.00  0.00    +0.268 C 
ATOM     27  N   UNL A   1     -25.614   5.252  26.449  0.00  0.00    -0.200 NA
ATOM     28  C   UNL A   1     -25.026   6.479  26.963  0.00  0.00    +0.139 C 
ATOM     29  O   UNL A   1     -25.143   3.966  28.243  0.00  0.00    -0.268 OA
ENDBRANCH  20  26
BRANCH  23  30
ATOM     30  O   UNL A   1     -28.193  -0.208  24.477  0.00  0.00    -0.456 OA
BRANCH  30  31
ATOM     31  C   UNL A   1     -29.460   0.005  23.866  0.00  0.00    +0.243 C 
BRANCH  31  32
ATOM     32  C   UNL A   1     -30.065  -1.377  23.573  0.00  0.00    +0.229 C 
ATOM     33  O   UNL A   1     -30.729  -1.878  24.721  0.00  0.00    -0.216 OA
ENDBRANCH  31  32
ENDBRANCH  30  31
ENDBRANCH  23  30
ENDBRANCH  10  19
BRANCH   1  34
ATOM     34  C   UNL A   1     -24.973  -2.505  29.788  0.00  0.00    -0.003 C 
ATOM     35  C   UNL A   1     -23.906  -3.173  29.146  0.00  0.00    -0.003 C 
ATOM     36  C   UNL A   1     -23.989  -4.549  28.853  0.00  0.00    -0.000 C 
ATOM     37  C   UNL A   1     -25.137  -5.280  29.205  0.00  0.00    -0.000 C 
ATOM     38  C   UNL A   1     -26.232  -4.611  29.784  0.00  0.00    -0.000 C 
ATOM     39  C   UNL A   1     -26.155  -3.232  30.065  0.00  0.00    -0.003 C 
ENDBRANCH   1  34
BRANCH  15  40
ATOM     40  C   UNL A   1     -25.101   3.140  32.234  0.00  0.00    +0.260 C 
ATOM     41  O   UNL A   1     -24.143   3.828  32.620  0.00  0.00    -0.272 OA
ATOM     42  N   UNL A   1     -26.342   3.363  32.797  0.00  0.00    -0.088 NA
ENDBRANCH  15  40
TORSDOF 7
