REMARK  Name = outputs/IAG933/test6/raw/output_5895_IAG933_linker_design_.xyz
REMARK  9 active torsions:
REMARK  status: ('A' for Active; 'I' for Inactive)
REMARK    1  A    between atoms: C_1  and  C_2
REMARK    2  A    between atoms: C_1  and  C_8
REMARK    3  A    between atoms: C_1  and  C_42
REMARK    4  A    between atoms: C_13  and  C_31
REMARK    5  A    between atoms: C_14  and  C_15
REMARK    6  A    between atoms: C_21  and  O_22
REMARK    7  A    between atoms: O_22  and  C_23
REMARK    8  A    between atoms: C_23  and  C_24
REMARK    9  A    between atoms: C_39  and  C_40
REMARK                            x       y       z     vdW  Elec       q    Type
REMARK                         _______ _______ _______ _____ _____    ______ ____
ROOT
ATOM      1  C   UNL A   1     -23.448   1.454  27.108  0.00  0.00    +0.219 C 
ATOM      2  C   UNL A   1     -22.489   0.959  28.032  0.00  0.00    +0.178 C 
ATOM      3  C   UNL A   1     -24.818   1.262  27.380  0.00  0.00    +0.023 C 
ATOM      4  F   UNL A   1     -21.189   1.330  27.937  0.00  0.00    -0.201 F 
ATOM      5  C   UNL A   1     -22.984   0.180  29.068  0.00  0.00    +0.029 C 
ATOM      6  O   UNL A   1     -23.031   2.168  26.099  0.00  0.00    -0.284 OA
ATOM      7  C   UNL A   1     -25.375   0.756  28.600  0.00  0.00    -0.009 C 
ATOM      8  C   UNL A   1     -24.382  -0.011  29.216  0.00  0.00    -0.018 C 
ENDROOT
BRANCH   7  14
ATOM      9  C   UNL A   1     -29.168   3.003  29.417  0.00  0.00    +0.043 C 
ATOM     10  C   UNL A   1     -29.060   0.759  28.447  0.00  0.00    +0.003 C 
ATOM     11  N   UNL A   1     -27.143   1.802  29.648  0.00  0.00    -0.251 NA
ATOM     12  N   UNL A   1     -28.097  -0.696  29.997  0.00  0.00    -0.112 NA
ATOM     13  C   UNL A   1     -27.836   0.605  29.238  0.00  0.00    +0.160 C 
ATOM     14  C   UNL A   1     -26.731   0.995  29.077  0.00  0.00    +0.115 C 
ATOM     15  C   UNL A   1     -27.834   3.114  29.944  0.00  0.00    +0.079 C 
ATOM     16  C   UNL A   1     -29.690   1.991  28.566  0.00  0.00    -0.026 C 
ENDBRANCH   7  14
BRANCH   3  17
ATOM     17  C   UNL A   1     -25.688   1.614  26.461  0.00  0.00    +0.095 C 
ATOM     18  C   UNL A   1     -26.250   2.920  26.395  0.00  0.00    +0.059 C 
ATOM     19  C   UNL A   1     -27.438   3.091  25.645  0.00  0.00    +0.102 C 
ATOM     20  N   UNL A   1     -28.075   2.089  25.003  0.00  0.00    -0.212 NA
ATOM     21  C   UNL A   1     -27.543   0.849  25.079  0.00  0.00    +0.234 C 
ATOM     22  C   UNL A   1     -26.354   0.576  25.777  0.00  0.00    +0.244 C 
ATOM     23  F   UNL A   1     -25.860  -0.681  25.795  0.00  0.00    -0.227 F 
BRANCH  18  24
ATOM     24  C   UNL A   1     -25.642   4.093  27.123  0.00  0.00    +0.263 C 
ATOM     25  N   UNL A   1     -25.614   5.252  26.449  0.00  0.00    -0.200 NA
ATOM     26  C   UNL A   1     -25.026   6.479  26.963  0.00  0.00    +0.139 C 
ATOM     27  O   UNL A   1     -25.143   3.966  28.243  0.00  0.00    -0.269 OA
ENDBRANCH  18  24
BRANCH  21  28
ATOM     28  O   UNL A   1     -28.193  -0.208  24.477  0.00  0.00    -0.459 OA
BRANCH  28  29
ATOM     29  C   UNL A   1     -29.460   0.005  23.866  0.00  0.00    +0.242 C 
BRANCH  29  30
ATOM     30  C   UNL A   1     -30.065  -1.377  23.573  0.00  0.00    +0.229 C 
ATOM     31  O   UNL A   1     -30.729  -1.878  24.721  0.00  0.00    -0.216 OA
ENDBRANCH  29  30
ENDBRANCH  28  29
ENDBRANCH  21  28
ENDBRANCH   3  17
BRANCH   8  32
ATOM     32  C   UNL A   1     -24.855  -1.012  30.143  0.00  0.00    +0.060 C 
BRANCH  32  33
ATOM     33  C   UNL A   1     -24.973  -2.505  29.788  0.00  0.00    -0.017 C 
ATOM     34  C   UNL A   1     -23.906  -3.173  29.146  0.00  0.00    -0.004 C 
ATOM     35  C   UNL A   1     -23.989  -4.549  28.853  0.00  0.00    -0.000 C 
ATOM     36  C   UNL A   1     -25.137  -5.280  29.205  0.00  0.00    -0.000 C 
ATOM     37  C   UNL A   1     -26.232  -4.611  29.784  0.00  0.00    -0.000 C 
ATOM     38  C   UNL A   1     -26.155  -3.232  30.065  0.00  0.00    -0.004 C 
ENDBRANCH  32  33
BRANCH  32  39
ATOM     39  C   UNL A   1     -25.387  -0.679  31.571  0.00  0.00    +0.081 C 
ATOM     40  C   UNL A   1     -25.189   0.773  32.028  0.00  0.00    +0.019 C 
ATOM     41  C   UNL A   1     -25.336   0.684  33.544  0.00  0.00    +0.020 C 
ATOM     42  C   UNL A   1     -24.829  -0.715  33.905  0.00  0.00    +0.089 C 
ATOM     43  N   UNL A   1     -24.758  -1.481  32.646  0.00  0.00    -0.219 NA
ENDBRANCH  32  39
ENDBRANCH   8  32
TORSDOF 9
