REMARK  Name = outputs/IAG933/test6/raw/output_5897_IAG933_linker_design_.xyz
REMARK  9 active torsions:
REMARK  status: ('A' for Active; 'I' for Inactive)
REMARK    1  A    between atoms: C_1  and  C_2
REMARK    2  A    between atoms: C_1  and  C_8
REMARK    3  A    between atoms: C_1  and  C_32
REMARK    4  A    between atoms: C_13  and  C_37
REMARK    5  A    between atoms: C_14  and  C_15
REMARK    6  A    between atoms: C_21  and  O_22
REMARK    7  A    between atoms: O_22  and  C_23
REMARK    8  A    between atoms: C_23  and  C_24
REMARK    9  A    between atoms: C_33  and  N_35
REMARK                            x       y       z     vdW  Elec       q    Type
REMARK                         _______ _______ _______ _____ _____    ______ ____
ROOT
ATOM      1  F   UNL A   1     -21.034   1.591  27.722  0.00  0.00    -0.202 F 
ATOM      2  C   UNL A   1     -22.279   1.133  27.869  0.00  0.00    +0.167 C 
ATOM      3  C   UNL A   1     -24.078  -0.048  29.153  0.00  0.00    +0.001 C 
ATOM      4  C   UNL A   1     -24.993   0.593  28.399  0.00  0.00    +0.074 C 
ATOM      5  C   UNL A   1     -22.616   0.293  28.918  0.00  0.00    +0.029 C 
ATOM      6  C   UNL A   1     -24.598   1.289  27.216  0.00  0.00    +0.047 C 
ATOM      7  F   UNL A   1     -22.910   2.170  25.803  0.00  0.00    -0.202 F 
ATOM      8  C   UNL A   1     -23.275   1.542  26.950  0.00  0.00    +0.169 C 
ENDROOT
BRANCH   4  12
ATOM      9  C   UNL A   1     -27.627   4.002  31.248  0.00  0.00    +0.023 C 
ATOM     10  C   UNL A   1     -29.073   2.180  30.475  0.00  0.00    +0.095 C 
ATOM     11  C   UNL A   1     -29.067   3.615  30.986  0.00  0.00    +0.023 C 
ATOM     12  N   UNL A   1     -26.289   0.700  28.677  0.00  0.00    -0.162 NA
ATOM     13  O   UNL A   1     -28.004  -0.367  29.529  0.00  0.00    -0.250 OA
ATOM     14  C   UNL A   1     -26.886   3.006  30.364  0.00  0.00    +0.095 C 
ATOM     15  N   UNL A   1     -27.728   1.871  30.157  0.00  0.00    -0.263 N 
ATOM     16  C   UNL A   1     -27.319   0.638  29.422  0.00  0.00    +0.328 C 
ENDBRANCH   4  12
BRANCH   6  17
ATOM     17  C   UNL A   1     -25.688   1.614  26.461  0.00  0.00    +0.042 C 
ATOM     18  C   UNL A   1     -26.250   2.920  26.395  0.00  0.00    +0.077 C 
ATOM     19  C   UNL A   1     -27.438   3.091  25.645  0.00  0.00    +0.107 C 
ATOM     20  N   UNL A   1     -28.075   2.089  25.003  0.00  0.00    -0.208 NA
ATOM     21  C   UNL A   1     -27.543   0.849  25.079  0.00  0.00    +0.253 C 
ATOM     22  C   UNL A   1     -26.354   0.576  25.777  0.00  0.00    +0.193 C 
ATOM     23  F   UNL A   1     -25.860  -0.681  25.795  0.00  0.00    -0.199 F 
BRANCH  18  24
ATOM     24  C   UNL A   1     -25.642   4.093  27.123  0.00  0.00    +0.266 C 
ATOM     25  N   UNL A   1     -25.614   5.252  26.449  0.00  0.00    -0.200 NA
ATOM     26  C   UNL A   1     -25.026   6.479  26.963  0.00  0.00    +0.139 C 
ATOM     27  O   UNL A   1     -25.143   3.966  28.243  0.00  0.00    -0.268 OA
ENDBRANCH  18  24
BRANCH  21  28
ATOM     28  O   UNL A   1     -28.193  -0.208  24.477  0.00  0.00    -0.456 OA
BRANCH  28  29
ATOM     29  C   UNL A   1     -29.460   0.005  23.866  0.00  0.00    +0.243 C 
BRANCH  29  30
ATOM     30  C   UNL A   1     -30.065  -1.377  23.573  0.00  0.00    +0.229 C 
ATOM     31  O   UNL A   1     -30.729  -1.878  24.721  0.00  0.00    -0.216 OA
ENDBRANCH  29  30
ENDBRANCH  28  29
ENDBRANCH  21  28
ENDBRANCH   6  17
BRANCH   3  32
ATOM     32  C   UNL A   1     -24.855  -1.012  30.143  0.00  0.00    +0.062 C 
BRANCH  32  33
ATOM     33  C   UNL A   1     -24.973  -2.505  29.788  0.00  0.00    -0.017 C 
ATOM     34  C   UNL A   1     -23.906  -3.173  29.146  0.00  0.00    -0.004 C 
ATOM     35  C   UNL A   1     -23.989  -4.549  28.853  0.00  0.00    -0.000 C 
ATOM     36  C   UNL A   1     -25.137  -5.280  29.205  0.00  0.00    -0.000 C 
ATOM     37  C   UNL A   1     -26.232  -4.611  29.784  0.00  0.00    -0.000 C 
ATOM     38  C   UNL A   1     -26.155  -3.232  30.065  0.00  0.00    -0.004 C 
ENDBRANCH  32  33
BRANCH  32  39
ATOM     39  C   UNL A   1     -25.387  -0.679  31.571  0.00  0.00    +0.081 C 
ATOM     40  C   UNL A   1     -25.189   0.773  32.028  0.00  0.00    +0.019 C 
ATOM     41  C   UNL A   1     -25.336   0.684  33.544  0.00  0.00    +0.020 C 
ATOM     42  C   UNL A   1     -24.829  -0.715  33.905  0.00  0.00    +0.089 C 
ATOM     43  N   UNL A   1     -24.758  -1.481  32.646  0.00  0.00    -0.219 NA
ENDBRANCH  32  39
ENDBRANCH   3  32
TORSDOF 9
