REMARK  Name = outputs/IAG933/test6/raw/output_5899_IAG933_linker_design_.xyz
REMARK  9 active torsions:
REMARK  status: ('A' for Active; 'I' for Inactive)
REMARK    1  A    between atoms: C_1  and  C_2
REMARK    2  A    between atoms: C_13  and  N_35
REMARK    3  A    between atoms: C_14  and  C_15
REMARK    4  A    between atoms: C_21  and  O_22
REMARK    5  A    between atoms: O_22  and  C_23
REMARK    6  A    between atoms: C_23  and  C_24
REMARK    7  A    between atoms: C_28  and  O_31
REMARK    8  A    between atoms: C_28  and  C_43
REMARK    9  A    between atoms: O_31  and  C_36
REMARK                            x       y       z     vdW  Elec       q    Type
REMARK                         _______ _______ _______ _____ _____    ______ ____
ROOT
ATOM      1  C   UNL A   1     -24.855  -1.012  30.143  0.00  0.00    +0.042 C 
ATOM      2  C   UNL A   1     -25.387  -0.679  31.571  0.00  0.00    +0.081 C 
ATOM      3  C   UNL A   1     -25.189   0.773  32.028  0.00  0.00    +0.072 C 
ATOM      4  C   UNL A   1     -25.336   0.684  33.544  0.00  0.00    +0.025 C 
ATOM      5  C   UNL A   1     -24.829  -0.715  33.905  0.00  0.00    +0.089 C 
ATOM      6  N   UNL A   1     -24.758  -1.481  32.646  0.00  0.00    -0.219 NA
ATOM      7  F   UNL A   1     -21.035   1.743  26.784  0.00  0.00    -0.235 F 
ATOM      8  O   UNL A   1     -27.089   2.088  30.078  0.00  0.00    -0.196 OA
ATOM      9  N   UNL A   1     -25.075   1.919  29.776  0.00  0.00    -0.165 NA
ATOM     10  C   UNL A   1     -21.994   0.906  28.579  0.00  0.00    +0.037 C 
ATOM     11  N   UNL A   1     -24.590   1.283  27.245  0.00  0.00    -0.290 N 
ATOM     12  C   UNL A   1     -24.943   0.937  28.660  0.00  0.00    +0.151 C 
ATOM     13  C   UNL A   1     -22.201   1.452  27.215  0.00  0.00    +0.181 C 
ATOM     14  C   UNL A   1     -24.091  -0.108  29.247  0.00  0.00    +0.041 C 
ATOM     15  C   UNL A   1     -23.352   1.432  26.514  0.00  0.00    +0.127 C 
ATOM     16  C   UNL A   1     -22.737  -0.006  29.372  0.00  0.00    +0.006 C 
ATOM     17  C   UNL A   1     -25.931   1.773  30.958  0.00  0.00    +0.277 C 
ENDROOT
BRANCH  11  18
ATOM     18  C   UNL A   1     -25.688   1.614  26.461  0.00  0.00    +0.087 C 
ATOM     19  C   UNL A   1     -26.250   2.920  26.395  0.00  0.00    +0.090 C 
ATOM     20  C   UNL A   1     -27.438   3.091  25.645  0.00  0.00    +0.108 C 
ATOM     21  N   UNL A   1     -28.075   2.089  25.003  0.00  0.00    -0.208 NA
ATOM     22  C   UNL A   1     -27.543   0.849  25.079  0.00  0.00    +0.255 C 
ATOM     23  C   UNL A   1     -26.354   0.576  25.777  0.00  0.00    +0.206 C 
ATOM     24  F   UNL A   1     -25.860  -0.681  25.795  0.00  0.00    -0.198 F 
BRANCH  19  25
ATOM     25  C   UNL A   1     -25.642   4.093  27.123  0.00  0.00    +0.268 C 
ATOM     26  N   UNL A   1     -25.614   5.252  26.449  0.00  0.00    -0.200 NA
ATOM     27  C   UNL A   1     -25.026   6.479  26.963  0.00  0.00    +0.139 C 
ATOM     28  O   UNL A   1     -25.143   3.966  28.243  0.00  0.00    -0.268 OA
ENDBRANCH  19  25
BRANCH  22  29
ATOM     29  O   UNL A   1     -28.193  -0.208  24.477  0.00  0.00    -0.456 OA
BRANCH  29  30
ATOM     30  C   UNL A   1     -29.460   0.005  23.866  0.00  0.00    +0.243 C 
BRANCH  30  31
ATOM     31  C   UNL A   1     -30.065  -1.377  23.573  0.00  0.00    +0.229 C 
ATOM     32  O   UNL A   1     -30.729  -1.878  24.721  0.00  0.00    -0.216 OA
ENDBRANCH  30  31
ENDBRANCH  29  30
ENDBRANCH  22  29
ENDBRANCH  11  18
BRANCH   1  33
ATOM     33  C   UNL A   1     -24.973  -2.505  29.788  0.00  0.00    -0.021 C 
ATOM     34  C   UNL A   1     -23.906  -3.173  29.146  0.00  0.00    -0.004 C 
ATOM     35  C   UNL A   1     -23.989  -4.549  28.853  0.00  0.00    -0.000 C 
ATOM     36  C   UNL A   1     -25.137  -5.280  29.205  0.00  0.00    -0.000 C 
ATOM     37  C   UNL A   1     -26.232  -4.611  29.784  0.00  0.00    -0.000 C 
ATOM     38  C   UNL A   1     -26.155  -3.232  30.065  0.00  0.00    -0.004 C 
ENDBRANCH   1  33
BRANCH  17  39
ATOM     39  C   UNL A   1     -26.272   2.848  32.018  0.00  0.00    +0.361 C 
ATOM     40  O   UNL A   1     -27.063   2.845  32.846  0.00  0.00    -0.246 OA
BRANCH  39  41
ATOM     41  O   UNL A   1     -25.018   3.516  32.175  0.00  0.00    -0.446 OA
BRANCH  41  43
ATOM     42  C   UNL A   1     -25.982   5.386  33.695  0.00  0.00    +0.051 C 
ATOM     43  C   UNL A   1     -25.136   4.971  32.479  0.00  0.00    +0.209 C 
ENDBRANCH  41  43
ENDBRANCH  39  41
ENDBRANCH  17  39
TORSDOF 9
