MODEL 589
MODEL 1
REMARK VINA RESULT:    -5.190      0.000      0.000
REMARK INTER + INTRA:          -5.700
REMARK INTER:                  -5.494
REMARK INTRA:                  -0.206
REMARK UNBOUND:                -0.206
REMARK  Name = No_589-gen_results/8p0m/2024-11-27-11-27-31/
REMARK  1 active torsions:
REMARK  status: ('A' for Active; 'I' for Inactive)
REMARK    1  A    between atoms: C_3  and  C_7
REMARK                            x       y       z     vdW  Elec       q    Type
REMARK                         _______ _______ _______ _____ _____    ______ ____
ROOT
ATOM      1  C   UNL A   1     -23.869  -3.984  28.617  0.00  0.00    +0.004 A 
ATOM      2  C   UNL A   1     -24.413  -4.875  28.758  0.00  0.00    -0.000 A 
ATOM      3  C   UNL A   1     -24.450  -2.779  29.069  0.00  0.00    +0.071 A 
ATOM      4  C   UNL A   1     -25.694  -2.746  29.667  0.00  0.00    +0.004 A 
ATOM      5  C   UNL A   1     -26.337  -3.964  29.819  0.00  0.00    -0.000 A 
ATOM      6  C   UNL A   1     -25.716  -5.119  29.396  0.00  0.00    -0.000 A 
ENDROOT
BRANCH   3   7
ATOM      7  C   UNL A   1     -23.776  -1.444  28.952  0.00  0.00    +0.419 C 
ATOM      8  F   UNL A   1     -24.110  -0.909  27.875  0.00  0.00    -0.166 F 
ATOM      9  F   UNL A   1     -24.126  -0.664  29.988  0.00  0.00    -0.166 F 
ATOM     10  F   UNL A   1     -22.420  -1.566  28.924  0.00  0.00    -0.166 F 
ENDBRANCH   3   7
TORSDOF 1
ENDMDL
ENDMDL
