REMARK  Name = outputs/IAG933/test6/raw/output_5901_IAG933_linker_design_.xyz
REMARK  17 active torsions:
REMARK  status: ('A' for Active; 'I' for Inactive)
REMARK    1  A    between atoms: C_1  and  C_2
REMARK    2  A    between atoms: C_1  and  C_8
REMARK    3  A    between atoms: C_1  and  N_30
REMARK    4  A    between atoms: C_14  and  C_15
REMARK    5  A    between atoms: C_15  and  O_18
REMARK    6  A    between atoms: O_18  and  C_40
REMARK    7  A    between atoms: C_21  and  O_22
REMARK    8  A    between atoms: O_22  and  C_23
REMARK    9  A    between atoms: C_23  and  C_24
REMARK   10  A    between atoms: O_29  and  C_37
REMARK   11  A    between atoms: O_29  and  C_40
REMARK   12  A    between atoms: N_30  and  C_37
REMARK   13  A    between atoms: C_32  and  C_34
REMARK   14  A    between atoms: C_32  and  C_40
REMARK   15  A    between atoms: N_33  and  C_37
REMARK   16  A    between atoms: C_34  and  N_43
REMARK   17  A    between atoms: C_35  and  N_43
REMARK                            x       y       z     vdW  Elec       q    Type
REMARK                         _______ _______ _______ _____ _____    ______ ____
ROOT
ATOM      1  C   UNL A   1     -25.453   3.161  29.303  0.00  0.00    +0.293 C 
ENDROOT
BRANCH   1   2
ATOM      2  O   UNL A   1     -25.143   3.966  28.243  0.00  0.00    -0.436 OA
BRANCH   2   3
ATOM      3  C   UNL A   1     -25.642   4.093  27.123  0.00  0.00    +0.224 C 
ATOM      4  N   UNL A   1     -25.614   5.252  26.449  0.00  0.00    -0.236 NA
ATOM      5  C   UNL A   1     -25.026   6.479  26.963  0.00  0.00    +0.155 C 
BRANCH   3   7
ATOM      6  C   UNL A   1     -25.688   1.614  26.461  0.00  0.00    +0.041 C 
ATOM      7  C   UNL A   1     -26.250   2.920  26.395  0.00  0.00    +0.074 C 
ATOM      8  C   UNL A   1     -27.438   3.091  25.645  0.00  0.00    +0.107 C 
ATOM      9  N   UNL A   1     -28.075   2.089  25.003  0.00  0.00    -0.208 NA
ATOM     10  C   UNL A   1     -27.543   0.849  25.079  0.00  0.00    +0.253 C 
ATOM     11  C   UNL A   1     -26.354   0.576  25.777  0.00  0.00    +0.193 C 
ATOM     12  F   UNL A   1     -25.860  -0.681  25.795  0.00  0.00    -0.199 F 
BRANCH  10  13
ATOM     13  O   UNL A   1     -28.193  -0.208  24.477  0.00  0.00    -0.456 OA
BRANCH  13  14
ATOM     14  C   UNL A   1     -29.460   0.005  23.866  0.00  0.00    +0.243 C 
BRANCH  14  15
ATOM     15  C   UNL A   1     -30.065  -1.377  23.573  0.00  0.00    +0.229 C 
ATOM     16  O   UNL A   1     -30.729  -1.878  24.721  0.00  0.00    -0.216 OA
ENDBRANCH  14  15
ENDBRANCH  13  14
ENDBRANCH  10  13
ENDBRANCH   3   7
ENDBRANCH   2   3
ENDBRANCH   1   2
BRANCH   1  17
ATOM     17  O   UNL A   1     -24.393   2.273  29.850  0.00  0.00    -0.287 OA
BRANCH  17  18
ATOM     18  C   UNL A   1     -23.455   1.029  29.834  0.00  0.00    +0.299 C 
BRANCH  18  20
ATOM     19  N   UNL A   1     -20.709   1.455  27.468  0.00  0.00    -0.068 NA
ATOM     20  N   UNL A   1     -22.123   0.849  29.140  0.00  0.00    -0.141 NA
ATOM     21  C   UNL A   1     -21.829   1.745  28.200  0.00  0.00    +0.362 C 
ATOM     22  O   UNL A   1     -22.562   2.795  28.004  0.00  0.00    -0.247 OA
ENDBRANCH  18  20
BRANCH  18  23
ATOM     23  N   UNL A   1     -24.294  -0.014  29.254  0.00  0.00    -0.168 NA
BRANCH  23  24
ATOM     24  C   UNL A   1     -24.855  -1.012  30.143  0.00  0.00    +0.115 C 
BRANCH  24  25
ATOM     25  C   UNL A   1     -24.973  -2.505  29.788  0.00  0.00    -0.005 C 
ATOM     26  C   UNL A   1     -23.906  -3.173  29.146  0.00  0.00    -0.003 C 
ATOM     27  C   UNL A   1     -23.989  -4.549  28.853  0.00  0.00    -0.000 C 
ATOM     28  C   UNL A   1     -25.137  -5.280  29.205  0.00  0.00    -0.000 C 
ATOM     29  C   UNL A   1     -26.232  -4.611  29.784  0.00  0.00    -0.000 C 
ATOM     30  C   UNL A   1     -26.155  -3.232  30.065  0.00  0.00    -0.003 C 
ENDBRANCH  24  25
BRANCH  24  31
ATOM     31  C   UNL A   1     -25.387  -0.679  31.571  0.00  0.00    +0.093 C 
ATOM     32  C   UNL A   1     -25.189   0.773  32.028  0.00  0.00    +0.021 C 
ATOM     33  C   UNL A   1     -25.336   0.684  33.544  0.00  0.00    +0.020 C 
ATOM     34  C   UNL A   1     -24.829  -0.715  33.905  0.00  0.00    +0.089 C 
ATOM     35  N   UNL A   1     -24.758  -1.481  32.646  0.00  0.00    -0.218 NA
ENDBRANCH  24  31
ENDBRANCH  23  24
ENDBRANCH  18  23
ENDBRANCH  17  18
ENDBRANCH   1  17
BRANCH   1  36
ATOM     36  C   UNL A   1     -26.469   3.853  30.317  0.00  0.00    +0.095 C 
BRANCH  36  37
ATOM     37  C   UNL A   1     -27.903   3.467  29.962  0.00  0.00    +0.095 C 
BRANCH  37  38
ATOM     38  N   UNL A   1     -27.956   2.082  29.918  0.00  0.00    -0.217 NA
BRANCH  38  40
ATOM     39  C   UNL A   1     -31.013  -0.110  27.901  0.00  0.00    +0.142 C 
ATOM     40  C   UNL A   1     -28.752   1.412  28.941  0.00  0.00    +0.102 C 
ATOM     41  O   UNL A   1     -29.598  -0.471  27.721  0.00  0.00    -0.352 OA
ATOM     42  C   UNL A   1     -30.143   2.123  28.880  0.00  0.00    +0.022 C 
ATOM     43  C   UNL A   1     -31.245   1.116  28.759  0.00  0.00    +0.034 C 
ATOM     44  C   UNL A   1     -28.821  -0.129  28.922  0.00  0.00    +0.159 C 
ENDBRANCH  38  40
ENDBRANCH  37  38
ENDBRANCH  36  37
ENDBRANCH   1  36
TORSDOF 17
