REMARK  Name = outputs/IAG933/test6/raw/output_5902_IAG933_linker_design_.xyz
REMARK  19 active torsions:
REMARK  status: ('A' for Active; 'I' for Inactive)
REMARK    1  A    between atoms: C_1  and  C_2
REMARK    2  A    between atoms: C_1  and  C_8
REMARK    3  A    between atoms: C_1  and  C_32
REMARK    4  A    between atoms: C_13  and  O_31
REMARK    5  A    between atoms: C_14  and  C_15
REMARK    6  A    between atoms: C_21  and  O_22
REMARK    7  A    between atoms: O_22  and  C_23
REMARK    8  A    between atoms: C_23  and  C_24
REMARK    9  A    between atoms: C_29  and  C_41
REMARK   10  A    between atoms: O_31  and  C_43
REMARK   11  A    between atoms: C_32  and  N_36
REMARK   12  A    between atoms: C_32  and  C_43
REMARK   13  A    between atoms: C_33  and  C_39
REMARK   14  A    between atoms: C_33  and  C_44
REMARK   15  A    between atoms: C_37  and  C_44
REMARK   16  A    between atoms: C_38  and  C_39
REMARK   17  A    between atoms: C_38  and  C_40
REMARK   18  A    between atoms: C_40  and  O_42
REMARK   19  A    between atoms: C_41  and  C_43
REMARK                            x       y       z     vdW  Elec       q    Type
REMARK                         _______ _______ _______ _____ _____    ______ ____
ROOT
ATOM      1  C   UNL A   1     -25.536   0.066  29.164  0.00  0.00    +0.143 C 
ENDROOT
BRANCH   1   3
ATOM      2  O   UNL A   1     -28.413  -1.414  29.883  0.00  0.00    -0.273 OA
ATOM      3  N   UNL A   1     -26.907  -0.238  28.633  0.00  0.00    -0.203 NA
ATOM      4  C   UNL A   1     -28.121  -0.352  29.331  0.00  0.00    +0.241 C 
BRANCH   4   5
ATOM      5  C   UNL A   1     -29.069   0.810  29.274  0.00  0.00    +0.087 C 
BRANCH   5   6
ATOM      6  C   UNL A   1     -30.369   0.887  28.408  0.00  0.00    +0.010 C 
BRANCH   6   7
ATOM      7  C   UNL A   1     -30.707  -0.517  28.212  0.00  0.00    +0.003 C 
BRANCH   7   8
ATOM      8  C   UNL A   1     -31.430  -1.023  29.437  0.00  0.00    +0.032 C 
BRANCH   8   9
ATOM      9  C   UNL A   1     -31.513  -0.234  30.772  0.00  0.00    +0.142 C 
BRANCH   9  11
ATOM     10  C   UNL A   1     -32.374   2.119  30.762  0.00  0.00    +0.174 C 
ATOM     11  O   UNL A   1     -32.586   0.673  30.639  0.00  0.00    -0.351 OA
ENDBRANCH   9  11
ENDBRANCH   8   9
ENDBRANCH   7   8
ENDBRANCH   6   7
ENDBRANCH   5   6
ENDBRANCH   4   5
ENDBRANCH   1   3
BRANCH   1  12
ATOM     12  C   UNL A   1     -24.855  -1.012  30.143  0.00  0.00    +0.062 C 
BRANCH  12  13
ATOM     13  C   UNL A   1     -24.973  -2.505  29.788  0.00  0.00    -0.019 C 
ATOM     14  C   UNL A   1     -23.906  -3.173  29.146  0.00  0.00    -0.004 C 
ATOM     15  C   UNL A   1     -23.989  -4.549  28.853  0.00  0.00    -0.000 C 
ATOM     16  C   UNL A   1     -25.137  -5.280  29.205  0.00  0.00    -0.000 C 
ATOM     17  C   UNL A   1     -26.232  -4.611  29.784  0.00  0.00    -0.000 C 
ATOM     18  C   UNL A   1     -26.155  -3.232  30.065  0.00  0.00    -0.004 C 
ENDBRANCH  12  13
BRANCH  12  19
ATOM     19  C   UNL A   1     -25.387  -0.679  31.571  0.00  0.00    +0.079 C 
ATOM     20  C   UNL A   1     -25.189   0.773  32.028  0.00  0.00    +0.019 C 
ATOM     21  C   UNL A   1     -25.336   0.684  33.544  0.00  0.00    +0.020 C 
ATOM     22  C   UNL A   1     -24.829  -0.715  33.905  0.00  0.00    +0.089 C 
ATOM     23  N   UNL A   1     -24.758  -1.481  32.646  0.00  0.00    -0.219 NA
ENDBRANCH  12  19
ENDBRANCH   1  12
BRANCH   1  24
ATOM     24  C   UNL A   1     -24.296   0.730  28.217  0.00  0.00    +0.216 C 
BRANCH  24  26
ATOM     25  O   UNL A   1     -22.244  -0.010  29.573  0.00  0.00    -0.219 OA
ATOM     26  C   UNL A   1     -22.974   0.533  28.312  0.00  0.00    +0.193 C 
BRANCH  26  27
ATOM     27  C   UNL A   1     -22.229   1.813  27.895  0.00  0.00    +0.037 C 
ATOM     28  C   UNL A   1     -20.885   1.501  27.245  0.00  0.00    +0.003 C 
ENDBRANCH  26  27
ENDBRANCH  24  26
BRANCH  24  29
ATOM     29  O   UNL A   1     -24.423   1.496  26.943  0.00  0.00    -0.472 OA
BRANCH  29  30
ATOM     30  C   UNL A   1     -25.688   1.614  26.461  0.00  0.00    +0.176 C 
ATOM     31  C   UNL A   1     -26.250   2.920  26.395  0.00  0.00    +0.111 C 
ATOM     32  C   UNL A   1     -27.438   3.091  25.645  0.00  0.00    +0.110 C 
ATOM     33  N   UNL A   1     -28.075   2.089  25.003  0.00  0.00    -0.208 NA
ATOM     34  C   UNL A   1     -27.543   0.849  25.079  0.00  0.00    +0.256 C 
ATOM     35  C   UNL A   1     -26.354   0.576  25.777  0.00  0.00    +0.227 C 
ATOM     36  F   UNL A   1     -25.860  -0.681  25.795  0.00  0.00    -0.196 F 
BRANCH  31  37
ATOM     37  C   UNL A   1     -25.642   4.093  27.123  0.00  0.00    +0.269 C 
ATOM     38  N   UNL A   1     -25.614   5.252  26.449  0.00  0.00    -0.200 NA
ATOM     39  C   UNL A   1     -25.026   6.479  26.963  0.00  0.00    +0.139 C 
ATOM     40  O   UNL A   1     -25.143   3.966  28.243  0.00  0.00    -0.268 OA
ENDBRANCH  31  37
BRANCH  34  41
ATOM     41  O   UNL A   1     -28.193  -0.208  24.477  0.00  0.00    -0.456 OA
BRANCH  41  42
ATOM     42  C   UNL A   1     -29.460   0.005  23.866  0.00  0.00    +0.243 C 
BRANCH  42  43
ATOM     43  C   UNL A   1     -30.065  -1.377  23.573  0.00  0.00    +0.229 C 
ATOM     44  O   UNL A   1     -30.729  -1.878  24.721  0.00  0.00    -0.216 OA
ENDBRANCH  42  43
ENDBRANCH  41  42
ENDBRANCH  34  41
ENDBRANCH  29  30
ENDBRANCH  24  29
ENDBRANCH   1  24
TORSDOF 19
