REMARK  Name = outputs/IAG933/test6/raw/output_5904_IAG933_linker_design_.xyz
REMARK  12 active torsions:
REMARK  status: ('A' for Active; 'I' for Inactive)
REMARK    1  A    between atoms: C_1  and  C_2
REMARK    2  A    between atoms: C_1  and  C_8
REMARK    3  A    between atoms: C_1  and  N_29
REMARK    4  A    between atoms: C_13  and  N_38
REMARK    5  A    between atoms: C_14  and  C_15
REMARK    6  A    between atoms: C_21  and  O_22
REMARK    7  A    between atoms: O_22  and  C_23
REMARK    8  A    between atoms: C_23  and  C_24
REMARK    9  A    between atoms: C_30  and  C_39
REMARK   10  A    between atoms: N_32  and  C_34
REMARK   11  A    between atoms: N_32  and  C_43
REMARK   12  A    between atoms: C_34  and  C_39
REMARK                            x       y       z     vdW  Elec       q    Type
REMARK                         _______ _______ _______ _____ _____    ______ ____
ROOT
ATOM      1  N   UNL A   1     -24.546   0.136  29.320  0.00  0.00    -0.211 NA
ATOM      2  F   UNL A   1     -22.419  -0.353  28.665  0.00  0.00    -0.216 F 
ATOM      3  C   UNL A   1     -23.196   0.678  29.133  0.00  0.00    +0.260 C 
ATOM      4 CL   UNL A   1     -22.992   2.183  25.654  0.00  0.00    -0.090 Cl
ATOM      5  C   UNL A   1     -23.527   1.774  27.212  0.00  0.00    +0.193 C 
ATOM      6  N   UNL A   1     -24.818   1.405  27.366  0.00  0.00    -0.269 N 
ATOM      7  C   UNL A   1     -22.708   1.851  28.271  0.00  0.00    +0.242 C 
ATOM      8  F   UNL A   1     -21.447   1.898  27.935  0.00  0.00    -0.230 F 
ATOM      9  C   UNL A   1     -25.353   0.832  28.574  0.00  0.00    +0.217 C 
ENDROOT
BRANCH   6  10
ATOM     10  C   UNL A   1     -25.688   1.614  26.461  0.00  0.00    +0.072 C 
ATOM     11  C   UNL A   1     -26.250   2.920  26.395  0.00  0.00    +0.070 C 
ATOM     12  C   UNL A   1     -27.438   3.091  25.645  0.00  0.00    +0.160 C 
ATOM     13  N   UNL A   1     -28.075   2.089  25.003  0.00  0.00    -0.234 NA
ATOM     14  C   UNL A   1     -27.543   0.849  25.079  0.00  0.00    +0.235 C 
ATOM     15  C   UNL A   1     -26.354   0.576  25.777  0.00  0.00    +0.271 C 
ATOM     16  F   UNL A   1     -25.860  -0.681  25.795  0.00  0.00    -0.221 F 
BRANCH  11  17
ATOM     17  C   UNL A   1     -25.642   4.093  27.123  0.00  0.00    +0.264 C 
ATOM     18  N   UNL A   1     -25.614   5.252  26.449  0.00  0.00    -0.200 NA
ATOM     19  C   UNL A   1     -25.026   6.479  26.963  0.00  0.00    +0.139 C 
ATOM     20  O   UNL A   1     -25.143   3.966  28.243  0.00  0.00    -0.269 OA
ENDBRANCH  11  17
BRANCH  14  21
ATOM     21  O   UNL A   1     -28.193  -0.208  24.477  0.00  0.00    -0.459 OA
BRANCH  21  22
ATOM     22  C   UNL A   1     -29.460   0.005  23.866  0.00  0.00    +0.242 C 
BRANCH  22  23
ATOM     23  C   UNL A   1     -30.065  -1.377  23.573  0.00  0.00    +0.229 C 
ATOM     24  O   UNL A   1     -30.729  -1.878  24.721  0.00  0.00    -0.216 OA
ENDBRANCH  22  23
ENDBRANCH  21  22
ENDBRANCH  14  21
ENDBRANCH   6  10
BRANCH   1  25
ATOM     25  C   UNL A   1     -24.855  -1.012  30.143  0.00  0.00    +0.101 C 
BRANCH  25  26
ATOM     26  C   UNL A   1     -24.973  -2.505  29.788  0.00  0.00    -0.006 C 
ATOM     27  C   UNL A   1     -23.906  -3.173  29.146  0.00  0.00    -0.003 C 
ATOM     28  C   UNL A   1     -23.989  -4.549  28.853  0.00  0.00    -0.000 C 
ATOM     29  C   UNL A   1     -25.137  -5.280  29.205  0.00  0.00    -0.000 C 
ATOM     30  C   UNL A   1     -26.232  -4.611  29.784  0.00  0.00    -0.000 C 
ATOM     31  C   UNL A   1     -26.155  -3.232  30.065  0.00  0.00    -0.003 C 
ENDBRANCH  25  26
BRANCH  25  32
ATOM     32  C   UNL A   1     -25.387  -0.679  31.571  0.00  0.00    +0.092 C 
ATOM     33  C   UNL A   1     -25.189   0.773  32.028  0.00  0.00    +0.021 C 
ATOM     34  C   UNL A   1     -25.336   0.684  33.544  0.00  0.00    +0.020 C 
ATOM     35  C   UNL A   1     -24.829  -0.715  33.905  0.00  0.00    +0.089 C 
ATOM     36  N   UNL A   1     -24.758  -1.481  32.646  0.00  0.00    -0.218 NA
ENDBRANCH  25  32
ENDBRANCH   1  25
BRANCH   9  37
ATOM     37  N   UNL A   1     -26.810   0.686  29.072  0.00  0.00    -0.186 NA
BRANCH  37  38
ATOM     38  C   UNL A   1     -28.001   1.362  29.698  0.00  0.00    +0.087 C 
ATOM     39  C   UNL A   1     -28.774   1.003  30.972  0.00  0.00    +0.019 C 
BRANCH  38  40
ATOM     40  C   UNL A   1     -28.974   1.706  28.566  0.00  0.00    +0.132 C 
BRANCH  40  42
ATOM     41  O   UNL A   1     -29.184  -0.684  28.373  0.00  0.00    -0.246 OA
ATOM     42  C   UNL A   1     -29.469   0.436  27.936  0.00  0.00    +0.366 C 
ATOM     43  O   UNL A   1     -30.204   0.587  26.919  0.00  0.00    -0.246 OA
ENDBRANCH  40  42
ENDBRANCH  38  40
ENDBRANCH  37  38
ENDBRANCH   9  37
TORSDOF 12
