REMARK  Name = outputs/IAG933/test6/raw/output_5906_IAG933_linker_design_.xyz
REMARK  12 active torsions:
REMARK  status: ('A' for Active; 'I' for Inactive)
REMARK    1  A    between atoms: C_1  and  C_2
REMARK    2  A    between atoms: C_1  and  C_8
REMARK    3  A    between atoms: C_1  and  C_31
REMARK    4  A    between atoms: C_13  and  C_38
REMARK    5  A    between atoms: C_14  and  C_15
REMARK    6  A    between atoms: C_15  and  O_18
REMARK    7  A    between atoms: O_18  and  C_39
REMARK    8  A    between atoms: C_21  and  O_22
REMARK    9  A    between atoms: O_22  and  C_23
REMARK   10  A    between atoms: C_23  and  C_24
REMARK   11  A    between atoms: C_31  and  C_37
REMARK   12  A    between atoms: C_34  and  C_43
REMARK                            x       y       z     vdW  Elec       q    Type
REMARK                         _______ _______ _______ _____ _____    ______ ____
ROOT
ATOM      1  C   UNL A   1     -23.469   1.219  27.616  0.00  0.00    -0.021 C 
ATOM      2  C   UNL A   1     -23.564   0.595  28.732  0.00  0.00    -0.024 C 
ATOM      3  C   UNL A   1     -21.144   0.473  28.854  0.00  0.00    -0.001 C 
ATOM      4  C   UNL A   1     -21.117   1.177  27.649  0.00  0.00    +0.001 C 
ATOM      5  C   UNL A   1     -22.331   0.093  29.434  0.00  0.00    -0.004 C 
ATOM      6  C   UNL A   1     -22.332   1.560  26.974  0.00  0.00    +0.037 C 
ATOM      7  C   UNL A   1     -25.053   0.956  28.788  0.00  0.00    +0.048 C 
ATOM      8  C   UNL A   1     -24.730   1.273  27.380  0.00  0.00    +0.052 C 
ENDROOT
BRANCH   8   9
ATOM      9  C   UNL A   1     -25.688   1.614  26.461  0.00  0.00    +0.020 C 
ATOM     10  C   UNL A   1     -26.250   2.920  26.395  0.00  0.00    +0.071 C 
ATOM     11  C   UNL A   1     -27.438   3.091  25.645  0.00  0.00    +0.106 C 
ATOM     12  N   UNL A   1     -28.075   2.089  25.003  0.00  0.00    -0.208 NA
ATOM     13  C   UNL A   1     -27.543   0.849  25.079  0.00  0.00    +0.253 C 
ATOM     14  C   UNL A   1     -26.354   0.576  25.777  0.00  0.00    +0.189 C 
ATOM     15  F   UNL A   1     -25.860  -0.681  25.795  0.00  0.00    -0.200 F 
BRANCH  10  16
ATOM     16  C   UNL A   1     -25.642   4.093  27.123  0.00  0.00    +0.233 C 
ATOM     17  N   UNL A   1     -25.614   5.252  26.449  0.00  0.00    -0.235 NA
ATOM     18  C   UNL A   1     -25.026   6.479  26.963  0.00  0.00    +0.155 C 
BRANCH  16  19
ATOM     19  O   UNL A   1     -25.143   3.966  28.243  0.00  0.00    -0.373 OA
BRANCH  19  22
ATOM     20  O   UNL A   1     -24.697   3.403  30.300  0.00  0.00    -0.200 OA
ATOM     21  O   UNL A   1     -26.709   2.756  29.718  0.00  0.00    -0.200 OA
ATOM     22  C   UNL A   1     -25.574   3.335  29.483  0.00  0.00    +0.558 C 
ENDBRANCH  19  22
ENDBRANCH  16  19
ENDBRANCH  10  16
BRANCH  13  23
ATOM     23  O   UNL A   1     -28.193  -0.208  24.477  0.00  0.00    -0.456 OA
BRANCH  23  24
ATOM     24  C   UNL A   1     -29.460   0.005  23.866  0.00  0.00    +0.243 C 
BRANCH  24  25
ATOM     25  C   UNL A   1     -30.065  -1.377  23.573  0.00  0.00    +0.229 C 
ATOM     26  O   UNL A   1     -30.729  -1.878  24.721  0.00  0.00    -0.216 OA
ENDBRANCH  24  25
ENDBRANCH  23  24
ENDBRANCH  13  23
ENDBRANCH   8   9
BRANCH   6  29
ATOM     27  F   UNL A   1     -21.376   2.281  25.486  0.00  0.00    -0.196 F 
ATOM     28  O   UNL A   1     -23.584   1.887  24.971  0.00  0.00    -0.179 OA
ATOM     29  C   UNL A   1     -22.554   2.383  25.785  0.00  0.00    +0.332 C 
ENDBRANCH   6  29
BRANCH   7  30
ATOM     30  C   UNL A   1     -25.881  -0.258  29.173  0.00  0.00    +0.102 C 
ATOM     31  N   UNL A   1     -27.304  -0.010  29.267  0.00  0.00    -0.132 NA
BRANCH  30  32
ATOM     32  C   UNL A   1     -24.855  -1.012  30.143  0.00  0.00    +0.056 C 
BRANCH  32  33
ATOM     33  C   UNL A   1     -24.973  -2.505  29.788  0.00  0.00    -0.020 C 
ATOM     34  C   UNL A   1     -23.906  -3.173  29.146  0.00  0.00    -0.004 C 
ATOM     35  C   UNL A   1     -23.989  -4.549  28.853  0.00  0.00    -0.000 C 
ATOM     36  C   UNL A   1     -25.137  -5.280  29.205  0.00  0.00    -0.000 C 
ATOM     37  C   UNL A   1     -26.232  -4.611  29.784  0.00  0.00    -0.000 C 
ATOM     38  C   UNL A   1     -26.155  -3.232  30.065  0.00  0.00    -0.004 C 
ENDBRANCH  32  33
BRANCH  32  39
ATOM     39  C   UNL A   1     -25.387  -0.679  31.571  0.00  0.00    +0.078 C 
ATOM     40  C   UNL A   1     -25.189   0.773  32.028  0.00  0.00    +0.019 C 
ATOM     41  C   UNL A   1     -25.336   0.684  33.544  0.00  0.00    +0.020 C 
ATOM     42  C   UNL A   1     -24.829  -0.715  33.905  0.00  0.00    +0.089 C 
ATOM     43  N   UNL A   1     -24.758  -1.481  32.646  0.00  0.00    -0.219 NA
ENDBRANCH  32  39
ENDBRANCH  30  32
ENDBRANCH   7  30
TORSDOF 12
