MODEL 590
MODEL 1
REMARK VINA RESULT:    -6.477      0.000      0.000
REMARK INTER + INTRA:          -7.964
REMARK INTER:                  -7.613
REMARK INTRA:                  -0.351
REMARK UNBOUND:                -0.351
REMARK  Name = No_590-gen_results/8p0m/2024-11-27-11-27-31/
REMARK  3 active torsions:
REMARK  status: ('A' for Active; 'I' for Inactive)
REMARK    1  A    between atoms: C_2  and  C_7
REMARK    2  A    between atoms: N_9  and  C_10
REMARK    3  A    between atoms: C_13  and  C_16
REMARK                            x       y       z     vdW  Elec       q    Type
REMARK                         _______ _______ _______ _____ _____    ______ ____
ROOT
ATOM      1  C   UNL A   1     -10.207   1.525  34.401  0.00  0.00    +0.074 A 
ATOM      2  C   UNL A   1     -11.045   1.153  33.989  0.00  0.00    +0.017 A 
ATOM      3  C   UNL A   1     -12.472   1.562  34.276  0.00  0.00    +0.005 A 
ATOM      4  C   UNL A   1     -12.560   2.621  35.201  0.00  0.00    +0.071 A 
ATOM      5  C   UNL A   1     -11.410   3.157  35.717  0.00  0.00    +0.005 A 
ATOM      6  C   UNL A   1     -10.203   2.649  35.441  0.00  0.00    +0.017 A 
ENDROOT
BRANCH   4   7
ATOM      7  C   UNL A   1     -13.919   3.114  35.543  0.00  0.00    +0.419 C 
ATOM      8  F   UNL A   1     -14.644   3.338  34.870  0.00  0.00    -0.166 F 
ATOM      9  F   UNL A   1     -14.310   2.197  36.572  0.00  0.00    -0.166 F 
ATOM     10  F   UNL A   1     -13.662   4.216  36.357  0.00  0.00    -0.166 F 
ENDBRANCH   4   7
BRANCH   1  13
ATOM     11  C   UNL A   1      -8.319   0.147  35.037  0.00  0.00    +0.269 C 
ATOM     12  O   UNL A   1      -8.848  -0.299  35.908  0.00  0.00    -0.268 OA
ATOM     13  N   UNL A   1      -8.863   1.100  34.170  0.00  0.00    -0.175 NA
BRANCH  11  15
ATOM     14  C   UNL A   1      -6.057   0.419  34.920  0.00  0.00    +0.005 A 
ATOM     15  C   UNL A   1      -6.795  -0.333  34.876  0.00  0.00    +0.055 A 
ATOM     16  C   UNL A   1      -4.632  -0.058  34.752  0.00  0.00    +0.000 A 
ATOM     17  C   UNL A   1      -4.389  -1.406  34.413  0.00  0.00    +0.000 A 
ATOM     18  C   UNL A   1      -6.814  -1.767  34.510  0.00  0.00    +0.005 A 
ATOM     19  C   UNL A   1      -5.520  -2.240  34.342  0.00  0.00    +0.000 A 
ENDBRANCH  11  15
ENDBRANCH   1  13
TORSDOF 3
ENDMDL
ENDMDL
