REMARK  Name = outputs/IAG933/test6/raw/output_5912_IAG933_linker_design_.xyz
REMARK  10 active torsions:
REMARK  status: ('A' for Active; 'I' for Inactive)
REMARK    1  A    between atoms: C_1  and  C_2
REMARK    2  A    between atoms: C_1  and  C_8
REMARK    3  A    between atoms: C_1  and  C_41
REMARK    4  A    between atoms: C_13  and  N_39
REMARK    5  A    between atoms: C_14  and  C_15
REMARK    6  A    between atoms: C_21  and  O_22
REMARK    7  A    between atoms: O_22  and  C_23
REMARK    8  A    between atoms: C_23  and  C_24
REMARK    9  A    between atoms: C_31  and  C_37
REMARK   10  A    between atoms: C_37  and  C_45
REMARK                            x       y       z     vdW  Elec       q    Type
REMARK                         _______ _______ _______ _____ _____    ______ ____
ROOT
ATOM      1  O   UNL A   1     -21.127   1.749  25.956  0.00  0.00    -0.468 OA
ATOM      2  C   UNL A   1     -23.572   1.495  27.006  0.00  0.00    +0.047 C 
ATOM      3  C   UNL A   1     -22.899   0.424  29.076  0.00  0.00    +0.033 C 
ATOM      4  C   UNL A   1     -23.398   2.169  25.741  0.00  0.00    +0.035 C 
ATOM      5  C   UNL A   1     -22.128   2.295  25.202  0.00  0.00    +0.233 C 
ATOM      6  N   UNL A   1     -24.855   1.188  27.263  0.00  0.00    -0.298 N 
ATOM      7  C   UNL A   1     -21.333   1.256  27.177  0.00  0.00    +0.170 C 
ATOM      8  C   UNL A   1     -24.338   0.025  29.209  0.00  0.00    +0.036 C 
ATOM      9  C   UNL A   1     -22.580   1.064  27.791  0.00  0.00    +0.028 C 
ATOM     10  C   UNL A   1     -25.319   0.643  28.355  0.00  0.00    +0.136 C 
ENDROOT
BRANCH   6  11
ATOM     11  C   UNL A   1     -25.688   1.614  26.461  0.00  0.00    +0.144 C 
ATOM     12  C   UNL A   1     -26.250   2.920  26.395  0.00  0.00    +0.073 C 
ATOM     13  C   UNL A   1     -27.438   3.091  25.645  0.00  0.00    +0.104 C 
ATOM     14  N   UNL A   1     -28.075   2.089  25.003  0.00  0.00    -0.212 NA
ATOM     15  C   UNL A   1     -27.543   0.849  25.079  0.00  0.00    +0.236 C 
ATOM     16  C   UNL A   1     -26.354   0.576  25.777  0.00  0.00    +0.258 C 
ATOM     17  F   UNL A   1     -25.860  -0.681  25.795  0.00  0.00    -0.225 F 
BRANCH  12  18
ATOM     18  C   UNL A   1     -25.642   4.093  27.123  0.00  0.00    +0.264 C 
ATOM     19  N   UNL A   1     -25.614   5.252  26.449  0.00  0.00    -0.200 NA
ATOM     20  C   UNL A   1     -25.026   6.479  26.963  0.00  0.00    +0.139 C 
ATOM     21  O   UNL A   1     -25.143   3.966  28.243  0.00  0.00    -0.269 OA
ENDBRANCH  12  18
BRANCH  15  22
ATOM     22  O   UNL A   1     -28.193  -0.208  24.477  0.00  0.00    -0.459 OA
BRANCH  22  23
ATOM     23  C   UNL A   1     -29.460   0.005  23.866  0.00  0.00    +0.242 C 
BRANCH  23  24
ATOM     24  C   UNL A   1     -30.065  -1.377  23.573  0.00  0.00    +0.229 C 
ATOM     25  O   UNL A   1     -30.729  -1.878  24.721  0.00  0.00    -0.216 OA
ENDBRANCH  23  24
ENDBRANCH  22  23
ENDBRANCH  15  22
ENDBRANCH   6  11
BRANCH  10  26
ATOM     26  C   UNL A   1     -26.767   0.469  28.687  0.00  0.00    +0.191 C 
ATOM     27  O   UNL A   1     -27.211  -0.660  28.704  0.00  0.00    -0.290 OA
BRANCH  26  30
ATOM     28  C   UNL A   1     -29.820   2.803  28.366  0.00  0.00    +0.000 C 
ATOM     29  C   UNL A   1     -29.425   3.917  29.111  0.00  0.00    +0.000 C 
ATOM     30  C   UNL A   1     -27.735   1.629  28.981  0.00  0.00    +0.036 C 
ATOM     31  C   UNL A   1     -27.435   2.708  29.852  0.00  0.00    +0.003 C 
ATOM     32  C   UNL A   1     -28.265   3.852  29.904  0.00  0.00    +0.000 C 
ATOM     33  C   UNL A   1     -28.995   1.650  28.352  0.00  0.00    +0.003 C 
ENDBRANCH  26  30
ENDBRANCH  10  26
BRANCH   8  34
ATOM     34  C   UNL A   1     -24.855  -1.012  30.143  0.00  0.00    +0.041 C 
BRANCH  34  35
ATOM     35  C   UNL A   1     -24.973  -2.505  29.788  0.00  0.00    -0.021 C 
ATOM     36  C   UNL A   1     -23.906  -3.173  29.146  0.00  0.00    -0.004 C 
ATOM     37  C   UNL A   1     -23.989  -4.549  28.853  0.00  0.00    -0.000 C 
ATOM     38  C   UNL A   1     -25.137  -5.280  29.205  0.00  0.00    -0.000 C 
ATOM     39  C   UNL A   1     -26.232  -4.611  29.784  0.00  0.00    -0.000 C 
ATOM     40  C   UNL A   1     -26.155  -3.232  30.065  0.00  0.00    -0.004 C 
ENDBRANCH  34  35
BRANCH  34  41
ATOM     41  C   UNL A   1     -25.387  -0.679  31.571  0.00  0.00    +0.077 C 
ATOM     42  C   UNL A   1     -25.189   0.773  32.028  0.00  0.00    +0.019 C 
ATOM     43  C   UNL A   1     -25.336   0.684  33.544  0.00  0.00    +0.020 C 
ATOM     44  C   UNL A   1     -24.829  -0.715  33.905  0.00  0.00    +0.089 C 
ATOM     45  N   UNL A   1     -24.758  -1.481  32.646  0.00  0.00    -0.219 NA
ENDBRANCH  34  41
ENDBRANCH   8  34
TORSDOF 10
