REMARK  Name = outputs/IAG933/test6/raw/output_5915_IAG933_linker_design_.xyz
REMARK  13 active torsions:
REMARK  status: ('A' for Active; 'I' for Inactive)
REMARK    1  A    between atoms: C_1  and  C_2
REMARK    2  A    between atoms: C_1  and  C_8
REMARK    3  A    between atoms: C_1  and  C_36
REMARK    4  A    between atoms: C_13  and  C_38
REMARK    5  A    between atoms: C_14  and  C_15
REMARK    6  A    between atoms: C_21  and  O_22
REMARK    7  A    between atoms: O_22  and  C_23
REMARK    8  A    between atoms: C_23  and  C_24
REMARK    9  A    between atoms: C_32  and  C_37
REMARK   10  A    between atoms: C_32  and  N_39
REMARK   11  A    between atoms: C_32  and  C_41
REMARK   12  A    between atoms: N_33  and  C_38
REMARK   13  A    between atoms: C_34  and  C_40
REMARK                            x       y       z     vdW  Elec       q    Type
REMARK                         _______ _______ _______ _____ _____    ______ ____
ROOT
ATOM      1  N   UNL A   1     -25.164   1.010  28.653  0.00  0.00    -0.233 N 
ATOM      2  C   UNL A   1     -24.986  -0.028  29.245  0.00  0.00    +0.170 C 
ATOM      3  N   UNL A   1     -26.226   0.467  28.832  0.00  0.00    -0.181 NA
ENDROOT
BRANCH   1   6
ATOM      4 CL   UNL A   1     -22.869   2.107  25.616  0.00  0.00    -0.080 Cl
ATOM      5  C   UNL A   1     -23.338   1.556  27.168  0.00  0.00    +0.116 C 
ATOM      6  C   UNL A   1     -24.557   1.306  27.337  0.00  0.00    +0.078 C 
BRANCH   6   7
ATOM      7  C   UNL A   1     -25.688   1.614  26.461  0.00  0.00    +0.053 C 
ATOM      8  C   UNL A   1     -26.250   2.920  26.395  0.00  0.00    +0.078 C 
ATOM      9  C   UNL A   1     -27.438   3.091  25.645  0.00  0.00    +0.107 C 
ATOM     10  N   UNL A   1     -28.075   2.089  25.003  0.00  0.00    -0.208 NA
ATOM     11  C   UNL A   1     -27.543   0.849  25.079  0.00  0.00    +0.253 C 
ATOM     12  C   UNL A   1     -26.354   0.576  25.777  0.00  0.00    +0.194 C 
ATOM     13  F   UNL A   1     -25.860  -0.681  25.795  0.00  0.00    -0.199 F 
BRANCH   8  14
ATOM     14  C   UNL A   1     -25.642   4.093  27.123  0.00  0.00    +0.267 C 
ATOM     15  N   UNL A   1     -25.614   5.252  26.449  0.00  0.00    -0.200 NA
ATOM     16  C   UNL A   1     -25.026   6.479  26.963  0.00  0.00    +0.139 C 
ATOM     17  O   UNL A   1     -25.143   3.966  28.243  0.00  0.00    -0.268 OA
ENDBRANCH   8  14
BRANCH  11  18
ATOM     18  O   UNL A   1     -28.193  -0.208  24.477  0.00  0.00    -0.456 OA
BRANCH  18  19
ATOM     19  C   UNL A   1     -29.460   0.005  23.866  0.00  0.00    +0.243 C 
BRANCH  19  20
ATOM     20  C   UNL A   1     -30.065  -1.377  23.573  0.00  0.00    +0.229 C 
ATOM     21  O   UNL A   1     -30.729  -1.878  24.721  0.00  0.00    -0.216 OA
ENDBRANCH  19  20
ENDBRANCH  18  19
ENDBRANCH  11  18
ENDBRANCH   6   7
BRANCH   5  24
ATOM     22  F   UNL A   1     -21.078   1.689  27.580  0.00  0.00    -0.192 F 
ATOM     23  F   UNL A   1     -22.323   0.553  29.160  0.00  0.00    -0.192 F 
ATOM     24  C   UNL A   1     -22.271   1.446  28.155  0.00  0.00    +0.352 C 
ENDBRANCH   5  24
ENDBRANCH   1   6
BRANCH   2  25
ATOM     25  C   UNL A   1     -24.855  -1.012  30.143  0.00  0.00    +0.075 C 
BRANCH  25  26
ATOM     26  C   UNL A   1     -24.973  -2.505  29.788  0.00  0.00    -0.018 C 
ATOM     27  C   UNL A   1     -23.906  -3.173  29.146  0.00  0.00    -0.004 C 
ATOM     28  C   UNL A   1     -23.989  -4.549  28.853  0.00  0.00    -0.000 C 
ATOM     29  C   UNL A   1     -25.137  -5.280  29.205  0.00  0.00    -0.000 C 
ATOM     30  C   UNL A   1     -26.232  -4.611  29.784  0.00  0.00    -0.000 C 
ATOM     31  C   UNL A   1     -26.155  -3.232  30.065  0.00  0.00    -0.004 C 
ENDBRANCH  25  26
BRANCH  25  32
ATOM     32  C   UNL A   1     -25.387  -0.679  31.571  0.00  0.00    +0.080 C 
ATOM     33  C   UNL A   1     -25.189   0.773  32.028  0.00  0.00    +0.019 C 
ATOM     34  C   UNL A   1     -25.336   0.684  33.544  0.00  0.00    +0.020 C 
ATOM     35  C   UNL A   1     -24.829  -0.715  33.905  0.00  0.00    +0.089 C 
ATOM     36  N   UNL A   1     -24.758  -1.481  32.646  0.00  0.00    -0.219 NA
ENDBRANCH  25  32
ENDBRANCH   2  25
BRANCH   3  37
ATOM     37  C   UNL A   1     -27.512   0.504  29.613  0.00  0.00    +0.141 C 
BRANCH  37  40
ATOM     38  C   UNL A   1     -29.800  -0.558  29.873  0.00  0.00    +0.037 C 
ATOM     39  O   UNL A   1     -29.016  -0.306  27.693  0.00  0.00    -0.222 OA
ATOM     40  C   UNL A   1     -28.542  -0.492  29.019  0.00  0.00    +0.171 C 
ENDBRANCH  37  40
BRANCH  37  41
ATOM     41  C   UNL A   1     -27.820   1.976  29.361  0.00  0.00    +0.202 C 
ATOM     42  O   UNL A   1     -28.563   2.117  28.195  0.00  0.00    -0.219 OA
ENDBRANCH  37  41
ENDBRANCH   3  37
TORSDOF 13
