REMARK  Name = outputs/IAG933/test6/raw/output_5918_IAG933_linker_design_.xyz
REMARK  9 active torsions:
REMARK  status: ('A' for Active; 'I' for Inactive)
REMARK    1  A    between atoms: C_1  and  C_2
REMARK    2  A    between atoms: C_1  and  C_8
REMARK    3  A    between atoms: C_1  and  N_31
REMARK    4  A    between atoms: C_13  and  C_41
REMARK    5  A    between atoms: C_14  and  C_15
REMARK    6  A    between atoms: C_21  and  O_22
REMARK    7  A    between atoms: O_22  and  C_23
REMARK    8  A    between atoms: C_23  and  C_24
REMARK    9  A    between atoms: N_31  and  C_37
REMARK                            x       y       z     vdW  Elec       q    Type
REMARK                         _______ _______ _______ _____ _____    ______ ____
ROOT
ATOM      1  C   UNL A   1     -23.151   1.698  26.743  0.00  0.00    +0.096 C 
ATOM      2  N   UNL A   1     -25.546  -0.239  29.089  0.00  0.00    -0.159 N 
ATOM      3  F   UNL A   1     -20.796   1.807  27.112  0.00  0.00    -0.199 F 
ATOM      4  C   UNL A   1     -22.130   0.632  28.585  0.00  0.00    +0.266 C 
ATOM      5 CL   UNL A   1     -22.959   2.582  25.291  0.00  0.00    -0.080 Cl
ATOM      6  C   UNL A   1     -24.483   1.272  27.174  0.00  0.00    +0.098 C 
ATOM      7  C   UNL A   1     -24.500   0.437  28.351  0.00  0.00    +0.330 C 
ATOM      8  N   UNL A   1     -23.320   0.194  29.028  0.00  0.00    -0.033 NA
ATOM      9  C   UNL A   1     -22.000   1.398  27.462  0.00  0.00    +0.197 C 
ENDROOT
BRANCH   2  15
ATOM     10  O   UNL A   1     -29.206   4.322  30.199  0.00  0.00    -0.345 OA
ATOM     11  C   UNL A   1     -27.385   1.401  29.188  0.00  0.00    -0.062 C 
ATOM     12  C   UNL A   1     -27.791   2.770  29.631  0.00  0.00    +0.055 C 
ATOM     13  C   UNL A   1     -29.038   3.284  29.396  0.00  0.00    +0.175 C 
ATOM     14  O   UNL A   1     -25.808   3.655  30.679  0.00  0.00    -0.215 OA
ATOM     15  C   UNL A   1     -26.942   0.198  28.786  0.00  0.00    +0.219 C 
ATOM     16  C   UNL A   1     -28.071   4.641  30.812  0.00  0.00    +0.180 C 
ATOM     17  C   UNL A   1     -27.108   3.731  30.395  0.00  0.00    +0.209 C 
ENDBRANCH   2  15
BRANCH   6  18
ATOM     18  C   UNL A   1     -25.688   1.614  26.461  0.00  0.00    +0.046 C 
ATOM     19  C   UNL A   1     -26.250   2.920  26.395  0.00  0.00    +0.077 C 
ATOM     20  C   UNL A   1     -27.438   3.091  25.645  0.00  0.00    +0.107 C 
ATOM     21  N   UNL A   1     -28.075   2.089  25.003  0.00  0.00    -0.208 NA
ATOM     22  C   UNL A   1     -27.543   0.849  25.079  0.00  0.00    +0.253 C 
ATOM     23  C   UNL A   1     -26.354   0.576  25.777  0.00  0.00    +0.193 C 
ATOM     24  F   UNL A   1     -25.860  -0.681  25.795  0.00  0.00    -0.199 F 
BRANCH  19  25
ATOM     25  C   UNL A   1     -25.642   4.093  27.123  0.00  0.00    +0.266 C 
ATOM     26  N   UNL A   1     -25.614   5.252  26.449  0.00  0.00    -0.200 NA
ATOM     27  C   UNL A   1     -25.026   6.479  26.963  0.00  0.00    +0.139 C 
ATOM     28  O   UNL A   1     -25.143   3.966  28.243  0.00  0.00    -0.268 OA
ENDBRANCH  19  25
BRANCH  22  29
ATOM     29  O   UNL A   1     -28.193  -0.208  24.477  0.00  0.00    -0.456 OA
BRANCH  29  30
ATOM     30  C   UNL A   1     -29.460   0.005  23.866  0.00  0.00    +0.243 C 
BRANCH  30  31
ATOM     31  C   UNL A   1     -30.065  -1.377  23.573  0.00  0.00    +0.229 C 
ATOM     32  O   UNL A   1     -30.729  -1.878  24.721  0.00  0.00    -0.216 OA
ENDBRANCH  30  31
ENDBRANCH  29  30
ENDBRANCH  22  29
ENDBRANCH   6  18
BRANCH   2  33
ATOM     33  C   UNL A   1     -24.855  -1.012  30.143  0.00  0.00    +0.204 C 
BRANCH  33  34
ATOM     34  C   UNL A   1     -24.973  -2.505  29.788  0.00  0.00    +0.022 C 
ATOM     35  C   UNL A   1     -23.906  -3.173  29.146  0.00  0.00    -0.000 C 
ATOM     36  C   UNL A   1     -23.989  -4.549  28.853  0.00  0.00    -0.000 C 
ATOM     37  C   UNL A   1     -25.137  -5.280  29.205  0.00  0.00    -0.000 C 
ATOM     38  C   UNL A   1     -26.232  -4.611  29.784  0.00  0.00    -0.000 C 
ATOM     39  C   UNL A   1     -26.155  -3.232  30.065  0.00  0.00    -0.000 C 
ENDBRANCH  33  34
BRANCH  33  40
ATOM     40  C   UNL A   1     -25.387  -0.679  31.571  0.00  0.00    +0.120 C 
ATOM     41  C   UNL A   1     -25.189   0.773  32.028  0.00  0.00    +0.023 C 
ATOM     42  C   UNL A   1     -25.336   0.684  33.544  0.00  0.00    +0.020 C 
ATOM     43  C   UNL A   1     -24.829  -0.715  33.905  0.00  0.00    +0.089 C 
ATOM     44  N   UNL A   1     -24.758  -1.481  32.646  0.00  0.00    -0.215 NA
ENDBRANCH  33  40
ENDBRANCH   2  33
TORSDOF 9
