MODEL 591
MODEL 1
REMARK VINA RESULT:    -6.888      0.000      0.000
REMARK INTER + INTRA:         -10.140
REMARK INTER:                  -9.304
REMARK INTRA:                  -0.836
REMARK UNBOUND:                -0.836
REMARK  Name = No_591-gen_results/8p0m/2024-11-27-11-27-31/
REMARK  6 active torsions:
REMARK  status: ('A' for Active; 'I' for Inactive)
REMARK    1  A    between atoms: C_6  and  O_14
REMARK    2  A    between atoms: C_9  and  C_11
REMARK    3  A    between atoms: O_14  and  C_15
REMARK    4  A    between atoms: C_15  and  C_16
REMARK    5  A    between atoms: C_17  and  C_18
REMARK    6  A    between atoms: C_19  and  C_20
REMARK                            x       y       z     vdW  Elec       q    Type
REMARK                         _______ _______ _______ _____ _____    ______ ____
ROOT
ATOM      1  C   UNL A   1     -10.891   2.864  35.306  0.00  0.00    +0.037 A 
ATOM      2  C   UNL A   1     -12.026   3.216  35.533  0.00  0.00    +0.003 A 
ATOM      3  C   UNL A   1     -13.101   2.653  34.854  0.00  0.00    -0.000 A 
ATOM      4  C   UNL A   1     -12.894   1.666  33.826  0.00  0.00    +0.003 A 
ATOM      5  C   UNL A   1     -11.550   1.335  33.612  0.00  0.00    +0.037 A 
ATOM      6  C   UNL A   1     -10.568   1.909  34.269  0.00  0.00    +0.139 A 
ATOM      7  C   UNL A   1     -12.422   4.238  36.538  0.00  0.00    -0.000 A 
ATOM      8  C   UNL A   1     -13.539   4.204  37.174  0.00  0.00    -0.002 A 
ATOM      9  C   UNL A   1     -14.733   3.564  36.474  0.00  0.00    +0.010 A 
ATOM     10  C   UNL A   1     -14.479   2.704  35.413  0.00  0.00    -0.002 A 
ENDROOT
BRANCH   9  11
ATOM     11  C   UNL A   1     -16.086   3.760  36.975  0.00  0.00    +0.193 C 
ATOM     12  N   UNL A   1     -16.876   4.622  36.377  0.00  0.00    -0.110 NA
ATOM     13 CL   UNL A   1     -16.479   3.299  38.504  0.00  0.00    -0.089 Cl
ENDBRANCH   9  11
BRANCH   6  14
ATOM     14  O   UNL A   1      -9.298   1.624  33.902  0.00  0.00    -0.471 OA
BRANCH  14  15
ATOM     15  C   UNL A   1      -8.351   1.344  34.750  0.00  0.00    +0.232 C 
BRANCH  15  16
ATOM     16  C   UNL A   1      -8.526   0.112  35.347  0.00  0.00    +0.021 C 
ATOM     17  C   UNL A   1      -9.119  -0.005  36.502  0.00  0.00    -0.001 C 
BRANCH  17  18
ATOM     18  C   UNL A   1      -9.688  -1.248  36.947  0.00  0.00    -0.000 C 
ATOM     19  C   UNL A   1     -10.959  -1.253  37.505  0.00  0.00    -0.000 C 
BRANCH  19  20
ATOM     20  C   UNL A   1     -11.662  -2.449  37.675  0.00  0.00    -0.005 C 
ATOM     21  C   UNL A   1     -12.299  -2.699  38.892  0.00  0.00    -0.026 C 
ATOM     22  C   UNL A   1     -12.119  -1.825  39.900  0.00  0.00    +0.031 C 
ENDBRANCH  19  20
ENDBRANCH  17  18
ENDBRANCH  15  16
ENDBRANCH  14  15
ENDBRANCH   6  14
TORSDOF 6
ENDMDL
ENDMDL
