REMARK  Name = outputs/IAG933/test6/raw/output_5924_IAG933_linker_design_.xyz
REMARK  11 active torsions:
REMARK  status: ('A' for Active; 'I' for Inactive)
REMARK    1  A    between atoms: C_1  and  C_2
REMARK    2  A    between atoms: C_1  and  C_8
REMARK    3  A    between atoms: C_1  and  N_28
REMARK    4  A    between atoms: C_13  and  C_35
REMARK    5  A    between atoms: C_14  and  C_15
REMARK    6  A    between atoms: C_21  and  O_22
REMARK    7  A    between atoms: O_22  and  C_23
REMARK    8  A    between atoms: C_23  and  C_24
REMARK    9  A    between atoms: C_30  and  C_38
REMARK   10  A    between atoms: C_34  and  C_35
REMARK   11  A    between atoms: C_35  and  C_36
REMARK                            x       y       z     vdW  Elec       q    Type
REMARK                         _______ _______ _______ _____ _____    ______ ____
ROOT
ATOM      1  C   UNL A   1     -24.674   1.091  27.279  0.00  0.00    +0.109 C 
ENDROOT
BRANCH   1   6
ATOM      2  O   UNL A   1     -22.698   1.000  29.891  0.00  0.00    -0.342 OA
ATOM      3  C   UNL A   1     -22.363   2.147  26.787  0.00  0.00    +0.205 C 
ATOM      4  C   UNL A   1     -22.042  -0.133  29.863  0.00  0.00    +0.181 C 
ATOM      5  C   UNL A   1     -22.323   1.029  28.641  0.00  0.00    +0.212 C 
ATOM      6  C   UNL A   1     -23.264   1.414  27.572  0.00  0.00    +0.093 C 
ATOM      7  C   UNL A   1     -20.915   0.944  28.012  0.00  0.00    +0.344 C 
ATOM      8  O   UNL A   1     -21.063   1.911  27.102  0.00  0.00    -0.448 OA
ATOM      9  O   UNL A   1     -19.962  -0.064  28.056  0.00  0.00    -0.247 OA
BRANCH   3  10
ATOM     10  C   UNL A   1     -22.987   3.063  25.900  0.00  0.00    +0.226 C 
ATOM     11  O   UNL A   1     -23.738   2.541  24.911  0.00  0.00    -0.216 OA
ENDBRANCH   3  10
ENDBRANCH   1   6
BRANCH   1  12
ATOM     12  C   UNL A   1     -25.688   1.614  26.461  0.00  0.00    +0.025 C 
ATOM     13  C   UNL A   1     -26.250   2.920  26.395  0.00  0.00    +0.073 C 
ATOM     14  C   UNL A   1     -27.438   3.091  25.645  0.00  0.00    +0.106 C 
ATOM     15  N   UNL A   1     -28.075   2.089  25.003  0.00  0.00    -0.208 NA
ATOM     16  C   UNL A   1     -27.543   0.849  25.079  0.00  0.00    +0.253 C 
ATOM     17  C   UNL A   1     -26.354   0.576  25.777  0.00  0.00    +0.190 C 
ATOM     18  F   UNL A   1     -25.860  -0.681  25.795  0.00  0.00    -0.200 F 
BRANCH  13  19
ATOM     19  C   UNL A   1     -25.642   4.093  27.123  0.00  0.00    +0.266 C 
ATOM     20  N   UNL A   1     -25.614   5.252  26.449  0.00  0.00    -0.200 NA
ATOM     21  C   UNL A   1     -25.026   6.479  26.963  0.00  0.00    +0.139 C 
ATOM     22  O   UNL A   1     -25.143   3.966  28.243  0.00  0.00    -0.268 OA
ENDBRANCH  13  19
BRANCH  16  23
ATOM     23  O   UNL A   1     -28.193  -0.208  24.477  0.00  0.00    -0.456 OA
BRANCH  23  24
ATOM     24  C   UNL A   1     -29.460   0.005  23.866  0.00  0.00    +0.243 C 
BRANCH  24  25
ATOM     25  C   UNL A   1     -30.065  -1.377  23.573  0.00  0.00    +0.229 C 
ATOM     26  O   UNL A   1     -30.729  -1.878  24.721  0.00  0.00    -0.216 OA
ENDBRANCH  24  25
ENDBRANCH  23  24
ENDBRANCH  16  23
ENDBRANCH   1  12
BRANCH   1  29
ATOM     27  N   UNL A   1     -25.392  -0.148  29.201  0.00  0.00    -0.201 NA
ATOM     28  O   UNL A   1     -24.960  -1.312  27.325  0.00  0.00    -0.273 OA
ATOM     29  C   UNL A   1     -25.065  -0.196  27.930  0.00  0.00    +0.246 C 
BRANCH  27  30
ATOM     30  C   UNL A   1     -24.855  -1.012  30.143  0.00  0.00    +0.133 C 
BRANCH  30  31
ATOM     31  C   UNL A   1     -24.973  -2.505  29.788  0.00  0.00    -0.001 C 
ATOM     32  C   UNL A   1     -23.906  -3.173  29.146  0.00  0.00    -0.003 C 
ATOM     33  C   UNL A   1     -23.989  -4.549  28.853  0.00  0.00    -0.000 C 
ATOM     34  C   UNL A   1     -25.137  -5.280  29.205  0.00  0.00    -0.000 C 
ATOM     35  C   UNL A   1     -26.232  -4.611  29.784  0.00  0.00    -0.000 C 
ATOM     36  C   UNL A   1     -26.155  -3.232  30.065  0.00  0.00    -0.003 C 
ENDBRANCH  30  31
BRANCH  30  37
ATOM     37  C   UNL A   1     -25.387  -0.679  31.571  0.00  0.00    +0.097 C 
ATOM     38  C   UNL A   1     -25.189   0.773  32.028  0.00  0.00    +0.021 C 
ATOM     39  C   UNL A   1     -25.336   0.684  33.544  0.00  0.00    +0.020 C 
ATOM     40  C   UNL A   1     -24.829  -0.715  33.905  0.00  0.00    +0.089 C 
ATOM     41  N   UNL A   1     -24.758  -1.481  32.646  0.00  0.00    -0.217 NA
ENDBRANCH  30  37
ENDBRANCH  27  30
ENDBRANCH   1  29
TORSDOF 11
