REMARK  Name = outputs/IAG933/test6/raw/output_5926_IAG933_linker_design_.xyz
REMARK  15 active torsions:
REMARK  status: ('A' for Active; 'I' for Inactive)
REMARK    1  A    between atoms: C_1  and  C_2
REMARK    2  A    between atoms: C_1  and  C_8
REMARK    3  A    between atoms: C_1  and  O_33
REMARK    4  A    between atoms: C_13  and  C_28
REMARK    5  A    between atoms: C_14  and  C_15
REMARK    6  A    between atoms: C_21  and  O_22
REMARK    7  A    between atoms: O_22  and  C_23
REMARK    8  A    between atoms: C_23  and  C_24
REMARK    9  A    between atoms: O_33  and  C_38
REMARK   10  A    between atoms: C_34  and  C_35
REMARK   11  A    between atoms: C_34  and  C_40
REMARK   12  A    between atoms: C_37  and  C_38
REMARK   13  A    between atoms: C_38  and  C_42
REMARK   14  A    between atoms: C_39  and  C_40
REMARK   15  A    between atoms: C_39  and  C_42
REMARK                            x       y       z     vdW  Elec       q    Type
REMARK                         _______ _______ _______ _____ _____    ______ ____
ROOT
ATOM      1  C   UNL A   1     -24.295   1.563  26.797  0.00  0.00    +0.008 C 
ATOM      2  N   UNL A   1     -20.551   0.605  27.766  0.00  0.00    -0.209 NA
ATOM      3  N   UNL A   1     -22.188  -0.207  29.132  0.00  0.00    -0.243 NA
ATOM      4  C   UNL A   1     -21.741   1.106  27.352  0.00  0.00    +0.241 C 
ATOM      5  C   UNL A   1     -22.657   0.654  28.223  0.00  0.00    +0.115 C 
ATOM      6  C   UNL A   1     -23.966   1.060  28.049  0.00  0.00    +0.093 C 
ATOM      7  C   UNL A   1     -20.866  -0.283  28.815  0.00  0.00    +0.253 C 
ATOM      8  C   UNL A   1     -23.314   1.966  25.842  0.00  0.00    +0.174 C 
ATOM      9  O   UNL A   1     -21.949   1.898  26.278  0.00  0.00    -0.433 OA
ENDROOT
BRANCH   1  10
ATOM     10  C   UNL A   1     -25.688   1.614  26.461  0.00  0.00    +0.092 C 
ATOM     11  C   UNL A   1     -26.250   2.920  26.395  0.00  0.00    +0.059 C 
ATOM     12  C   UNL A   1     -27.438   3.091  25.645  0.00  0.00    +0.102 C 
ATOM     13  N   UNL A   1     -28.075   2.089  25.003  0.00  0.00    -0.212 NA
ATOM     14  C   UNL A   1     -27.543   0.849  25.079  0.00  0.00    +0.234 C 
ATOM     15  C   UNL A   1     -26.354   0.576  25.777  0.00  0.00    +0.244 C 
ATOM     16  F   UNL A   1     -25.860  -0.681  25.795  0.00  0.00    -0.227 F 
BRANCH  11  17
ATOM     17  C   UNL A   1     -25.642   4.093  27.123  0.00  0.00    +0.263 C 
ATOM     18  N   UNL A   1     -25.614   5.252  26.449  0.00  0.00    -0.200 NA
ATOM     19  C   UNL A   1     -25.026   6.479  26.963  0.00  0.00    +0.139 C 
ATOM     20  O   UNL A   1     -25.143   3.966  28.243  0.00  0.00    -0.269 OA
ENDBRANCH  11  17
BRANCH  14  21
ATOM     21  O   UNL A   1     -28.193  -0.208  24.477  0.00  0.00    -0.459 OA
BRANCH  21  22
ATOM     22  C   UNL A   1     -29.460   0.005  23.866  0.00  0.00    +0.242 C 
BRANCH  22  23
ATOM     23  C   UNL A   1     -30.065  -1.377  23.573  0.00  0.00    +0.229 C 
ATOM     24  O   UNL A   1     -30.729  -1.878  24.721  0.00  0.00    -0.216 OA
ENDBRANCH  22  23
ENDBRANCH  21  22
ENDBRANCH  14  21
ENDBRANCH   1  10
BRANCH   6  25
ATOM     25  C   UNL A   1     -24.962   1.131  29.050  0.00  0.00    +0.125 C 
BRANCH  25  26
ATOM     26  O   UNL A   1     -25.533  -0.255  29.184  0.00  0.00    -0.352 OA
BRANCH  26  27
ATOM     27  C   UNL A   1     -24.855  -1.012  30.143  0.00  0.00    +0.153 C 
BRANCH  27  28
ATOM     28  C   UNL A   1     -24.973  -2.505  29.788  0.00  0.00    +0.006 C 
ATOM     29  C   UNL A   1     -23.906  -3.173  29.146  0.00  0.00    -0.002 C 
ATOM     30  C   UNL A   1     -23.989  -4.549  28.853  0.00  0.00    -0.000 C 
ATOM     31  C   UNL A   1     -25.137  -5.280  29.205  0.00  0.00    -0.000 C 
ATOM     32  C   UNL A   1     -26.232  -4.611  29.784  0.00  0.00    -0.000 C 
ATOM     33  C   UNL A   1     -26.155  -3.232  30.065  0.00  0.00    -0.002 C 
ENDBRANCH  27  28
BRANCH  27  34
ATOM     34  C   UNL A   1     -25.387  -0.679  31.571  0.00  0.00    +0.104 C 
ATOM     35  C   UNL A   1     -25.189   0.773  32.028  0.00  0.00    +0.022 C 
ATOM     36  C   UNL A   1     -25.336   0.684  33.544  0.00  0.00    +0.020 C 
ATOM     37  C   UNL A   1     -24.829  -0.715  33.905  0.00  0.00    +0.089 C 
ATOM     38  N   UNL A   1     -24.758  -1.481  32.646  0.00  0.00    -0.217 NA
ENDBRANCH  27  34
ENDBRANCH  26  27
ENDBRANCH  25  26
BRANCH  25  39
ATOM     39  C   UNL A   1     -25.921   1.987  29.494  0.00  0.00    +0.030 C 
BRANCH  39  40
ATOM     40  C   UNL A   1     -26.524   2.861  30.538  0.00  0.00    +0.003 C 
BRANCH  40  41
ATOM     41  C   UNL A   1     -25.912   4.278  30.449  0.00  0.00    +0.000 C 
BRANCH  41  42
ATOM     42  C   UNL A   1     -26.771   5.226  31.279  0.00  0.00    +0.000 C 
BRANCH  42  44
ATOM     43  C   UNL A   1     -28.810   6.765  31.061  0.00  0.00    +0.000 C 
ATOM     44  C   UNL A   1     -27.604   6.112  30.397  0.00  0.00    +0.000 C 
ENDBRANCH  42  44
ENDBRANCH  41  42
ENDBRANCH  40  41
ENDBRANCH  39  40
ENDBRANCH  25  39
ENDBRANCH   6  25
TORSDOF 15
