REMARK  Name = outputs/IAG933/test6/raw/output_5927_IAG933_linker_design_.xyz
REMARK  17 active torsions:
REMARK  status: ('A' for Active; 'I' for Inactive)
REMARK    1  A    between atoms: C_1  and  C_2
REMARK    2  A    between atoms: C_1  and  C_8
REMARK    3  A    between atoms: C_1  and  C_28
REMARK    4  A    between atoms: C_13  and  N_37
REMARK    5  A    between atoms: C_14  and  C_15
REMARK    6  A    between atoms: C_21  and  O_22
REMARK    7  A    between atoms: O_22  and  C_23
REMARK    8  A    between atoms: C_23  and  C_24
REMARK    9  A    between atoms: C_28  and  N_33
REMARK   10  A    between atoms: C_28  and  N_37
REMARK   11  A    between atoms: C_32  and  C_39
REMARK   12  A    between atoms: C_32  and  C_44
REMARK   13  A    between atoms: C_34  and  C_35
REMARK   14  A    between atoms: C_35  and  N_37
REMARK   15  A    between atoms: C_36  and  C_41
REMARK   16  A    between atoms: C_39  and  C_40
REMARK   17  A    between atoms: C_41  and  C_44
REMARK                            x       y       z     vdW  Elec       q    Type
REMARK                         _______ _______ _______ _____ _____    ______ ____
ROOT
ATOM      1  C   UNL A   1     -25.130  -0.079  28.796  0.00  0.00    +0.160 C 
ENDROOT
BRANCH   1   3
ATOM      2  O   UNL A   1     -27.825  -1.295  28.982  0.00  0.00    -0.273 OA
ATOM      3  N   UNL A   1     -26.389   0.550  29.047  0.00  0.00    -0.190 NA
ATOM      4  C   UNL A   1     -27.556  -0.084  29.002  0.00  0.00    +0.243 C 
BRANCH   4   5
ATOM      5  C   UNL A   1     -28.770   0.823  29.107  0.00  0.00    +0.087 C 
BRANCH   5   6
ATOM      6  C   UNL A   1     -28.569   1.813  30.270  0.00  0.00    +0.016 C 
BRANCH   6   7
ATOM      7  C   UNL A   1     -29.866   2.051  30.993  0.00  0.00    +0.046 C 
BRANCH   7   9
ATOM      8  N   UNL A   1     -30.788   3.822  29.663  0.00  0.00    -0.155 NA
ATOM      9  C   UNL A   1     -30.709   3.231  30.854  0.00  0.00    +0.088 C 
BRANCH   9  11
ATOM     10  C   UNL A   1     -32.949   4.294  31.620  0.00  0.00    +0.042 C 
ATOM     11  C   UNL A   1     -31.445   3.912  31.927  0.00  0.00    +0.189 C 
ATOM     12  O   UNL A   1     -30.649   5.156  32.252  0.00  0.00    -0.217 OA
ENDBRANCH   9  11
ENDBRANCH   7   9
ENDBRANCH   6   7
ENDBRANCH   5   6
ENDBRANCH   4   5
ENDBRANCH   1   3
BRANCH   1  13
ATOM     13  C   UNL A   1     -24.855  -1.012  30.143  0.00  0.00    +0.074 C 
BRANCH  13  14
ATOM     14  C   UNL A   1     -24.973  -2.505  29.788  0.00  0.00    -0.018 C 
ATOM     15  C   UNL A   1     -23.906  -3.173  29.146  0.00  0.00    -0.004 C 
ATOM     16  C   UNL A   1     -23.989  -4.549  28.853  0.00  0.00    -0.000 C 
ATOM     17  C   UNL A   1     -25.137  -5.280  29.205  0.00  0.00    -0.000 C 
ATOM     18  C   UNL A   1     -26.232  -4.611  29.784  0.00  0.00    -0.000 C 
ATOM     19  C   UNL A   1     -26.155  -3.232  30.065  0.00  0.00    -0.004 C 
ENDBRANCH  13  14
BRANCH  13  20
ATOM     20  C   UNL A   1     -25.387  -0.679  31.571  0.00  0.00    +0.080 C 
ATOM     21  C   UNL A   1     -25.189   0.773  32.028  0.00  0.00    +0.019 C 
ATOM     22  C   UNL A   1     -25.336   0.684  33.544  0.00  0.00    +0.020 C 
ATOM     23  C   UNL A   1     -24.829  -0.715  33.905  0.00  0.00    +0.089 C 
ATOM     24  N   UNL A   1     -24.758  -1.481  32.646  0.00  0.00    -0.219 NA
ENDBRANCH  13  20
ENDBRANCH   1  13
BRANCH   1  25
ATOM     25  N   UNL A   1     -24.753   1.216  27.553  0.00  0.00    -0.250 NA
BRANCH  25  26
ATOM     26  C   UNL A   1     -25.688   1.614  26.461  0.00  0.00    +0.130 C 
ATOM     27  C   UNL A   1     -26.250   2.920  26.395  0.00  0.00    +0.070 C 
ATOM     28  C   UNL A   1     -27.438   3.091  25.645  0.00  0.00    +0.103 C 
ATOM     29  N   UNL A   1     -28.075   2.089  25.003  0.00  0.00    -0.212 NA
ATOM     30  C   UNL A   1     -27.543   0.849  25.079  0.00  0.00    +0.235 C 
ATOM     31  C   UNL A   1     -26.354   0.576  25.777  0.00  0.00    +0.255 C 
ATOM     32  F   UNL A   1     -25.860  -0.681  25.795  0.00  0.00    -0.225 F 
BRANCH  27  33
ATOM     33  C   UNL A   1     -25.642   4.093  27.123  0.00  0.00    +0.264 C 
ATOM     34  N   UNL A   1     -25.614   5.252  26.449  0.00  0.00    -0.200 NA
ATOM     35  C   UNL A   1     -25.026   6.479  26.963  0.00  0.00    +0.139 C 
ATOM     36  O   UNL A   1     -25.143   3.966  28.243  0.00  0.00    -0.269 OA
ENDBRANCH  27  33
BRANCH  30  37
ATOM     37  O   UNL A   1     -28.193  -0.208  24.477  0.00  0.00    -0.459 OA
BRANCH  37  38
ATOM     38  C   UNL A   1     -29.460   0.005  23.866  0.00  0.00    +0.242 C 
BRANCH  38  39
ATOM     39  C   UNL A   1     -30.065  -1.377  23.573  0.00  0.00    +0.229 C 
ATOM     40  O   UNL A   1     -30.729  -1.878  24.721  0.00  0.00    -0.216 OA
ENDBRANCH  38  39
ENDBRANCH  37  38
ENDBRANCH  30  37
ENDBRANCH  25  26
BRANCH  25  41
ATOM     41  C   UNL A   1     -23.353   1.296  26.949  0.00  0.00    +0.093 C 
BRANCH  41  43
ATOM     42  N   UNL A   1     -22.476   0.879  29.306  0.00  0.00    -0.131 NA
ATOM     43  C   UNL A   1     -22.328   0.826  27.863  0.00  0.00    +0.108 C 
ATOM     44  C   UNL A   1     -21.246   1.704  27.395  0.00  0.00    +0.022 C 
ENDBRANCH  41  43
ENDBRANCH  25  41
ENDBRANCH   1  25
TORSDOF 17
