MODEL 592
MODEL 1
REMARK VINA RESULT:    -5.274      0.000      0.000
REMARK INTER + INTRA:          -5.623
REMARK INTER:                  -5.582
REMARK INTRA:                  -0.040
REMARK UNBOUND:                -0.040
REMARK  Name = No_592-gen_results/8p0m/2024-11-27-11-27-31/
REMARK  1 active torsions:
REMARK  status: ('A' for Active; 'I' for Inactive)
REMARK    1  A    between atoms: C_5  and  C_8
REMARK                            x       y       z     vdW  Elec       q    Type
REMARK                         _______ _______ _______ _____ _____    ______ ____
ROOT
ATOM      1  C   UNL A   1     -29.809  -9.842  31.890  0.00  0.00    +0.001 A 
ATOM      2  C   UNL A   1     -29.883 -10.235  30.748  0.00  0.00    +0.011 A 
ATOM      3  C   UNL A   1     -29.115 -11.248  30.202  0.00  0.00    +0.058 A 
ATOM      4  C   UNL A   1     -28.185 -11.896  31.068  0.00  0.00    +0.018 A 
ATOM      5  C   UNL A   1     -28.234 -11.552  32.365  0.00  0.00    +0.081 A 
ATOM      6  C   UNL A   1     -29.025 -10.613  32.800  0.00  0.00    +0.007 A 
ATOM      7 CL   UNL A   1     -29.150 -11.680  28.527  0.00  0.00    -0.082 Cl
ENDROOT
BRANCH   5   8
ATOM      8  C   UNL A   1     -27.275 -12.269  33.229  0.00  0.00    +0.388 C 
ATOM      9  O   UNL A   1     -26.399 -12.811  32.799  0.00  0.00    -0.241 OA
ATOM     10  O   UNL A   1     -27.517 -12.359  34.541  0.00  0.00    -0.241 OA
ENDBRANCH   5   8
TORSDOF 1
ENDMDL
ENDMDL
