REMARK  Name = outputs/IAG933/test6/raw/output_5935_IAG933_linker_design_.xyz
REMARK  14 active torsions:
REMARK  status: ('A' for Active; 'I' for Inactive)
REMARK    1  A    between atoms: C_1  and  C_2
REMARK    2  A    between atoms: C_1  and  C_8
REMARK    3  A    between atoms: C_1  and  C_31
REMARK    4  A    between atoms: C_13  and  N_36
REMARK    5  A    between atoms: C_14  and  C_15
REMARK    6  A    between atoms: C_21  and  O_22
REMARK    7  A    between atoms: O_22  and  C_23
REMARK    8  A    between atoms: C_23  and  C_24
REMARK    9  A    between atoms: C_28  and  N_36
REMARK   10  A    between atoms: C_31  and  C_32
REMARK   11  A    between atoms: C_31  and  N_35
REMARK   12  A    between atoms: C_32  and  C_37
REMARK   13  A    between atoms: N_35  and  C_38
REMARK   14  A    between atoms: C_37  and  O_40
REMARK                            x       y       z     vdW  Elec       q    Type
REMARK                         _______ _______ _______ _____ _____    ______ ____
ROOT
ATOM      1  C   UNL A   1     -23.357   1.333  27.028  0.00  0.00    +0.109 C 
ATOM      2  C   UNL A   1     -22.220   1.860  26.512  0.00  0.00    +0.156 C 
ATOM      3  C   UNL A   1     -20.986   1.587  27.092  0.00  0.00    +0.032 C 
ATOM      4  N   UNL A   1     -22.140  -0.501  29.870  0.00  0.00    -0.127 NA
ATOM      5  C   UNL A   1     -23.498   0.433  28.027  0.00  0.00    +0.099 C 
ATOM      6  F   UNL A   1     -22.267   2.587  25.360  0.00  0.00    -0.203 F 
ATOM      7  C   UNL A   1     -21.011   0.745  28.221  0.00  0.00    +0.022 C 
ATOM      8  C   UNL A   1     -22.249   0.213  28.720  0.00  0.00    +0.105 C 
ENDROOT
BRANCH   5   9
ATOM      9  N   UNL A   1     -24.813  -0.064  28.180  0.00  0.00    -0.236 NA
BRANCH   9  10
ATOM     10  C   UNL A   1     -25.892  -0.346  29.137  0.00  0.00    +0.100 C 
BRANCH  10  11
ATOM     11  C   UNL A   1     -24.855  -1.012  30.143  0.00  0.00    +0.058 C 
BRANCH  11  12
ATOM     12  C   UNL A   1     -24.973  -2.505  29.788  0.00  0.00    -0.019 C 
ATOM     13  C   UNL A   1     -23.906  -3.173  29.146  0.00  0.00    -0.004 C 
ATOM     14  C   UNL A   1     -23.989  -4.549  28.853  0.00  0.00    -0.000 C 
ATOM     15  C   UNL A   1     -25.137  -5.280  29.205  0.00  0.00    -0.000 C 
ATOM     16  C   UNL A   1     -26.232  -4.611  29.784  0.00  0.00    -0.000 C 
ATOM     17  C   UNL A   1     -26.155  -3.232  30.065  0.00  0.00    -0.004 C 
ENDBRANCH  11  12
BRANCH  11  18
ATOM     18  C   UNL A   1     -25.387  -0.679  31.571  0.00  0.00    +0.079 C 
ATOM     19  C   UNL A   1     -25.189   0.773  32.028  0.00  0.00    +0.019 C 
ATOM     20  C   UNL A   1     -25.336   0.684  33.544  0.00  0.00    +0.020 C 
ATOM     21  C   UNL A   1     -24.829  -0.715  33.905  0.00  0.00    +0.089 C 
ATOM     22  N   UNL A   1     -24.758  -1.481  32.646  0.00  0.00    -0.219 NA
ENDBRANCH  11  18
ENDBRANCH  10  11
BRANCH  10  23
ATOM     23  C   UNL A   1     -27.317   0.481  29.204  0.00  0.00    +0.054 C 
BRANCH  23  24
ATOM     24  C   UNL A   1     -26.853   1.918  29.470  0.00  0.00    +0.144 C 
BRANCH  24  26
ATOM     25  C   UNL A   1     -28.885   2.261  30.522  0.00  0.00    +0.174 C 
ATOM     26  O   UNL A   1     -27.881   2.885  29.755  0.00  0.00    -0.351 OA
ENDBRANCH  24  26
ENDBRANCH  23  24
ENDBRANCH  10  23
ENDBRANCH   9  10
ENDBRANCH   5   9
BRANCH   1  27
ATOM     27  N   UNL A   1     -24.363   1.790  26.398  0.00  0.00    -0.228 NA
BRANCH  27  28
ATOM     28  C   UNL A   1     -25.688   1.614  26.461  0.00  0.00    +0.162 C 
ATOM     29  C   UNL A   1     -26.250   2.920  26.395  0.00  0.00    +0.075 C 
ATOM     30  C   UNL A   1     -27.438   3.091  25.645  0.00  0.00    +0.104 C 
ATOM     31  N   UNL A   1     -28.075   2.089  25.003  0.00  0.00    -0.212 NA
ATOM     32  C   UNL A   1     -27.543   0.849  25.079  0.00  0.00    +0.236 C 
ATOM     33  C   UNL A   1     -26.354   0.576  25.777  0.00  0.00    +0.260 C 
ATOM     34  F   UNL A   1     -25.860  -0.681  25.795  0.00  0.00    -0.225 F 
BRANCH  29  35
ATOM     35  C   UNL A   1     -25.642   4.093  27.123  0.00  0.00    +0.264 C 
ATOM     36  N   UNL A   1     -25.614   5.252  26.449  0.00  0.00    -0.200 NA
ATOM     37  C   UNL A   1     -25.026   6.479  26.963  0.00  0.00    +0.139 C 
ATOM     38  O   UNL A   1     -25.143   3.966  28.243  0.00  0.00    -0.269 OA
ENDBRANCH  29  35
BRANCH  32  39
ATOM     39  O   UNL A   1     -28.193  -0.208  24.477  0.00  0.00    -0.459 OA
BRANCH  39  40
ATOM     40  C   UNL A   1     -29.460   0.005  23.866  0.00  0.00    +0.242 C 
BRANCH  40  41
ATOM     41  C   UNL A   1     -30.065  -1.377  23.573  0.00  0.00    +0.229 C 
ATOM     42  O   UNL A   1     -30.729  -1.878  24.721  0.00  0.00    -0.216 OA
ENDBRANCH  40  41
ENDBRANCH  39  40
ENDBRANCH  32  39
ENDBRANCH  27  28
ENDBRANCH   1  27
TORSDOF 14
