REMARK  Name = outputs/IAG933/test6/raw/output_5938_IAG933_linker_design_.xyz
REMARK  10 active torsions:
REMARK  status: ('A' for Active; 'I' for Inactive)
REMARK    1  A    between atoms: C_1  and  C_2
REMARK    2  A    between atoms: C_1  and  C_8
REMARK    3  A    between atoms: C_9  and  C_29
REMARK    4  A    between atoms: C_13  and  N_28
REMARK    5  A    between atoms: C_14  and  C_15
REMARK    6  A    between atoms: C_21  and  O_22
REMARK    7  A    between atoms: O_22  and  C_23
REMARK    8  A    between atoms: C_23  and  C_24
REMARK    9  A    between atoms: N_28  and  C_30
REMARK   10  A    between atoms: C_29  and  N_37
REMARK                            x       y       z     vdW  Elec       q    Type
REMARK                         _______ _______ _______ _____ _____    ______ ____
ROOT
ATOM      1  N   UNL A   1     -24.794   1.408  27.728  0.00  0.00    -0.231 N 
ATOM      2  O   UNL A   1     -26.578   1.059  29.253  0.00  0.00    -0.250 OA
ATOM      3  N   UNL A   1     -24.979   2.374  30.180  0.00  0.00    -0.191 NA
ATOM      4  C   UNL A   1     -25.524   1.735  29.056  0.00  0.00    +0.327 C 
ENDROOT
BRANCH   1   5
ATOM      5  C   UNL A   1     -25.688   1.614  26.461  0.00  0.00    +0.151 C 
ATOM      6  C   UNL A   1     -26.250   2.920  26.395  0.00  0.00    +0.073 C 
ATOM      7  C   UNL A   1     -27.438   3.091  25.645  0.00  0.00    +0.104 C 
ATOM      8  N   UNL A   1     -28.075   2.089  25.003  0.00  0.00    -0.212 NA
ATOM      9  C   UNL A   1     -27.543   0.849  25.079  0.00  0.00    +0.236 C 
ATOM     10  C   UNL A   1     -26.354   0.576  25.777  0.00  0.00    +0.259 C 
ATOM     11  F   UNL A   1     -25.860  -0.681  25.795  0.00  0.00    -0.225 F 
BRANCH   6  12
ATOM     12  C   UNL A   1     -25.642   4.093  27.123  0.00  0.00    +0.264 C 
ATOM     13  N   UNL A   1     -25.614   5.252  26.449  0.00  0.00    -0.200 NA
ATOM     14  C   UNL A   1     -25.026   6.479  26.963  0.00  0.00    +0.139 C 
ATOM     15  O   UNL A   1     -25.143   3.966  28.243  0.00  0.00    -0.269 OA
ENDBRANCH   6  12
BRANCH   9  16
ATOM     16  O   UNL A   1     -28.193  -0.208  24.477  0.00  0.00    -0.459 OA
BRANCH  16  17
ATOM     17  C   UNL A   1     -29.460   0.005  23.866  0.00  0.00    +0.242 C 
BRANCH  17  18
ATOM     18  C   UNL A   1     -30.065  -1.377  23.573  0.00  0.00    +0.229 C 
ATOM     19  O   UNL A   1     -30.729  -1.878  24.721  0.00  0.00    -0.216 OA
ENDBRANCH  17  18
ENDBRANCH  16  17
ENDBRANCH   9  16
ENDBRANCH   1   5
BRANCH   3  20
ATOM     20  C   UNL A   1     -25.473   2.428  31.614  0.00  0.00    +0.086 C 
ATOM     21  O   UNL A   1     -26.452   5.209  32.918  0.00  0.00    -0.356 OA
ATOM     22  C   UNL A   1     -27.006   2.809  31.968  0.00  0.00    +0.052 C 
ATOM     23  C   UNL A   1     -25.217   6.717  31.429  0.00  0.00    +0.032 C 
ATOM     24  C   UNL A   1     -25.747   5.287  31.695  0.00  0.00    +0.117 C 
ATOM     25  C   UNL A   1     -24.732   4.101  31.679  0.00  0.00    +0.050 C 
ATOM     26  C   UNL A   1     -27.214   3.976  32.984  0.00  0.00    +0.144 C 
BRANCH  20  28
ATOM     27  C   UNL A   1     -25.387  -0.679  31.571  0.00  0.00    +0.079 C 
ATOM     28  C   UNL A   1     -25.189   0.773  32.028  0.00  0.00    +0.036 C 
ATOM     29  C   UNL A   1     -25.336   0.684  33.544  0.00  0.00    +0.022 C 
ATOM     30  C   UNL A   1     -24.829  -0.715  33.905  0.00  0.00    +0.089 C 
ATOM     31  N   UNL A   1     -24.758  -1.481  32.646  0.00  0.00    -0.219 NA
BRANCH  27  32
ATOM     32  C   UNL A   1     -24.855  -1.012  30.143  0.00  0.00    +0.044 C 
BRANCH  32  33
ATOM     33  C   UNL A   1     -24.973  -2.505  29.788  0.00  0.00    -0.021 C 
ATOM     34  C   UNL A   1     -23.906  -3.173  29.146  0.00  0.00    -0.004 C 
ATOM     35  C   UNL A   1     -23.989  -4.549  28.853  0.00  0.00    -0.000 C 
ATOM     36  C   UNL A   1     -25.137  -5.280  29.205  0.00  0.00    -0.000 C 
ATOM     37  C   UNL A   1     -26.232  -4.611  29.784  0.00  0.00    -0.000 C 
ATOM     38  C   UNL A   1     -26.155  -3.232  30.065  0.00  0.00    -0.004 C 
ENDBRANCH  32  33
ENDBRANCH  27  32
ENDBRANCH  20  28
ENDBRANCH   3  20
BRANCH   1  39
ATOM     39  C   UNL A   1     -23.313   1.413  27.496  0.00  0.00    +0.134 C 
ATOM     40  N   UNL A   1     -21.149   1.199  28.436  0.00  0.00    -0.153 NA
ATOM     41  C   UNL A   1     -22.495   1.053  28.639  0.00  0.00    +0.139 C 
ATOM     42  N   UNL A   1     -21.150   1.708  27.075  0.00  0.00    -0.074 NA
ATOM     43  O   UNL A   1     -22.767   2.153  25.411  0.00  0.00    -0.265 OA
ATOM     44  C   UNL A   1     -22.427   1.772  26.543  0.00  0.00    +0.301 C 
ENDBRANCH   1  39
TORSDOF 10
