REMARK  Name = outputs/IAG933/test6/raw/output_594_IAG933_linker_design_.xyz
REMARK  10 active torsions:
REMARK  status: ('A' for Active; 'I' for Inactive)
REMARK    1  A    between atoms: C_1  and  C_2
REMARK    2  A    between atoms: C_1  and  C_8
REMARK    3  A    between atoms: C_9  and  C_44
REMARK    4  A    between atoms: C_13  and  C_33
REMARK    5  A    between atoms: C_14  and  C_15
REMARK    6  A    between atoms: C_21  and  O_22
REMARK    7  A    between atoms: O_22  and  C_23
REMARK    8  A    between atoms: C_23  and  C_24
REMARK    9  A    between atoms: C_29  and  C_44
REMARK   10  A    between atoms: C_32  and  C_44
REMARK                            x       y       z     vdW  Elec       q    Type
REMARK                         _______ _______ _______ _____ _____    ______ ____
ROOT
ATOM      1  C   UNL A   1     -22.522   1.145  28.409  0.00  0.00    +0.290 C 
ATOM      2  C   UNL A   1     -24.262   1.917  30.083  0.00  0.00    +0.232 C 
ATOM      3  F   UNL A   1     -22.089  -0.033  29.087  0.00  0.00    -0.207 F 
ATOM      4  C   UNL A   1     -24.363   1.550  27.076  0.00  0.00    +0.124 C 
ATOM      5  O   UNL A   1     -23.092   2.066  30.924  0.00  0.00    -0.274 OA
ATOM      6  C   UNL A   1     -22.198   1.300  27.144  0.00  0.00    +0.164 C 
ATOM      7  C   UNL A   1     -23.212   2.325  25.071  0.00  0.00    +0.030 C 
ATOM      8  F   UNL A   1     -20.870   1.455  26.862  0.00  0.00    -0.205 F 
ATOM      9  N   UNL A   1     -23.923   1.496  28.633  0.00  0.00    -0.242 N 
ATOM     10  C   UNL A   1     -23.230   1.686  26.403  0.00  0.00    +0.006 C 
ENDROOT
BRANCH   4  11
ATOM     11  C   UNL A   1     -25.688   1.614  26.461  0.00  0.00    +0.038 C 
ATOM     12  C   UNL A   1     -26.250   2.920  26.395  0.00  0.00    +0.074 C 
ATOM     13  C   UNL A   1     -27.438   3.091  25.645  0.00  0.00    +0.106 C 
ATOM     14  N   UNL A   1     -28.075   2.089  25.003  0.00  0.00    -0.208 NA
ATOM     15  C   UNL A   1     -27.543   0.849  25.079  0.00  0.00    +0.253 C 
ATOM     16  C   UNL A   1     -26.354   0.576  25.777  0.00  0.00    +0.191 C 
ATOM     17  F   UNL A   1     -25.860  -0.681  25.795  0.00  0.00    -0.200 F 
BRANCH  12  18
ATOM     18  C   UNL A   1     -25.642   4.093  27.123  0.00  0.00    +0.266 C 
ATOM     19  N   UNL A   1     -25.614   5.252  26.449  0.00  0.00    -0.200 NA
ATOM     20  C   UNL A   1     -25.026   6.479  26.963  0.00  0.00    +0.139 C 
ATOM     21  O   UNL A   1     -25.143   3.966  28.243  0.00  0.00    -0.268 OA
ENDBRANCH  12  18
BRANCH  15  22
ATOM     22  O   UNL A   1     -28.193  -0.208  24.477  0.00  0.00    -0.456 OA
BRANCH  22  23
ATOM     23  C   UNL A   1     -29.460   0.005  23.866  0.00  0.00    +0.243 C 
BRANCH  23  24
ATOM     24  C   UNL A   1     -30.065  -1.377  23.573  0.00  0.00    +0.229 C 
ATOM     25  O   UNL A   1     -30.729  -1.878  24.721  0.00  0.00    -0.216 OA
ENDBRANCH  23  24
ENDBRANCH  22  23
ENDBRANCH  15  22
ENDBRANCH   4  11
BRANCH   2  26
ATOM     26  C   UNL A   1     -25.552   1.979  31.100  0.00  0.00    +0.100 C 
BRANCH  26  28
ATOM     27  C   UNL A   1     -24.726   3.858  32.728  0.00  0.00    -0.004 C 
ATOM     28  C   UNL A   1     -25.503   3.527  31.585  0.00  0.00    -0.014 C 
ATOM     29  C   UNL A   1     -24.569   5.181  33.205  0.00  0.00    -0.000 C 
ATOM     30  C   UNL A   1     -25.070   6.246  32.439  0.00  0.00    -0.000 C 
ATOM     31  C   UNL A   1     -25.728   5.962  31.226  0.00  0.00    -0.000 C 
ATOM     32  C   UNL A   1     -25.958   4.628  30.814  0.00  0.00    -0.004 C 
ENDBRANCH  26  28
BRANCH  26  34
ATOM     33  C   UNL A   1     -25.387  -0.679  31.571  0.00  0.00    +0.078 C 
ATOM     34  C   UNL A   1     -25.189   0.773  32.028  0.00  0.00    +0.030 C 
ATOM     35  C   UNL A   1     -25.336   0.684  33.544  0.00  0.00    +0.021 C 
ATOM     36  C   UNL A   1     -24.829  -0.715  33.905  0.00  0.00    +0.089 C 
ATOM     37  N   UNL A   1     -24.758  -1.481  32.646  0.00  0.00    -0.219 NA
BRANCH  33  38
ATOM     38  C   UNL A   1     -24.855  -1.012  30.143  0.00  0.00    +0.044 C 
BRANCH  38  39
ATOM     39  C   UNL A   1     -24.973  -2.505  29.788  0.00  0.00    -0.021 C 
ATOM     40  C   UNL A   1     -23.906  -3.173  29.146  0.00  0.00    -0.004 C 
ATOM     41  C   UNL A   1     -23.989  -4.549  28.853  0.00  0.00    -0.000 C 
ATOM     42  C   UNL A   1     -25.137  -5.280  29.205  0.00  0.00    -0.000 C 
ATOM     43  C   UNL A   1     -26.232  -4.611  29.784  0.00  0.00    -0.000 C 
ATOM     44  C   UNL A   1     -26.155  -3.232  30.065  0.00  0.00    -0.004 C 
ENDBRANCH  38  39
ENDBRANCH  33  38
ENDBRANCH  26  34
ENDBRANCH   2  26
TORSDOF 10
