REMARK  Name = outputs/IAG933/test6/raw/output_5944_IAG933_linker_design_.xyz
REMARK  11 active torsions:
REMARK  status: ('A' for Active; 'I' for Inactive)
REMARK    1  A    between atoms: C_1  and  C_2
REMARK    2  A    between atoms: C_1  and  C_8
REMARK    3  A    between atoms: C_1  and  N_41
REMARK    4  A    between atoms: C_9  and  C_35
REMARK    5  A    between atoms: C_13  and  C_31
REMARK    6  A    between atoms: C_14  and  C_15
REMARK    7  A    between atoms: C_21  and  O_22
REMARK    8  A    between atoms: O_22  and  C_23
REMARK    9  A    between atoms: C_23  and  C_24
REMARK   10  A    between atoms: C_28  and  O_32
REMARK   11  A    between atoms: O_32  and  C_38
REMARK                            x       y       z     vdW  Elec       q    Type
REMARK                         _______ _______ _______ _____ _____    ______ ____
ROOT
ATOM      1  F   UNL A   1     -20.109   1.730  27.930  0.00  0.00    -0.229 F 
ATOM      2  C   UNL A   1     -20.656  -0.230  29.003  0.00  0.00    +0.246 C 
ATOM      3  C   UNL A   1     -24.496   1.050  27.095  0.00  0.00    +0.076 C 
ATOM      4  C   UNL A   1     -24.914   0.024  27.941  0.00  0.00    +0.101 C 
ATOM      5  C   UNL A   1     -22.382   0.737  28.059  0.00  0.00    +0.067 C 
ATOM      6  C   UNL A   1     -21.067   0.682  28.146  0.00  0.00    +0.229 C 
ATOM      7  C   UNL A   1     -23.106   1.317  27.058  0.00  0.00    +0.148 C 
ATOM      8  O   UNL A   1     -22.163  -0.546  29.908  0.00  0.00    -0.460 OA
ATOM      9  N   UNL A   1     -24.368   0.062  29.280  0.00  0.00    -0.276 N 
ATOM     10  C   UNL A   1     -23.000   0.050  29.129  0.00  0.00    +0.191 C 
ENDROOT
BRANCH   3  11
ATOM     11  C   UNL A   1     -25.688   1.614  26.461  0.00  0.00    +0.020 C 
ATOM     12  C   UNL A   1     -26.250   2.920  26.395  0.00  0.00    +0.073 C 
ATOM     13  C   UNL A   1     -27.438   3.091  25.645  0.00  0.00    +0.106 C 
ATOM     14  N   UNL A   1     -28.075   2.089  25.003  0.00  0.00    -0.208 NA
ATOM     15  C   UNL A   1     -27.543   0.849  25.079  0.00  0.00    +0.253 C 
ATOM     16  C   UNL A   1     -26.354   0.576  25.777  0.00  0.00    +0.189 C 
ATOM     17  F   UNL A   1     -25.860  -0.681  25.795  0.00  0.00    -0.200 F 
BRANCH  12  18
ATOM     18  C   UNL A   1     -25.642   4.093  27.123  0.00  0.00    +0.266 C 
ATOM     19  N   UNL A   1     -25.614   5.252  26.449  0.00  0.00    -0.200 NA
ATOM     20  C   UNL A   1     -25.026   6.479  26.963  0.00  0.00    +0.139 C 
ATOM     21  O   UNL A   1     -25.143   3.966  28.243  0.00  0.00    -0.268 OA
ENDBRANCH  12  18
BRANCH  15  22
ATOM     22  O   UNL A   1     -28.193  -0.208  24.477  0.00  0.00    -0.456 OA
BRANCH  22  23
ATOM     23  C   UNL A   1     -29.460   0.005  23.866  0.00  0.00    +0.243 C 
BRANCH  23  24
ATOM     24  C   UNL A   1     -30.065  -1.377  23.573  0.00  0.00    +0.229 C 
ATOM     25  O   UNL A   1     -30.729  -1.878  24.721  0.00  0.00    -0.216 OA
ENDBRANCH  23  24
ENDBRANCH  22  23
ENDBRANCH  15  22
ENDBRANCH   3  11
BRANCH   9  26
ATOM     26  C   UNL A   1     -24.855  -1.012  30.143  0.00  0.00    +0.114 C 
BRANCH  26  27
ATOM     27  C   UNL A   1     -24.973  -2.505  29.788  0.00  0.00    -0.003 C 
ATOM     28  C   UNL A   1     -23.906  -3.173  29.146  0.00  0.00    -0.003 C 
ATOM     29  C   UNL A   1     -23.989  -4.549  28.853  0.00  0.00    -0.000 C 
ATOM     30  C   UNL A   1     -25.137  -5.280  29.205  0.00  0.00    -0.000 C 
ATOM     31  C   UNL A   1     -26.232  -4.611  29.784  0.00  0.00    -0.000 C 
ATOM     32  C   UNL A   1     -26.155  -3.232  30.065  0.00  0.00    -0.003 C 
ENDBRANCH  26  27
BRANCH  26  33
ATOM     33  C   UNL A   1     -25.387  -0.679  31.571  0.00  0.00    +0.101 C 
ATOM     34  C   UNL A   1     -25.189   0.773  32.028  0.00  0.00    +0.063 C 
ATOM     35  C   UNL A   1     -25.336   0.684  33.544  0.00  0.00    +0.026 C 
ATOM     36  C   UNL A   1     -24.829  -0.715  33.905  0.00  0.00    +0.089 C 
ATOM     37  N   UNL A   1     -24.758  -1.481  32.646  0.00  0.00    -0.217 NA
BRANCH  34  39
ATOM     38  N   UNL A   1     -25.664   2.295  30.135  0.00  0.00    -0.151 NA
ATOM     39  C   UNL A   1     -24.734   1.820  30.955  0.00  0.00    +0.097 C 
ENDBRANCH  34  39
ENDBRANCH  26  33
ENDBRANCH   9  26
BRANCH   7  40
ATOM     40  O   UNL A   1     -22.184   1.986  26.278  0.00  0.00    -0.333 OA
BRANCH  40  41
ATOM     41  C   UNL A   1     -22.673   2.343  25.025  0.00  0.00    +0.253 C 
ATOM     42  N   UNL A   1     -23.757   2.961  25.226  0.00  0.00    -0.096 NA
ENDBRANCH  40  41
ENDBRANCH   7  40
TORSDOF 11
