MODEL 594
MODEL 1
REMARK VINA RESULT:    -5.751      0.000      0.000
REMARK INTER + INTRA:          -6.116
REMARK INTER:                  -6.087
REMARK INTRA:                  -0.029
REMARK UNBOUND:                -0.029
REMARK  Name = No_594-gen_results/8p0m/2024-11-27-11-27-31/
REMARK  1 active torsions:
REMARK  status: ('A' for Active; 'I' for Inactive)
REMARK    1  A    between atoms: C_9  and  C_11
REMARK                            x       y       z     vdW  Elec       q    Type
REMARK                         _______ _______ _______ _____ _____    ______ ____
ROOT
ATOM      1  C   UNL A   1     -30.704  -9.875  29.410  0.00  0.00    +0.000 A 
ATOM      2  C   UNL A   1     -30.099 -10.464  30.275  0.00  0.00    +0.000 A 
ATOM      3  C   UNL A   1     -29.245 -11.517  29.965  0.00  0.00    +0.001 A 
ATOM      4  C   UNL A   1     -29.090 -11.969  28.606  0.00  0.00    +0.000 A 
ATOM      5  C   UNL A   1     -29.845 -11.248  27.672  0.00  0.00    +0.000 A 
ATOM      6  C   UNL A   1     -30.651 -10.270  28.019  0.00  0.00    +0.000 A 
ATOM      7  C   UNL A   1     -30.159 -10.152  31.729  0.00  0.00    +0.001 A 
ATOM      8  C   UNL A   1     -29.169 -10.335  32.529  0.00  0.00    +0.010 A 
ATOM      9  C   UNL A   1     -28.194 -11.460  32.202  0.00  0.00    +0.068 A 
ATOM     10  C   UNL A   1     -28.165 -11.936  30.898  0.00  0.00    +0.010 A 
ENDROOT
BRANCH   9  11
ATOM     11  C   UNL A   1     -27.245 -11.939  33.198  0.00  0.00    +0.100 C 
ATOM     12  N   UNL A   1     -27.069 -12.289  34.229  0.00  0.00    -0.191 NA
ENDBRANCH   9  11
TORSDOF 1
ENDMDL
ENDMDL
