REMARK  Name = outputs/IAG933/test6/raw/output_5952_IAG933_linker_design_.xyz
REMARK  7 active torsions:
REMARK  status: ('A' for Active; 'I' for Inactive)
REMARK    1  A    between atoms: C_1  and  C_2
REMARK    2  A    between atoms: C_13  and  C_31
REMARK    3  A    between atoms: C_14  and  C_15
REMARK    4  A    between atoms: C_21  and  O_22
REMARK    5  A    between atoms: O_22  and  C_23
REMARK    6  A    between atoms: C_23  and  C_24
REMARK    7  A    between atoms: C_29  and  N_46
REMARK                            x       y       z     vdW  Elec       q    Type
REMARK                         _______ _______ _______ _____ _____    ______ ____
ROOT
ATOM      1  C   UNL A   1     -24.855  -1.012  30.143  0.00  0.00    +0.048 C 
ATOM      2  C   UNL A   1     -25.387  -0.679  31.571  0.00  0.00    +0.089 C 
ATOM      3  C   UNL A   1     -25.189   0.773  32.028  0.00  0.00    +0.127 C 
ATOM      4  C   UNL A   1     -25.336   0.684  33.544  0.00  0.00    +0.032 C 
ATOM      5  C   UNL A   1     -24.829  -0.715  33.905  0.00  0.00    +0.089 C 
ATOM      6  N   UNL A   1     -24.758  -1.481  32.646  0.00  0.00    -0.218 NA
ATOM      7  C   UNL A   1     -23.443   1.721  26.170  0.00  0.00    -0.021 C 
ATOM      8  C   UNL A   1     -21.971   1.839  26.107  0.00  0.00    +0.060 C 
ATOM      9  C   UNL A   1     -24.498   1.262  27.016  0.00  0.00    +0.025 C 
ATOM     10  C   UNL A   1     -23.980  -0.384  29.043  0.00  0.00    +0.088 C 
ATOM     11  N   UNL A   1     -24.935   1.611  29.689  0.00  0.00    -0.065 NA
ATOM     12  C   UNL A   1     -24.965   1.814  31.020  0.00  0.00    +0.338 C 
ATOM     13  C   UNL A   1     -21.364   1.532  27.288  0.00  0.00    +0.019 C 
ATOM     14  C   UNL A   1     -22.620   0.318  29.328  0.00  0.00    +0.020 C 
ATOM     15  C   UNL A   1     -24.803   0.739  28.473  0.00  0.00    +0.241 C 
ATOM     16  C   UNL A   1     -21.922   1.037  28.331  0.00  0.00    -0.109 C 
ATOM     17  N   UNL A   1     -24.544   2.984  31.460  0.00  0.00    -0.008 NA
ENDROOT
BRANCH  17  18
ATOM     18  C   UNL A   1     -25.526   3.877  31.561  0.00  0.00    +0.212 C 
ATOM     19  C   UNL A   1     -26.600   3.870  30.578  0.00  0.00    +0.047 C 
ATOM     20  C   UNL A   1     -27.096   6.198  31.045  0.00  0.00    +0.032 C 
ATOM     21  C   UNL A   1     -27.292   5.048  30.232  0.00  0.00    +0.006 C 
ATOM     22  C   UNL A   1     -26.347   6.026  32.240  0.00  0.00    +0.171 C 
ATOM     23  F   UNL A   1     -26.508   6.779  33.272  0.00  0.00    -0.202 F 
ATOM     24  F   UNL A   1     -24.792   4.802  33.546  0.00  0.00    -0.198 F 
ATOM     25  C   UNL A   1     -25.517   4.923  32.446  0.00  0.00    +0.208 C 
ENDBRANCH  17  18
BRANCH   9  26
ATOM     26  C   UNL A   1     -25.688   1.614  26.461  0.00  0.00    +0.038 C 
ATOM     27  C   UNL A   1     -26.250   2.920  26.395  0.00  0.00    +0.076 C 
ATOM     28  C   UNL A   1     -27.438   3.091  25.645  0.00  0.00    +0.107 C 
ATOM     29  N   UNL A   1     -28.075   2.089  25.003  0.00  0.00    -0.208 NA
ATOM     30  C   UNL A   1     -27.543   0.849  25.079  0.00  0.00    +0.253 C 
ATOM     31  C   UNL A   1     -26.354   0.576  25.777  0.00  0.00    +0.193 C 
ATOM     32  F   UNL A   1     -25.860  -0.681  25.795  0.00  0.00    -0.199 F 
BRANCH  27  33
ATOM     33  C   UNL A   1     -25.642   4.093  27.123  0.00  0.00    +0.266 C 
ATOM     34  N   UNL A   1     -25.614   5.252  26.449  0.00  0.00    -0.200 NA
ATOM     35  C   UNL A   1     -25.026   6.479  26.963  0.00  0.00    +0.139 C 
ATOM     36  O   UNL A   1     -25.143   3.966  28.243  0.00  0.00    -0.268 OA
ENDBRANCH  27  33
BRANCH  30  37
ATOM     37  O   UNL A   1     -28.193  -0.208  24.477  0.00  0.00    -0.456 OA
BRANCH  37  38
ATOM     38  C   UNL A   1     -29.460   0.005  23.866  0.00  0.00    +0.243 C 
BRANCH  38  39
ATOM     39  C   UNL A   1     -30.065  -1.377  23.573  0.00  0.00    +0.229 C 
ATOM     40  O   UNL A   1     -30.729  -1.878  24.721  0.00  0.00    -0.216 OA
ENDBRANCH  38  39
ENDBRANCH  37  38
ENDBRANCH  30  37
ENDBRANCH   9  26
BRANCH   1  41
ATOM     41  C   UNL A   1     -24.973  -2.505  29.788  0.00  0.00    -0.021 C 
ATOM     42  C   UNL A   1     -23.906  -3.173  29.146  0.00  0.00    -0.004 C 
ATOM     43  C   UNL A   1     -23.989  -4.549  28.853  0.00  0.00    -0.000 C 
ATOM     44  C   UNL A   1     -25.137  -5.280  29.205  0.00  0.00    -0.000 C 
ATOM     45  C   UNL A   1     -26.232  -4.611  29.784  0.00  0.00    -0.000 C 
ATOM     46  C   UNL A   1     -26.155  -3.232  30.065  0.00  0.00    -0.004 C 
ENDBRANCH   1  41
TORSDOF 7
