REMARK  Name = outputs/IAG933/test6/raw/output_5955_IAG933_linker_design_.xyz
REMARK  17 active torsions:
REMARK  status: ('A' for Active; 'I' for Inactive)
REMARK    1  A    between atoms: C_1  and  C_2
REMARK    2  A    between atoms: C_1  and  C_8
REMARK    3  A    between atoms: C_1  and  C_45
REMARK    4  A    between atoms: C_13  and  N_44
REMARK    5  A    between atoms: C_14  and  C_15
REMARK    6  A    between atoms: C_21  and  O_22
REMARK    7  A    between atoms: O_22  and  C_23
REMARK    8  A    between atoms: C_23  and  C_24
REMARK    9  A    between atoms: C_28  and  S_40
REMARK   10  A    between atoms: C_32  and  C_42
REMARK   11  A    between atoms: C_34  and  N_44
REMARK   12  A    between atoms: C_34  and  C_47
REMARK   13  A    between atoms: C_36  and  C_41
REMARK   14  A    between atoms: C_37  and  N_44
REMARK   15  A    between atoms: C_37  and  C_45
REMARK   16  A    between atoms: C_42  and  O_46
REMARK   17  A    between atoms: C_45  and  O_46
REMARK                            x       y       z     vdW  Elec       q    Type
REMARK                         _______ _______ _______ _____ _____    ______ ____
ROOT
ATOM      1  C   UNL A   1     -25.443  -0.064  29.042  0.00  0.00    +0.141 C 
ENDROOT
BRANCH   1   2
ATOM      2  C   UNL A   1     -24.855  -1.012  30.143  0.00  0.00    +0.067 C 
BRANCH   2   3
ATOM      3  C   UNL A   1     -24.973  -2.505  29.788  0.00  0.00    -0.019 C 
ATOM      4  C   UNL A   1     -23.906  -3.173  29.146  0.00  0.00    -0.004 C 
ATOM      5  C   UNL A   1     -23.989  -4.549  28.853  0.00  0.00    -0.000 C 
ATOM      6  C   UNL A   1     -25.137  -5.280  29.205  0.00  0.00    -0.000 C 
ATOM      7  C   UNL A   1     -26.232  -4.611  29.784  0.00  0.00    -0.000 C 
ATOM      8  C   UNL A   1     -26.155  -3.232  30.065  0.00  0.00    -0.004 C 
ENDBRANCH   2   3
BRANCH   2   9
ATOM      9  C   UNL A   1     -25.387  -0.679  31.571  0.00  0.00    +0.079 C 
ATOM     10  C   UNL A   1     -25.189   0.773  32.028  0.00  0.00    +0.019 C 
ATOM     11  C   UNL A   1     -25.336   0.684  33.544  0.00  0.00    +0.020 C 
ATOM     12  C   UNL A   1     -24.829  -0.715  33.905  0.00  0.00    +0.089 C 
ATOM     13  N   UNL A   1     -24.758  -1.481  32.646  0.00  0.00    -0.219 NA
ENDBRANCH   2   9
ENDBRANCH   1   2
BRANCH   1  14
ATOM     14  C   UNL A   1     -24.224   0.389  28.187  0.00  0.00    +0.122 C 
BRANCH  14  15
ATOM     15  N   UNL A   1     -24.347   1.413  27.062  0.00  0.00    -0.290 N 
BRANCH  15  16
ATOM     16  C   UNL A   1     -25.688   1.614  26.461  0.00  0.00    +0.087 C 
ATOM     17  C   UNL A   1     -26.250   2.920  26.395  0.00  0.00    +0.090 C 
ATOM     18  C   UNL A   1     -27.438   3.091  25.645  0.00  0.00    +0.108 C 
ATOM     19  N   UNL A   1     -28.075   2.089  25.003  0.00  0.00    -0.208 NA
ATOM     20  C   UNL A   1     -27.543   0.849  25.079  0.00  0.00    +0.255 C 
ATOM     21  C   UNL A   1     -26.354   0.576  25.777  0.00  0.00    +0.206 C 
ATOM     22  F   UNL A   1     -25.860  -0.681  25.795  0.00  0.00    -0.198 F 
BRANCH  17  23
ATOM     23  C   UNL A   1     -25.642   4.093  27.123  0.00  0.00    +0.268 C 
ATOM     24  N   UNL A   1     -25.614   5.252  26.449  0.00  0.00    -0.200 NA
ATOM     25  C   UNL A   1     -25.026   6.479  26.963  0.00  0.00    +0.139 C 
ATOM     26  O   UNL A   1     -25.143   3.966  28.243  0.00  0.00    -0.268 OA
ENDBRANCH  17  23
BRANCH  20  27
ATOM     27  O   UNL A   1     -28.193  -0.208  24.477  0.00  0.00    -0.456 OA
BRANCH  27  28
ATOM     28  C   UNL A   1     -29.460   0.005  23.866  0.00  0.00    +0.243 C 
BRANCH  28  29
ATOM     29  C   UNL A   1     -30.065  -1.377  23.573  0.00  0.00    +0.229 C 
ATOM     30  O   UNL A   1     -30.729  -1.878  24.721  0.00  0.00    -0.216 OA
ENDBRANCH  28  29
ENDBRANCH  27  28
ENDBRANCH  20  27
ENDBRANCH  15  16
BRANCH  15  31
ATOM     31  C   UNL A   1     -23.390   1.239  25.847  0.00  0.00    +0.198 C 
BRANCH  31  33
ATOM     32  N   UNL A   1     -21.117   1.925  26.638  0.00  0.00    -0.194 NA
ATOM     33  C   UNL A   1     -22.036   1.484  26.370  0.00  0.00    +0.095 C 
ENDBRANCH  31  33
ENDBRANCH  15  31
ENDBRANCH  14  15
ENDBRANCH   1  14
BRANCH   1  34
ATOM     34  O   UNL A   1     -26.268   1.039  29.578  0.00  0.00    -0.345 OA
BRANCH  34  35
ATOM     35  C   UNL A   1     -27.401   1.874  29.845  0.00  0.00    +0.226 C 
BRANCH  35  37
ATOM     36  C   UNL A   1     -26.520   5.475  31.748  0.00  0.00    +0.207 C 
ATOM     37  C   UNL A   1     -27.091   2.954  30.821  0.00  0.00    +0.227 C 
ATOM     38  O   UNL A   1     -28.064   3.562  31.617  0.00  0.00    -0.460 OA
ATOM     39  C   UNL A   1     -27.769   4.850  32.127  0.00  0.00    +0.233 C 
ATOM     40  C   UNL A   1     -25.454   4.584  31.717  0.00  0.00    +0.163 C 
ATOM     41  N   UNL A   1     -25.798   3.363  30.910  0.00  0.00    -0.237 NA
BRANCH  36  43
ATOM     42  O   UNL A   1     -25.015   7.393  30.688  0.00  0.00    -0.164 OA
ATOM     43  S   UNL A   1     -26.259   6.884  30.894  0.00  0.00    +0.044 S 
ATOM     44  O   UNL A   1     -27.649   7.743  31.095  0.00  0.00    -0.066 OA
ENDBRANCH  36  43
BRANCH  40  47
ATOM     45  O   UNL A   1     -22.860   5.134  32.537  0.00  0.00    -0.221 OA
ATOM     46  C   UNL A   1     -24.564   6.321  33.821  0.00  0.00    +0.038 C 
ATOM     47  C   UNL A   1     -24.142   5.383  32.678  0.00  0.00    +0.176 C 
ENDBRANCH  40  47
ENDBRANCH  35  37
ENDBRANCH  34  35
ENDBRANCH   1  34
TORSDOF 17
