REMARK  Name = outputs/IAG933/test6/raw/output_5956_IAG933_linker_design_.xyz
REMARK  15 active torsions:
REMARK  status: ('A' for Active; 'I' for Inactive)
REMARK    1  A    between atoms: C_1  and  C_2
REMARK    2  A    between atoms: C_1  and  C_8
REMARK    3  A    between atoms: C_1  and  C_40
REMARK    4  A    between atoms: C_13  and  C_35
REMARK    5  A    between atoms: C_14  and  C_15
REMARK    6  A    between atoms: C_21  and  O_22
REMARK    7  A    between atoms: O_22  and  C_23
REMARK    8  A    between atoms: C_23  and  C_24
REMARK    9  A    between atoms: C_28  and  C_41
REMARK   10  A    between atoms: C_29  and  C_40
REMARK   11  A    between atoms: C_31  and  C_33
REMARK   12  A    between atoms: C_31  and  C_37
REMARK   13  A    between atoms: C_31  and  C_44
REMARK   14  A    between atoms: C_37  and  C_41
REMARK   15  A    between atoms: C_40  and  C_44
REMARK                            x       y       z     vdW  Elec       q    Type
REMARK                         _______ _______ _______ _____ _____    ______ ____
ROOT
ATOM      1  C   UNL A   1     -24.776   0.537  28.358  0.00  0.00    +0.126 A 
ATOM      2  C   UNL A   1     -22.581   1.404  27.857  0.00  0.00    +0.298 A 
ATOM      3  C   UNL A   1     -23.346   1.671  26.881  0.00  0.00    +0.124 A 
ATOM      4  C   UNL A   1     -24.638   1.236  27.150  0.00  0.00    +0.049 A 
ATOM      5 CL   UNL A   1     -22.707   2.504  25.576  0.00  0.00    -0.076 Cl
ATOM      6  F   UNL A   1     -21.253   1.733  27.914  0.00  0.00    -0.162 F 
ATOM      7  O   UNL A   1     -23.419   0.583  28.806  0.00  0.00    -0.433 OA
ENDROOT
BRANCH   4   8
ATOM      8  C   UNL A   1     -25.688   1.614  26.461  0.00  0.00    +0.042 C 
ATOM      9  C   UNL A   1     -26.250   2.920  26.395  0.00  0.00    +0.077 C 
ATOM     10  C   UNL A   1     -27.438   3.091  25.645  0.00  0.00    +0.107 C 
ATOM     11  N   UNL A   1     -28.075   2.089  25.003  0.00  0.00    -0.208 NA
ATOM     12  C   UNL A   1     -27.543   0.849  25.079  0.00  0.00    +0.253 C 
ATOM     13  C   UNL A   1     -26.354   0.576  25.777  0.00  0.00    +0.193 C 
ATOM     14  F   UNL A   1     -25.860  -0.681  25.795  0.00  0.00    -0.199 F 
BRANCH   9  15
ATOM     15  C   UNL A   1     -25.642   4.093  27.123  0.00  0.00    +0.266 C 
ATOM     16  N   UNL A   1     -25.614   5.252  26.449  0.00  0.00    -0.200 NA
ATOM     17  C   UNL A   1     -25.026   6.479  26.963  0.00  0.00    +0.139 C 
ATOM     18  O   UNL A   1     -25.143   3.966  28.243  0.00  0.00    -0.268 OA
ENDBRANCH   9  15
BRANCH  12  19
ATOM     19  O   UNL A   1     -28.193  -0.208  24.477  0.00  0.00    -0.456 OA
BRANCH  19  20
ATOM     20  C   UNL A   1     -29.460   0.005  23.866  0.00  0.00    +0.243 C 
BRANCH  20  21
ATOM     21  C   UNL A   1     -30.065  -1.377  23.573  0.00  0.00    +0.229 C 
ATOM     22  O   UNL A   1     -30.729  -1.878  24.721  0.00  0.00    -0.216 OA
ENDBRANCH  20  21
ENDBRANCH  19  20
ENDBRANCH  12  19
ENDBRANCH   4   8
BRANCH   1  23
ATOM     23  C   UNL A   1     -25.625  -0.209  29.124  0.00  0.00    +0.063 C 
BRANCH  23  24
ATOM     24  C   UNL A   1     -24.855  -1.012  30.143  0.00  0.00    +0.045 C 
BRANCH  24  25
ATOM     25  C   UNL A   1     -24.973  -2.505  29.788  0.00  0.00    -0.021 C 
ATOM     26  C   UNL A   1     -23.906  -3.173  29.146  0.00  0.00    -0.004 C 
ATOM     27  C   UNL A   1     -23.989  -4.549  28.853  0.00  0.00    -0.000 C 
ATOM     28  C   UNL A   1     -25.137  -5.280  29.205  0.00  0.00    -0.000 C 
ATOM     29  C   UNL A   1     -26.232  -4.611  29.784  0.00  0.00    -0.000 C 
ATOM     30  C   UNL A   1     -26.155  -3.232  30.065  0.00  0.00    -0.004 C 
ENDBRANCH  24  25
BRANCH  24  31
ATOM     31  C   UNL A   1     -25.387  -0.679  31.571  0.00  0.00    +0.077 C 
ATOM     32  C   UNL A   1     -25.189   0.773  32.028  0.00  0.00    +0.019 C 
ATOM     33  C   UNL A   1     -25.336   0.684  33.544  0.00  0.00    +0.020 C 
ATOM     34  C   UNL A   1     -24.829  -0.715  33.905  0.00  0.00    +0.089 C 
ATOM     35  N   UNL A   1     -24.758  -1.481  32.646  0.00  0.00    -0.219 NA
ENDBRANCH  24  31
ENDBRANCH  23  24
BRANCH  23  36
ATOM     36  C   UNL A   1     -27.187  -0.269  28.925  0.00  0.00    +0.011 C 
BRANCH  36  37
ATOM     37  C   UNL A   1     -28.536   0.323  28.537  0.00  0.00    +0.034 C 
BRANCH  37  38
ATOM     38  C   UNL A   1     -29.527  -0.925  28.280  0.00  0.00    +0.182 C 
ATOM     39  O   UNL A   1     -30.917  -1.157  27.867  0.00  0.00    -0.220 OA
ENDBRANCH  37  38
BRANCH  37  40
ATOM     40  C   UNL A   1     -28.954   1.384  29.564  0.00  0.00    +0.012 C 
BRANCH  40  41
ATOM     41  C   UNL A   1     -29.992   2.343  29.249  0.00  0.00    +0.089 C 
BRANCH  41  42
ATOM     42  C   UNL A   1     -31.116   1.902  28.440  0.00  0.00    +0.261 C 
ATOM     43  N   UNL A   1     -32.080   1.184  29.016  0.00  0.00    -0.088 NA
ATOM     44  O   UNL A   1     -31.141   2.160  27.225  0.00  0.00    -0.272 OA
ENDBRANCH  41  42
ENDBRANCH  40  41
ENDBRANCH  37  40
ENDBRANCH  36  37
ENDBRANCH  23  36
ENDBRANCH   1  23
TORSDOF 15
