REMARK  Name = outputs/IAG933/test6/raw/output_5957_IAG933_linker_design_.xyz
REMARK  16 active torsions:
REMARK  status: ('A' for Active; 'I' for Inactive)
REMARK    1  A    between atoms: C_1  and  C_2
REMARK    2  A    between atoms: C_1  and  C_8
REMARK    3  A    between atoms: C_1  and  C_39
REMARK    4  A    between atoms: C_13  and  C_37
REMARK    5  A    between atoms: C_14  and  C_15
REMARK    6  A    between atoms: C_21  and  O_22
REMARK    7  A    between atoms: O_22  and  C_23
REMARK    8  A    between atoms: C_23  and  C_24
REMARK    9  A    between atoms: C_30  and  C_32
REMARK   10  A    between atoms: C_30  and  C_39
REMARK   11  A    between atoms: C_31  and  C_32
REMARK   12  A    between atoms: C_31  and  C_36
REMARK   13  A    between atoms: C_35  and  C_45
REMARK   14  A    between atoms: C_36  and  C_41
REMARK   15  A    between atoms: C_39  and  C_40
REMARK   16  A    between atoms: C_41  and  C_45
REMARK                            x       y       z     vdW  Elec       q    Type
REMARK                         _______ _______ _______ _____ _____    ______ ____
ROOT
ATOM      1  C   UNL A   1     -22.079   1.841  27.193  0.00  0.00    +0.092 C 
ATOM      2  F   UNL A   1     -20.844   0.664  28.645  0.00  0.00    -0.183 F 
ATOM      3  O   UNL A   1     -23.209   2.831  25.433  0.00  0.00    -0.286 OA
ATOM      4  C   UNL A   1     -24.436   1.359  27.216  0.00  0.00    +0.055 C 
ATOM      5  C   UNL A   1     -23.251   2.033  26.631  0.00  0.00    +0.201 C 
ATOM      6  C   UNL A   1     -24.330   0.536  28.342  0.00  0.00    +0.064 C 
ATOM      7  N   UNL A   1     -23.067   0.322  28.790  0.00  0.00    -0.222 NA
ATOM      8  C   UNL A   1     -21.997   0.920  28.229  0.00  0.00    +0.225 C 
ENDROOT
BRANCH   4   9
ATOM      9  C   UNL A   1     -25.688   1.614  26.461  0.00  0.00    +0.042 C 
ATOM     10  C   UNL A   1     -26.250   2.920  26.395  0.00  0.00    +0.077 C 
ATOM     11  C   UNL A   1     -27.438   3.091  25.645  0.00  0.00    +0.107 C 
ATOM     12  N   UNL A   1     -28.075   2.089  25.003  0.00  0.00    -0.208 NA
ATOM     13  C   UNL A   1     -27.543   0.849  25.079  0.00  0.00    +0.253 C 
ATOM     14  C   UNL A   1     -26.354   0.576  25.777  0.00  0.00    +0.193 C 
ATOM     15  F   UNL A   1     -25.860  -0.681  25.795  0.00  0.00    -0.199 F 
BRANCH  10  16
ATOM     16  C   UNL A   1     -25.642   4.093  27.123  0.00  0.00    +0.266 C 
ATOM     17  N   UNL A   1     -25.614   5.252  26.449  0.00  0.00    -0.200 NA
ATOM     18  C   UNL A   1     -25.026   6.479  26.963  0.00  0.00    +0.139 C 
ATOM     19  O   UNL A   1     -25.143   3.966  28.243  0.00  0.00    -0.268 OA
ENDBRANCH  10  16
BRANCH  13  20
ATOM     20  O   UNL A   1     -28.193  -0.208  24.477  0.00  0.00    -0.456 OA
BRANCH  20  21
ATOM     21  C   UNL A   1     -29.460   0.005  23.866  0.00  0.00    +0.243 C 
BRANCH  21  22
ATOM     22  C   UNL A   1     -30.065  -1.377  23.573  0.00  0.00    +0.229 C 
ATOM     23  O   UNL A   1     -30.729  -1.878  24.721  0.00  0.00    -0.216 OA
ENDBRANCH  21  22
ENDBRANCH  20  21
ENDBRANCH  13  20
ENDBRANCH   4   9
BRANCH   6  24
ATOM     24  C   UNL A   1     -25.523  -0.094  29.088  0.00  0.00    +0.046 C 
BRANCH  24  25
ATOM     25  C   UNL A   1     -24.855  -1.012  30.143  0.00  0.00    +0.044 C 
BRANCH  25  26
ATOM     26  C   UNL A   1     -24.973  -2.505  29.788  0.00  0.00    -0.021 C 
ATOM     27  C   UNL A   1     -23.906  -3.173  29.146  0.00  0.00    -0.004 C 
ATOM     28  C   UNL A   1     -23.989  -4.549  28.853  0.00  0.00    -0.000 C 
ATOM     29  C   UNL A   1     -25.137  -5.280  29.205  0.00  0.00    -0.000 C 
ATOM     30  C   UNL A   1     -26.232  -4.611  29.784  0.00  0.00    -0.000 C 
ATOM     31  C   UNL A   1     -26.155  -3.232  30.065  0.00  0.00    -0.004 C 
ENDBRANCH  25  26
BRANCH  25  32
ATOM     32  C   UNL A   1     -25.387  -0.679  31.571  0.00  0.00    +0.077 C 
ATOM     33  C   UNL A   1     -25.189   0.773  32.028  0.00  0.00    +0.019 C 
ATOM     34  C   UNL A   1     -25.336   0.684  33.544  0.00  0.00    +0.020 C 
ATOM     35  C   UNL A   1     -24.829  -0.715  33.905  0.00  0.00    +0.089 C 
ATOM     36  N   UNL A   1     -24.758  -1.481  32.646  0.00  0.00    -0.219 NA
ENDBRANCH  25  32
ENDBRANCH  24  25
BRANCH  24  37
ATOM     37  C   UNL A   1     -26.782   0.651  29.030  0.00  0.00    +0.006 C 
BRANCH  37  38
ATOM     38  C   UNL A   1     -27.976   1.095  29.783  0.00  0.00    +0.000 C 
BRANCH  38  39
ATOM     39  C   UNL A   1     -28.504   2.514  29.387  0.00  0.00    +0.001 C 
BRANCH  39  40
ATOM     40  C   UNL A   1     -28.849   3.216  30.692  0.00  0.00    +0.008 C 
BRANCH  40  41
ATOM     41  C   UNL A   1     -28.560   4.602  31.075  0.00  0.00    +0.066 C 
BRANCH  41  43
ATOM     42  O   UNL A   1     -27.476   3.962  33.135  0.00  0.00    -0.294 OA
ATOM     43  C   UNL A   1     -28.207   4.737  32.535  0.00  0.00    +0.170 C 
BRANCH  43  44
ATOM     44  C   UNL A   1     -28.813   5.942  33.160  0.00  0.00    +0.173 C 
ATOM     45  N   UNL A   1     -29.803   5.484  34.161  0.00  0.00    -0.123 NA
ENDBRANCH  43  44
ENDBRANCH  41  43
ENDBRANCH  40  41
ENDBRANCH  39  40
ENDBRANCH  38  39
ENDBRANCH  37  38
ENDBRANCH  24  37
ENDBRANCH   6  24
TORSDOF 16
