MODEL 595
MODEL 1
REMARK VINA RESULT:    -7.224      0.000      0.000
REMARK INTER + INTRA:          -8.367
REMARK INTER:                  -7.646
REMARK INTRA:                  -0.721
REMARK UNBOUND:                -0.721
REMARK  Name = No_595-gen_results/8p0m/2024-11-27-11-27-31/
REMARK  1 active torsions:
REMARK  status: ('A' for Active; 'I' for Inactive)
REMARK    1  A    between atoms: C_18  and  C_26
REMARK                            x       y       z     vdW  Elec       q    Type
REMARK                         _______ _______ _______ _____ _____    ______ ____
ROOT
ATOM      1  C   UNL A   1     -25.220   1.443  26.813  0.00  0.00    +0.066 A 
ATOM      2  C   UNL A   1     -24.181   1.270  26.861  0.00  0.00    +0.017 A 
ATOM      3  C   UNL A   1     -26.005   1.024  28.036  0.00  0.00    -0.009 A 
ATOM      4  C   UNL A   1     -27.440   1.016  28.167  0.00  0.00    +0.032 C 
ATOM      5  C   UNL A   1     -23.300   0.899  27.976  0.00  0.00    +0.016 A 
ATOM      6  C   UNL A   1     -23.943   0.530  29.137  0.00  0.00    +0.048 A 
ATOM      7  C   UNL A   1     -25.309   0.606  29.227  0.00  0.00    -0.007 A 
ATOM      8  C   UNL A   1     -28.246   0.442  27.179  0.00  0.00    +0.032 C 
ATOM      9  C   UNL A   1     -28.228   0.650  26.187  0.00  0.00    -0.007 A 
ATOM     10  C   UNL A   1     -29.162   0.007  25.177  0.00  0.00    -0.003 A 
ATOM     11  C   UNL A   1     -29.018   0.188  23.808  0.00  0.00    -0.000 A 
ATOM     12  C   UNL A   1     -28.081   1.107  23.323  0.00  0.00    +0.001 A 
ATOM     13  C   UNL A   1     -27.266   1.737  24.204  0.00  0.00    +0.016 A 
ATOM     14  C   UNL A   1     -27.317   1.538  25.554  0.00  0.00    +0.067 A 
ATOM     15  N   UNL A   1     -26.019   1.448  25.676  0.00  0.00    -0.213 NA
ATOM     16  C   UNL A   1     -25.957   0.324  30.464  0.00  0.00    +0.054 C 
ATOM     17  C   UNL A   1     -26.311  -0.982  30.647  0.00  0.00    -0.017 C 
ATOM     18  C   UNL A   1     -27.528  -1.336  31.275  0.00  0.00    -0.004 C 
ATOM     19  C   UNL A   1     -25.448  -2.092  30.206  0.00  0.00    +0.010 A 
ATOM     20  C   UNL A   1     -26.047  -3.446  30.069  0.00  0.00    +0.001 A 
ATOM     21  C   UNL A   1     -25.142  -4.363  29.409  0.00  0.00    +0.000 A 
ATOM     22  C   UNL A   1     -24.435  -4.093  28.570  0.00  0.00    +0.001 A 
ATOM     23  C   UNL A   1     -23.846  -2.742  28.552  0.00  0.00    +0.015 A 
ATOM     24  C   UNL A   1     -24.523  -1.793  29.259  0.00  0.00    +0.051 A 
ATOM     25  N   UNL A   1     -23.852  -0.840  29.267  0.00  0.00    -0.285 N 
ATOM     26  C   UNL A   1     -22.361  -1.075  29.981  0.00  0.00    +0.117 C 
ENDROOT
BRANCH  18  27
ATOM     27  C   UNL A   1     -28.747  -1.611  30.620  0.00  0.00    -0.005 C 
ATOM     28  C   UNL A   1     -29.795  -0.732  30.676  0.00  0.00    -0.026 C 
ATOM     29  C   UNL A   1     -29.527   0.486  31.286  0.00  0.00    +0.031 C 
ENDBRANCH  18  27
TORSDOF 1
ENDMDL
ENDMDL
