REMARK  Name = outputs/IAG933/test6/raw/output_5960_IAG933_linker_design_.xyz
REMARK  13 active torsions:
REMARK  status: ('A' for Active; 'I' for Inactive)
REMARK    1  A    between atoms: C_1  and  C_2
REMARK    2  A    between atoms: C_1  and  C_8
REMARK    3  A    between atoms: C_1  and  C_42
REMARK    4  A    between atoms: C_13  and  N_46
REMARK    5  A    between atoms: C_14  and  C_15
REMARK    6  A    between atoms: C_21  and  O_22
REMARK    7  A    between atoms: O_22  and  C_23
REMARK    8  A    between atoms: C_23  and  C_24
REMARK    9  A    between atoms: C_29  and  C_36
REMARK   10  A    between atoms: C_29  and  N_46
REMARK   11  A    between atoms: C_37  and  C_42
REMARK   12  A    between atoms: C_39  and  N_47
REMARK   13  A    between atoms: C_42  and  C_43
REMARK                            x       y       z     vdW  Elec       q    Type
REMARK                         _______ _______ _______ _____ _____    ______ ____
ROOT
ATOM      1  C   UNL A   1     -25.567  -0.321  28.943  0.00  0.00    +0.105 C 
ENDROOT
BRANCH   1   4
ATOM      2  C   UNL A   1     -29.690   0.958  29.024  0.00  0.00    +0.015 C 
ATOM      3  C   UNL A   1     -27.569   0.757  30.073  0.00  0.00    +0.011 C 
ATOM      4  C   UNL A   1     -27.083  -0.106  29.109  0.00  0.00    -0.012 C 
ATOM      5  C   UNL A   1     -28.917   1.201  30.160  0.00  0.00    +0.051 C 
ATOM      6  C   UNL A   1     -29.289  -0.056  28.147  0.00  0.00    +0.001 C 
ATOM      7  C   UNL A   1     -28.048  -0.678  28.277  0.00  0.00    -0.004 C 
BRANCH   5  14
ATOM      8  C   UNL A   1     -28.331   2.183  33.667  0.00  0.00    +0.022 C 
ATOM      9  C   UNL A   1     -30.514   3.092  33.909  0.00  0.00    +0.027 C 
ATOM     10  C   UNL A   1     -31.143   2.073  33.152  0.00  0.00    -0.010 C 
ATOM     11  C   UNL A   1     -29.357   2.569  34.677  0.00  0.00    +0.006 C 
ATOM     12  C   UNL A   1     -30.645   1.522  31.896  0.00  0.00    +0.061 C 
ATOM     13  C   UNL A   1     -28.432   2.577  32.247  0.00  0.00    +0.096 C 
ATOM     14  N   UNL A   1     -29.309   1.722  31.413  0.00  0.00    -0.286 N 
ENDBRANCH   5  14
ENDBRANCH   1   4
BRANCH   1  16
ATOM     15  O   UNL A   1     -24.205   1.583  29.546  0.00  0.00    -0.274 OA
ATOM     16  C   UNL A   1     -24.770   0.933  28.656  0.00  0.00    +0.233 C 
ATOM     17  N   UNL A   1     -24.653   1.234  27.360  0.00  0.00    -0.258 N 
BRANCH  17  18
ATOM     18  C   UNL A   1     -25.688   1.614  26.461  0.00  0.00    +0.092 C 
ATOM     19  C   UNL A   1     -26.250   2.920  26.395  0.00  0.00    +0.090 C 
ATOM     20  C   UNL A   1     -27.438   3.091  25.645  0.00  0.00    +0.108 C 
ATOM     21  N   UNL A   1     -28.075   2.089  25.003  0.00  0.00    -0.208 NA
ATOM     22  C   UNL A   1     -27.543   0.849  25.079  0.00  0.00    +0.255 C 
ATOM     23  C   UNL A   1     -26.354   0.576  25.777  0.00  0.00    +0.207 C 
ATOM     24  F   UNL A   1     -25.860  -0.681  25.795  0.00  0.00    -0.198 F 
BRANCH  19  25
ATOM     25  C   UNL A   1     -25.642   4.093  27.123  0.00  0.00    +0.268 C 
ATOM     26  N   UNL A   1     -25.614   5.252  26.449  0.00  0.00    -0.200 NA
ATOM     27  C   UNL A   1     -25.026   6.479  26.963  0.00  0.00    +0.139 C 
ATOM     28  O   UNL A   1     -25.143   3.966  28.243  0.00  0.00    -0.268 OA
ENDBRANCH  19  25
BRANCH  22  29
ATOM     29  O   UNL A   1     -28.193  -0.208  24.477  0.00  0.00    -0.456 OA
BRANCH  29  30
ATOM     30  C   UNL A   1     -29.460   0.005  23.866  0.00  0.00    +0.243 C 
BRANCH  30  31
ATOM     31  C   UNL A   1     -30.065  -1.377  23.573  0.00  0.00    +0.229 C 
ATOM     32  O   UNL A   1     -30.729  -1.878  24.721  0.00  0.00    -0.216 OA
ENDBRANCH  30  31
ENDBRANCH  29  30
ENDBRANCH  22  29
ENDBRANCH  17  18
BRANCH  17  34
ATOM     33  C   UNL A   1     -22.205   0.993  27.782  0.00  0.00    +0.022 C 
ATOM     34  C   UNL A   1     -23.313   0.935  26.745  0.00  0.00    +0.080 C 
BRANCH  34  35
ATOM     35  C   UNL A   1     -23.287   1.623  25.380  0.00  0.00    +0.020 C 
ATOM     36  C   UNL A   1     -21.962   2.242  25.082  0.00  0.00    +0.002 C 
ENDBRANCH  34  35
ENDBRANCH  17  34
ENDBRANCH   1  16
BRANCH   1  37
ATOM     37  C   UNL A   1     -24.855  -1.012  30.143  0.00  0.00    +0.051 C 
BRANCH  37  38
ATOM     38  C   UNL A   1     -24.973  -2.505  29.788  0.00  0.00    -0.020 C 
ATOM     39  C   UNL A   1     -23.906  -3.173  29.146  0.00  0.00    -0.004 C 
ATOM     40  C   UNL A   1     -23.989  -4.549  28.853  0.00  0.00    -0.000 C 
ATOM     41  C   UNL A   1     -25.137  -5.280  29.205  0.00  0.00    -0.000 C 
ATOM     42  C   UNL A   1     -26.232  -4.611  29.784  0.00  0.00    -0.000 C 
ATOM     43  C   UNL A   1     -26.155  -3.232  30.065  0.00  0.00    -0.004 C 
ENDBRANCH  37  38
BRANCH  37  44
ATOM     44  C   UNL A   1     -25.387  -0.679  31.571  0.00  0.00    +0.078 C 
ATOM     45  C   UNL A   1     -25.189   0.773  32.028  0.00  0.00    +0.019 C 
ATOM     46  C   UNL A   1     -25.336   0.684  33.544  0.00  0.00    +0.020 C 
ATOM     47  C   UNL A   1     -24.829  -0.715  33.905  0.00  0.00    +0.089 C 
ATOM     48  N   UNL A   1     -24.758  -1.481  32.646  0.00  0.00    -0.219 NA
ENDBRANCH  37  44
ENDBRANCH   1  37
TORSDOF 13
