REMARK  Name = outputs/IAG933/test6/raw/output_5963_IAG933_linker_design_.xyz
REMARK  7 active torsions:
REMARK  status: ('A' for Active; 'I' for Inactive)
REMARK    1  A    between atoms: C_1  and  C_2
REMARK    2  A    between atoms: C_13  and  N_30
REMARK    3  A    between atoms: C_14  and  C_15
REMARK    4  A    between atoms: C_21  and  O_22
REMARK    5  A    between atoms: O_22  and  C_23
REMARK    6  A    between atoms: C_23  and  C_24
REMARK    7  A    between atoms: C_35  and  CA_39
REMARK                            x       y       z     vdW  Elec       q    Type
REMARK                         _______ _______ _______ _____ _____    ______ ____
ROOT
ATOM      1  C   UNL A   1     -24.855  -1.012  30.143  0.00  0.00    +0.199 C 
ATOM      2  C   UNL A   1     -25.387  -0.679  31.571  0.00  0.00    +0.121 C 
ATOM      3  C   UNL A   1     -25.189   0.773  32.028  0.00  0.00    +0.044 C 
ATOM      4  C   UNL A   1     -25.336   0.684  33.544  0.00  0.00    +0.022 C 
ATOM      5  C   UNL A   1     -24.829  -0.715  33.905  0.00  0.00    +0.089 C 
ATOM      6  N   UNL A   1     -24.758  -1.481  32.646  0.00  0.00    -0.215 NA
ATOM      7  C   UNL A   1     -23.168   1.371  27.018  0.00  0.00    +0.298 C 
ATOM      8  C   UNL A   1     -22.538  -0.026  29.426  0.00  0.00    +0.232 C 
ATOM      9  N   UNL A   1     -25.398   1.175  27.764  0.00  0.00    -0.121 N 
ATOM     10  C   UNL A   1     -21.887   1.328  27.431  0.00  0.00    +0.186 C 
ATOM     11  C   UNL A   1     -26.345   0.765  28.870  0.00  0.00    +0.415 C 
ATOM     12  N   UNL A   1     -26.289   1.512  29.901  0.00  0.00    -0.165 NA
ATOM     13  C   UNL A   1     -21.577   0.588  28.583  0.00  0.00    +0.057 C 
ATOM     14  O   UNL A   1     -23.432   1.893  25.784  0.00  0.00    -0.277 OA
ATOM     15  N   UNL A   1     -23.887  -0.137  29.108  0.00  0.00    -0.187 N 
ATOM     16  CA  UNL A   1     -25.303   1.993  30.968  0.00  0.00    +0.133 C 
ATOM     17  F   UNL A   1     -20.947   2.073  26.768  0.00  0.00    -0.201 F 
ATOM     18  O   UNL A   1     -27.136  -0.193  28.747  0.00  0.00    -0.222 OA
ATOM     19  C   UNL A   1     -24.152   0.752  27.956  0.00  0.00    +0.321 C 
ENDROOT
BRANCH   9  20
ATOM     20  C   UNL A   1     -25.688   1.614  26.461  0.00  0.00    +0.239 C 
ATOM     21  C   UNL A   1     -26.250   2.920  26.395  0.00  0.00    +0.098 C 
ATOM     22  C   UNL A   1     -27.438   3.091  25.645  0.00  0.00    +0.106 C 
ATOM     23  N   UNL A   1     -28.075   2.089  25.003  0.00  0.00    -0.212 NA
ATOM     24  C   UNL A   1     -27.543   0.849  25.079  0.00  0.00    +0.238 C 
ATOM     25  C   UNL A   1     -26.354   0.576  25.777  0.00  0.00    +0.283 C 
ATOM     26  F   UNL A   1     -25.860  -0.681  25.795  0.00  0.00    -0.222 F 
BRANCH  21  27
ATOM     27  C   UNL A   1     -25.642   4.093  27.123  0.00  0.00    +0.266 C 
ATOM     28  N   UNL A   1     -25.614   5.252  26.449  0.00  0.00    -0.200 NA
ATOM     29  C   UNL A   1     -25.026   6.479  26.963  0.00  0.00    +0.139 C 
ATOM     30  O   UNL A   1     -25.143   3.966  28.243  0.00  0.00    -0.269 OA
ENDBRANCH  21  27
BRANCH  24  31
ATOM     31  O   UNL A   1     -28.193  -0.208  24.477  0.00  0.00    -0.458 OA
BRANCH  31  32
ATOM     32  C   UNL A   1     -29.460   0.005  23.866  0.00  0.00    +0.242 C 
BRANCH  32  33
ATOM     33  C   UNL A   1     -30.065  -1.377  23.573  0.00  0.00    +0.229 C 
ATOM     34  O   UNL A   1     -30.729  -1.878  24.721  0.00  0.00    -0.216 OA
ENDBRANCH  32  33
ENDBRANCH  31  32
ENDBRANCH  24  31
ENDBRANCH   9  20
BRANCH   1  35
ATOM     35  C   UNL A   1     -24.973  -2.505  29.788  0.00  0.00    +0.021 C 
ATOM     36  C   UNL A   1     -23.906  -3.173  29.146  0.00  0.00    -0.000 C 
ATOM     37  C   UNL A   1     -23.989  -4.549  28.853  0.00  0.00    -0.000 C 
ATOM     38  C   UNL A   1     -25.137  -5.280  29.205  0.00  0.00    -0.000 C 
ATOM     39  C   UNL A   1     -26.232  -4.611  29.784  0.00  0.00    -0.000 C 
ATOM     40  C   UNL A   1     -26.155  -3.232  30.065  0.00  0.00    -0.000 C 
ENDBRANCH   1  35
BRANCH  16  41
ATOM     41  C   UNL A   1     -25.645   3.600  30.970  0.00  0.00    +0.204 C 
ATOM     42  O   UNL A   1     -26.811   3.726  31.784  0.00  0.00    -0.218 OA
ENDBRANCH  16  41
TORSDOF 7
