REMARK  Name = outputs/IAG933/test6/raw/output_597_IAG933_linker_design_.xyz
REMARK  12 active torsions:
REMARK  status: ('A' for Active; 'I' for Inactive)
REMARK    1  A    between atoms: C_1  and  C_2
REMARK    2  A    between atoms: C_1  and  C_8
REMARK    3  A    between atoms: C_1  and  C_36
REMARK    4  A    between atoms: C_13  and  N_29
REMARK    5  A    between atoms: C_14  and  C_15
REMARK    6  A    between atoms: C_21  and  O_22
REMARK    7  A    between atoms: O_22  and  C_23
REMARK    8  A    between atoms: C_23  and  C_24
REMARK    9  A    between atoms: N_29  and  C_34
REMARK   10  A    between atoms: C_31  and  C_40
REMARK   11  A    between atoms: N_35  and  C_36
REMARK   12  A    between atoms: C_36  and  C_38
REMARK                            x       y       z     vdW  Elec       q    Type
REMARK                         _______ _______ _______ _____ _____    ______ ____
ROOT
ATOM      1  C   UNL A   1     -22.624   1.719  26.475  0.00  0.00    +0.073 C 
ATOM      2  C   UNL A   1     -21.171   1.012  28.264  0.00  0.00    +0.001 C 
ATOM      3  C   UNL A   1     -21.384   1.780  27.083  0.00  0.00    +0.013 C 
ATOM      4 CL   UNL A   1     -22.945   2.244  24.783  0.00  0.00    -0.081 Cl
ATOM      5  C   UNL A   1     -23.634   1.137  27.216  0.00  0.00    +0.079 C 
ATOM      6  C   UNL A   1     -22.189   0.229  28.881  0.00  0.00    -0.001 C 
ATOM      7  C   UNL A   1     -23.553   0.387  28.359  0.00  0.00    +0.014 C 
ENDROOT
BRANCH   5   8
ATOM      8  N   UNL A   1     -24.605   1.438  27.021  0.00  0.00    -0.209 NA
BRANCH   8   9
ATOM      9  C   UNL A   1     -25.688   1.614  26.461  0.00  0.00    +0.108 C 
ATOM     10  C   UNL A   1     -26.250   2.920  26.395  0.00  0.00    +0.092 C 
ATOM     11  C   UNL A   1     -27.438   3.091  25.645  0.00  0.00    +0.108 C 
ATOM     12  N   UNL A   1     -28.075   2.089  25.003  0.00  0.00    -0.208 NA
ATOM     13  C   UNL A   1     -27.543   0.849  25.079  0.00  0.00    +0.255 C 
ATOM     14  C   UNL A   1     -26.354   0.576  25.777  0.00  0.00    +0.208 C 
ATOM     15  F   UNL A   1     -25.860  -0.681  25.795  0.00  0.00    -0.198 F 
BRANCH  10  16
ATOM     16  C   UNL A   1     -25.642   4.093  27.123  0.00  0.00    +0.268 C 
ATOM     17  N   UNL A   1     -25.614   5.252  26.449  0.00  0.00    -0.200 NA
ATOM     18  C   UNL A   1     -25.026   6.479  26.963  0.00  0.00    +0.139 C 
ATOM     19  O   UNL A   1     -25.143   3.966  28.243  0.00  0.00    -0.268 OA
ENDBRANCH  10  16
BRANCH  13  20
ATOM     20  O   UNL A   1     -28.193  -0.208  24.477  0.00  0.00    -0.456 OA
BRANCH  20  21
ATOM     21  C   UNL A   1     -29.460   0.005  23.866  0.00  0.00    +0.243 C 
BRANCH  21  22
ATOM     22  C   UNL A   1     -30.065  -1.377  23.573  0.00  0.00    +0.229 C 
ATOM     23  O   UNL A   1     -30.729  -1.878  24.721  0.00  0.00    -0.216 OA
ENDBRANCH  21  22
ENDBRANCH  20  21
ENDBRANCH  13  20
ENDBRANCH   8   9
ENDBRANCH   5   8
BRANCH   7  24
ATOM     24  C   UNL A   1     -24.810  -0.142  28.888  0.00  0.00    +0.124 C 
BRANCH  24  26
ATOM     25  C   UNL A   1     -27.310   0.448  29.105  0.00  0.00    +0.242 C 
ATOM     26  N   UNL A   1     -25.910   0.856  29.080  0.00  0.00    -0.202 NA
ATOM     27  O   UNL A   1     -27.721  -0.589  28.670  0.00  0.00    -0.273 OA
BRANCH  25  28
ATOM     28  C   UNL A   1     -28.288   1.533  29.526  0.00  0.00    +0.087 C 
ATOM     29  C   UNL A   1     -27.469   2.736  29.919  0.00  0.00    +0.010 C 
ENDBRANCH  25  28
ENDBRANCH  24  26
BRANCH  24  30
ATOM     30  C   UNL A   1     -24.855  -1.012  30.143  0.00  0.00    +0.062 C 
BRANCH  30  31
ATOM     31  C   UNL A   1     -24.973  -2.505  29.788  0.00  0.00    -0.019 C 
ATOM     32  C   UNL A   1     -23.906  -3.173  29.146  0.00  0.00    -0.004 C 
ATOM     33  C   UNL A   1     -23.989  -4.549  28.853  0.00  0.00    -0.000 C 
ATOM     34  C   UNL A   1     -25.137  -5.280  29.205  0.00  0.00    -0.000 C 
ATOM     35  C   UNL A   1     -26.232  -4.611  29.784  0.00  0.00    -0.000 C 
ATOM     36  C   UNL A   1     -26.155  -3.232  30.065  0.00  0.00    -0.004 C 
ENDBRANCH  30  31
BRANCH  30  37
ATOM     37  C   UNL A   1     -25.387  -0.679  31.571  0.00  0.00    +0.079 C 
ATOM     38  C   UNL A   1     -25.189   0.773  32.028  0.00  0.00    +0.019 C 
ATOM     39  C   UNL A   1     -25.336   0.684  33.544  0.00  0.00    +0.020 C 
ATOM     40  C   UNL A   1     -24.829  -0.715  33.905  0.00  0.00    +0.089 C 
ATOM     41  N   UNL A   1     -24.758  -1.481  32.646  0.00  0.00    -0.219 NA
ENDBRANCH  30  37
ENDBRANCH  24  30
ENDBRANCH   7  24
TORSDOF 12
