MODEL 597
MODEL 1
REMARK VINA RESULT:    -5.741      0.000      0.000
REMARK INTER + INTRA:          -6.105
REMARK INTER:                  -6.077
REMARK INTRA:                  -0.028
REMARK UNBOUND:                -0.028
REMARK  Name = No_597-gen_results/8p0m/2024-11-27-11-27-31/
REMARK  1 active torsions:
REMARK  status: ('A' for Active; 'I' for Inactive)
REMARK    1  A    between atoms: C_9  and  C_11
REMARK                            x       y       z     vdW  Elec       q    Type
REMARK                         _______ _______ _______ _____ _____    ______ ____
ROOT
ATOM      1  C   UNL A   1     -31.030  -9.775  29.173  0.00  0.00    +0.000 A 
ATOM      2  C   UNL A   1     -31.066 -10.301  28.260  0.00  0.00    +0.000 A 
ATOM      3  C   UNL A   1     -30.030 -10.225  30.154  0.00  0.00    +0.000 A 
ATOM      4  C   UNL A   1     -29.877  -9.771  31.527  0.00  0.00    +0.000 A 
ATOM      5  C   UNL A   1     -30.150 -11.305  27.667  0.00  0.00    +0.000 A 
ATOM      6  C   UNL A   1     -29.170 -11.778  28.532  0.00  0.00    +0.000 A 
ATOM      7  C   UNL A   1     -29.042 -11.251  29.799  0.00  0.00    +0.000 A 
ATOM      8  C   UNL A   1     -29.348 -10.632  32.525  0.00  0.00    +0.002 A 
ATOM      9  C   UNL A   1     -28.377 -11.585  32.108  0.00  0.00    +0.021 A 
ATOM     10  C   UNL A   1     -28.280 -11.940  30.802  0.00  0.00    +0.002 A 
ENDROOT
BRANCH   9  11
ATOM     11  C   UNL A   1     -27.613 -12.302  33.164  0.00  0.00    +0.122 C 
ATOM     12  N   UNL A   1     -27.312 -12.279  34.384  0.00  0.00    -0.146 NA
ENDBRANCH   9  11
TORSDOF 1
ENDMDL
ENDMDL
