REMARK  Name = outputs/IAG933/test6/raw/output_5989_IAG933_linker_design_.xyz
REMARK  11 active torsions:
REMARK  status: ('A' for Active; 'I' for Inactive)
REMARK    1  A    between atoms: C_1  and  C_2
REMARK    2  A    between atoms: C_1  and  C_8
REMARK    3  A    between atoms: C_1  and  C_44
REMARK    4  A    between atoms: C_14  and  C_15
REMARK    5  A    between atoms: C_21  and  O_22
REMARK    6  A    between atoms: O_22  and  C_23
REMARK    7  A    between atoms: C_23  and  C_24
REMARK    8  A    between atoms: C_24  and  O_25
REMARK    9  A    between atoms: O_25  and  C_36
REMARK   10  A    between atoms: C_28  and  C_43
REMARK   11  A    between atoms: C_44  and  C_46
REMARK                            x       y       z     vdW  Elec       q    Type
REMARK                         _______ _______ _______ _____ _____    ______ ____
ROOT
ATOM      1  C   UNL A   1     -25.688   1.614  26.461  0.00  0.00    +0.060 C 
ATOM      2  C   UNL A   1     -26.250   2.920  26.395  0.00  0.00    +0.080 C 
ATOM      3  C   UNL A   1     -27.438   3.091  25.645  0.00  0.00    +0.107 C 
ATOM      4  N   UNL A   1     -28.075   2.089  25.003  0.00  0.00    -0.211 NA
ATOM      5  C   UNL A   1     -27.543   0.849  25.079  0.00  0.00    +0.239 C 
ATOM      6  C   UNL A   1     -26.354   0.576  25.777  0.00  0.00    +0.265 C 
ATOM      7  F   UNL A   1     -25.860  -0.681  25.795  0.00  0.00    -0.222 F 
ATOM      8  C   UNL A   1     -21.239   0.836  28.132  0.00  0.00    +0.089 C 
ATOM      9  S   UNL A   1     -21.891   1.762  26.919  0.00  0.00    -0.101 S 
ATOM     10  C   UNL A   1     -22.247   0.024  28.999  0.00  0.00    -0.010 C 
ATOM     11  C   UNL A   1     -23.446   1.202  27.352  0.00  0.00    +0.062 C 
ATOM     12  C   UNL A   1     -24.515   1.335  27.119  0.00  0.00    -0.096 C 
ATOM     13  C   UNL A   1     -23.658   0.294  28.283  0.00  0.00    +0.044 C 
ENDROOT
BRANCH   2  14
ATOM     14  C   UNL A   1     -25.642   4.093  27.123  0.00  0.00    +0.267 C 
ATOM     15  N   UNL A   1     -25.614   5.252  26.449  0.00  0.00    -0.200 NA
ATOM     16  C   UNL A   1     -25.026   6.479  26.963  0.00  0.00    +0.139 C 
ATOM     17  O   UNL A   1     -25.143   3.966  28.243  0.00  0.00    -0.268 OA
ENDBRANCH   2  14
BRANCH  13  19
ATOM     18  O   UNL A   1     -25.970   0.613  29.026  0.00  0.00    -0.291 OA
ATOM     19  C   UNL A   1     -24.898  -0.039  29.146  0.00  0.00    +0.179 C 
BRANCH  19  20
ATOM     20  C   UNL A   1     -24.855  -1.012  30.143  0.00  0.00    +0.100 C 
BRANCH  20  21
ATOM     21  C   UNL A   1     -24.973  -2.505  29.788  0.00  0.00    -0.014 C 
ATOM     22  C   UNL A   1     -23.906  -3.173  29.146  0.00  0.00    -0.004 C 
ATOM     23  C   UNL A   1     -23.989  -4.549  28.853  0.00  0.00    -0.000 C 
ATOM     24  C   UNL A   1     -25.137  -5.280  29.205  0.00  0.00    -0.000 C 
ATOM     25  C   UNL A   1     -26.232  -4.611  29.784  0.00  0.00    -0.000 C 
ATOM     26  C   UNL A   1     -26.155  -3.232  30.065  0.00  0.00    -0.004 C 
ENDBRANCH  20  21
BRANCH  20  27
ATOM     27  C   UNL A   1     -25.387  -0.679  31.571  0.00  0.00    +0.084 C 
ATOM     28  C   UNL A   1     -25.189   0.773  32.028  0.00  0.00    +0.020 C 
ATOM     29  C   UNL A   1     -25.336   0.684  33.544  0.00  0.00    +0.020 C 
ATOM     30  C   UNL A   1     -24.829  -0.715  33.905  0.00  0.00    +0.089 C 
ATOM     31  N   UNL A   1     -24.758  -1.481  32.646  0.00  0.00    -0.219 NA
ENDBRANCH  20  27
ENDBRANCH  19  20
ENDBRANCH  13  19
BRANCH   5  32
ATOM     32  O   UNL A   1     -28.193  -0.208  24.477  0.00  0.00    -0.458 OA
BRANCH  32  33
ATOM     33  C   UNL A   1     -29.460   0.005  23.866  0.00  0.00    +0.239 C 
BRANCH  33  34
ATOM     34  C   UNL A   1     -30.065  -1.377  23.573  0.00  0.00    +0.195 C 
BRANCH  34  35
ATOM     35  O   UNL A   1     -30.729  -1.878  24.721  0.00  0.00    -0.303 OA
BRANCH  35  41
ATOM     36  C   UNL A   1     -29.953  -0.922  30.071  0.00  0.00    +0.003 C 
ATOM     37  O   UNL A   1     -32.314  -1.454  26.588  0.00  0.00    -0.307 OA
ATOM     38  O   UNL A   1     -30.211  -0.580  26.623  0.00  0.00    -0.307 OA
ATOM     39  C   UNL A   1     -32.020  -0.883  27.905  0.00  0.00    +0.147 C 
ATOM     40  C   UNL A   1     -31.265  -1.664  30.051  0.00  0.00    +0.003 C 
ATOM     41  C   UNL A   1     -31.168  -1.149  25.822  0.00  0.00    +0.375 C 
ATOM     42  C   UNL A   1     -30.782   0.056  27.758  0.00  0.00    +0.147 C 
ATOM     43  C   UNL A   1     -29.816   0.130  29.017  0.00  0.00    +0.032 C 
ATOM     44  C   UNL A   1     -31.676  -1.916  28.674  0.00  0.00    +0.032 C 
BRANCH  36  46
ATOM     45  C   UNL A   1     -29.464  -1.116  32.357  0.00  0.00    +0.000 C 
ATOM     46  C   UNL A   1     -29.016  -1.605  31.031  0.00  0.00    +0.000 C 
ENDBRANCH  36  46
ENDBRANCH  35  41
ENDBRANCH  34  35
ENDBRANCH  33  34
ENDBRANCH  32  33
ENDBRANCH   5  32
TORSDOF 11
