MODEL 598
MODEL 1
REMARK VINA RESULT:    -5.720      0.000      0.000
REMARK INTER + INTRA:          -6.753
REMARK INTER:                  -6.388
REMARK INTRA:                  -0.365
REMARK UNBOUND:                -0.365
REMARK  Name = No_598-gen_results/8p0m/2024-11-27-11-27-31/
REMARK  2 active torsions:
REMARK  status: ('A' for Active; 'I' for Inactive)
REMARK    1  A    between atoms: C_3  and  C_7
REMARK    2  A    between atoms: C_6  and  C_10
REMARK                            x       y       z     vdW  Elec       q    Type
REMARK                         _______ _______ _______ _____ _____    ______ ____
ROOT
ATOM      1  C   UNL A   1     -21.938   1.647  27.407  0.00  0.00    +0.001 A 
ATOM      2  C   UNL A   1     -21.991   0.939  28.186  0.00  0.00    +0.004 A 
ATOM      3  C   UNL A   1     -23.021   1.714  26.503  0.00  0.00    +0.044 A 
ATOM      4  C   UNL A   1     -24.116   0.880  26.612  0.00  0.00    +0.001 A 
ATOM      5  C   UNL A   1     -24.107  -0.016  27.668  0.00  0.00    +0.004 A 
ATOM      6  C   UNL A   1     -23.045  -0.020  28.547  0.00  0.00    +0.071 A 
ENDROOT
BRANCH   6   7
ATOM      7  C   UNL A   1     -22.913  -0.793  29.775  0.00  0.00    +0.419 C 
ATOM      8  F   UNL A   1     -21.846  -0.650  30.189  0.00  0.00    -0.166 F 
ATOM      9  F   UNL A   1     -23.851  -0.460  30.662  0.00  0.00    -0.166 F 
ATOM     10  F   UNL A   1     -23.121  -2.091  29.470  0.00  0.00    -0.166 F 
ENDBRANCH   6   7
BRANCH   3  11
ATOM     11  C   UNL A   1     -23.086   2.688  25.365  0.00  0.00    +0.341 C 
ATOM     12  F   UNL A   1     -22.281   2.572  24.535  0.00  0.00    -0.193 F 
ATOM     13  F   UNL A   1     -23.857   3.741  25.426  0.00  0.00    -0.193 F 
ENDBRANCH   3  11
TORSDOF 2
ENDMDL
ENDMDL
