REMARK  Name = No_599-gen_results/8p0m/2024-11-27-11-27-31/
REMARK  9 active torsions:
REMARK  status: ('A' for Active; 'I' for Inactive)
REMARK    1  A    between atoms: C_3  and  C_4
REMARK    2  A    between atoms: C_5  and  C_6
REMARK    3  A    between atoms: C_6  and  C_7
REMARK    4  A    between atoms: C_11  and  O_20
REMARK    5  A    between atoms: O_20  and  C_21
REMARK    6  A    between atoms: C_21  and  C_22
REMARK    7  A    between atoms: C_21  and  O_23
REMARK    8  A    between atoms: C_22  and  C_24
REMARK    9  A    between atoms: O_23  and  C_28
REMARK                            x       y       z     vdW  Elec       q    Type
REMARK                         _______ _______ _______ _____ _____    ______ ____
ROOT
ATOM      1  C   UNL A   1     -28.016  -0.814  28.878  0.00  0.00    -0.009 C 
ATOM      2  C   UNL A   1     -28.469  -0.785  29.829  0.00  0.00    -0.004 C 
ATOM      3  C   UNL A   1     -28.196   0.348  28.055  0.00  0.00    +0.114 C 
ATOM      4  C   UNL A   1     -29.523   0.047  30.354  0.00  0.00    -0.002 C 
ATOM      5  C   UNL A   1     -29.814   1.114  29.569  0.00  0.00    +0.004 C 
ATOM      6  C   UNL A   1     -29.152   1.305  28.394  0.00  0.00    +0.158 C 
ATOM      7 BR   UNL A   1     -27.828  -0.146  27.455  0.00  0.00    -0.071 Br
ENDROOT
BRANCH   3   8
ATOM      8  C   UNL A   1     -27.442   0.510  26.795  0.00  0.00    -0.008 A 
ATOM      9  C   UNL A   1     -26.439   0.833  26.614  0.00  0.00    +0.011 A 
ATOM     10  C   UNL A   1     -28.288  -0.001  25.664  0.00  0.00    -0.003 A 
ATOM     11  C   UNL A   1     -28.255   0.809  24.564  0.00  0.00    -0.000 A 
ATOM     12  C   UNL A   1     -26.488   1.790  25.388  0.00  0.00    -0.002 A 
ATOM     13  C   UNL A   1     -27.183   1.526  24.313  0.00  0.00    -0.000 A 
BRANCH   9  14
ATOM     14  C   UNL A   1     -25.214   0.662  26.702  0.00  0.00    +0.205 C 
ATOM     15  F   UNL A   1     -24.790  -0.607  25.866  0.00  0.00    -0.228 F 
BRANCH  14  16
ATOM     16  C   UNL A   1     -23.908   0.805  27.131  0.00  0.00    +0.014 A 
ATOM     17  C   UNL A   1     -23.056   1.889  26.708  0.00  0.00    -0.001 A 
ATOM     18  C   UNL A   1     -21.782   2.027  27.310  0.00  0.00    -0.000 A 
ATOM     19  C   UNL A   1     -21.359   1.103  28.292  0.00  0.00    -0.000 A 
ATOM     20  C   UNL A   1     -23.317   0.049  28.188  0.00  0.00    -0.001 A 
ATOM     21  C   UNL A   1     -22.145   0.183  28.766  0.00  0.00    -0.000 A 
ENDBRANCH  14  16
ENDBRANCH   9  14
ENDBRANCH   3   8
BRANCH   6  22
ATOM     22  O   UNL A   1     -29.385   2.302  27.637  0.00  0.00    -0.317 OA
BRANCH  22  23
ATOM     23  C   UNL A   1     -30.572   2.522  27.091  0.00  0.00    +0.289 C 
BRANCH  23  24
ATOM     24  C   UNL A   1     -30.958   3.931  27.342  0.00  0.00    +0.088 C 
BRANCH  24  25
ATOM     25  C   UNL A   1     -30.134   4.869  27.555  0.00  0.00    +0.074 C 
ATOM     26 BR   UNL A   1     -30.190   6.186  27.773  0.00  0.00    -0.081 Br
ENDBRANCH  24  25
ENDBRANCH  23  24
BRANCH  23  27
ATOM     27  O   UNL A   1     -30.654   2.192  25.776  0.00  0.00    -0.452 OA
BRANCH  27  28
ATOM     28  C   UNL A   1     -31.662   1.467  25.303  0.00  0.00    +0.141 A 
ATOM     29  C   UNL A   1     -31.735   1.601  23.975  0.00  0.00    +0.037 A 
ATOM     30  C   UNL A   1     -32.892   1.686  25.957  0.00  0.00    +0.037 A 
ATOM     31  C   UNL A   1     -33.902   1.147  25.593  0.00  0.00    +0.003 A 
ATOM     32  C   UNL A   1     -34.159   1.226  24.116  0.00  0.00    +0.000 A 
ATOM     33  C   UNL A   1     -32.915   0.878  23.346  0.00  0.00    +0.003 A 
ENDBRANCH  27  28
ENDBRANCH  23  27
ENDBRANCH  22  23
ENDBRANCH   6  22
TORSDOF 9
