REMARK  Name = outputs/IAG933/test6/raw/output_5991_IAG933_linker_design_.xyz
REMARK  20 active torsions:
REMARK  status: ('A' for Active; 'I' for Inactive)
REMARK    1  A    between atoms: C_1  and  C_2
REMARK    2  A    between atoms: C_1  and  C_8
REMARK    3  A    between atoms: C_1  and  N_34
REMARK    4  A    between atoms: C_13  and  C_46
REMARK    5  A    between atoms: C_14  and  C_15
REMARK    6  A    between atoms: C_21  and  O_22
REMARK    7  A    between atoms: O_22  and  C_23
REMARK    8  A    between atoms: C_23  and  C_24
REMARK    9  A    between atoms: C_28  and  N_32
REMARK   10  A    between atoms: C_28  and  O_36
REMARK   11  A    between atoms: C_31  and  N_32
REMARK   12  A    between atoms: C_31  and  C_40
REMARK   13  A    between atoms: N_32  and  C_35
REMARK   14  A    between atoms: C_33  and  C_40
REMARK   15  A    between atoms: C_33  and  O_41
REMARK   16  A    between atoms: N_34  and  C_42
REMARK   17  A    between atoms: N_34  and  C_43
REMARK   18  A    between atoms: C_38  and  C_46
REMARK   19  A    between atoms: O_41  and  C_43
REMARK   20  A    between atoms: C_42  and  C_46
REMARK                            x       y       z     vdW  Elec       q    Type
REMARK                         _______ _______ _______ _____ _____    ______ ____
ROOT
ATOM      1  N   UNL A   1     -25.573  -0.118  29.160  0.00  0.00    -0.243 NA
ENDROOT
BRANCH   1   2
ATOM      2  C   UNL A   1     -24.855  -1.012  30.143  0.00  0.00    +0.098 C 
BRANCH   2   3
ATOM      3  C   UNL A   1     -24.973  -2.505  29.788  0.00  0.00    -0.006 C 
ATOM      4  C   UNL A   1     -23.906  -3.173  29.146  0.00  0.00    -0.003 C 
ATOM      5  C   UNL A   1     -23.989  -4.549  28.853  0.00  0.00    -0.000 C 
ATOM      6  C   UNL A   1     -25.137  -5.280  29.205  0.00  0.00    -0.000 C 
ATOM      7  C   UNL A   1     -26.232  -4.611  29.784  0.00  0.00    -0.000 C 
ATOM      8  C   UNL A   1     -26.155  -3.232  30.065  0.00  0.00    -0.003 C 
ENDBRANCH   2   3
BRANCH   2   9
ATOM      9  C   UNL A   1     -25.387  -0.679  31.571  0.00  0.00    +0.092 C 
ATOM     10  C   UNL A   1     -25.189   0.773  32.028  0.00  0.00    +0.021 C 
ATOM     11  C   UNL A   1     -25.336   0.684  33.544  0.00  0.00    +0.020 C 
ATOM     12  C   UNL A   1     -24.829  -0.715  33.905  0.00  0.00    +0.089 C 
ATOM     13  N   UNL A   1     -24.758  -1.481  32.646  0.00  0.00    -0.218 NA
ENDBRANCH   2   9
ENDBRANCH   1   2
BRANCH   1  14
ATOM     14  C   UNL A   1     -24.519   0.236  28.209  0.00  0.00    +0.080 C 
BRANCH  14  15
ATOM     15  C   UNL A   1     -24.503   1.347  27.428  0.00  0.00    +0.056 C 
BRANCH  15  16
ATOM     16  C   UNL A   1     -25.688   1.614  26.461  0.00  0.00    +0.018 C 
ATOM     17  C   UNL A   1     -26.250   2.920  26.395  0.00  0.00    +0.073 C 
ATOM     18  C   UNL A   1     -27.438   3.091  25.645  0.00  0.00    +0.106 C 
ATOM     19  N   UNL A   1     -28.075   2.089  25.003  0.00  0.00    -0.208 NA
ATOM     20  C   UNL A   1     -27.543   0.849  25.079  0.00  0.00    +0.253 C 
ATOM     21  C   UNL A   1     -26.354   0.576  25.777  0.00  0.00    +0.189 C 
ATOM     22  F   UNL A   1     -25.860  -0.681  25.795  0.00  0.00    -0.200 F 
BRANCH  17  23
ATOM     23  C   UNL A   1     -25.642   4.093  27.123  0.00  0.00    +0.266 C 
ATOM     24  N   UNL A   1     -25.614   5.252  26.449  0.00  0.00    -0.200 NA
ATOM     25  C   UNL A   1     -25.026   6.479  26.963  0.00  0.00    +0.139 C 
ATOM     26  O   UNL A   1     -25.143   3.966  28.243  0.00  0.00    -0.268 OA
ENDBRANCH  17  23
BRANCH  20  27
ATOM     27  O   UNL A   1     -28.193  -0.208  24.477  0.00  0.00    -0.456 OA
BRANCH  27  28
ATOM     28  C   UNL A   1     -29.460   0.005  23.866  0.00  0.00    +0.243 C 
BRANCH  28  29
ATOM     29  C   UNL A   1     -30.065  -1.377  23.573  0.00  0.00    +0.229 C 
ATOM     30  O   UNL A   1     -30.729  -1.878  24.721  0.00  0.00    -0.216 OA
ENDBRANCH  28  29
ENDBRANCH  27  28
ENDBRANCH  20  27
ENDBRANCH  15  16
BRANCH  15  32
ATOM     31 CL   UNL A   1     -21.609   1.587  27.855  0.00  0.00    -0.115 Cl
ATOM     32  C   UNL A   1     -23.140   2.053  27.077  0.00  0.00    +0.085 C 
ATOM     33  C   UNL A   1     -23.024   2.393  25.566  0.00  0.00    +0.018 C 
ENDBRANCH  15  32
ENDBRANCH  14  15
ENDBRANCH   1  14
BRANCH   1  34
ATOM     34  C   UNL A   1     -26.989  -0.387  28.665  0.00  0.00    +0.220 C 
BRANCH  34  35
ATOM     35  O   UNL A   1     -28.247   0.259  28.927  0.00  0.00    -0.337 OA
BRANCH  35  36
ATOM     36  C   UNL A   1     -28.180   1.476  29.725  0.00  0.00    +0.145 C 
BRANCH  36  37
ATOM     37  C   UNL A   1     -28.146   2.514  30.166  0.00  0.00    +0.050 C 
BRANCH  37  38
ATOM     38  C   UNL A   1     -29.421   3.301  29.655  0.00  0.00    +0.082 C 
BRANCH  38  39
ATOM     39  N   UNL A   1     -29.104   4.692  30.052  0.00  0.00    -0.201 NA
BRANCH  39  40
ATOM     40  C   UNL A   1     -29.009   4.771  31.584  0.00  0.00    +0.274 C 
ATOM     41  O   UNL A   1     -27.932   5.683  31.754  0.00  0.00    -0.177 OA
ATOM     42  C   UNL A   1     -28.511   3.697  32.510  0.00  0.00    +0.083 C 
BRANCH  40  43
ATOM     43  O   UNL A   1     -30.286   4.933  32.178  0.00  0.00    -0.318 OA
ATOM     44  C   UNL A   1     -31.043   3.930  32.906  0.00  0.00    +0.178 C 
ENDBRANCH  40  43
ENDBRANCH  39  40
BRANCH  39  46
ATOM     45  O   UNL A   1     -30.367   6.891  30.267  0.00  0.00    -0.200 OA
ATOM     46  C   UNL A   1     -29.681   5.975  29.470  0.00  0.00    +0.263 C 
ENDBRANCH  39  46
ENDBRANCH  38  39
ENDBRANCH  37  38
ENDBRANCH  36  37
ENDBRANCH  35  36
ENDBRANCH  34  35
ENDBRANCH   1  34
TORSDOF 20
