REMARK  Name = outputs/IAG933/test6/raw/output_5994_IAG933_linker_design_.xyz
REMARK  11 active torsions:
REMARK  status: ('A' for Active; 'I' for Inactive)
REMARK    1  A    between atoms: C_1  and  C_2
REMARK    2  A    between atoms: C_1  and  C_8
REMARK    3  A    between atoms: C_1  and  N_41
REMARK    4  A    between atoms: C_13  and  C_35
REMARK    5  A    between atoms: C_14  and  C_15
REMARK    6  A    between atoms: C_21  and  O_22
REMARK    7  A    between atoms: O_22  and  C_23
REMARK    8  A    between atoms: C_23  and  C_24
REMARK    9  A    between atoms: C_32  and  C_40
REMARK   10  A    between atoms: N_33  and  C_38
REMARK   11  A    between atoms: C_38  and  C_39
REMARK                            x       y       z     vdW  Elec       q    Type
REMARK                         _______ _______ _______ _____ _____    ______ ____
ROOT
ATOM      1  C   UNL A   1     -22.568   1.187  28.067  0.00  0.00    +0.112 C 
ATOM      2  N   UNL A   1     -23.508   1.134  26.915  0.00  0.00    -0.236 NA
ATOM      3  C   UNL A   1     -24.744   1.206  27.168  0.00  0.00    +0.086 C 
ATOM      4  C   UNL A   1     -21.150   1.401  27.568  0.00  0.00    +0.025 C 
ATOM      5  C   UNL A   1     -22.938  -0.027  28.888  0.00  0.00    +0.113 C 
ATOM      6  C   UNL A   1     -25.405   0.579  28.468  0.00  0.00    +0.119 C 
ATOM      7  N   UNL A   1     -24.391  -0.032  29.212  0.00  0.00    -0.298 N 
ENDROOT
BRANCH   3   8
ATOM      8  C   UNL A   1     -25.688   1.614  26.461  0.00  0.00    +0.054 C 
ATOM      9  C   UNL A   1     -26.250   2.920  26.395  0.00  0.00    +0.078 C 
ATOM     10  C   UNL A   1     -27.438   3.091  25.645  0.00  0.00    +0.107 C 
ATOM     11  N   UNL A   1     -28.075   2.089  25.003  0.00  0.00    -0.208 NA
ATOM     12  C   UNL A   1     -27.543   0.849  25.079  0.00  0.00    +0.253 C 
ATOM     13  C   UNL A   1     -26.354   0.576  25.777  0.00  0.00    +0.194 C 
ATOM     14  F   UNL A   1     -25.860  -0.681  25.795  0.00  0.00    -0.199 F 
BRANCH   9  15
ATOM     15  C   UNL A   1     -25.642   4.093  27.123  0.00  0.00    +0.267 C 
ATOM     16  N   UNL A   1     -25.614   5.252  26.449  0.00  0.00    -0.200 NA
ATOM     17  C   UNL A   1     -25.026   6.479  26.963  0.00  0.00    +0.139 C 
ATOM     18  O   UNL A   1     -25.143   3.966  28.243  0.00  0.00    -0.268 OA
ENDBRANCH   9  15
BRANCH  12  19
ATOM     19  O   UNL A   1     -28.193  -0.208  24.477  0.00  0.00    -0.456 OA
BRANCH  19  20
ATOM     20  C   UNL A   1     -29.460   0.005  23.866  0.00  0.00    +0.243 C 
BRANCH  20  21
ATOM     21  C   UNL A   1     -30.065  -1.377  23.573  0.00  0.00    +0.229 C 
ATOM     22  O   UNL A   1     -30.729  -1.878  24.721  0.00  0.00    -0.216 OA
ENDBRANCH  20  21
ENDBRANCH  19  20
ENDBRANCH  12  19
ENDBRANCH   3   8
BRANCH   6  24
ATOM     23  O   UNL A   1     -27.236   1.768  29.328  0.00  0.00    -0.267 OA
ATOM     24  C   UNL A   1     -26.895   0.619  29.032  0.00  0.00    +0.279 C 
ATOM     25  N   UNL A   1     -27.848  -0.396  29.226  0.00  0.00    -0.202 NA
BRANCH  25  27
ATOM     26  C   UNL A   1     -29.776  -1.569  30.386  0.00  0.00    +0.023 C 
ATOM     27  C   UNL A   1     -29.170  -0.275  29.858  0.00  0.00    +0.096 C 
BRANCH  27  29
ATOM     28  C   UNL A   1     -30.403  -0.507  27.676  0.00  0.00    +0.002 C 
ATOM     29  C   UNL A   1     -30.125   0.380  28.871  0.00  0.00    +0.022 C 
ENDBRANCH  27  29
ENDBRANCH  25  27
ENDBRANCH   6  24
BRANCH   7  30
ATOM     30  C   UNL A   1     -24.855  -1.012  30.143  0.00  0.00    +0.112 C 
BRANCH  30  31
ATOM     31  C   UNL A   1     -24.973  -2.505  29.788  0.00  0.00    -0.003 C 
ATOM     32  C   UNL A   1     -23.906  -3.173  29.146  0.00  0.00    -0.003 C 
ATOM     33  C   UNL A   1     -23.989  -4.549  28.853  0.00  0.00    -0.000 C 
ATOM     34  C   UNL A   1     -25.137  -5.280  29.205  0.00  0.00    -0.000 C 
ATOM     35  C   UNL A   1     -26.232  -4.611  29.784  0.00  0.00    -0.000 C 
ATOM     36  C   UNL A   1     -26.155  -3.232  30.065  0.00  0.00    -0.003 C 
ENDBRANCH  30  31
BRANCH  30  37
ATOM     37  C   UNL A   1     -25.387  -0.679  31.571  0.00  0.00    +0.095 C 
ATOM     38  C   UNL A   1     -25.189   0.773  32.028  0.00  0.00    +0.021 C 
ATOM     39  C   UNL A   1     -25.336   0.684  33.544  0.00  0.00    +0.020 C 
ATOM     40  C   UNL A   1     -24.829  -0.715  33.905  0.00  0.00    +0.089 C 
ATOM     41  N   UNL A   1     -24.758  -1.481  32.646  0.00  0.00    -0.217 NA
ENDBRANCH  30  37
ENDBRANCH   7  30
TORSDOF 11
