REMARK  Name = outputs/IAG933/test6/raw/output_5996_IAG933_linker_design_.xyz
REMARK  15 active torsions:
REMARK  status: ('A' for Active; 'I' for Inactive)
REMARK    1  A    between atoms: C_1  and  C_2
REMARK    2  A    between atoms: C_1  and  C_8
REMARK    3  A    between atoms: C_9  and  N_28
REMARK    4  A    between atoms: C_13  and  N_37
REMARK    5  A    between atoms: C_14  and  C_15
REMARK    6  A    between atoms: C_21  and  O_22
REMARK    7  A    between atoms: O_22  and  C_23
REMARK    8  A    between atoms: C_23  and  C_24
REMARK    9  A    between atoms: N_28  and  C_41
REMARK   10  A    between atoms: N_28  and  C_43
REMARK   11  A    between atoms: C_30  and  N_37
REMARK   12  A    between atoms: C_30  and  C_41
REMARK   13  A    between atoms: N_31  and  C_43
REMARK   14  A    between atoms: C_33  and  C_42
REMARK   15  A    between atoms: N_37  and  C_42
REMARK                            x       y       z     vdW  Elec       q    Type
REMARK                         _______ _______ _______ _____ _____    ______ ____
ROOT
ATOM      1  C   UNL A   1     -26.013   1.469  29.908  0.00  0.00    +0.095 C 
ENDROOT
BRANCH   1   2
ATOM      2  N   UNL A   1     -25.931   1.842  31.382  0.00  0.00    -0.257 NA
BRANCH   2   4
ATOM      3  C   UNL A   1     -25.387  -0.679  31.571  0.00  0.00    +0.092 C 
ATOM      4  C   UNL A   1     -25.189   0.773  32.028  0.00  0.00    +0.076 C 
ATOM      5  C   UNL A   1     -25.336   0.684  33.544  0.00  0.00    +0.036 C 
ATOM      6  C   UNL A   1     -24.829  -0.715  33.905  0.00  0.00    +0.090 C 
ATOM      7  N   UNL A   1     -24.758  -1.481  32.646  0.00  0.00    -0.218 NA
BRANCH   3   8
ATOM      8  C   UNL A   1     -24.855  -1.012  30.143  0.00  0.00    +0.045 C 
BRANCH   8   9
ATOM      9  C   UNL A   1     -24.973  -2.505  29.788  0.00  0.00    -0.021 C 
ATOM     10  C   UNL A   1     -23.906  -3.173  29.146  0.00  0.00    -0.004 C 
ATOM     11  C   UNL A   1     -23.989  -4.549  28.853  0.00  0.00    -0.000 C 
ATOM     12  C   UNL A   1     -25.137  -5.280  29.205  0.00  0.00    -0.000 C 
ATOM     13  C   UNL A   1     -26.232  -4.611  29.784  0.00  0.00    -0.000 C 
ATOM     14  C   UNL A   1     -26.155  -3.232  30.065  0.00  0.00    -0.004 C 
ENDBRANCH   8   9
ENDBRANCH   3   8
ENDBRANCH   2   4
BRANCH   2  15
ATOM     15  C   UNL A   1     -26.634   3.203  31.410  0.00  0.00    +0.151 C 
BRANCH  15  16
ATOM     16  N   UNL A   1     -25.908   4.346  31.921  0.00  0.00    -0.234 NA
ATOM     17  C   UNL A   1     -26.377   5.635  31.492  0.00  0.00    +0.076 C 
ATOM     18  C   UNL A   1     -24.779   4.139  32.693  0.00  0.00    +0.214 C 
ATOM     19  C   UNL A   1     -24.914   6.471  33.331  0.00  0.00    +0.005 C 
ATOM     20  C   UNL A   1     -24.054   5.308  33.238  0.00  0.00    +0.050 C 
ATOM     21  C   UNL A   1     -25.403   6.796  31.835  0.00  0.00    +0.018 C 
ATOM     22  O   UNL A   1     -23.893   3.418  32.057  0.00  0.00    -0.205 OA
ENDBRANCH  15  16
ENDBRANCH   2  15
ENDBRANCH   1   2
BRANCH   1  23
ATOM     23  C   UNL A   1     -25.137   0.763  28.716  0.00  0.00    +0.108 C 
BRANCH  23  24
ATOM     24  N   UNL A   1     -24.712   1.270  27.288  0.00  0.00    -0.302 N 
BRANCH  24  25
ATOM     25  C   UNL A   1     -25.688   1.614  26.461  0.00  0.00    +0.087 C 
ATOM     26  C   UNL A   1     -26.250   2.920  26.395  0.00  0.00    +0.090 C 
ATOM     27  C   UNL A   1     -27.438   3.091  25.645  0.00  0.00    +0.108 C 
ATOM     28  N   UNL A   1     -28.075   2.089  25.003  0.00  0.00    -0.208 NA
ATOM     29  C   UNL A   1     -27.543   0.849  25.079  0.00  0.00    +0.255 C 
ATOM     30  C   UNL A   1     -26.354   0.576  25.777  0.00  0.00    +0.206 C 
ATOM     31  F   UNL A   1     -25.860  -0.681  25.795  0.00  0.00    -0.198 F 
BRANCH  26  32
ATOM     32  C   UNL A   1     -25.642   4.093  27.123  0.00  0.00    +0.268 C 
ATOM     33  N   UNL A   1     -25.614   5.252  26.449  0.00  0.00    -0.200 NA
ATOM     34  C   UNL A   1     -25.026   6.479  26.963  0.00  0.00    +0.139 C 
ATOM     35  O   UNL A   1     -25.143   3.966  28.243  0.00  0.00    -0.268 OA
ENDBRANCH  26  32
BRANCH  29  36
ATOM     36  O   UNL A   1     -28.193  -0.208  24.477  0.00  0.00    -0.456 OA
BRANCH  36  37
ATOM     37  C   UNL A   1     -29.460   0.005  23.866  0.00  0.00    +0.243 C 
BRANCH  37  38
ATOM     38  C   UNL A   1     -30.065  -1.377  23.573  0.00  0.00    +0.229 C 
ATOM     39  O   UNL A   1     -30.729  -1.878  24.721  0.00  0.00    -0.216 OA
ENDBRANCH  37  38
ENDBRANCH  36  37
ENDBRANCH  29  36
ENDBRANCH  24  25
BRANCH  24  41
ATOM     40  C   UNL A   1     -22.919   2.241  25.804  0.00  0.00    +0.026 C 
ATOM     41  C   UNL A   1     -23.456   1.393  26.968  0.00  0.00    +0.095 C 
BRANCH  41  43
ATOM     42  C   UNL A   1     -20.997   1.558  27.774  0.00  0.00    -0.003 C 
ATOM     43  C   UNL A   1     -22.246   1.091  27.927  0.00  0.00    -0.007 C 
ENDBRANCH  41  43
ENDBRANCH  24  41
ENDBRANCH  23  24
ENDBRANCH   1  23
TORSDOF 15
