REMARK  Name = outputs/IAG933/test6/raw/output_5999_IAG933_linker_design_.xyz
REMARK  12 active torsions:
REMARK  status: ('A' for Active; 'I' for Inactive)
REMARK    1  A    between atoms: C_1  and  C_2
REMARK    2  A    between atoms: C_1  and  C_8
REMARK    3  A    between atoms: C_9  and  N_42
REMARK    4  A    between atoms: C_13  and  C_33
REMARK    5  A    between atoms: C_14  and  C_15
REMARK    6  A    between atoms: C_21  and  O_22
REMARK    7  A    between atoms: O_22  and  C_23
REMARK    8  A    between atoms: C_23  and  C_24
REMARK    9  A    between atoms: C_29  and  N_40
REMARK   10  A    between atoms: C_29  and  N_42
REMARK   11  A    between atoms: C_32  and  N_36
REMARK   12  A    between atoms: C_33  and  N_36
REMARK                            x       y       z     vdW  Elec       q    Type
REMARK                         _______ _______ _______ _____ _____    ______ ____
ROOT
ATOM      1  N   UNL A   1     -23.801   1.585  28.310  0.00  0.00    -0.265 N 
ATOM      2  O   UNL A   1     -23.451   1.806  30.573  0.00  0.00    -0.252 OA
ATOM      3  C   UNL A   1     -24.399   1.699  29.992  0.00  0.00    +0.308 C 
ATOM      4  N   UNL A   1     -25.557   1.674  30.913  0.00  0.00    -0.250 N 
ENDROOT
BRANCH   4   6
ATOM      5  C   UNL A   1     -25.387  -0.679  31.571  0.00  0.00    +0.095 C 
ATOM      6  C   UNL A   1     -25.189   0.773  32.028  0.00  0.00    +0.096 C 
ATOM      7  C   UNL A   1     -25.336   0.684  33.544  0.00  0.00    +0.040 C 
ATOM      8  C   UNL A   1     -24.829  -0.715  33.905  0.00  0.00    +0.090 C 
ATOM      9  N   UNL A   1     -24.758  -1.481  32.646  0.00  0.00    -0.217 NA
BRANCH   5  10
ATOM     10  C   UNL A   1     -24.855  -1.012  30.143  0.00  0.00    +0.045 C 
BRANCH  10  11
ATOM     11  C   UNL A   1     -24.973  -2.505  29.788  0.00  0.00    -0.021 C 
ATOM     12  C   UNL A   1     -23.906  -3.173  29.146  0.00  0.00    -0.004 C 
ATOM     13  C   UNL A   1     -23.989  -4.549  28.853  0.00  0.00    -0.000 C 
ATOM     14  C   UNL A   1     -25.137  -5.280  29.205  0.00  0.00    -0.000 C 
ATOM     15  C   UNL A   1     -26.232  -4.611  29.784  0.00  0.00    -0.000 C 
ATOM     16  C   UNL A   1     -26.155  -3.232  30.065  0.00  0.00    -0.004 C 
ENDBRANCH  10  11
ENDBRANCH   5  10
ENDBRANCH   4   6
BRANCH   1  17
ATOM     17  C   UNL A   1     -22.468   1.976  28.439  0.00  0.00    +0.095 C 
ATOM     18  C   UNL A   1     -21.411   1.309  27.706  0.00  0.00    +0.023 C 
ENDBRANCH   1  17
BRANCH   1  19
ATOM     19  C   UNL A   1     -24.238   1.315  26.860  0.00  0.00    +0.084 C 
ATOM     20  C   UNL A   1     -23.373   1.716  25.593  0.00  0.00    +0.022 C 
BRANCH  19  21
ATOM     21  C   UNL A   1     -25.688   1.614  26.461  0.00  0.00    +0.088 C 
ATOM     22  C   UNL A   1     -26.250   2.920  26.395  0.00  0.00    +0.056 C 
ATOM     23  C   UNL A   1     -27.438   3.091  25.645  0.00  0.00    +0.102 C 
ATOM     24  N   UNL A   1     -28.075   2.089  25.003  0.00  0.00    -0.212 NA
ATOM     25  C   UNL A   1     -27.543   0.849  25.079  0.00  0.00    +0.234 C 
ATOM     26  C   UNL A   1     -26.354   0.576  25.777  0.00  0.00    +0.242 C 
ATOM     27  F   UNL A   1     -25.860  -0.681  25.795  0.00  0.00    -0.227 F 
BRANCH  22  28
ATOM     28  C   UNL A   1     -25.642   4.093  27.123  0.00  0.00    +0.263 C 
ATOM     29  N   UNL A   1     -25.614   5.252  26.449  0.00  0.00    -0.200 NA
ATOM     30  C   UNL A   1     -25.026   6.479  26.963  0.00  0.00    +0.139 C 
ATOM     31  O   UNL A   1     -25.143   3.966  28.243  0.00  0.00    -0.269 OA
ENDBRANCH  22  28
BRANCH  25  32
ATOM     32  O   UNL A   1     -28.193  -0.208  24.477  0.00  0.00    -0.459 OA
BRANCH  32  33
ATOM     33  C   UNL A   1     -29.460   0.005  23.866  0.00  0.00    +0.242 C 
BRANCH  33  34
ATOM     34  C   UNL A   1     -30.065  -1.377  23.573  0.00  0.00    +0.229 C 
ATOM     35  O   UNL A   1     -30.729  -1.878  24.721  0.00  0.00    -0.216 OA
ENDBRANCH  33  34
ENDBRANCH  32  33
ENDBRANCH  25  32
ENDBRANCH  19  21
ENDBRANCH   1  19
BRANCH   4  36
ATOM     36  C   UNL A   1     -26.778   2.238  30.265  0.00  0.00    +0.172 C 
BRANCH  36  41
ATOM     37  C   UNL A   1     -27.238   4.091  33.051  0.00  0.00    +0.017 C 
ATOM     38  C   UNL A   1     -27.968   4.513  30.810  0.00  0.00    +0.074 C 
ATOM     39  C   UNL A   1     -28.010   5.082  32.218  0.00  0.00    +0.019 C 
ATOM     40  C   UNL A   1     -27.578   2.776  32.394  0.00  0.00    +0.074 C 
ATOM     41  N   UNL A   1     -27.748   3.083  31.033  0.00  0.00    -0.256 NA
ATOM     42  C   UNL A   1     -25.751   4.465  32.983  0.00  0.00    +0.002 C 
ENDBRANCH  36  41
ENDBRANCH   4  36
TORSDOF 12
