MODEL 599
MODEL 1
REMARK VINA RESULT:    -8.143      0.000      0.000
REMARK INTER + INTRA:         -14.149
REMARK INTER:                 -11.951
REMARK INTRA:                  -2.198
REMARK UNBOUND:                -2.198
REMARK  Name = No_599-gen_results/8p0m/2024-11-27-11-27-31/
REMARK  9 active torsions:
REMARK  status: ('A' for Active; 'I' for Inactive)
REMARK    1  A    between atoms: C_3  and  C_4
REMARK    2  A    between atoms: C_5  and  C_6
REMARK    3  A    between atoms: C_6  and  C_7
REMARK    4  A    between atoms: C_11  and  O_20
REMARK    5  A    between atoms: O_20  and  C_21
REMARK    6  A    between atoms: C_21  and  C_22
REMARK    7  A    between atoms: C_21  and  O_23
REMARK    8  A    between atoms: C_22  and  C_24
REMARK    9  A    between atoms: O_23  and  C_28
REMARK                            x       y       z     vdW  Elec       q    Type
REMARK                         _______ _______ _______ _____ _____    ______ ____
ROOT
ATOM      1  C   UNL A   1     -21.984   1.820  26.927  0.00  0.00    -0.009 C 
ATOM      2  C   UNL A   1     -21.191   1.562  27.571  0.00  0.00    -0.004 C 
ATOM      3  C   UNL A   1     -23.266   1.255  27.243  0.00  0.00    +0.114 C 
ATOM      4  C   UNL A   1     -21.048   0.483  28.516  0.00  0.00    -0.002 C 
ATOM      5  C   UNL A   1     -22.210  -0.162  28.784  0.00  0.00    +0.004 C 
ATOM      6  C   UNL A   1     -23.363   0.210  28.160  0.00  0.00    +0.158 C 
ATOM      7 BR   UNL A   1     -23.487   1.593  26.483  0.00  0.00    -0.071 Br
ENDROOT
BRANCH   3   8
ATOM      8  C   UNL A   1     -24.487   1.705  26.543  0.00  0.00    -0.008 A 
ATOM      9  C   UNL A   1     -25.165   2.503  26.758  0.00  0.00    +0.011 A 
ATOM     10  C   UNL A   1     -24.632   0.907  25.279  0.00  0.00    -0.003 A 
ATOM     11  C   UNL A   1     -25.916   0.497  25.051  0.00  0.00    -0.000 A 
ATOM     12  C   UNL A   1     -26.600   1.948  26.530  0.00  0.00    -0.002 A 
ATOM     13  C   UNL A   1     -26.920   1.219  25.494  0.00  0.00    -0.000 A 
BRANCH   9  14
ATOM     14  C   UNL A   1     -25.416   3.713  26.853  0.00  0.00    +0.205 C 
ATOM     15  F   UNL A   1     -26.752   4.044  26.081  0.00  0.00    -0.228 F 
BRANCH  14  16
ATOM     16  C   UNL A   1     -25.258   5.057  27.135  0.00  0.00    +0.014 A 
ATOM     17  C   UNL A   1     -25.602   5.638  28.409  0.00  0.00    -0.001 A 
ATOM     18  C   UNL A   1     -25.273   6.994  28.649  0.00  0.00    -0.000 A 
ATOM     19  C   UNL A   1     -24.636   7.757  27.644  0.00  0.00    -0.000 A 
ATOM     20  C   UNL A   1     -24.548   5.979  26.308  0.00  0.00    -0.001 A 
ATOM     21  C   UNL A   1     -24.221   7.231  26.530  0.00  0.00    -0.000 A 
ENDBRANCH  14  16
ENDBRANCH   9  14
ENDBRANCH   3   8
BRANCH   6  22
ATOM     22  O   UNL A   1     -24.477  -0.360  28.396  0.00  0.00    -0.317 OA
BRANCH  22  23
ATOM     23  C   UNL A   1     -25.020  -0.395  29.604  0.00  0.00    +0.289 C 
BRANCH  23  24
ATOM     24  C   UNL A   1     -26.382   0.187  29.531  0.00  0.00    +0.088 C 
BRANCH  24  25
ATOM     25  C   UNL A   1     -26.779   1.163  30.234  0.00  0.00    +0.074 C 
ATOM     26 BR   UNL A   1     -26.453   2.449  30.391  0.00  0.00    -0.081 Br
ENDBRANCH  24  25
ENDBRANCH  23  24
BRANCH  23  27
ATOM     27  O   UNL A   1     -25.015  -1.622  30.186  0.00  0.00    -0.452 OA
BRANCH  27  28
ATOM     28  C   UNL A   1     -25.223  -2.728  29.478  0.00  0.00    +0.141 A 
ATOM     29  C   UNL A   1     -26.117  -3.503  30.099  0.00  0.00    +0.037 A 
ATOM     30  C   UNL A   1     -24.046  -3.412  29.111  0.00  0.00    +0.037 A 
ATOM     31  C   UNL A   1     -24.085  -4.460  28.525  0.00  0.00    +0.003 A 
ATOM     32  C   UNL A   1     -25.029  -5.471  29.110  0.00  0.00    +0.000 A 
ATOM     33  C   UNL A   1     -26.359  -4.838  29.411  0.00  0.00    +0.003 A 
ENDBRANCH  27  28
ENDBRANCH  23  27
ENDBRANCH  22  23
ENDBRANCH   6  22
TORSDOF 9
ENDMDL
ENDMDL
