MODEL 59
MODEL 1
REMARK VINA RESULT:    -8.059      0.000      0.000
REMARK INTER + INTRA:         -11.461
REMARK INTER:                  -9.943
REMARK INTRA:                  -1.518
REMARK UNBOUND:                -1.518
REMARK  Name = No_59-gen_results/8p0m/2024-11-27-11-27-31/
REMARK  4 active torsions:
REMARK  status: ('A' for Active; 'I' for Inactive)
REMARK    1  A    between atoms: C_9  and  C_21
REMARK    2  A    between atoms: C_11  and  C_12
REMARK    3  A    between atoms: N_23  and  C_24
REMARK    4  A    between atoms: C_33  and  C_34
REMARK                            x       y       z     vdW  Elec       q    Type
REMARK                         _______ _______ _______ _____ _____    ______ ____
ROOT
ATOM      1  C   UNL A   1     -31.730  -3.972   9.719  0.00  0.00    +0.011 A 
ATOM      2  C   UNL A   1     -30.768  -3.860   8.995  0.00  0.00    +0.058 A 
ATOM      3  C   UNL A   1     -29.912  -4.873   8.709  0.00  0.00    +0.011 A 
ATOM      4  C   UNL A   1     -30.151  -6.134   9.286  0.00  0.00    +0.005 A 
ATOM      5  C   UNL A   1     -32.090  -5.256  10.267  0.00  0.00    +0.001 A 
ATOM      6  C   UNL A   1     -31.245  -6.299  10.033  0.00  0.00    +0.000 A 
ATOM      7 CL   UNL A   1     -30.388  -2.346   8.223  0.00  0.00    -0.082 Cl
ATOM      8  C   UNL A   1     -31.776  -7.563  10.626  0.00  0.00    +0.005 A 
ATOM      9  C   UNL A   1     -31.217  -8.705  10.123  0.00  0.00    +0.056 A 
ATOM     10  C   UNL A   1     -29.976  -8.528   9.338  0.00  0.00    +0.009 A 
ATOM     11  C   UNL A   1     -29.517  -7.371   8.792  0.00  0.00    +0.054 A 
ENDROOT
BRANCH  11  12
ATOM     12  C   UNL A   1     -28.361  -7.280   7.915  0.00  0.00    +0.249 C 
ATOM     13  N   UNL A   1     -28.311  -7.335   6.783  0.00  0.00    -0.275 N 
ATOM     14  O   UNL A   1     -27.219  -6.827   8.540  0.00  0.00    -0.270 OA
ATOM     15  C   UNL A   1     -27.050  -7.266   5.897  0.00  0.00    +0.098 C 
ATOM     16  C   UNL A   1     -29.528  -7.727   5.928  0.00  0.00    +0.098 C 
ATOM     17  C   UNL A   1     -27.025  -5.993   5.169  0.00  0.00    +0.047 C 
ATOM     18  C   UNL A   1     -28.027  -5.368   4.888  0.00  0.00    -0.029 C 
ATOM     19  C   UNL A   1     -29.176  -5.842   4.388  0.00  0.00    -0.029 C 
ATOM     20  C   UNL A   1     -30.018  -6.487   5.307  0.00  0.00    +0.047 C 
ENDBRANCH  11  12
BRANCH   9  21
ATOM     21  C   UNL A   1     -31.515 -10.020  10.652  0.00  0.00    +0.269 C 
ATOM     22  O   UNL A   1     -31.339 -10.358  11.694  0.00  0.00    -0.268 OA
ATOM     23  N   UNL A   1     -31.895 -10.968   9.635  0.00  0.00    -0.176 NA
BRANCH  23  24
ATOM     24  C   UNL A   1     -32.263 -12.337  10.026  0.00  0.00    +0.070 A 
ATOM     25  C   UNL A   1     -33.485 -12.436  10.160  0.00  0.00    +0.016 A 
ATOM     26  C   UNL A   1     -34.137 -13.595  10.563  0.00  0.00    +0.001 A 
ATOM     27  C   UNL A   1     -33.242 -14.737  10.725  0.00  0.00    -0.004 A 
ATOM     28  C   UNL A   1     -31.895 -14.544  10.523  0.00  0.00    -0.025 A 
ATOM     29  C   UNL A   1     -31.367 -13.288  10.185  0.00  0.00    -0.004 A 
ATOM     30  C   UNL A   1     -30.922 -15.644  10.714  0.00  0.00    +0.026 C 
ATOM     31  C   UNL A   1     -29.858 -15.727  10.208  0.00  0.00    +0.005 C 
ATOM     32  C   UNL A   1     -29.382 -14.886   9.438  0.00  0.00    +0.013 C 
ATOM     33  C   UNL A   1     -30.047 -13.494   9.452  0.00  0.00    +0.088 C 
BRANCH  33  34
ATOM     34  C   UNL A   1     -29.010 -12.569   9.532  0.00  0.00    +0.211 C 
ATOM     35  O   UNL A   1     -28.586 -11.716   9.987  0.00  0.00    -0.288 OA
ENDBRANCH  33  34
ENDBRANCH  23  24
ENDBRANCH   9  21
TORSDOF 4
ENDMDL
ENDMDL
