MODEL 5
MODEL 1
REMARK VINA RESULT:    -6.656      0.000      0.000
REMARK INTER + INTRA:          -6.656
REMARK INTER:                  -6.656
REMARK INTRA:                   0.000
REMARK UNBOUND:                 0.000
REMARK  Name = No_5-gen_results/8p0m/2024-11-27-11-27-31/
REMARK  0 active torsions:
REMARK  status: ('A' for Active; 'I' for Inactive)
REMARK                            x       y       z     vdW  Elec       q    Type
REMARK                         _______ _______ _______ _____ _____    ______ ____
ROOT
ATOM      1  C   UNL A   1     -22.462   1.159  27.761  0.00  0.00    +0.033 A 
ATOM      2  C   UNL A   1     -23.134   0.917  28.737  0.00  0.00    +0.037 A 
ATOM      3  C   UNL A   1     -24.142   1.744  29.195  0.00  0.00    -0.015 A 
ATOM      4  C   UNL A   1     -24.922   1.538  30.401  0.00  0.00    +0.045 C 
ATOM      5  C   UNL A   1     -25.963   2.343  30.819  0.00  0.00    +0.009 C 
ATOM      6  C   UNL A   1     -22.968   2.020  26.777  0.00  0.00    +0.146 A 
ATOM      7  C   UNL A   1     -24.010   2.812  27.071  0.00  0.00    +0.062 A 
ATOM      8  C   UNL A   1     -24.729   2.682  28.304  0.00  0.00    +0.005 A 
ATOM      9  C   UNL A   1     -24.430   0.526  31.368  0.00  0.00    -0.015 A 
ATOM     10  C   UNL A   1     -25.124   0.405  32.605  0.00  0.00    -0.004 A 
ATOM     11  C   UNL A   1     -24.690  -0.588  33.486  0.00  0.00    -0.000 A 
ATOM     12  C   UNL A   1     -23.559  -1.372  33.230  0.00  0.00    +0.000 A 
ATOM     13  C   UNL A   1     -22.761  -1.115  32.069  0.00  0.00    +0.003 A 
ATOM     14  C   UNL A   1     -23.248  -0.167  31.146  0.00  0.00    +0.035 A 
ATOM     15  C   UNL A   1     -22.573  -0.067  29.860  0.00  0.00    +0.195 C 
ATOM     16  O   UNL A   1     -21.571  -0.781  29.569  0.00  0.00    -0.287 OA
ATOM     17 BR   UNL A   1     -24.644   4.073  25.838  0.00  0.00    -0.047 Br
ATOM     18  F   UNL A   1     -22.302   2.217  25.643  0.00  0.00    -0.204 F 
ENDROOT
TORSDOF 0
ENDMDL
ENDMDL
