MODEL 600
MODEL 1
REMARK VINA RESULT:    -6.587      0.000      0.000
REMARK INTER + INTRA:          -7.325
REMARK INTER:                  -6.972
REMARK INTRA:                  -0.353
REMARK UNBOUND:                -0.353
REMARK  Name = No_600-gen_results/8p0m/2024-11-27-11-27-31/
REMARK  1 active torsions:
REMARK  status: ('A' for Active; 'I' for Inactive)
REMARK    1  A    between atoms: C_2  and  C_7
REMARK                            x       y       z     vdW  Elec       q    Type
REMARK                         _______ _______ _______ _____ _____    ______ ____
ROOT
ATOM      1  C   UNL A   1     -25.639  -2.500  29.613  0.00  0.00    +0.000 A 
ATOM      2  C   UNL A   1     -24.547  -2.637  29.113  0.00  0.00    +0.000 A 
ATOM      3  C   UNL A   1     -24.079  -3.893  28.742  0.00  0.00    +0.000 A 
ATOM      4  C   UNL A   1     -24.863  -5.077  28.985  0.00  0.00    +0.000 A 
ATOM      5  C   UNL A   1     -26.102  -4.830  29.589  0.00  0.00    +0.000 A 
ATOM      6  C   UNL A   1     -26.491  -3.624  29.936  0.00  0.00    +0.000 A 
ENDROOT
BRANCH   2   7
ATOM      7  C   UNL A   1     -23.595  -1.533  28.815  0.00  0.00    +0.000 A 
ATOM      8  C   UNL A   1     -22.669  -1.311  29.185  0.00  0.00    +0.000 A 
ATOM      9  C   UNL A   1     -21.767  -0.127  28.930  0.00  0.00    +0.000 A 
ATOM     10  C   UNL A   1     -22.257   0.873  28.114  0.00  0.00    +0.000 A 
ATOM     11  C   UNL A   1     -23.548   0.745  27.596  0.00  0.00    +0.000 A 
ATOM     12  C   UNL A   1     -24.262  -0.385  27.867  0.00  0.00    +0.000 A 
ENDBRANCH   2   7
TORSDOF 1
ENDMDL
ENDMDL
