MODEL 601
MODEL 1
REMARK VINA RESULT:    -5.375      0.000      0.000
REMARK INTER + INTRA:          -5.375
REMARK INTER:                  -5.375
REMARK INTRA:                   0.000
REMARK UNBOUND:                 0.000
REMARK  Name = No_601-gen_results/8p0m/2024-11-27-11-27-31/
REMARK  0 active torsions:
REMARK  status: ('A' for Active; 'I' for Inactive)
REMARK                            x       y       z     vdW  Elec       q    Type
REMARK                         _______ _______ _______ _____ _____    ______ ____
ROOT
ATOM      1  C   UNL A   1     -29.580 -10.112  31.120  0.00  0.00    +0.016 A 
ATOM      2  C   UNL A   1     -29.659 -11.049  30.359  0.00  0.00    +0.001 A 
ATOM      3  C   UNL A   1     -29.038 -12.274  30.535  0.00  0.00    +0.000 A 
ATOM      4  C   UNL A   1     -28.272 -12.447  31.726  0.00  0.00    +0.006 A 
ATOM      5  C   UNL A   1     -28.330 -11.453  32.626  0.00  0.00    +0.070 A 
ATOM      6  C   UNL A   1     -28.979 -10.349  32.393  0.00  0.00    +0.072 A 
ATOM      7  C   UNL A   1     -27.423 -11.785  33.776  0.00  0.00    +0.268 C 
ATOM      8  N   UNL A   1     -27.198 -10.896  34.570  0.00  0.00    -0.178 NA
ATOM      9  O   UNL A   1     -26.582 -12.730  33.671  0.00  0.00    -0.268 OA
ATOM     10  C   UNL A   1     -27.954  -9.671  34.719  0.00  0.00    +0.227 C 
ATOM     11  N   UNL A   1     -28.822  -9.359  33.445  0.00  0.00    -0.214 NA
ENDROOT
TORSDOF 0
ENDMDL
ENDMDL
