MODEL 602
MODEL 1
REMARK VINA RESULT:    -6.670      0.000      0.000
REMARK INTER + INTRA:          -7.539
REMARK INTER:                  -7.450
REMARK INTRA:                  -0.089
REMARK UNBOUND:                -0.089
REMARK  Name = No_602-gen_results/8p0m/2024-11-27-11-27-31/
REMARK  2 active torsions:
REMARK  status: ('A' for Active; 'I' for Inactive)
REMARK    1  A    between atoms: C_2  and  C_15
REMARK    2  A    between atoms: C_8  and  C_11
REMARK                            x       y       z     vdW  Elec       q    Type
REMARK                         _______ _______ _______ _____ _____    ______ ____
ROOT
ATOM      1  C   UNL A   1     -30.838 -10.357  28.422  0.00  0.00    +0.034 A 
ATOM      2  C   UNL A   1     -30.011 -11.066  28.947  0.00  0.00    +0.074 A 
ATOM      3  C   UNL A   1     -29.543 -10.874  30.246  0.00  0.00    +0.004 A 
ATOM      4  C   UNL A   1     -30.019  -9.735  31.007  0.00  0.00    +0.002 A 
ATOM      5  C   UNL A   1     -30.956  -8.933  30.356  0.00  0.00    +0.030 A 
ATOM      6  C   UNL A   1     -31.335  -9.182  29.118  0.00  0.00    +0.140 A 
ATOM      7  C   UNL A   1     -28.534 -11.708  30.961  0.00  0.00    +0.006 A 
ATOM      8  C   UNL A   1     -28.223 -11.570  32.229  0.00  0.00    +0.080 A 
ATOM      9  C   UNL A   1     -28.929 -10.496  32.945  0.00  0.00    +0.007 A 
ATOM     10  C   UNL A   1     -29.733  -9.591  32.379  0.00  0.00    +0.000 A 
ATOM     11  F   UNL A   1     -32.214  -8.356  28.489  0.00  0.00    -0.204 F 
ENDROOT
BRANCH   2  12
ATOM     12  C   UNL A   1     -29.478 -12.330  28.234  0.00  0.00    +0.419 C 
ATOM     13  F   UNL A   1     -29.440 -13.328  28.893  0.00  0.00    -0.166 F 
ATOM     14  F   UNL A   1     -30.388 -12.575  27.198  0.00  0.00    -0.166 F 
ATOM     15  F   UNL A   1     -28.275 -12.005  27.757  0.00  0.00    -0.166 F 
ENDBRANCH   2  12
BRANCH   8  16
ATOM     16  C   UNL A   1     -27.297 -12.406  32.965  0.00  0.00    +0.388 C 
ATOM     17  O   UNL A   1     -26.433 -13.029  32.475  0.00  0.00    -0.241 OA
ATOM     18  O   UNL A   1     -27.270 -12.283  34.271  0.00  0.00    -0.241 OA
ENDBRANCH   8  16
TORSDOF 2
ENDMDL
ENDMDL
