REMARK  Name = outputs/IAG933/test6/raw/output_6030_IAG933_linker_design_.xyz
REMARK  14 active torsions:
REMARK  status: ('A' for Active; 'I' for Inactive)
REMARK    1  A    between atoms: C_1  and  C_2
REMARK    2  A    between atoms: C_1  and  C_8
REMARK    3  A    between atoms: C_1  and  N_31
REMARK    4  A    between atoms: C_13  and  C_32
REMARK    5  A    between atoms: C_14  and  C_15
REMARK    6  A    between atoms: C_21  and  O_22
REMARK    7  A    between atoms: O_22  and  C_23
REMARK    8  A    between atoms: C_23  and  C_24
REMARK    9  A    between atoms: O_30  and  C_41
REMARK   10  A    between atoms: C_33  and  N_42
REMARK   11  A    between atoms: C_34  and  C_36
REMARK   12  A    between atoms: C_34  and  C_39
REMARK   13  A    between atoms: C_34  and  C_41
REMARK   14  A    between atoms: C_36  and  N_42
REMARK                            x       y       z     vdW  Elec       q    Type
REMARK                         _______ _______ _______ _____ _____    ______ ____
ROOT
ATOM      1  C   UNL A   1     -22.893   0.329  29.062  0.00  0.00    +0.260 C 
ATOM      2  C   UNL A   1     -22.315   1.032  27.933  0.00  0.00    +0.175 C 
ATOM      3  N   UNL A   1     -24.214  -0.090  29.146  0.00  0.00    -0.185 N 
ATOM      4  C   UNL A   1     -24.645   1.119  27.206  0.00  0.00    +0.095 C 
ATOM      5  C   UNL A   1     -25.036   0.226  28.203  0.00  0.00    +0.310 C 
ATOM      6  F   UNL A   1     -21.056   1.290  27.708  0.00  0.00    -0.204 F 
ATOM      7  C   UNL A   1     -23.294   1.434  26.945  0.00  0.00    +0.092 C 
ATOM      8 CL   UNL A   1     -22.784   2.173  25.396  0.00  0.00    -0.080 Cl
ENDROOT
BRANCH   4   9
ATOM      9  C   UNL A   1     -25.688   1.614  26.461  0.00  0.00    +0.046 C 
ATOM     10  C   UNL A   1     -26.250   2.920  26.395  0.00  0.00    +0.077 C 
ATOM     11  C   UNL A   1     -27.438   3.091  25.645  0.00  0.00    +0.107 C 
ATOM     12  N   UNL A   1     -28.075   2.089  25.003  0.00  0.00    -0.208 NA
ATOM     13  C   UNL A   1     -27.543   0.849  25.079  0.00  0.00    +0.253 C 
ATOM     14  C   UNL A   1     -26.354   0.576  25.777  0.00  0.00    +0.193 C 
ATOM     15  F   UNL A   1     -25.860  -0.681  25.795  0.00  0.00    -0.199 F 
BRANCH  10  16
ATOM     16  C   UNL A   1     -25.642   4.093  27.123  0.00  0.00    +0.266 C 
ATOM     17  N   UNL A   1     -25.614   5.252  26.449  0.00  0.00    -0.200 NA
ATOM     18  C   UNL A   1     -25.026   6.479  26.963  0.00  0.00    +0.139 C 
ATOM     19  O   UNL A   1     -25.143   3.966  28.243  0.00  0.00    -0.268 OA
ENDBRANCH  10  16
BRANCH  13  20
ATOM     20  O   UNL A   1     -28.193  -0.208  24.477  0.00  0.00    -0.456 OA
BRANCH  20  21
ATOM     21  C   UNL A   1     -29.460   0.005  23.866  0.00  0.00    +0.243 C 
BRANCH  21  22
ATOM     22  C   UNL A   1     -30.065  -1.377  23.573  0.00  0.00    +0.229 C 
ATOM     23  O   UNL A   1     -30.729  -1.878  24.721  0.00  0.00    -0.216 OA
ENDBRANCH  21  22
ENDBRANCH  20  21
ENDBRANCH  13  20
ENDBRANCH   4   9
BRANCH   3  24
ATOM     24  C   UNL A   1     -24.855  -1.012  30.143  0.00  0.00    +0.199 C 
BRANCH  24  25
ATOM     25  C   UNL A   1     -24.973  -2.505  29.788  0.00  0.00    +0.021 C 
ATOM     26  C   UNL A   1     -23.906  -3.173  29.146  0.00  0.00    -0.000 C 
ATOM     27  C   UNL A   1     -23.989  -4.549  28.853  0.00  0.00    -0.000 C 
ATOM     28  C   UNL A   1     -25.137  -5.280  29.205  0.00  0.00    -0.000 C 
ATOM     29  C   UNL A   1     -26.232  -4.611  29.784  0.00  0.00    -0.000 C 
ATOM     30  C   UNL A   1     -26.155  -3.232  30.065  0.00  0.00    -0.000 C 
ENDBRANCH  24  25
BRANCH  24  31
ATOM     31  C   UNL A   1     -25.387  -0.679  31.571  0.00  0.00    +0.120 C 
ATOM     32  C   UNL A   1     -25.189   0.773  32.028  0.00  0.00    +0.023 C 
ATOM     33  C   UNL A   1     -25.336   0.684  33.544  0.00  0.00    +0.020 C 
ATOM     34  C   UNL A   1     -24.829  -0.715  33.905  0.00  0.00    +0.089 C 
ATOM     35  N   UNL A   1     -24.758  -1.481  32.646  0.00  0.00    -0.215 NA
ENDBRANCH  24  31
ENDBRANCH   3  24
BRANCH   5  36
ATOM     36  N   UNL A   1     -26.254  -0.549  28.063  0.00  0.00    -0.036 NA
BRANCH  36  37
ATOM     37  C   UNL A   1     -27.192  -0.349  29.178  0.00  0.00    +0.256 C 
BRANCH  37  38
ATOM     38  C   UNL A   1     -28.628  -0.249  28.686  0.00  0.00    +0.117 C 
BRANCH  38  40
ATOM     39  O   UNL A   1     -29.762  -1.716  30.288  0.00  0.00    -0.220 OA
ATOM     40  C   UNL A   1     -29.739  -1.343  28.890  0.00  0.00    +0.189 C 
ENDBRANCH  38  40
BRANCH  38  41
ATOM     41  C   UNL A   1     -29.212   1.024  29.263  0.00  0.00    +0.192 C 
BRANCH  41  42
ATOM     42  O   UNL A   1     -30.535   1.234  28.734  0.00  0.00    -0.189 OA
ATOM     43  O   UNL A   1     -30.783   0.967  27.531  0.00  0.00    -0.035 OA
ENDBRANCH  41  42
ENDBRANCH  38  41
ENDBRANCH  37  38
ENDBRANCH  36  37
ENDBRANCH   5  36
TORSDOF 14
