REMARK  Name = outputs/IAG933/test6/raw/output_6032_IAG933_linker_design_.xyz
REMARK  13 active torsions:
REMARK  status: ('A' for Active; 'I' for Inactive)
REMARK    1  A    between atoms: C_1  and  C_2
REMARK    2  A    between atoms: C_1  and  C_8
REMARK    3  A    between atoms: C_1  and  C_34
REMARK    4  A    between atoms: C_13  and  C_38
REMARK    5  A    between atoms: C_14  and  C_15
REMARK    6  A    between atoms: C_21  and  O_22
REMARK    7  A    between atoms: O_22  and  C_23
REMARK    8  A    between atoms: C_23  and  C_24
REMARK    9  A    between atoms: C_28  and  C_34
REMARK   10  A    between atoms: C_34  and  N_43
REMARK   11  A    between atoms: C_39  and  C_40
REMARK   12  A    between atoms: C_40  and  C_42
REMARK   13  A    between atoms: C_42  and  O_44
REMARK                            x       y       z     vdW  Elec       q    Type
REMARK                         _______ _______ _______ _____ _____    ______ ____
ROOT
ATOM      1  C   UNL A   1     -24.435   0.177  29.022  0.00  0.00    +0.124 C 
ENDROOT
BRANCH   1   2
ATOM      2  C   UNL A   1     -23.653   1.244  27.919  0.00  0.00    -0.006 C 
ATOM      3  C   UNL A   1     -23.446   1.946  25.488  0.00  0.00    -0.004 C 
ATOM      4  C   UNL A   1     -21.540   1.983  26.976  0.00  0.00    -0.000 C 
ATOM      5  C   UNL A   1     -22.333   1.534  28.076  0.00  0.00    -0.003 C 
ATOM      6  C   UNL A   1     -24.201   1.692  26.590  0.00  0.00    -0.017 C 
ATOM      7  C   UNL A   1     -22.067   2.172  25.696  0.00  0.00    -0.000 C 
BRANCH   6   8
ATOM      8  C   UNL A   1     -25.688   1.614  26.461  0.00  0.00    +0.092 C 
ATOM      9  C   UNL A   1     -26.250   2.920  26.395  0.00  0.00    +0.059 C 
ATOM     10  C   UNL A   1     -27.438   3.091  25.645  0.00  0.00    +0.102 C 
ATOM     11  N   UNL A   1     -28.075   2.089  25.003  0.00  0.00    -0.212 NA
ATOM     12  C   UNL A   1     -27.543   0.849  25.079  0.00  0.00    +0.234 C 
ATOM     13  C   UNL A   1     -26.354   0.576  25.777  0.00  0.00    +0.244 C 
ATOM     14  F   UNL A   1     -25.860  -0.681  25.795  0.00  0.00    -0.227 F 
BRANCH   9  15
ATOM     15  C   UNL A   1     -25.642   4.093  27.123  0.00  0.00    +0.263 C 
ATOM     16  N   UNL A   1     -25.614   5.252  26.449  0.00  0.00    -0.200 NA
ATOM     17  C   UNL A   1     -25.026   6.479  26.963  0.00  0.00    +0.139 C 
ATOM     18  O   UNL A   1     -25.143   3.966  28.243  0.00  0.00    -0.269 OA
ENDBRANCH   9  15
BRANCH  12  19
ATOM     19  O   UNL A   1     -28.193  -0.208  24.477  0.00  0.00    -0.459 OA
BRANCH  19  20
ATOM     20  C   UNL A   1     -29.460   0.005  23.866  0.00  0.00    +0.242 C 
BRANCH  20  21
ATOM     21  C   UNL A   1     -30.065  -1.377  23.573  0.00  0.00    +0.229 C 
ATOM     22  O   UNL A   1     -30.729  -1.878  24.721  0.00  0.00    -0.216 OA
ENDBRANCH  20  21
ENDBRANCH  19  20
ENDBRANCH  12  19
ENDBRANCH   6   8
ENDBRANCH   1   2
BRANCH   1  28
ATOM     23  O   UNL A   1     -28.002   2.699  30.206  0.00  0.00    -0.273 OA
ATOM     24  C   UNL A   1     -26.863   0.125  29.076  0.00  0.00    +0.346 C 
ATOM     25  N   UNL A   1     -27.979   0.572  29.816  0.00  0.00    -0.126 NA
ATOM     26  O   UNL A   1     -27.061  -0.893  28.425  0.00  0.00    -0.249 OA
ATOM     27  C   UNL A   1     -28.387   1.778  29.564  0.00  0.00    +0.252 C 
ATOM     28  N   UNL A   1     -25.755   0.810  29.071  0.00  0.00    -0.184 NA
BRANCH  27  29
ATOM     29  C   UNL A   1     -29.182   1.881  28.218  0.00  0.00    +0.119 C 
BRANCH  29  30
ATOM     30  C   UNL A   1     -29.988   3.163  28.343  0.00  0.00    +0.152 C 
BRANCH  30  32
ATOM     31  C   UNL A   1     -31.027   4.826  29.485  0.00  0.00    +0.174 C 
ATOM     32  O   UNL A   1     -29.789   4.181  29.306  0.00  0.00    -0.351 OA
ENDBRANCH  30  32
ENDBRANCH  29  30
ENDBRANCH  27  29
ENDBRANCH   1  28
BRANCH   1  33
ATOM     33  C   UNL A   1     -24.855  -1.012  30.143  0.00  0.00    +0.062 C 
BRANCH  33  34
ATOM     34  C   UNL A   1     -24.973  -2.505  29.788  0.00  0.00    -0.019 C 
ATOM     35  C   UNL A   1     -23.906  -3.173  29.146  0.00  0.00    -0.004 C 
ATOM     36  C   UNL A   1     -23.989  -4.549  28.853  0.00  0.00    -0.000 C 
ATOM     37  C   UNL A   1     -25.137  -5.280  29.205  0.00  0.00    -0.000 C 
ATOM     38  C   UNL A   1     -26.232  -4.611  29.784  0.00  0.00    -0.000 C 
ATOM     39  C   UNL A   1     -26.155  -3.232  30.065  0.00  0.00    -0.004 C 
ENDBRANCH  33  34
BRANCH  33  40
ATOM     40  C   UNL A   1     -25.387  -0.679  31.571  0.00  0.00    +0.079 C 
ATOM     41  C   UNL A   1     -25.189   0.773  32.028  0.00  0.00    +0.019 C 
ATOM     42  C   UNL A   1     -25.336   0.684  33.544  0.00  0.00    +0.020 C 
ATOM     43  C   UNL A   1     -24.829  -0.715  33.905  0.00  0.00    +0.089 C 
ATOM     44  N   UNL A   1     -24.758  -1.481  32.646  0.00  0.00    -0.219 NA
ENDBRANCH  33  40
ENDBRANCH   1  33
TORSDOF 13
