REMARK  Name = outputs/IAG933/test6/raw/output_6039_IAG933_linker_design_.xyz
REMARK  11 active torsions:
REMARK  status: ('A' for Active; 'I' for Inactive)
REMARK    1  A    between atoms: C_1  and  C_2
REMARK    2  A    between atoms: C_1  and  C_8
REMARK    3  A    between atoms: C_1  and  N_30
REMARK    4  A    between atoms: C_13  and  C_34
REMARK    5  A    between atoms: C_14  and  C_15
REMARK    6  A    between atoms: C_21  and  O_22
REMARK    7  A    between atoms: O_22  and  C_23
REMARK    8  A    between atoms: C_23  and  C_24
REMARK    9  A    between atoms: N_30  and  C_37
REMARK   10  A    between atoms: C_35  and  C_36
REMARK   11  A    between atoms: N_38  and  C_39
REMARK                            x       y       z     vdW  Elec       q    Type
REMARK                         _______ _______ _______ _____ _____    ______ ____
ROOT
ATOM      1  C   UNL A   1     -24.561   1.248  27.252  0.00  0.00    +0.103 C 
ATOM      2  C   UNL A   1     -23.211   0.153  28.069  0.00  0.00    +0.112 C 
ATOM      3  C   UNL A   1     -24.688  -0.167  27.903  0.00  0.00    +0.109 C 
ATOM      4  N   UNL A   1     -23.197   1.340  27.102  0.00  0.00    -0.211 NA
ENDROOT
BRANCH   1   5
ATOM      5  C   UNL A   1     -25.688   1.614  26.461  0.00  0.00    +0.032 C 
ATOM      6  C   UNL A   1     -26.250   2.920  26.395  0.00  0.00    +0.074 C 
ATOM      7  C   UNL A   1     -27.438   3.091  25.645  0.00  0.00    +0.106 C 
ATOM      8  N   UNL A   1     -28.075   2.089  25.003  0.00  0.00    -0.208 NA
ATOM      9  C   UNL A   1     -27.543   0.849  25.079  0.00  0.00    +0.253 C 
ATOM     10  C   UNL A   1     -26.354   0.576  25.777  0.00  0.00    +0.190 C 
ATOM     11  F   UNL A   1     -25.860  -0.681  25.795  0.00  0.00    -0.200 F 
BRANCH   6  12
ATOM     12  C   UNL A   1     -25.642   4.093  27.123  0.00  0.00    +0.266 C 
ATOM     13  N   UNL A   1     -25.614   5.252  26.449  0.00  0.00    -0.200 NA
ATOM     14  C   UNL A   1     -25.026   6.479  26.963  0.00  0.00    +0.139 C 
ATOM     15  O   UNL A   1     -25.143   3.966  28.243  0.00  0.00    -0.268 OA
ENDBRANCH   6  12
BRANCH   9  16
ATOM     16  O   UNL A   1     -28.193  -0.208  24.477  0.00  0.00    -0.456 OA
BRANCH  16  17
ATOM     17  C   UNL A   1     -29.460   0.005  23.866  0.00  0.00    +0.243 C 
BRANCH  17  18
ATOM     18  C   UNL A   1     -30.065  -1.377  23.573  0.00  0.00    +0.229 C 
ATOM     19  O   UNL A   1     -30.729  -1.878  24.721  0.00  0.00    -0.216 OA
ENDBRANCH  17  18
ENDBRANCH  16  17
ENDBRANCH   9  16
ENDBRANCH   1   5
BRANCH   2  23
ATOM     20  C   UNL A   1     -20.703  -0.411  28.525  0.00  0.00    +0.070 C 
ATOM     21  C   UNL A   1     -20.753   0.831  27.930  0.00  0.00    +0.184 C 
ATOM     22  O   UNL A   1     -22.270   0.248  30.402  0.00  0.00    -0.222 OA
ATOM     23  C   UNL A   1     -21.949   0.436  29.010  0.00  0.00    +0.172 C 
ATOM     24  O   UNL A   1     -20.277   1.944  28.108  0.00  0.00    -0.220 OA
ENDBRANCH   2  23
BRANCH   4  27
ATOM     25  F   UNL A   1     -21.558   2.012  25.626  0.00  0.00    -0.179 F 
ATOM     26  F   UNL A   1     -23.479   3.121  25.528  0.00  0.00    -0.179 F 
ATOM     27  C   UNL A   1     -22.649   2.264  26.153  0.00  0.00    +0.384 C 
ENDBRANCH   4  27
BRANCH   3  28
ATOM     28  N   UNL A   1     -25.437  -0.178  29.115  0.00  0.00    -0.212 NA
BRANCH  28  29
ATOM     29  C   UNL A   1     -24.855  -1.012  30.143  0.00  0.00    +0.111 C 
BRANCH  29  30
ATOM     30  C   UNL A   1     -24.973  -2.505  29.788  0.00  0.00    -0.005 C 
ATOM     31  C   UNL A   1     -23.906  -3.173  29.146  0.00  0.00    -0.003 C 
ATOM     32  C   UNL A   1     -23.989  -4.549  28.853  0.00  0.00    -0.000 C 
ATOM     33  C   UNL A   1     -25.137  -5.280  29.205  0.00  0.00    -0.000 C 
ATOM     34  C   UNL A   1     -26.232  -4.611  29.784  0.00  0.00    -0.000 C 
ATOM     35  C   UNL A   1     -26.155  -3.232  30.065  0.00  0.00    -0.003 C 
ENDBRANCH  29  30
BRANCH  29  36
ATOM     36  C   UNL A   1     -25.387  -0.679  31.571  0.00  0.00    +0.093 C 
ATOM     37  C   UNL A   1     -25.189   0.773  32.028  0.00  0.00    +0.021 C 
ATOM     38  C   UNL A   1     -25.336   0.684  33.544  0.00  0.00    +0.020 C 
ATOM     39  C   UNL A   1     -24.829  -0.715  33.905  0.00  0.00    +0.089 C 
ATOM     40  N   UNL A   1     -24.758  -1.481  32.646  0.00  0.00    -0.218 NA
ENDBRANCH  29  36
ENDBRANCH  28  29
ENDBRANCH   3  28
TORSDOF 11
