REMARK  Name = outputs/IAG933/test6/raw/output_6041_IAG933_linker_design_.xyz
REMARK  7 active torsions:
REMARK  status: ('A' for Active; 'I' for Inactive)
REMARK    1  A    between atoms: C_1  and  C_2
REMARK    2  A    between atoms: C_21  and  O_22
REMARK    3  A    between atoms: O_22  and  C_23
REMARK    4  A    between atoms: C_23  and  C_24
REMARK    5  A    between atoms: C_34  and  C_37
REMARK    6  A    between atoms: O_42  and  N_44
REMARK    7  A    between atoms: O_42  and  C_45
REMARK                            x       y       z     vdW  Elec       q    Type
REMARK                         _______ _______ _______ _____ _____    ______ ____
ROOT
ATOM      1  C   UNL A   1     -24.855  -1.012  30.143  0.00  0.00    +0.137 C 
ATOM      2  C   UNL A   1     -25.387  -0.679  31.571  0.00  0.00    +0.124 C 
ATOM      3  C   UNL A   1     -25.189   0.773  32.028  0.00  0.00    +0.135 C 
ATOM      4  C   UNL A   1     -25.336   0.684  33.544  0.00  0.00    +0.050 C 
ATOM      5  C   UNL A   1     -24.829  -0.715  33.905  0.00  0.00    +0.091 C 
ATOM      6  N   UNL A   1     -24.758  -1.481  32.646  0.00  0.00    -0.215 NA
ATOM      7  C   UNL A   1     -25.688   1.614  26.461  0.00  0.00    +0.017 C 
ATOM      8  C   UNL A   1     -26.250   2.920  26.395  0.00  0.00    +0.070 C 
ATOM      9  C   UNL A   1     -25.642   4.093  27.123  0.00  0.00    +0.225 C 
ATOM     10  N   UNL A   1     -25.614   5.252  26.449  0.00  0.00    -0.236 NA
ATOM     11  C   UNL A   1     -25.026   6.479  26.963  0.00  0.00    +0.155 C 
ATOM     12  O   UNL A   1     -25.143   3.966  28.243  0.00  0.00    -0.426 OA
ATOM     13  C   UNL A   1     -27.438   3.091  25.645  0.00  0.00    +0.106 C 
ATOM     14  N   UNL A   1     -28.075   2.089  25.003  0.00  0.00    -0.208 NA
ATOM     15  C   UNL A   1     -27.543   0.849  25.079  0.00  0.00    +0.253 C 
ATOM     16  C   UNL A   1     -26.354   0.576  25.777  0.00  0.00    +0.189 C 
ATOM     17  F   UNL A   1     -25.860  -0.681  25.795  0.00  0.00    -0.200 F 
ATOM     18  C   UNL A   1     -22.107   1.451  27.604  0.00  0.00    +0.145 C 
ATOM     19  N   UNL A   1     -21.919   0.738  28.759  0.00  0.00    -0.229 NA
ATOM     20  C   UNL A   1     -26.078   3.024  32.036  0.00  0.00    +0.230 C 
ATOM     21  N   UNL A   1     -23.999  -0.479  29.095  0.00  0.00    -0.191 NA
ATOM     22  C   UNL A   1     -24.719   1.964  28.965  0.00  0.00    +0.097 C 
ATOM     23  C   UNL A   1     -23.257   1.588  26.898  0.00  0.00    +0.120 C 
ATOM     24  C   UNL A   1     -22.954   0.214  29.521  0.00  0.00    +0.291 C 
ATOM     25  C   UNL A   1     -25.254   3.333  29.498  0.00  0.00    +0.343 C 
ATOM     26  O   UNL A   1     -25.942   1.754  31.448  0.00  0.00    -0.345 OA
ATOM     27  F   UNL A   1     -22.862   0.309  30.809  0.00  0.00    -0.165 F 
ATOM     28  C   UNL A   1     -24.568   1.409  27.400  0.00  0.00    +0.049 C 
ATOM     29  C   UNL A   1     -27.082   3.654  31.168  0.00  0.00    +0.270 C 
ATOM     30  N   UNL A   1     -28.005   4.651  31.355  0.00  0.00    -0.044 NA
ATOM     31  O   UNL A   1     -26.611   3.696  29.865  0.00  0.00    -0.425 OA
ENDROOT
BRANCH   1  32
ATOM     32  C   UNL A   1     -24.973  -2.505  29.788  0.00  0.00    -0.001 C 
ATOM     33  C   UNL A   1     -23.906  -3.173  29.146  0.00  0.00    -0.003 C 
ATOM     34  C   UNL A   1     -23.989  -4.549  28.853  0.00  0.00    -0.000 C 
ATOM     35  C   UNL A   1     -25.137  -5.280  29.205  0.00  0.00    -0.000 C 
ATOM     36  C   UNL A   1     -26.232  -4.611  29.784  0.00  0.00    -0.000 C 
ATOM     37  C   UNL A   1     -26.155  -3.232  30.065  0.00  0.00    -0.003 C 
ENDBRANCH   1  32
BRANCH  23  38
ATOM     38  C   UNL A   1     -23.167   1.713  25.516  0.00  0.00    +0.074 C 
ATOM     39  N   UNL A   1     -23.028   1.805  24.407  0.00  0.00    -0.196 NA
ENDBRANCH  23  38
BRANCH  15  40
ATOM     40  O   UNL A   1     -28.193  -0.208  24.477  0.00  0.00    -0.456 OA
BRANCH  40  41
ATOM     41  C   UNL A   1     -29.460   0.005  23.866  0.00  0.00    +0.243 C 
BRANCH  41  42
ATOM     42  C   UNL A   1     -30.065  -1.377  23.573  0.00  0.00    +0.229 C 
ATOM     43  O   UNL A   1     -30.729  -1.878  24.721  0.00  0.00    -0.216 OA
ENDBRANCH  41  42
ENDBRANCH  40  41
ENDBRANCH  15  40
BRANCH  30  44
ATOM     44  O   UNL A   1     -27.582   5.889  31.260  0.00  0.00    -0.338 OA
BRANCH  44  46
ATOM     45  O   UNL A   1     -25.385   6.555  30.341  0.00  0.00    -0.165 OA
ATOM     46  C   UNL A   1     -26.143   6.000  31.388  0.00  0.00    +0.417 C 
ENDBRANCH  44  46
ENDBRANCH  30  44
TORSDOF 7
