REMARK  Name = outputs/IAG933/test6/raw/output_6042_IAG933_linker_design_.xyz
REMARK  7 active torsions:
REMARK  status: ('A' for Active; 'I' for Inactive)
REMARK    1  A    between atoms: C_1  and  C_2
REMARK    2  A    between atoms: C_13  and  C_36
REMARK    3  A    between atoms: C_14  and  C_15
REMARK    4  A    between atoms: C_21  and  O_22
REMARK    5  A    between atoms: O_22  and  C_23
REMARK    6  A    between atoms: C_23  and  C_24
REMARK    7  A    between atoms: S_31  and  C_44
REMARK                            x       y       z     vdW  Elec       q    Type
REMARK                         _______ _______ _______ _____ _____    ______ ____
ROOT
ATOM      1  C   UNL A   1     -24.855  -1.012  30.143  0.00  0.00    +0.205 C 
ATOM      2  C   UNL A   1     -25.387  -0.679  31.571  0.00  0.00    +0.126 C 
ATOM      3  C   UNL A   1     -25.189   0.773  32.028  0.00  0.00    +0.065 C 
ATOM      4  C   UNL A   1     -25.336   0.684  33.544  0.00  0.00    +0.031 C 
ATOM      5  C   UNL A   1     -24.829  -0.715  33.905  0.00  0.00    +0.090 C 
ATOM      6  N   UNL A   1     -24.758  -1.481  32.646  0.00  0.00    -0.215 NA
ATOM      7  O   UNL A   1     -25.531  -0.316  29.083  0.00  0.00    -0.473 OA
ATOM      8  C   UNL A   1     -24.741   0.718  28.546  0.00  0.00    +0.144 C 
ATOM      9  S   UNL A   1     -25.001   1.970  30.731  0.00  0.00    -0.145 S 
ATOM     10  C   UNL A   1     -23.962   1.283  29.452  0.00  0.00    +0.053 C 
ATOM     11  C   UNL A   1     -24.493   1.346  27.209  0.00  0.00    +0.039 C 
ATOM     12  C   UNL A   1     -22.234   1.714  27.955  0.00  0.00    +0.141 C 
ATOM     13  C   UNL A   1     -22.605   1.475  29.240  0.00  0.00    +0.038 C 
ATOM     14  C   UNL A   1     -23.180   1.705  26.907  0.00  0.00    +0.033 C 
ATOM     15  F   UNL A   1     -20.939   1.965  27.746  0.00  0.00    -0.204 F 
ENDROOT
BRANCH   9  23
ATOM     16  C   UNL A   1     -24.213   5.162  32.895  0.00  0.00    -0.020 C 
ATOM     17  N   UNL A   1     -26.965   4.630  33.133  0.00  0.00    -0.181 NA
ATOM     18  C   UNL A   1     -26.749   3.686  32.250  0.00  0.00    +0.077 C 
ATOM     19  C   UNL A   1     -24.316   4.041  32.109  0.00  0.00    -0.014 C 
ATOM     20  C   UNL A   1     -25.255   5.827  33.556  0.00  0.00    +0.113 C 
ATOM     21  O   UNL A   1     -27.440   5.799  34.505  0.00  0.00    -0.273 OA
ATOM     22  C   UNL A   1     -26.599   5.388  33.679  0.00  0.00    +0.250 C 
ATOM     23  C   UNL A   1     -25.447   3.339  31.815  0.00  0.00    +0.103 C 
ENDBRANCH   9  23
BRANCH  11  24
ATOM     24  C   UNL A   1     -25.688   1.614  26.461  0.00  0.00    +0.041 C 
ATOM     25  C   UNL A   1     -26.250   2.920  26.395  0.00  0.00    +0.077 C 
ATOM     26  C   UNL A   1     -27.438   3.091  25.645  0.00  0.00    +0.107 C 
ATOM     27  N   UNL A   1     -28.075   2.089  25.003  0.00  0.00    -0.208 NA
ATOM     28  C   UNL A   1     -27.543   0.849  25.079  0.00  0.00    +0.253 C 
ATOM     29  C   UNL A   1     -26.354   0.576  25.777  0.00  0.00    +0.193 C 
ATOM     30  F   UNL A   1     -25.860  -0.681  25.795  0.00  0.00    -0.199 F 
BRANCH  25  31
ATOM     31  C   UNL A   1     -25.642   4.093  27.123  0.00  0.00    +0.266 C 
ATOM     32  N   UNL A   1     -25.614   5.252  26.449  0.00  0.00    -0.200 NA
ATOM     33  C   UNL A   1     -25.026   6.479  26.963  0.00  0.00    +0.139 C 
ATOM     34  O   UNL A   1     -25.143   3.966  28.243  0.00  0.00    -0.268 OA
ENDBRANCH  25  31
BRANCH  28  35
ATOM     35  O   UNL A   1     -28.193  -0.208  24.477  0.00  0.00    -0.456 OA
BRANCH  35  36
ATOM     36  C   UNL A   1     -29.460   0.005  23.866  0.00  0.00    +0.243 C 
BRANCH  36  37
ATOM     37  C   UNL A   1     -30.065  -1.377  23.573  0.00  0.00    +0.229 C 
ATOM     38  O   UNL A   1     -30.729  -1.878  24.721  0.00  0.00    -0.216 OA
ENDBRANCH  36  37
ENDBRANCH  35  36
ENDBRANCH  28  35
ENDBRANCH  11  24
BRANCH   1  39
ATOM     39  C   UNL A   1     -24.973  -2.505  29.788  0.00  0.00    +0.019 C 
ATOM     40  C   UNL A   1     -23.906  -3.173  29.146  0.00  0.00    -0.001 C 
ATOM     41  C   UNL A   1     -23.989  -4.549  28.853  0.00  0.00    -0.000 C 
ATOM     42  C   UNL A   1     -25.137  -5.280  29.205  0.00  0.00    -0.000 C 
ATOM     43  C   UNL A   1     -26.232  -4.611  29.784  0.00  0.00    -0.000 C 
ATOM     44  C   UNL A   1     -26.155  -3.232  30.065  0.00  0.00    -0.001 C 
ENDBRANCH   1  39
TORSDOF 7
