REMARK  Name = outputs/IAG933/test6/raw/output_6044_IAG933_linker_design_.xyz
REMARK  13 active torsions:
REMARK  status: ('A' for Active; 'I' for Inactive)
REMARK    1  A    between atoms: C_1  and  C_2
REMARK    2  A    between atoms: C_1  and  C_8
REMARK    3  A    between atoms: C_1  and  C_30
REMARK    4  A    between atoms: C_13  and  C_31
REMARK    5  A    between atoms: C_14  and  C_15
REMARK    6  A    between atoms: C_21  and  O_22
REMARK    7  A    between atoms: O_22  and  C_23
REMARK    8  A    between atoms: C_23  and  C_24
REMARK    9  A    between atoms: C_28  and  C_29
REMARK   10  A    between atoms: C_29  and  C_30
REMARK   11  A    between atoms: C_29  and  C_31
REMARK   12  A    between atoms: C_31  and  C_34
REMARK   13  A    between atoms: C_40  and  C_41
REMARK                            x       y       z     vdW  Elec       q    Type
REMARK                         _______ _______ _______ _____ _____    ______ ____
ROOT
ATOM      1  C   UNL A   1     -24.779   1.373  27.656  0.00  0.00    +0.059 C 
ENDROOT
BRANCH   1   3
ATOM      2  F   UNL A   1     -22.878   0.495  29.827  0.00  0.00    -0.209 F 
ATOM      3  C   UNL A   1     -23.380   1.317  27.436  0.00  0.00    +0.011 C 
ATOM      4  C   UNL A   1     -20.722   1.534  27.290  0.00  0.00    +0.287 C 
ATOM      5  F   UNL A   1     -19.639   2.154  27.700  0.00  0.00    -0.203 F 
ATOM      6  C   UNL A   1     -22.705   1.799  26.166  0.00  0.00    +0.169 C 
ATOM      7  O   UNL A   1     -21.365   1.928  26.107  0.00  0.00    -0.322 OA
ATOM      8  C   UNL A   1     -21.273   0.655  28.180  0.00  0.00    +0.144 C 
ATOM      9  C   UNL A   1     -22.530   0.803  28.437  0.00  0.00    +0.120 C 
BRANCH   8  10
ATOM     10  C   UNL A   1     -20.431  -0.425  28.437  0.00  0.00    +0.194 C 
ATOM     11  O   UNL A   1     -21.012  -1.411  28.799  0.00  0.00    -0.220 OA
ENDBRANCH   8  10
ENDBRANCH   1   3
BRANCH   1  12
ATOM     12  C   UNL A   1     -25.688   1.614  26.461  0.00  0.00    +0.076 C 
ATOM     13  C   UNL A   1     -26.250   2.920  26.395  0.00  0.00    +0.055 C 
ATOM     14  C   UNL A   1     -27.438   3.091  25.645  0.00  0.00    +0.102 C 
ATOM     15  N   UNL A   1     -28.075   2.089  25.003  0.00  0.00    -0.212 NA
ATOM     16  C   UNL A   1     -27.543   0.849  25.079  0.00  0.00    +0.234 C 
ATOM     17  C   UNL A   1     -26.354   0.576  25.777  0.00  0.00    +0.240 C 
ATOM     18  F   UNL A   1     -25.860  -0.681  25.795  0.00  0.00    -0.227 F 
BRANCH  13  19
ATOM     19  C   UNL A   1     -25.642   4.093  27.123  0.00  0.00    +0.263 C 
ATOM     20  N   UNL A   1     -25.614   5.252  26.449  0.00  0.00    -0.200 NA
ATOM     21  C   UNL A   1     -25.026   6.479  26.963  0.00  0.00    +0.139 C 
ATOM     22  O   UNL A   1     -25.143   3.966  28.243  0.00  0.00    -0.269 OA
ENDBRANCH  13  19
BRANCH  16  23
ATOM     23  O   UNL A   1     -28.193  -0.208  24.477  0.00  0.00    -0.459 OA
BRANCH  23  24
ATOM     24  C   UNL A   1     -29.460   0.005  23.866  0.00  0.00    +0.242 C 
BRANCH  24  25
ATOM     25  C   UNL A   1     -30.065  -1.377  23.573  0.00  0.00    +0.229 C 
ATOM     26  O   UNL A   1     -30.729  -1.878  24.721  0.00  0.00    -0.216 OA
ENDBRANCH  24  25
ENDBRANCH  23  24
ENDBRANCH  16  23
ENDBRANCH   1  12
BRANCH   1  27
ATOM     27  C   UNL A   1     -25.393   1.283  28.957  0.00  0.00    +0.147 C 
ATOM     28  O   UNL A   1     -24.646   2.163  29.900  0.00  0.00    -0.224 OA
BRANCH  27  29
ATOM     29  C   UNL A   1     -26.804   1.447  29.483  0.00  0.00    +0.120 C 
ATOM     30  N   UNL A   1     -27.356   2.779  29.779  0.00  0.00    -0.130 NA
ATOM     31  C   UNL A   1     -27.851   0.371  29.157  0.00  0.00    +0.023 C 
ENDBRANCH  27  29
BRANCH  27  32
ATOM     32  C   UNL A   1     -25.289  -0.221  29.129  0.00  0.00    +0.038 C 
BRANCH  32  33
ATOM     33  C   UNL A   1     -24.855  -1.012  30.143  0.00  0.00    +0.041 C 
BRANCH  33  34
ATOM     34  C   UNL A   1     -24.973  -2.505  29.788  0.00  0.00    -0.021 C 
ATOM     35  C   UNL A   1     -23.906  -3.173  29.146  0.00  0.00    -0.004 C 
ATOM     36  C   UNL A   1     -23.989  -4.549  28.853  0.00  0.00    -0.000 C 
ATOM     37  C   UNL A   1     -25.137  -5.280  29.205  0.00  0.00    -0.000 C 
ATOM     38  C   UNL A   1     -26.232  -4.611  29.784  0.00  0.00    -0.000 C 
ATOM     39  C   UNL A   1     -26.155  -3.232  30.065  0.00  0.00    -0.004 C 
ENDBRANCH  33  34
BRANCH  33  40
ATOM     40  C   UNL A   1     -25.387  -0.679  31.571  0.00  0.00    +0.077 C 
ATOM     41  C   UNL A   1     -25.189   0.773  32.028  0.00  0.00    +0.019 C 
ATOM     42  C   UNL A   1     -25.336   0.684  33.544  0.00  0.00    +0.020 C 
ATOM     43  C   UNL A   1     -24.829  -0.715  33.905  0.00  0.00    +0.089 C 
ATOM     44  N   UNL A   1     -24.758  -1.481  32.646  0.00  0.00    -0.219 NA
ENDBRANCH  33  40
ENDBRANCH  32  33
ENDBRANCH  27  32
ENDBRANCH   1  27
TORSDOF 13
