REMARK  Name = outputs/IAG933/test6/raw/output_6048_IAG933_linker_design_.xyz
REMARK  12 active torsions:
REMARK  status: ('A' for Active; 'I' for Inactive)
REMARK    1  A    between atoms: C_1  and  C_2
REMARK    2  A    between atoms: C_1  and  C_8
REMARK    3  A    between atoms: C_1  and  C_29
REMARK    4  A    between atoms: C_9  and  C_33
REMARK    5  A    between atoms: C_13  and  N_34
REMARK    6  A    between atoms: C_14  and  C_15
REMARK    7  A    between atoms: C_21  and  O_22
REMARK    8  A    between atoms: O_22  and  C_23
REMARK    9  A    between atoms: C_23  and  C_24
REMARK   10  A    between atoms: C_33  and  N_35
REMARK   11  A    between atoms: N_34  and  C_37
REMARK   12  A    between atoms: N_35  and  C_40
REMARK                            x       y       z     vdW  Elec       q    Type
REMARK                         _______ _______ _______ _____ _____    ______ ____
ROOT
ATOM      1  C   UNL A   1     -21.349   1.372  26.791  0.00  0.00    +0.013 C 
ATOM      2 CL   UNL A   1     -22.672   1.698  24.577  0.00  0.00    -0.081 Cl
ATOM      3  C   UNL A   1     -21.241   1.203  28.173  0.00  0.00    +0.002 C 
ATOM      4  C   UNL A   1     -22.638   1.534  26.297  0.00  0.00    +0.074 C 
ATOM      5  C   UNL A   1     -23.756   1.435  27.284  0.00  0.00    +0.096 C 
ATOM      6  C   UNL A   1     -22.311   1.123  29.006  0.00  0.00    +0.018 C 
ATOM      7  C   UNL A   1     -23.640   1.429  28.587  0.00  0.00    +0.083 C 
ENDROOT
BRANCH   5   8
ATOM      8  N   UNL A   1     -24.663   1.221  27.281  0.00  0.00    -0.208 NA
BRANCH   8   9
ATOM      9  C   UNL A   1     -25.688   1.614  26.461  0.00  0.00    +0.108 C 
ATOM     10  C   UNL A   1     -26.250   2.920  26.395  0.00  0.00    +0.092 C 
ATOM     11  C   UNL A   1     -27.438   3.091  25.645  0.00  0.00    +0.108 C 
ATOM     12  N   UNL A   1     -28.075   2.089  25.003  0.00  0.00    -0.208 NA
ATOM     13  C   UNL A   1     -27.543   0.849  25.079  0.00  0.00    +0.255 C 
ATOM     14  C   UNL A   1     -26.354   0.576  25.777  0.00  0.00    +0.208 C 
ATOM     15  F   UNL A   1     -25.860  -0.681  25.795  0.00  0.00    -0.198 F 
BRANCH  10  16
ATOM     16  C   UNL A   1     -25.642   4.093  27.123  0.00  0.00    +0.268 C 
ATOM     17  N   UNL A   1     -25.614   5.252  26.449  0.00  0.00    -0.200 NA
ATOM     18  C   UNL A   1     -25.026   6.479  26.963  0.00  0.00    +0.139 C 
ATOM     19  O   UNL A   1     -25.143   3.966  28.243  0.00  0.00    -0.268 OA
ENDBRANCH  10  16
BRANCH  13  20
ATOM     20  O   UNL A   1     -28.193  -0.208  24.477  0.00  0.00    -0.456 OA
BRANCH  20  21
ATOM     21  C   UNL A   1     -29.460   0.005  23.866  0.00  0.00    +0.243 C 
BRANCH  21  22
ATOM     22  C   UNL A   1     -30.065  -1.377  23.573  0.00  0.00    +0.229 C 
ATOM     23  O   UNL A   1     -30.729  -1.878  24.721  0.00  0.00    -0.216 OA
ENDBRANCH  21  22
ENDBRANCH  20  21
ENDBRANCH  13  20
ENDBRANCH   8   9
ENDBRANCH   5   8
BRANCH   7  24
ATOM     24  N   UNL A   1     -24.303   1.647  29.683  0.00  0.00    -0.219 NA
BRANCH  24  26
ATOM     25  N   UNL A   1     -26.084   2.539  30.811  0.00  0.00    -0.109 NA
ATOM     26  C   UNL A   1     -24.787   1.864  31.006  0.00  0.00    +0.184 C 
BRANCH  26  28
ATOM     27  C   UNL A   1     -25.387  -0.679  31.571  0.00  0.00    +0.082 C 
ATOM     28  C   UNL A   1     -25.189   0.773  32.028  0.00  0.00    +0.056 C 
ATOM     29  C   UNL A   1     -25.336   0.684  33.544  0.00  0.00    +0.023 C 
ATOM     30  C   UNL A   1     -24.829  -0.715  33.905  0.00  0.00    +0.089 C 
ATOM     31  N   UNL A   1     -24.758  -1.481  32.646  0.00  0.00    -0.219 NA
BRANCH  27  32
ATOM     32  C   UNL A   1     -24.855  -1.012  30.143  0.00  0.00    +0.071 C 
BRANCH  32  33
ATOM     33  C   UNL A   1     -24.973  -2.505  29.788  0.00  0.00    -0.019 C 
ATOM     34  C   UNL A   1     -23.906  -3.173  29.146  0.00  0.00    -0.004 C 
ATOM     35  C   UNL A   1     -23.989  -4.549  28.853  0.00  0.00    -0.000 C 
ATOM     36  C   UNL A   1     -25.137  -5.280  29.205  0.00  0.00    -0.000 C 
ATOM     37  C   UNL A   1     -26.232  -4.611  29.784  0.00  0.00    -0.000 C 
ATOM     38  C   UNL A   1     -26.155  -3.232  30.065  0.00  0.00    -0.004 C 
ENDBRANCH  32  33
BRANCH  32  39
ATOM     39  C   UNL A   1     -25.722  -0.526  29.057  0.00  0.00    +0.188 C 
ATOM     40  O   UNL A   1     -26.234  -0.561  28.201  0.00  0.00    -0.220 OA
ENDBRANCH  32  39
ENDBRANCH  27  32
ENDBRANCH  26  28
ENDBRANCH  24  26
ENDBRANCH   7  24
TORSDOF 12
