MODEL 604
MODEL 1
REMARK VINA RESULT:    -6.332      0.000      0.000
REMARK INTER + INTRA:         -11.800
REMARK INTER:                  -9.664
REMARK INTRA:                  -2.136
REMARK UNBOUND:                -2.136
REMARK  Name = No_604-gen_results/8p0m/2024-11-27-11-27-31/
REMARK  9 active torsions:
REMARK  status: ('A' for Active; 'I' for Inactive)
REMARK    1  A    between atoms: C_3  and  C_17
REMARK    2  A    between atoms: C_4  and  C_8
REMARK    3  A    between atoms: C_8  and  C_9
REMARK    4  A    between atoms: C_9  and  C_10
REMARK    5  A    between atoms: C_9  and  C_16
REMARK    6  A    between atoms: C_13  and  C_20
REMARK    7  A    between atoms: C_20  and  O_21
REMARK    8  A    between atoms: O_21  and  C_25
REMARK    9  A    between atoms: C_25  and  C_26
REMARK                            x       y       z     vdW  Elec       q    Type
REMARK                         _______ _______ _______ _____ _____    ______ ____
ROOT
ATOM      1  C   UNL A   1     -24.164   0.456  28.151  0.00  0.00    +0.130 C 
ENDROOT
BRANCH   1   2
ATOM      2  C   UNL A   1     -24.964   0.669  27.236  0.00  0.00    -0.011 A 
ATOM      3  C   UNL A   1     -26.067   1.582  27.494  0.00  0.00    -0.004 A 
ATOM      4  C   UNL A   1     -26.960   1.713  26.283  0.00  0.00    +0.006 A 
ATOM      5  C   UNL A   1     -26.859   0.838  25.279  0.00  0.00    +0.076 A 
ATOM      6  C   UNL A   1     -25.877  -0.076  25.198  0.00  0.00    +0.006 A 
ATOM      7  C   UNL A   1     -24.953  -0.183  26.084  0.00  0.00    -0.004 A 
BRANCH   5   8
ATOM      8  C   UNL A   1     -27.822   1.125  24.092  0.00  0.00    +0.342 C 
ATOM      9  O   UNL A   1     -27.921   2.531  23.854  0.00  0.00    -0.245 OA
BRANCH   8  10
ATOM     10  O   UNL A   1     -28.307   0.483  23.487  0.00  0.00    -0.439 OA
BRANCH  10  11
ATOM     11  C   UNL A   1     -29.627   0.095  23.490  0.00  0.00    +0.257 C 
BRANCH  11  12
ATOM     12  C   UNL A   1     -29.968  -1.125  23.801  0.00  0.00    +0.143 C 
ATOM     13  N   UNL A   1     -31.011  -1.579  23.502  0.00  0.00    -0.147 NA
ENDBRANCH  11  12
ENDBRANCH  10  11
ENDBRANCH   8  10
ENDBRANCH   5   8
ENDBRANCH   1   2
BRANCH   1  14
ATOM     14  C   UNL A   1     -22.687   0.984  28.084  0.00  0.00    +0.369 C 
ATOM     15  O   UNL A   1     -21.705   0.376  28.232  0.00  0.00    -0.245 OA
ATOM     16  O   UNL A   1     -22.564   2.307  27.839  0.00  0.00    -0.245 OA
ENDBRANCH   1  14
BRANCH   1  17
ATOM     17  C   UNL A   1     -24.306  -0.244  29.409  0.00  0.00    +0.042 C 
BRANCH  17  21
ATOM     18  C   UNL A   1     -26.081  -3.647  29.522  0.00  0.00    +0.030 A 
ATOM     19  C   UNL A   1     -25.247  -4.244  29.278  0.00  0.00    +0.140 A 
ATOM     20  C   UNL A   1     -25.842  -2.200  29.644  0.00  0.00    +0.042 A 
ATOM     21  C   UNL A   1     -24.574  -1.643  29.305  0.00  0.00    -0.020 A 
ATOM     22  C   UNL A   1     -23.866  -3.918  28.829  0.00  0.00    +0.029 A 
ATOM     23  C   UNL A   1     -23.603  -2.585  28.938  0.00  0.00    -0.002 A 
ATOM     24  F   UNL A   1     -25.477  -5.660  29.141  0.00  0.00    -0.204 F 
BRANCH  20  25
ATOM     25  C   UNL A   1     -26.859  -1.235  30.160  0.00  0.00    +0.341 C 
ATOM     26  F   UNL A   1     -27.607  -0.704  29.497  0.00  0.00    -0.193 F 
ATOM     27  F   UNL A   1     -26.857  -1.094  31.436  0.00  0.00    -0.193 F 
ENDBRANCH  20  25
ENDBRANCH  17  21
ENDBRANCH   1  17
TORSDOF 9
ENDMDL
ENDMDL
