REMARK  Name = outputs/IAG933/test6/raw/output_6055_IAG933_linker_design_.xyz
REMARK  14 active torsions:
REMARK  status: ('A' for Active; 'I' for Inactive)
REMARK    1  A    between atoms: C_1  and  C_2
REMARK    2  A    between atoms: C_1  and  C_8
REMARK    3  A    between atoms: C_1  and  C_31
REMARK    4  A    between atoms: C_13  and  C_38
REMARK    5  A    between atoms: C_14  and  C_15
REMARK    6  A    between atoms: C_21  and  O_22
REMARK    7  A    between atoms: O_22  and  C_23
REMARK    8  A    between atoms: C_23  and  C_24
REMARK    9  A    between atoms: C_28  and  C_37
REMARK   10  A    between atoms: S_29  and  C_35
REMARK   11  A    between atoms: S_29  and  C_40
REMARK   12  A    between atoms: C_31  and  C_32
REMARK   13  A    between atoms: C_31  and  C_40
REMARK   14  A    between atoms: C_34  and  C_35
REMARK                            x       y       z     vdW  Elec       q    Type
REMARK                         _______ _______ _______ _____ _____    ______ ____
ROOT
ATOM      1  C   UNL A   1     -23.951   0.765  28.242  0.00  0.00    +0.003 C 
ATOM      2  C   UNL A   1     -22.966   1.915  26.348  0.00  0.00    +0.009 C 
ATOM      3  C   UNL A   1     -24.181   1.463  26.956  0.00  0.00    -0.018 C 
ATOM      4  C   UNL A   1     -21.671   2.026  26.895  0.00  0.00    +0.000 C 
ATOM      5  C   UNL A   1     -22.535   0.783  28.756  0.00  0.00    +0.136 C 
ATOM      6  F   UNL A   1     -22.214   0.148  29.858  0.00  0.00    -0.204 F 
ATOM      7  C   UNL A   1     -21.435   1.458  28.157  0.00  0.00    +0.029 C 
ENDROOT
BRANCH   3   8
ATOM      8  C   UNL A   1     -25.688   1.614  26.461  0.00  0.00    +0.092 C 
ATOM      9  C   UNL A   1     -26.250   2.920  26.395  0.00  0.00    +0.059 C 
ATOM     10  C   UNL A   1     -27.438   3.091  25.645  0.00  0.00    +0.102 C 
ATOM     11  N   UNL A   1     -28.075   2.089  25.003  0.00  0.00    -0.212 NA
ATOM     12  C   UNL A   1     -27.543   0.849  25.079  0.00  0.00    +0.234 C 
ATOM     13  C   UNL A   1     -26.354   0.576  25.777  0.00  0.00    +0.244 C 
ATOM     14  F   UNL A   1     -25.860  -0.681  25.795  0.00  0.00    -0.227 F 
BRANCH   9  15
ATOM     15  C   UNL A   1     -25.642   4.093  27.123  0.00  0.00    +0.263 C 
ATOM     16  N   UNL A   1     -25.614   5.252  26.449  0.00  0.00    -0.200 NA
ATOM     17  C   UNL A   1     -25.026   6.479  26.963  0.00  0.00    +0.139 C 
ATOM     18  O   UNL A   1     -25.143   3.966  28.243  0.00  0.00    -0.269 OA
ENDBRANCH   9  15
BRANCH  12  19
ATOM     19  O   UNL A   1     -28.193  -0.208  24.477  0.00  0.00    -0.459 OA
BRANCH  19  20
ATOM     20  C   UNL A   1     -29.460   0.005  23.866  0.00  0.00    +0.242 C 
BRANCH  20  21
ATOM     21  C   UNL A   1     -30.065  -1.377  23.573  0.00  0.00    +0.229 C 
ATOM     22  O   UNL A   1     -30.729  -1.878  24.721  0.00  0.00    -0.216 OA
ENDBRANCH  20  21
ENDBRANCH  19  20
ENDBRANCH  12  19
ENDBRANCH   3   8
BRANCH   2  23
ATOM     23  C   UNL A   1     -22.715   2.401  25.171  0.00  0.00    +0.219 C 
ATOM     24  F   UNL A   1     -22.356   2.682  24.171  0.00  0.00    -0.229 F 
ENDBRANCH   2  23
BRANCH   1  25
ATOM     25  C   UNL A   1     -24.999   0.047  28.994  0.00  0.00    +0.053 C 
BRANCH  25  26
ATOM     26  C   UNL A   1     -24.855  -1.012  30.143  0.00  0.00    +0.044 C 
BRANCH  26  27
ATOM     27  C   UNL A   1     -24.973  -2.505  29.788  0.00  0.00    -0.021 C 
ATOM     28  C   UNL A   1     -23.906  -3.173  29.146  0.00  0.00    -0.004 C 
ATOM     29  C   UNL A   1     -23.989  -4.549  28.853  0.00  0.00    -0.000 C 
ATOM     30  C   UNL A   1     -25.137  -5.280  29.205  0.00  0.00    -0.000 C 
ATOM     31  C   UNL A   1     -26.232  -4.611  29.784  0.00  0.00    -0.000 C 
ATOM     32  C   UNL A   1     -26.155  -3.232  30.065  0.00  0.00    -0.004 C 
ENDBRANCH  26  27
BRANCH  26  33
ATOM     33  C   UNL A   1     -25.387  -0.679  31.571  0.00  0.00    +0.077 C 
ATOM     34  C   UNL A   1     -25.189   0.773  32.028  0.00  0.00    +0.019 C 
ATOM     35  C   UNL A   1     -25.336   0.684  33.544  0.00  0.00    +0.020 C 
ATOM     36  C   UNL A   1     -24.829  -0.715  33.905  0.00  0.00    +0.089 C 
ATOM     37  N   UNL A   1     -24.758  -1.481  32.646  0.00  0.00    -0.219 NA
ENDBRANCH  26  33
ENDBRANCH  25  26
BRANCH  25  38
ATOM     38  C   UNL A   1     -26.454   0.253  28.762  0.00  0.00    +0.155 C 
BRANCH  38  39
ATOM     39  S   UNL A   1     -28.165  -0.179  28.778  0.00  0.00    -0.010 S 
ATOM     40  O   UNL A   1     -28.032  -1.516  29.441  0.00  0.00    -0.173 OA
ATOM     41  O   UNL A   1     -28.953  -0.100  27.564  0.00  0.00    -0.173 OA
BRANCH  39  42
ATOM     42  C   UNL A   1     -28.692   1.011  29.863  0.00  0.00    +0.151 C 
BRANCH  42  44
ATOM     43  C   UNL A   1     -28.089   3.482  29.660  0.00  0.00    +0.002 C 
ATOM     44  C   UNL A   1     -28.838   2.316  29.099  0.00  0.00    +0.025 C 
ENDBRANCH  42  44
ENDBRANCH  39  42
ENDBRANCH  38  39
ENDBRANCH  25  38
ENDBRANCH   1  25
TORSDOF 14
