MODEL 605
MODEL 1
REMARK VINA RESULT:    -7.407      0.000      0.000
REMARK INTER + INTRA:         -12.729
REMARK INTER:                 -10.871
REMARK INTRA:                  -1.859
REMARK UNBOUND:                -1.859
REMARK  Name = No_605-gen_results/8p0m/2024-11-27-11-27-31/
REMARK  8 active torsions:
REMARK  status: ('A' for Active; 'I' for Inactive)
REMARK    1  A    between atoms: C_2  and  C_7
REMARK    2  A    between atoms: C_3  and  C_26
REMARK    3  A    between atoms: C_7  and  C_9
REMARK    4  A    between atoms: N_8  and  C_11
REMARK    5  A    between atoms: C_11  and  C_12
REMARK    6  A    between atoms: N_13  and  C_18
REMARK    7  A    between atoms: C_26  and  N_27
REMARK    8  A    between atoms: C_29  and  C_30
REMARK                            x       y       z     vdW  Elec       q    Type
REMARK                         _______ _______ _______ _____ _____    ______ ____
ROOT
ATOM      1  C   UNL A   1     -10.098   0.210  37.466  0.00  0.00    +0.074 C 
ATOM      2  N   UNL A   1      -8.935   0.178  37.210  0.00  0.00    -0.172 NA
ENDROOT
BRANCH   1   4
ATOM      3  C   UNL A   1     -11.581   1.935  37.297  0.00  0.00    -0.002 A 
ATOM      4  C   UNL A   1     -11.091   1.216  36.703  0.00  0.00    +0.015 A 
ATOM      5  C   UNL A   1     -12.520   2.860  36.555  0.00  0.00    -0.006 A 
ATOM      6  C   UNL A   1     -12.788   2.624  35.191  0.00  0.00    -0.003 A 
ATOM      7  C   UNL A   1     -11.212   0.746  35.304  0.00  0.00    +0.001 A 
ATOM      8  C   UNL A   1     -12.073   1.570  34.592  0.00  0.00    -0.000 A 
BRANCH   5   9
ATOM      9  C   UNL A   1     -13.174   4.034  37.167  0.00  0.00    +0.099 C 
BRANCH   9  10
ATOM     10  N   UNL A   1     -14.386   3.845  37.722  0.00  0.00    -0.268 NA
ATOM     11  C   UNL A   1     -15.501   4.156  37.112  0.00  0.00    +0.091 C 
ATOM     12  C   UNL A   1     -14.565   3.450  39.081  0.00  0.00    +0.075 C 
ATOM     13  C   UNL A   1     -15.959   3.398  39.432  0.00  0.00    +0.105 C 
ATOM     14  N   UNL A   1     -16.719   3.279  38.765  0.00  0.00    -0.215 NA
ATOM     15  C   UNL A   1     -16.719   3.787  37.499  0.00  0.00    +0.106 C 
BRANCH  12  16
ATOM     16  C   UNL A   1     -13.733   3.546  40.011  0.00  0.00    +0.016 C 
ATOM     17  C   UNL A   1     -13.147   4.214  41.037  0.00  0.00    +0.001 C 
ATOM     18  C   UNL A   1     -13.251   1.981  40.449  0.00  0.00    +0.001 C 
ENDBRANCH  12  16
ENDBRANCH   9  10
ENDBRANCH   5   9
ENDBRANCH   1   4
BRANCH   1  19
ATOM     19  C   UNL A   1     -10.718  -0.732  38.327  0.00  0.00    +0.015 A 
ATOM     20  C   UNL A   1     -11.362  -1.802  37.722  0.00  0.00    +0.001 A 
ATOM     21  C   UNL A   1     -10.718  -0.625  39.764  0.00  0.00    +0.001 A 
ATOM     22  C   UNL A   1     -11.606  -1.347  40.506  0.00  0.00    +0.000 A 
ATOM     23  C   UNL A   1     -12.164  -2.645  38.537  0.00  0.00    +0.000 A 
ATOM     24  C   UNL A   1     -12.193  -2.467  39.901  0.00  0.00    +0.000 A 
ENDBRANCH   1  19
BRANCH   2  25
ATOM     25  C   UNL A   1      -8.273   1.040  36.316  0.00  0.00    +0.325 C 
ATOM     26  O   UNL A   1      -7.857   2.191  36.930  0.00  0.00    -0.263 OA
BRANCH  25  27
ATOM     27  C   UNL A   1      -7.518   0.536  35.290  0.00  0.00    +0.325 C 
ATOM     28  N   UNL A   1      -7.111  -0.517  35.329  0.00  0.00    -0.172 NA
ATOM     29  O   UNL A   1      -7.766   1.093  34.124  0.00  0.00    -0.263 OA
BRANCH  28  30
ATOM     30  C   UNL A   1      -5.838  -0.825  34.771  0.00  0.00    +0.074 A 
ATOM     31  C   UNL A   1      -4.777   0.059  35.048  0.00  0.00    +0.017 A 
ATOM     32  C   UNL A   1      -3.438  -0.271  34.739  0.00  0.00    +0.001 A 
ATOM     33  C   UNL A   1      -3.177  -1.491  34.139  0.00  0.00    +0.000 A 
ATOM     34  C   UNL A   1      -4.244  -2.377  33.931  0.00  0.00    +0.001 A 
ATOM     35  C   UNL A   1      -5.534  -2.064  34.302  0.00  0.00    +0.017 A 
ENDBRANCH  28  30
ENDBRANCH  25  27
ENDBRANCH   2  25
TORSDOF 8
ENDMDL
ENDMDL
