REMARK  Name = outputs/IAG933/test6/raw/output_606_IAG933_linker_design_.xyz
REMARK  13 active torsions:
REMARK  status: ('A' for Active; 'I' for Inactive)
REMARK    1  A    between atoms: C_1  and  C_2
REMARK    2  A    between atoms: C_1  and  C_8
REMARK    3  A    between atoms: C_1  and  C_40
REMARK    4  A    between atoms: C_14  and  C_15
REMARK    5  A    between atoms: C_21  and  O_22
REMARK    6  A    between atoms: O_22  and  C_23
REMARK    7  A    between atoms: C_23  and  C_24
REMARK    8  A    between atoms: C_30  and  C_36
REMARK    9  A    between atoms: C_30  and  C_39
REMARK   10  A    between atoms: C_33  and  N_38
REMARK   11  A    between atoms: C_33  and  C_40
REMARK   12  A    between atoms: C_36  and  O_42
REMARK   13  A    between atoms: C_39  and  C_40
REMARK                            x       y       z     vdW  Elec       q    Type
REMARK                         _______ _______ _______ _____ _____    ______ ____
ROOT
ATOM      1  C   UNL A   1     -25.688   1.614  26.461  0.00  0.00    +0.059 C 
ATOM      2  C   UNL A   1     -26.250   2.920  26.395  0.00  0.00    +0.080 C 
ATOM      3  C   UNL A   1     -27.438   3.091  25.645  0.00  0.00    +0.107 C 
ATOM      4  N   UNL A   1     -28.075   2.089  25.003  0.00  0.00    -0.211 NA
ATOM      5  C   UNL A   1     -27.543   0.849  25.079  0.00  0.00    +0.239 C 
ATOM      6  C   UNL A   1     -26.354   0.576  25.777  0.00  0.00    +0.265 C 
ATOM      7  F   UNL A   1     -25.860  -0.681  25.795  0.00  0.00    -0.222 F 
ATOM      8  C   UNL A   1     -23.348   1.201  27.621  0.00  0.00    +0.118 C 
ATOM      9  C   UNL A   1     -24.471   1.140  27.081  0.00  0.00    -0.098 C 
ENDROOT
BRANCH   2  10
ATOM     10  C   UNL A   1     -25.642   4.093  27.123  0.00  0.00    +0.267 C 
ATOM     11  N   UNL A   1     -25.614   5.252  26.449  0.00  0.00    -0.200 NA
ATOM     12  C   UNL A   1     -25.026   6.479  26.963  0.00  0.00    +0.139 C 
ATOM     13  O   UNL A   1     -25.143   3.966  28.243  0.00  0.00    -0.268 OA
ENDBRANCH   2  10
BRANCH   8  15
ATOM     14  O   UNL A   1     -22.472  -0.191  29.332  0.00  0.00    -0.217 OA
ATOM     15  C   UNL A   1     -23.557   0.371  28.784  0.00  0.00    +0.196 C 
BRANCH  15  16
ATOM     16  C   UNL A   1     -25.025   0.247  29.250  0.00  0.00    +0.119 C 
BRANCH  16  17
ATOM     17  C   UNL A   1     -26.366   0.813  29.165  0.00  0.00    +0.248 C 
ATOM     18  O   UNL A   1     -27.226   0.065  28.763  0.00  0.00    -0.273 OA
BRANCH  17  22
ATOM     19  C   UNL A   1     -27.180   4.431  30.342  0.00  0.00    +0.044 C 
ATOM     20  C   UNL A   1     -27.509   3.075  29.771  0.00  0.00    +0.030 C 
ATOM     21  C   UNL A   1     -28.952   2.901  29.430  0.00  0.00    +0.044 C 
ATOM     22  N   UNL A   1     -26.598   2.089  29.661  0.00  0.00    -0.188 NA
ENDBRANCH  17  22
ENDBRANCH  16  17
BRANCH  16  23
ATOM     23  C   UNL A   1     -24.855  -1.012  30.143  0.00  0.00    +0.050 C 
BRANCH  23  24
ATOM     24  C   UNL A   1     -24.973  -2.505  29.788  0.00  0.00    -0.021 C 
ATOM     25  C   UNL A   1     -23.906  -3.173  29.146  0.00  0.00    -0.004 C 
ATOM     26  C   UNL A   1     -23.989  -4.549  28.853  0.00  0.00    -0.000 C 
ATOM     27  C   UNL A   1     -25.137  -5.280  29.205  0.00  0.00    -0.000 C 
ATOM     28  C   UNL A   1     -26.232  -4.611  29.784  0.00  0.00    -0.000 C 
ATOM     29  C   UNL A   1     -26.155  -3.232  30.065  0.00  0.00    -0.004 C 
ENDBRANCH  23  24
BRANCH  23  30
ATOM     30  C   UNL A   1     -25.387  -0.679  31.571  0.00  0.00    +0.077 C 
ATOM     31  C   UNL A   1     -25.189   0.773  32.028  0.00  0.00    +0.019 C 
ATOM     32  C   UNL A   1     -25.336   0.684  33.544  0.00  0.00    +0.020 C 
ATOM     33  C   UNL A   1     -24.829  -0.715  33.905  0.00  0.00    +0.089 C 
ATOM     34  N   UNL A   1     -24.758  -1.481  32.646  0.00  0.00    -0.219 NA
ENDBRANCH  23  30
ENDBRANCH  16  23
ENDBRANCH  15  16
ENDBRANCH   8  15
BRANCH   8  35
ATOM     35  C   UNL A   1     -21.994   1.553  27.245  0.00  0.00    +0.347 C 
ATOM     36  O   UNL A   1     -20.931   1.190  27.922  0.00  0.00    -0.244 OA
BRANCH  35  38
ATOM     37  C   UNL A   1     -22.834   2.621  25.324  0.00  0.00    +0.256 C 
ATOM     38  O   UNL A   1     -21.776   2.327  26.233  0.00  0.00    -0.441 OA
ENDBRANCH  35  38
ENDBRANCH   8  35
BRANCH   5  39
ATOM     39  O   UNL A   1     -28.193  -0.208  24.477  0.00  0.00    -0.458 OA
BRANCH  39  40
ATOM     40  C   UNL A   1     -29.460   0.005  23.866  0.00  0.00    +0.242 C 
BRANCH  40  41
ATOM     41  C   UNL A   1     -30.065  -1.377  23.573  0.00  0.00    +0.229 C 
ATOM     42  O   UNL A   1     -30.729  -1.878  24.721  0.00  0.00    -0.216 OA
ENDBRANCH  40  41
ENDBRANCH  39  40
ENDBRANCH   5  39
TORSDOF 13
