REMARK  Name = outputs/IAG933/test6/raw/output_6061_IAG933_linker_design_.xyz
REMARK  13 active torsions:
REMARK  status: ('A' for Active; 'I' for Inactive)
REMARK    1  A    between atoms: C_1  and  C_2
REMARK    2  A    between atoms: C_1  and  C_8
REMARK    3  A    between atoms: C_1  and  C_32
REMARK    4  A    between atoms: C_13  and  C_33
REMARK    5  A    between atoms: C_14  and  C_15
REMARK    6  A    between atoms: C_21  and  O_22
REMARK    7  A    between atoms: O_22  and  C_23
REMARK    8  A    between atoms: C_23  and  C_24
REMARK    9  A    between atoms: C_30  and  C_32
REMARK   10  A    between atoms: C_31  and  C_32
REMARK   11  A    between atoms: C_33  and  C_34
REMARK   12  A    between atoms: C_33  and  C_37
REMARK   13  A    between atoms: C_37  and  O_38
REMARK                            x       y       z     vdW  Elec       q    Type
REMARK                         _______ _______ _______ _____ _____    ______ ____
ROOT
ATOM      1  O   UNL A   1     -20.700   0.998  27.533  0.00  0.00    -0.470 OA
ATOM      2  C   UNL A   1     -23.548   0.232  28.501  0.00  0.00    +0.051 C 
ATOM      3  C   UNL A   1     -23.244   0.955  27.441  0.00  0.00    +0.086 C 
ATOM      4  N   UNL A   1     -22.587  -0.598  29.061  0.00  0.00    -0.248 NA
ATOM      5  C   UNL A   1     -20.651  -0.014  28.232  0.00  0.00    +0.193 C 
ATOM      6  C   UNL A   1     -21.300  -0.753  28.840  0.00  0.00    +0.138 C 
ATOM      7  C   UNL A   1     -21.901   1.301  27.333  0.00  0.00    +0.211 C 
ENDROOT
BRANCH   2   8
ATOM      8  C   UNL A   1     -24.988   0.170  29.087  0.00  0.00    +0.145 C 
BRANCH   8  10
ATOM      9  O   UNL A   1     -27.112  -0.618  28.147  0.00  0.00    -0.245 OA
ATOM     10  C   UNL A   1     -26.516   0.451  28.708  0.00  0.00    +0.370 C 
ATOM     11  O   UNL A   1     -27.140   1.530  28.923  0.00  0.00    -0.245 OA
ENDBRANCH   8  10
BRANCH   8  12
ATOM     12  C   UNL A   1     -24.855  -1.012  30.143  0.00  0.00    +0.054 C 
BRANCH  12  13
ATOM     13  C   UNL A   1     -24.973  -2.505  29.788  0.00  0.00    -0.020 C 
ATOM     14  C   UNL A   1     -23.906  -3.173  29.146  0.00  0.00    -0.004 C 
ATOM     15  C   UNL A   1     -23.989  -4.549  28.853  0.00  0.00    -0.000 C 
ATOM     16  C   UNL A   1     -25.137  -5.280  29.205  0.00  0.00    -0.000 C 
ATOM     17  C   UNL A   1     -26.232  -4.611  29.784  0.00  0.00    -0.000 C 
ATOM     18  C   UNL A   1     -26.155  -3.232  30.065  0.00  0.00    -0.004 C 
ENDBRANCH  12  13
BRANCH  12  19
ATOM     19  C   UNL A   1     -25.387  -0.679  31.571  0.00  0.00    +0.078 C 
ATOM     20  C   UNL A   1     -25.189   0.773  32.028  0.00  0.00    +0.019 C 
ATOM     21  C   UNL A   1     -25.336   0.684  33.544  0.00  0.00    +0.020 C 
ATOM     22  C   UNL A   1     -24.829  -0.715  33.905  0.00  0.00    +0.089 C 
ATOM     23  N   UNL A   1     -24.758  -1.481  32.646  0.00  0.00    -0.219 NA
ENDBRANCH  12  19
ENDBRANCH   8  12
ENDBRANCH   2   8
BRANCH   3  24
ATOM     24  C   UNL A   1     -24.106   1.355  26.392  0.00  0.00    +0.081 C 
BRANCH  24  25
ATOM     25  C   UNL A   1     -25.688   1.614  26.461  0.00  0.00    +0.076 C 
ATOM     26  C   UNL A   1     -26.250   2.920  26.395  0.00  0.00    +0.055 C 
ATOM     27  C   UNL A   1     -27.438   3.091  25.645  0.00  0.00    +0.102 C 
ATOM     28  N   UNL A   1     -28.075   2.089  25.003  0.00  0.00    -0.212 NA
ATOM     29  C   UNL A   1     -27.543   0.849  25.079  0.00  0.00    +0.234 C 
ATOM     30  C   UNL A   1     -26.354   0.576  25.777  0.00  0.00    +0.240 C 
ATOM     31  F   UNL A   1     -25.860  -0.681  25.795  0.00  0.00    -0.227 F 
BRANCH  26  32
ATOM     32  C   UNL A   1     -25.642   4.093  27.123  0.00  0.00    +0.262 C 
ATOM     33  N   UNL A   1     -25.614   5.252  26.449  0.00  0.00    -0.200 NA
ATOM     34  C   UNL A   1     -25.026   6.479  26.963  0.00  0.00    +0.139 C 
ATOM     35  O   UNL A   1     -25.143   3.966  28.243  0.00  0.00    -0.269 OA
ENDBRANCH  26  32
BRANCH  29  36
ATOM     36  O   UNL A   1     -28.193  -0.208  24.477  0.00  0.00    -0.459 OA
BRANCH  36  37
ATOM     37  C   UNL A   1     -29.460   0.005  23.866  0.00  0.00    +0.242 C 
BRANCH  37  38
ATOM     38  C   UNL A   1     -30.065  -1.377  23.573  0.00  0.00    +0.229 C 
ATOM     39  O   UNL A   1     -30.729  -1.878  24.721  0.00  0.00    -0.216 OA
ENDBRANCH  37  38
ENDBRANCH  36  37
ENDBRANCH  29  36
ENDBRANCH  24  25
BRANCH  24  40
ATOM     40  C   UNL A   1     -23.551   1.621  25.216  0.00  0.00    +0.316 C 
ATOM     41  F   UNL A   1     -23.503   0.796  24.139  0.00  0.00    -0.201 F 
BRANCH  40  42
ATOM     42  O   UNL A   1     -22.782   2.779  25.188  0.00  0.00    -0.146 OA
ATOM     43  F   UNL A   1     -21.535   2.449  25.415  0.00  0.00    -0.044 F 
ENDBRANCH  40  42
ENDBRANCH  24  40
ENDBRANCH   3  24
TORSDOF 13
