MODEL 606
MODEL 1
REMARK VINA RESULT:    -5.293      0.000      0.000
REMARK INTER + INTRA:          -5.744
REMARK INTER:                  -5.603
REMARK INTRA:                  -0.141
REMARK UNBOUND:                -0.141
REMARK  Name = No_606-gen_results/8p0m/2024-11-27-11-27-31/
REMARK  1 active torsions:
REMARK  status: ('A' for Active; 'I' for Inactive)
REMARK    1  A    between atoms: C_3  and  C_4
REMARK                            x       y       z     vdW  Elec       q    Type
REMARK                         _______ _______ _______ _____ _____    ______ ____
ROOT
ATOM      1  C   UNL A   1     -26.075  -2.934  29.631  0.00  0.00    +0.015 A 
ATOM      2  C   UNL A   1     -26.326  -3.946  29.785  0.00  0.00    +0.058 A 
ATOM      3  C   UNL A   1     -24.700  -2.686  29.052  0.00  0.00    +0.072 A 
ATOM      4  C   UNL A   1     -25.686  -5.192  29.344  0.00  0.00    +0.011 A 
ATOM      5  C   UNL A   1     -24.437  -5.046  28.780  0.00  0.00    +0.001 A 
ATOM      6  C   UNL A   1     -23.909  -3.796  28.582  0.00  0.00    +0.004 A 
ATOM      7 CL   UNL A   1     -27.955  -4.274  30.494  0.00  0.00    -0.082 Cl
ENDROOT
BRANCH   3   8
ATOM      8  C   UNL A   1     -24.063  -1.404  28.884  0.00  0.00    +0.419 C 
ATOM      9  F   UNL A   1     -24.374  -0.644  29.775  0.00  0.00    -0.166 F 
ATOM     10  F   UNL A   1     -22.661  -1.547  28.886  0.00  0.00    -0.166 F 
ATOM     11  F   UNL A   1     -24.423  -0.791  27.739  0.00  0.00    -0.166 F 
ENDBRANCH   3   8
TORSDOF 1
ENDMDL
ENDMDL
