REMARK  Name = No_607-gen_results/8p0m/2024-11-27-11-27-31/
REMARK  2 active torsions:
REMARK  status: ('A' for Active; 'I' for Inactive)
REMARK    1  A    between atoms: C_3  and  O_9
REMARK    2  A    between atoms: O_9  and  C_10
REMARK                            x       y       z     vdW  Elec       q    Type
REMARK                         _______ _______ _______ _____ _____    ______ ____
ROOT
ATOM      1  O   UNL A   1     -25.770  -0.849  27.713  0.00  0.00    -0.452 OA
ENDROOT
BRANCH   1   4
ATOM      2  C   UNL A   1     -28.016  -0.814  28.878  0.00  0.00    +0.051 A 
ATOM      3  C   UNL A   1     -28.469  -0.785  29.829  0.00  0.00    +0.061 A 
ATOM      4  C   UNL A   1     -26.546  -0.876  28.850  0.00  0.00    +0.173 A 
ATOM      5  C   UNL A   1     -25.804  -1.032  30.057  0.00  0.00    +0.174 A 
ATOM      6  C   UNL A   1     -27.944  -0.987  31.207  0.00  0.00    +0.014 A 
ATOM      7  C   UNL A   1     -26.582  -1.039  31.223  0.00  0.00    +0.034 A 
ATOM      8 CL   UNL A   1     -30.281  -0.723  29.883  0.00  0.00    -0.082 Cl
ATOM      9  F   UNL A   1     -24.516  -1.090  30.053  0.00  0.00    -0.201 F 
ENDBRANCH   1   4
BRANCH   1  10
ATOM     10  C   UNL A   1     -25.135   0.346  27.372  0.00  0.00    +0.141 A 
ATOM     11  C   UNL A   1     -23.928   0.629  27.877  0.00  0.00    +0.033 A 
ATOM     12  C   UNL A   1     -23.221   1.783  27.384  0.00  0.00    -0.019 A 
ATOM     13  C   UNL A   1     -22.025   2.266  28.013  0.00  0.00    +0.031 C 
ATOM     14  C   UNL A   1     -25.625   1.081  26.289  0.00  0.00    +0.013 A 
ATOM     15  C   UNL A   1     -23.733   2.540  26.337  0.00  0.00    -0.004 A 
ATOM     16  C   UNL A   1     -26.814   0.610  25.734  0.00  0.00    +0.034 C 
ATOM     17  C   UNL A   1     -24.964   2.159  25.788  0.00  0.00    -0.002 A 
ENDBRANCH   1  10
TORSDOF 2
