REMARK  Name = outputs/IAG933/test6/raw/output_6070_IAG933_linker_design_.xyz
REMARK  12 active torsions:
REMARK  status: ('A' for Active; 'I' for Inactive)
REMARK    1  A    between atoms: C_1  and  C_2
REMARK    2  A    between atoms: C_1  and  C_8
REMARK    3  A    between atoms: C_1  and  N_42
REMARK    4  A    between atoms: C_13  and  C_41
REMARK    5  A    between atoms: C_14  and  C_15
REMARK    6  A    between atoms: C_21  and  O_22
REMARK    7  A    between atoms: O_22  and  C_23
REMARK    8  A    between atoms: C_23  and  C_24
REMARK    9  A    between atoms: C_31  and  C_37
REMARK   10  A    between atoms: C_31  and  C_40
REMARK   11  A    between atoms: C_38  and  N_42
REMARK   12  A    between atoms: C_40  and  N_42
REMARK                            x       y       z     vdW  Elec       q    Type
REMARK                         _______ _______ _______ _____ _____    ______ ____
ROOT
ATOM      1  O   UNL A   1     -21.954   1.860  26.302  0.00  0.00    -0.468 OA
ATOM      2  C   UNL A   1     -23.275   1.956  26.028  0.00  0.00    +0.230 C 
ATOM      3  C   UNL A   1     -22.452   0.711  28.344  0.00  0.00    +0.028 C 
ATOM      4  C   UNL A   1     -22.047  -0.103  29.465  0.00  0.00    +0.036 C 
ATOM      5  C   UNL A   1     -21.494   1.266  27.506  0.00  0.00    +0.170 C 
ATOM      6  C   UNL A   1     -23.898   0.776  28.135  0.00  0.00    +0.043 C 
ATOM      7  C   UNL A   1     -24.267   1.450  26.924  0.00  0.00    +0.019 C 
ENDROOT
BRANCH   7   8
ATOM      8  C   UNL A   1     -25.688   1.614  26.461  0.00  0.00    +0.093 C 
ATOM      9  C   UNL A   1     -26.250   2.920  26.395  0.00  0.00    +0.059 C 
ATOM     10  C   UNL A   1     -27.438   3.091  25.645  0.00  0.00    +0.102 C 
ATOM     11  N   UNL A   1     -28.075   2.089  25.003  0.00  0.00    -0.212 NA
ATOM     12  C   UNL A   1     -27.543   0.849  25.079  0.00  0.00    +0.234 C 
ATOM     13  C   UNL A   1     -26.354   0.576  25.777  0.00  0.00    +0.244 C 
ATOM     14  F   UNL A   1     -25.860  -0.681  25.795  0.00  0.00    -0.227 F 
BRANCH   9  15
ATOM     15  C   UNL A   1     -25.642   4.093  27.123  0.00  0.00    +0.263 C 
ATOM     16  N   UNL A   1     -25.614   5.252  26.449  0.00  0.00    -0.200 NA
ATOM     17  C   UNL A   1     -25.026   6.479  26.963  0.00  0.00    +0.139 C 
ATOM     18  O   UNL A   1     -25.143   3.966  28.243  0.00  0.00    -0.269 OA
ENDBRANCH   9  15
BRANCH  12  19
ATOM     19  O   UNL A   1     -28.193  -0.208  24.477  0.00  0.00    -0.459 OA
BRANCH  19  20
ATOM     20  C   UNL A   1     -29.460   0.005  23.866  0.00  0.00    +0.242 C 
BRANCH  20  21
ATOM     21  C   UNL A   1     -30.065  -1.377  23.573  0.00  0.00    +0.229 C 
ATOM     22  O   UNL A   1     -30.729  -1.878  24.721  0.00  0.00    -0.216 OA
ENDBRANCH  20  21
ENDBRANCH  19  20
ENDBRANCH  12  19
ENDBRANCH   7   8
BRANCH   6  23
ATOM     23  N   UNL A   1     -24.692  -0.024  29.049  0.00  0.00    -0.304 N 
BRANCH  23  24
ATOM     24  C   UNL A   1     -24.855  -1.012  30.143  0.00  0.00    +0.111 C 
BRANCH  24  25
ATOM     25  C   UNL A   1     -24.973  -2.505  29.788  0.00  0.00    -0.003 C 
ATOM     26  C   UNL A   1     -23.906  -3.173  29.146  0.00  0.00    -0.003 C 
ATOM     27  C   UNL A   1     -23.989  -4.549  28.853  0.00  0.00    -0.000 C 
ATOM     28  C   UNL A   1     -25.137  -5.280  29.205  0.00  0.00    -0.000 C 
ATOM     29  C   UNL A   1     -26.232  -4.611  29.784  0.00  0.00    -0.000 C 
ATOM     30  C   UNL A   1     -26.155  -3.232  30.065  0.00  0.00    -0.003 C 
ENDBRANCH  24  25
BRANCH  24  31
ATOM     31  C   UNL A   1     -25.387  -0.679  31.571  0.00  0.00    +0.095 C 
ATOM     32  C   UNL A   1     -25.189   0.773  32.028  0.00  0.00    +0.021 C 
ATOM     33  C   UNL A   1     -25.336   0.684  33.544  0.00  0.00    +0.020 C 
ATOM     34  C   UNL A   1     -24.829  -0.715  33.905  0.00  0.00    +0.089 C 
ATOM     35  N   UNL A   1     -24.758  -1.481  32.646  0.00  0.00    -0.217 NA
ENDBRANCH  24  31
ENDBRANCH  23  24
BRANCH  23  36
ATOM     36  C   UNL A   1     -25.598   0.817  28.941  0.00  0.00    +0.094 C 
BRANCH  36  37
ATOM     37  C   UNL A   1     -26.697   1.059  28.823  0.00  0.00    +0.053 C 
BRANCH  37  41
ATOM     38  C   UNL A   1     -29.979  -0.043  28.697  0.00  0.00    +0.104 C 
ATOM     39  C   UNL A   1     -30.667   0.272  31.137  0.00  0.00    +0.121 C 
ATOM     40  N   UNL A   1     -29.598   0.156  30.152  0.00  0.00    -0.164 NA
ATOM     41  C   UNL A   1     -27.632   0.091  29.271  0.00  0.00    +0.141 C 
ATOM     42  O   UNL A   1     -28.373  -0.085  30.552  0.00  0.00    -0.285 OA
ATOM     43  C   UNL A   1     -28.600  -0.264  28.086  0.00  0.00    +0.051 C 
ENDBRANCH  37  41
ENDBRANCH  36  37
ENDBRANCH  23  36
ENDBRANCH   6  23
TORSDOF 12
