REMARK  Name = outputs/IAG933/test6/raw/output_608_IAG933_linker_design_.xyz
REMARK  13 active torsions:
REMARK  status: ('A' for Active; 'I' for Inactive)
REMARK    1  A    between atoms: C_1  and  C_2
REMARK    2  A    between atoms: C_1  and  C_8
REMARK    3  A    between atoms: C_1  and  C_40
REMARK    4  A    between atoms: C_13  and  C_28
REMARK    5  A    between atoms: C_14  and  C_15
REMARK    6  A    between atoms: C_21  and  O_22
REMARK    7  A    between atoms: O_22  and  C_23
REMARK    8  A    between atoms: C_23  and  C_24
REMARK    9  A    between atoms: N_29  and  C_37
REMARK   10  A    between atoms: O_34  and  C_36
REMARK   11  A    between atoms: O_34  and  C_37
REMARK   12  A    between atoms: C_35  and  C_36
REMARK   13  A    between atoms: C_41  and  C_44
REMARK                            x       y       z     vdW  Elec       q    Type
REMARK                         _______ _______ _______ _____ _____    ______ ____
ROOT
ATOM      1  C   UNL A   1     -24.688   1.213  27.321  0.00  0.00    +0.019 C 
ATOM      2  C   UNL A   1     -22.384   1.023  27.947  0.00  0.00    +0.150 C 
ATOM      3  C   UNL A   1     -23.334   1.425  27.049  0.00  0.00    +0.085 C 
ATOM      4 CL   UNL A   1     -22.785   2.413  25.586  0.00  0.00    -0.080 Cl
ATOM      5  F   UNL A   1     -21.079   1.479  27.816  0.00  0.00    -0.203 F 
ATOM      6  C   UNL A   1     -24.169  -0.028  29.191  0.00  0.00    -0.010 C 
ATOM      7  C   UNL A   1     -22.805   0.217  29.006  0.00  0.00    +0.027 C 
ATOM      8  C   UNL A   1     -25.151   0.636  28.455  0.00  0.00    +0.052 C 
ENDROOT
BRANCH   1   9
ATOM      9  C   UNL A   1     -25.688   1.614  26.461  0.00  0.00    +0.039 C 
ATOM     10  C   UNL A   1     -26.250   2.920  26.395  0.00  0.00    +0.077 C 
ATOM     11  C   UNL A   1     -27.438   3.091  25.645  0.00  0.00    +0.107 C 
ATOM     12  N   UNL A   1     -28.075   2.089  25.003  0.00  0.00    -0.208 NA
ATOM     13  C   UNL A   1     -27.543   0.849  25.079  0.00  0.00    +0.253 C 
ATOM     14  C   UNL A   1     -26.354   0.576  25.777  0.00  0.00    +0.193 C 
ATOM     15  F   UNL A   1     -25.860  -0.681  25.795  0.00  0.00    -0.199 F 
BRANCH  10  16
ATOM     16  C   UNL A   1     -25.642   4.093  27.123  0.00  0.00    +0.266 C 
ATOM     17  N   UNL A   1     -25.614   5.252  26.449  0.00  0.00    -0.200 NA
ATOM     18  C   UNL A   1     -25.026   6.479  26.963  0.00  0.00    +0.139 C 
ATOM     19  O   UNL A   1     -25.143   3.966  28.243  0.00  0.00    -0.268 OA
ENDBRANCH  10  16
BRANCH  13  20
ATOM     20  O   UNL A   1     -28.193  -0.208  24.477  0.00  0.00    -0.456 OA
BRANCH  20  21
ATOM     21  C   UNL A   1     -29.460   0.005  23.866  0.00  0.00    +0.243 C 
BRANCH  21  22
ATOM     22  C   UNL A   1     -30.065  -1.377  23.573  0.00  0.00    +0.229 C 
ATOM     23  O   UNL A   1     -30.729  -1.878  24.721  0.00  0.00    -0.216 OA
ENDBRANCH  21  22
ENDBRANCH  20  21
ENDBRANCH  13  20
ENDBRANCH   1   9
BRANCH   8  26
ATOM     24  N   UNL A   1     -27.060   1.631  29.761  0.00  0.00    -0.170 NA
ATOM     25  O   UNL A   1     -27.301  -0.449  28.571  0.00  0.00    -0.268 OA
ATOM     26  C   UNL A   1     -26.521   0.545  28.899  0.00  0.00    +0.267 C 
BRANCH  24  27
ATOM     27  C   UNL A   1     -28.027   2.611  29.758  0.00  0.00    +0.261 C 
BRANCH  27  28
ATOM     28  O   UNL A   1     -29.276   1.896  29.533  0.00  0.00    -0.332 OA
BRANCH  28  29
ATOM     29  C   UNL A   1     -30.357   2.721  30.012  0.00  0.00    +0.163 C 
BRANCH  29  30
ATOM     30  C   UNL A   1     -29.985   3.309  31.419  0.00  0.00    +0.120 C 
ATOM     31  N   UNL A   1     -29.509   4.692  31.674  0.00  0.00    -0.214 NA
ATOM     32  C   UNL A   1     -30.936   4.260  32.004  0.00  0.00    +0.109 C 
ENDBRANCH  29  30
ENDBRANCH  28  29
ENDBRANCH  27  28
ENDBRANCH  24  27
ENDBRANCH   8  26
BRANCH   6  33
ATOM     33  C   UNL A   1     -24.855  -1.012  30.143  0.00  0.00    +0.061 C 
BRANCH  33  34
ATOM     34  C   UNL A   1     -24.973  -2.505  29.788  0.00  0.00    -0.017 C 
ATOM     35  C   UNL A   1     -23.906  -3.173  29.146  0.00  0.00    -0.004 C 
ATOM     36  C   UNL A   1     -23.989  -4.549  28.853  0.00  0.00    -0.000 C 
ATOM     37  C   UNL A   1     -25.137  -5.280  29.205  0.00  0.00    -0.000 C 
ATOM     38  C   UNL A   1     -26.232  -4.611  29.784  0.00  0.00    -0.000 C 
ATOM     39  C   UNL A   1     -26.155  -3.232  30.065  0.00  0.00    -0.004 C 
ENDBRANCH  33  34
BRANCH  33  40
ATOM     40  C   UNL A   1     -25.387  -0.679  31.571  0.00  0.00    +0.081 C 
ATOM     41  C   UNL A   1     -25.189   0.773  32.028  0.00  0.00    +0.019 C 
ATOM     42  C   UNL A   1     -25.336   0.684  33.544  0.00  0.00    +0.020 C 
ATOM     43  C   UNL A   1     -24.829  -0.715  33.905  0.00  0.00    +0.089 C 
ATOM     44  N   UNL A   1     -24.758  -1.481  32.646  0.00  0.00    -0.219 NA
ENDBRANCH  33  40
ENDBRANCH   6  33
TORSDOF 13
