REMARK  Name = outputs/IAG933/test6/raw/output_6085_IAG933_linker_design_.xyz
REMARK  14 active torsions:
REMARK  status: ('A' for Active; 'I' for Inactive)
REMARK    1  A    between atoms: C_1  and  C_2
REMARK    2  A    between atoms: C_1  and  C_8
REMARK    3  A    between atoms: C_1  and  N_42
REMARK    4  A    between atoms: C_13  and  N_43
REMARK    5  A    between atoms: C_14  and  C_15
REMARK    6  A    between atoms: C_21  and  O_22
REMARK    7  A    between atoms: O_22  and  C_23
REMARK    8  A    between atoms: C_23  and  C_24
REMARK    9  A    between atoms: C_28  and  C_38
REMARK   10  A    between atoms: C_28  and  C_39
REMARK   11  A    between atoms: O_29  and  C_33
REMARK   12  A    between atoms: O_29  and  C_34
REMARK   13  A    between atoms: C_33  and  C_38
REMARK   14  A    between atoms: C_37  and  N_42
REMARK                            x       y       z     vdW  Elec       q    Type
REMARK                         _______ _______ _______ _____ _____    ______ ____
ROOT
ATOM      1  C   UNL A   1     -24.442   0.264  28.218  0.00  0.00    +0.390 C 
ATOM      2  C   UNL A   1     -20.821   1.399  27.859  0.00  0.00    +0.075 C 
ATOM      3  C   UNL A   1     -23.307   1.868  26.965  0.00  0.00    +0.178 C 
ATOM      4  C   UNL A   1     -22.406   1.177  27.747  0.00  0.00    +0.168 C 
ATOM      5  N   UNL A   1     -23.051   0.029  28.480  0.00  0.00    -0.076 NA
ATOM      6  N   UNL A   1     -25.567  -0.297  29.002  0.00  0.00    -0.172 N 
ATOM      7  N   UNL A   1     -24.562   1.245  27.255  0.00  0.00    -0.149 N 
ENDROOT
BRANCH   7   8
ATOM      8  C   UNL A   1     -25.688   1.614  26.461  0.00  0.00    +0.155 C 
ATOM      9  C   UNL A   1     -26.250   2.920  26.395  0.00  0.00    +0.106 C 
ATOM     10  C   UNL A   1     -27.438   3.091  25.645  0.00  0.00    +0.109 C 
ATOM     11  N   UNL A   1     -28.075   2.089  25.003  0.00  0.00    -0.208 NA
ATOM     12  C   UNL A   1     -27.543   0.849  25.079  0.00  0.00    +0.256 C 
ATOM     13  C   UNL A   1     -26.354   0.576  25.777  0.00  0.00    +0.222 C 
ATOM     14  F   UNL A   1     -25.860  -0.681  25.795  0.00  0.00    -0.196 F 
BRANCH   9  15
ATOM     15  C   UNL A   1     -25.642   4.093  27.123  0.00  0.00    +0.269 C 
ATOM     16  N   UNL A   1     -25.614   5.252  26.449  0.00  0.00    -0.200 NA
ATOM     17  C   UNL A   1     -25.026   6.479  26.963  0.00  0.00    +0.139 C 
ATOM     18  O   UNL A   1     -25.143   3.966  28.243  0.00  0.00    -0.268 OA
ENDBRANCH   9  15
BRANCH  12  19
ATOM     19  O   UNL A   1     -28.193  -0.208  24.477  0.00  0.00    -0.456 OA
BRANCH  19  20
ATOM     20  C   UNL A   1     -29.460   0.005  23.866  0.00  0.00    +0.243 C 
BRANCH  20  21
ATOM     21  C   UNL A   1     -30.065  -1.377  23.573  0.00  0.00    +0.229 C 
ATOM     22  O   UNL A   1     -30.729  -1.878  24.721  0.00  0.00    -0.216 OA
ENDBRANCH  20  21
ENDBRANCH  19  20
ENDBRANCH  12  19
ENDBRANCH   7   8
BRANCH   6  23
ATOM     23  C   UNL A   1     -27.084  -0.029  28.828  0.00  0.00    +0.136 C 
ATOM     24  C   UNL A   1     -27.763   1.351  29.217  0.00  0.00    +0.009 C 
BRANCH  24  25
ATOM     25  C   UNL A   1     -26.946   2.538  29.849  0.00  0.00    +0.041 C 
BRANCH  25  26
ATOM     26  C   UNL A   1     -27.503   3.611  30.932  0.00  0.00    +0.114 C 
BRANCH  26  28
ATOM     27  O   UNL A   1     -28.707   4.395  29.169  0.00  0.00    -0.250 OA
ATOM     28  C   UNL A   1     -28.526   4.600  30.199  0.00  0.00    +0.317 C 
BRANCH  28  29
ATOM     29  O   UNL A   1     -29.352   5.798  30.619  0.00  0.00    -0.449 OA
BRANCH  29  31
ATOM     30  C   UNL A   1     -28.224   6.915  28.609  0.00  0.00    +0.051 C 
ATOM     31  C   UNL A   1     -29.201   6.966  29.805  0.00  0.00    +0.209 C 
ENDBRANCH  29  31
ENDBRANCH  28  29
ENDBRANCH  26  28
ENDBRANCH  25  26
ENDBRANCH  24  25
ENDBRANCH   6  23
BRANCH   6  32
ATOM     32  C   UNL A   1     -24.855  -1.012  30.143  0.00  0.00    +0.177 C 
BRANCH  32  33
ATOM     33  C   UNL A   1     -24.973  -2.505  29.788  0.00  0.00    +0.013 C 
ATOM     34  C   UNL A   1     -23.906  -3.173  29.146  0.00  0.00    -0.001 C 
ATOM     35  C   UNL A   1     -23.989  -4.549  28.853  0.00  0.00    -0.000 C 
ATOM     36  C   UNL A   1     -25.137  -5.280  29.205  0.00  0.00    -0.000 C 
ATOM     37  C   UNL A   1     -26.232  -4.611  29.784  0.00  0.00    -0.000 C 
ATOM     38  C   UNL A   1     -26.155  -3.232  30.065  0.00  0.00    -0.001 C 
ENDBRANCH  32  33
BRANCH  32  39
ATOM     39  C   UNL A   1     -25.387  -0.679  31.571  0.00  0.00    +0.112 C 
ATOM     40  C   UNL A   1     -25.189   0.773  32.028  0.00  0.00    +0.022 C 
ATOM     41  C   UNL A   1     -25.336   0.684  33.544  0.00  0.00    +0.020 C 
ATOM     42  C   UNL A   1     -24.829  -0.715  33.905  0.00  0.00    +0.089 C 
ATOM     43  N   UNL A   1     -24.758  -1.481  32.646  0.00  0.00    -0.216 NA
ENDBRANCH  32  39
ENDBRANCH   6  32
TORSDOF 14
