MODEL 608
MODEL 1
REMARK VINA RESULT:    -9.209      0.000      0.000
REMARK INTER + INTRA:         -14.807
REMARK INTER:                 -12.977
REMARK INTRA:                  -1.830
REMARK UNBOUND:                -1.830
REMARK  Name = No_608-gen_results/8p0m/2024-11-27-11-27-31/
REMARK  7 active torsions:
REMARK  status: ('A' for Active; 'I' for Inactive)
REMARK    1  A    between atoms: C_3  and  C_4
REMARK    2  A    between atoms: C_6  and  C_13
REMARK    3  A    between atoms: C_16  and  C_17
REMARK    4  A    between atoms: C_20  and  C_25
REMARK    5  A    between atoms: C_25  and  C_26
REMARK    6  A    between atoms: C_25  and  C_32
REMARK    7  A    between atoms: C_32  and  C_33
REMARK                            x       y       z     vdW  Elec       q    Type
REMARK                         _______ _______ _______ _____ _____    ______ ____
ROOT
ATOM      1  C   UNL A   1     -26.734   2.589  25.799  0.00  0.00    +0.272 C 
ATOM      2  O   UNL A   1     -26.857   2.943  26.934  0.00  0.00    -0.268 OA
ATOM      3  N   UNL A   1     -25.534   2.469  25.183  0.00  0.00    -0.137 NA
ATOM      4  C   UNL A   1     -24.297   2.615  25.913  0.00  0.00    +0.272 C 
ATOM      5  O   UNL A   1     -23.608   3.646  25.564  0.00  0.00    -0.268 OA
ENDROOT
BRANCH   1   9
ATOM      6  C   UNL A   1     -29.180   3.157  25.133  0.00  0.00    +0.005 A 
ATOM      7  C   UNL A   1     -30.127   2.988  24.401  0.00  0.00    +0.000 A 
ATOM      8  C   UNL A   1     -30.169   1.916  23.517  0.00  0.00    +0.000 A 
ATOM      9  C   UNL A   1     -27.967   2.339  24.972  0.00  0.00    +0.056 A 
ATOM     10  C   UNL A   1     -27.935   1.223  24.189  0.00  0.00    +0.005 A 
ATOM     11  C   UNL A   1     -29.072   0.960  23.407  0.00  0.00    +0.000 A 
BRANCH   8  12
ATOM     12  C   UNL A   1     -31.270   1.606  22.560  0.00  0.00    +0.002 A 
ATOM     13  C   UNL A   1     -32.264   0.582  22.737  0.00  0.00    +0.000 A 
ATOM     14  C   UNL A   1     -33.226   0.433  21.780  0.00  0.00    +0.002 A 
ATOM     15  C   UNL A   1     -33.520   1.297  20.771  0.00  0.00    +0.030 A 
ATOM     16  C   UNL A   1     -31.534   2.503  21.460  0.00  0.00    +0.030 A 
ATOM     17  C   UNL A   1     -32.620   2.326  20.608  0.00  0.00    +0.140 A 
ATOM     18  F   UNL A   1     -32.763   3.228  19.628  0.00  0.00    -0.204 F 
ENDBRANCH   8  12
ENDBRANCH   1   9
BRANCH   4  19
ATOM     19  C   UNL A   1     -24.054   1.677  26.868  0.00  0.00    +0.056 A 
ATOM     20  C   UNL A   1     -23.698   1.857  28.031  0.00  0.00    +0.004 A 
ATOM     21  C   UNL A   1     -23.599   0.907  29.107  0.00  0.00    -0.004 A 
ATOM     22  C   UNL A   1     -24.068  -0.366  28.834  0.00  0.00    -0.018 A 
ATOM     23  C   UNL A   1     -24.595  -0.628  27.576  0.00  0.00    -0.004 A 
ATOM     24  C   UNL A   1     -24.688   0.347  26.607  0.00  0.00    +0.004 A 
BRANCH  22  25
ATOM     25  C   UNL A   1     -23.949  -1.379  29.877  0.00  0.00    +0.049 C 
BRANCH  25  26
ATOM     26  C   UNL A   1     -24.426  -2.592  29.752  0.00  0.00    -0.018 A 
ATOM     27  C   UNL A   1     -23.815  -3.477  28.964  0.00  0.00    -0.004 A 
ATOM     28  C   UNL A   1     -24.170  -4.575  28.613  0.00  0.00    -0.000 A 
ATOM     29  C   UNL A   1     -25.486  -5.052  28.951  0.00  0.00    -0.000 A 
ATOM     30  C   UNL A   1     -26.263  -4.164  29.696  0.00  0.00    -0.000 A 
ATOM     31  C   UNL A   1     -25.783  -2.943  30.004  0.00  0.00    -0.004 A 
ENDBRANCH  25  26
BRANCH  25  32
ATOM     32  C   UNL A   1     -23.087  -1.031  30.979  0.00  0.00    +0.034 C 
BRANCH  32  33
ATOM     33  C   UNL A   1     -23.495  -1.109  32.293  0.00  0.00    -0.030 C 
ATOM     34  C   UNL A   1     -24.622  -0.516  32.714  0.00  0.00    -0.030 C 
ATOM     35  C   UNL A   1     -25.081  -0.396  33.979  0.00  0.00    +0.030 C 
ENDBRANCH  32  33
ENDBRANCH  25  32
ENDBRANCH  22  25
ENDBRANCH   4  19
TORSDOF 7
ENDMDL
ENDMDL
