REMARK  Name = outputs/IAG933/test6/raw/output_609_IAG933_linker_design_.xyz
REMARK  14 active torsions:
REMARK  status: ('A' for Active; 'I' for Inactive)
REMARK    1  A    between atoms: C_1  and  C_2
REMARK    2  A    between atoms: C_1  and  C_8
REMARK    3  A    between atoms: C_1  and  C_43
REMARK    4  A    between atoms: C_14  and  C_15
REMARK    5  A    between atoms: C_15  and  O_18
REMARK    6  A    between atoms: O_18  and  C_38
REMARK    7  A    between atoms: C_21  and  O_22
REMARK    8  A    between atoms: O_22  and  C_23
REMARK    9  A    between atoms: C_23  and  C_24
REMARK   10  A    between atoms: N_29  and  C_32
REMARK   11  A    between atoms: N_29  and  C_38
REMARK   12  A    between atoms: C_32  and  N_40
REMARK   13  A    between atoms: C_38  and  N_39
REMARK   14  A    between atoms: N_39  and  C_42
REMARK                            x       y       z     vdW  Elec       q    Type
REMARK                         _______ _______ _______ _____ _____    ______ ____
ROOT
ATOM      1  C   UNL A   1     -25.182   3.062  29.320  0.00  0.00    +0.348 C 
ENDROOT
BRANCH   1   2
ATOM      2  O   UNL A   1     -25.143   3.966  28.243  0.00  0.00    -0.429 OA
BRANCH   2   3
ATOM      3  C   UNL A   1     -25.642   4.093  27.123  0.00  0.00    +0.225 C 
ATOM      4  N   UNL A   1     -25.614   5.252  26.449  0.00  0.00    -0.236 NA
ATOM      5  C   UNL A   1     -25.026   6.479  26.963  0.00  0.00    +0.155 C 
BRANCH   3   7
ATOM      6  C   UNL A   1     -25.688   1.614  26.461  0.00  0.00    +0.041 C 
ATOM      7  C   UNL A   1     -26.250   2.920  26.395  0.00  0.00    +0.074 C 
ATOM      8  C   UNL A   1     -27.438   3.091  25.645  0.00  0.00    +0.107 C 
ATOM      9  N   UNL A   1     -28.075   2.089  25.003  0.00  0.00    -0.208 NA
ATOM     10  C   UNL A   1     -27.543   0.849  25.079  0.00  0.00    +0.253 C 
ATOM     11  C   UNL A   1     -26.354   0.576  25.777  0.00  0.00    +0.193 C 
ATOM     12  F   UNL A   1     -25.860  -0.681  25.795  0.00  0.00    -0.199 F 
BRANCH  10  13
ATOM     13  O   UNL A   1     -28.193  -0.208  24.477  0.00  0.00    -0.456 OA
BRANCH  13  14
ATOM     14  C   UNL A   1     -29.460   0.005  23.866  0.00  0.00    +0.243 C 
BRANCH  14  15
ATOM     15  C   UNL A   1     -30.065  -1.377  23.573  0.00  0.00    +0.229 C 
ATOM     16  O   UNL A   1     -30.729  -1.878  24.721  0.00  0.00    -0.216 OA
ENDBRANCH  14  15
ENDBRANCH  13  14
ENDBRANCH  10  13
ENDBRANCH   3   7
ENDBRANCH   2   3
ENDBRANCH   1   2
BRANCH   1  17
ATOM     17  N   UNL A   1     -26.108   3.199  30.375  0.00  0.00    -0.142 NA
BRANCH  17  18
ATOM     18  C   UNL A   1     -26.316   4.149  31.283  0.00  0.00    +0.169 C 
BRANCH  18  24
ATOM     19  C   UNL A   1     -26.757   5.899  29.440  0.00  0.00    +0.016 C 
ATOM     20  C   UNL A   1     -27.507   7.174  29.794  0.00  0.00    +0.003 C 
ATOM     21  C   UNL A   1     -28.018   4.962  29.887  0.00  0.00    +0.059 C 
ATOM     22  C   UNL A   1     -28.772   6.404  30.053  0.00  0.00    +0.016 C 
ATOM     23  C   UNL A   1     -27.932   5.578  32.243  0.00  0.00    +0.073 C 
ATOM     24  N   UNL A   1     -27.733   4.393  31.279  0.00  0.00    -0.259 NA
ATOM     25  C   UNL A   1     -29.071   6.435  31.590  0.00  0.00    +0.019 C 
ENDBRANCH  18  24
ENDBRANCH  17  18
ENDBRANCH   1  17
BRANCH   1  26
ATOM     26  N   UNL A   1     -24.308   2.076  29.433  0.00  0.00    -0.181 NA
BRANCH  26  31
ATOM     27  C   UNL A   1     -22.344  -1.031  29.707  0.00  0.00    -0.003 C 
ATOM     28  C   UNL A   1     -21.155  -0.658  28.965  0.00  0.00    +0.002 C 
ATOM     29  F   UNL A   1     -22.398   2.353  27.293  0.00  0.00    -0.203 F 
ATOM     30  C   UNL A   1     -21.218   0.508  28.183  0.00  0.00    +0.031 C 
ATOM     31  C   UNL A   1     -23.494   1.032  29.005  0.00  0.00    +0.094 C 
ATOM     32  C   UNL A   1     -23.558  -0.303  29.607  0.00  0.00    +0.000 C 
ATOM     33  C   UNL A   1     -22.388   1.316  28.148  0.00  0.00    +0.155 C 
BRANCH  32  34
ATOM     34  C   UNL A   1     -24.855  -1.012  30.143  0.00  0.00    +0.062 C 
BRANCH  34  35
ATOM     35  C   UNL A   1     -24.973  -2.505  29.788  0.00  0.00    -0.017 C 
ATOM     36  C   UNL A   1     -23.906  -3.173  29.146  0.00  0.00    -0.004 C 
ATOM     37  C   UNL A   1     -23.989  -4.549  28.853  0.00  0.00    -0.000 C 
ATOM     38  C   UNL A   1     -25.137  -5.280  29.205  0.00  0.00    -0.000 C 
ATOM     39  C   UNL A   1     -26.232  -4.611  29.784  0.00  0.00    -0.000 C 
ATOM     40  C   UNL A   1     -26.155  -3.232  30.065  0.00  0.00    -0.004 C 
ENDBRANCH  34  35
BRANCH  34  41
ATOM     41  C   UNL A   1     -25.387  -0.679  31.571  0.00  0.00    +0.081 C 
ATOM     42  C   UNL A   1     -25.189   0.773  32.028  0.00  0.00    +0.019 C 
ATOM     43  C   UNL A   1     -25.336   0.684  33.544  0.00  0.00    +0.020 C 
ATOM     44  C   UNL A   1     -24.829  -0.715  33.905  0.00  0.00    +0.089 C 
ATOM     45  N   UNL A   1     -24.758  -1.481  32.646  0.00  0.00    -0.219 NA
ENDBRANCH  34  41
ENDBRANCH  32  34
ENDBRANCH  26  31
ENDBRANCH   1  26
TORSDOF 14
