REMARK  Name = outputs/IAG933/test6/raw/output_6091_IAG933_linker_design_.xyz
REMARK  14 active torsions:
REMARK  status: ('A' for Active; 'I' for Inactive)
REMARK    1  A    between atoms: C_1  and  C_2
REMARK    2  A    between atoms: C_1  and  C_8
REMARK    3  A    between atoms: C_1  and  C_30
REMARK    4  A    between atoms: C_13  and  C_28
REMARK    5  A    between atoms: C_14  and  C_15
REMARK    6  A    between atoms: C_21  and  O_22
REMARK    7  A    between atoms: O_22  and  C_23
REMARK    8  A    between atoms: C_23  and  C_24
REMARK    9  A    between atoms: C_28  and  C_33
REMARK   10  A    between atoms: C_29  and  C_33
REMARK   11  A    between atoms: C_29  and  C_37
REMARK   12  A    between atoms: C_30  and  C_33
REMARK   13  A    between atoms: C_30  and  N_35
REMARK   14  A    between atoms: C_31  and  C_32
REMARK                            x       y       z     vdW  Elec       q    Type
REMARK                         _______ _______ _______ _____ _____    ______ ____
ROOT
ATOM      1  C   UNL A   1     -25.302  -0.001  29.118  0.00  0.00    +0.101 C 
ENDROOT
BRANCH   1   3
ATOM      2  C   UNL A   1     -27.715   0.469  28.817  0.00  0.00    +0.241 C 
ATOM      3  N   UNL A   1     -26.478   0.520  29.324  0.00  0.00    -0.207 NA
ATOM      4  O   UNL A   1     -28.221  -0.501  28.272  0.00  0.00    -0.273 OA
BRANCH   2   5
ATOM      5  C   UNL A   1     -28.352   1.917  29.054  0.00  0.00    +0.081 C 
ATOM      6  C   UNL A   1     -29.849   1.774  28.851  0.00  0.00    +0.026 C 
ATOM      7  N   UNL A   1     -29.105   4.120  28.559  0.00  0.00    -0.272 NA
ATOM      8  C   UNL A   1     -29.499   5.491  28.023  0.00  0.00    +0.090 C 
ATOM      9  C   UNL A   1     -30.259   3.257  28.864  0.00  0.00    +0.073 C 
ATOM     10  C   UNL A   1     -28.231   4.246  29.738  0.00  0.00    +0.073 C 
ATOM     11  C   UNL A   1     -27.998   2.703  30.258  0.00  0.00    +0.026 C 
ENDBRANCH   2   5
ENDBRANCH   1   3
BRANCH   1  12
ATOM     12  C   UNL A   1     -24.855  -1.012  30.143  0.00  0.00    +0.058 C 
BRANCH  12  13
ATOM     13  C   UNL A   1     -24.973  -2.505  29.788  0.00  0.00    -0.019 C 
ATOM     14  C   UNL A   1     -23.906  -3.173  29.146  0.00  0.00    -0.004 C 
ATOM     15  C   UNL A   1     -23.989  -4.549  28.853  0.00  0.00    -0.000 C 
ATOM     16  C   UNL A   1     -25.137  -5.280  29.205  0.00  0.00    -0.000 C 
ATOM     17  C   UNL A   1     -26.232  -4.611  29.784  0.00  0.00    -0.000 C 
ATOM     18  C   UNL A   1     -26.155  -3.232  30.065  0.00  0.00    -0.004 C 
ENDBRANCH  12  13
BRANCH  12  19
ATOM     19  C   UNL A   1     -25.387  -0.679  31.571  0.00  0.00    +0.079 C 
ATOM     20  C   UNL A   1     -25.189   0.773  32.028  0.00  0.00    +0.019 C 
ATOM     21  C   UNL A   1     -25.336   0.684  33.544  0.00  0.00    +0.020 C 
ATOM     22  C   UNL A   1     -24.829  -0.715  33.905  0.00  0.00    +0.089 C 
ATOM     23  N   UNL A   1     -24.758  -1.481  32.646  0.00  0.00    -0.219 NA
ENDBRANCH  12  19
ENDBRANCH   1  12
BRANCH   1  24
ATOM     24  C   UNL A   1     -24.275   0.686  28.138  0.00  0.00    +0.022 C 
BRANCH  24  25
ATOM     25  C   UNL A   1     -24.219   1.472  26.766  0.00  0.00    +0.010 C 
BRANCH  25  26
ATOM     26  C   UNL A   1     -25.688   1.614  26.461  0.00  0.00    +0.070 C 
ATOM     27  C   UNL A   1     -26.250   2.920  26.395  0.00  0.00    +0.055 C 
ATOM     28  C   UNL A   1     -27.438   3.091  25.645  0.00  0.00    +0.102 C 
ATOM     29  N   UNL A   1     -28.075   2.089  25.003  0.00  0.00    -0.212 NA
ATOM     30  C   UNL A   1     -27.543   0.849  25.079  0.00  0.00    +0.234 C 
ATOM     31  C   UNL A   1     -26.354   0.576  25.777  0.00  0.00    +0.240 C 
ATOM     32  F   UNL A   1     -25.860  -0.681  25.795  0.00  0.00    -0.227 F 
BRANCH  27  33
ATOM     33  C   UNL A   1     -25.642   4.093  27.123  0.00  0.00    +0.262 C 
ATOM     34  N   UNL A   1     -25.614   5.252  26.449  0.00  0.00    -0.200 NA
ATOM     35  C   UNL A   1     -25.026   6.479  26.963  0.00  0.00    +0.139 C 
ATOM     36  O   UNL A   1     -25.143   3.966  28.243  0.00  0.00    -0.269 OA
ENDBRANCH  27  33
BRANCH  30  37
ATOM     37  O   UNL A   1     -28.193  -0.208  24.477  0.00  0.00    -0.459 OA
BRANCH  37  38
ATOM     38  C   UNL A   1     -29.460   0.005  23.866  0.00  0.00    +0.242 C 
BRANCH  38  39
ATOM     39  C   UNL A   1     -30.065  -1.377  23.573  0.00  0.00    +0.229 C 
ATOM     40  O   UNL A   1     -30.729  -1.878  24.721  0.00  0.00    -0.216 OA
ENDBRANCH  38  39
ENDBRANCH  37  38
ENDBRANCH  30  37
ENDBRANCH  25  26
ENDBRANCH  24  25
BRANCH  24  41
ATOM     41  C   UNL A   1     -22.946   0.544  28.970  0.00  0.00    +0.014 C 
BRANCH  41  43
ATOM     42  S   UNL A   1     -21.414   1.796  27.018  0.00  0.00    -0.082 S 
ATOM     43  C   UNL A   1     -21.908   0.559  28.035  0.00  0.00    +0.069 C 
ENDBRANCH  41  43
ENDBRANCH  24  41
ENDBRANCH   1  24
TORSDOF 14
