REMARK  Name = outputs/IAG933/test6/raw/output_6092_IAG933_linker_design_.xyz
REMARK  14 active torsions:
REMARK  status: ('A' for Active; 'I' for Inactive)
REMARK    1  A    between atoms: C_1  and  C_2
REMARK    2  A    between atoms: C_1  and  C_8
REMARK    3  A    between atoms: C_1  and  C_30
REMARK    4  A    between atoms: C_14  and  C_15
REMARK    5  A    between atoms: C_15  and  O_18
REMARK    6  A    between atoms: O_18  and  C_37
REMARK    7  A    between atoms: C_21  and  O_22
REMARK    8  A    between atoms: O_22  and  C_23
REMARK    9  A    between atoms: C_23  and  C_24
REMARK   10  A    between atoms: C_29  and  C_31
REMARK   11  A    between atoms: C_29  and  C_33
REMARK   12  A    between atoms: C_30  and  C_33
REMARK   13  A    between atoms: C_30  and  N_41
REMARK   14  A    between atoms: C_37  and  C_40
REMARK                            x       y       z     vdW  Elec       q    Type
REMARK                         _______ _______ _______ _____ _____    ______ ____
ROOT
ATOM      1  N   UNL A   1     -28.941   1.977  29.135  0.00  0.00    -0.173 NA
ATOM      2  C   UNL A   1     -26.603   1.995  29.341  0.00  0.00    +0.131 C 
ATOM      3  O   UNL A   1     -27.537  -0.182  28.982  0.00  0.00    -0.266 OA
ATOM      4  C   UNL A   1     -27.714   1.324  29.195  0.00  0.00    +0.286 C 
ATOM      5  C   UNL A   1     -29.044   3.325  29.304  0.00  0.00    +0.089 C 
ATOM      6  C   UNL A   1     -27.913   4.124  29.503  0.00  0.00    +0.019 C 
ATOM      7  C   UNL A   1     -26.735   3.378  29.484  0.00  0.00    +0.044 C 
ATOM      8  N   UNL A   1     -25.171   1.381  29.277  0.00  0.00    -0.268 NA
ENDROOT
BRANCH   8   9
ATOM      9  C   UNL A   1     -24.454  -0.018  28.967  0.00  0.00    +0.111 C 
BRANCH   9  10
ATOM     10  C   UNL A   1     -24.855  -1.012  30.143  0.00  0.00    +0.061 C 
BRANCH  10  11
ATOM     11  C   UNL A   1     -24.973  -2.505  29.788  0.00  0.00    -0.019 C 
ATOM     12  C   UNL A   1     -23.906  -3.173  29.146  0.00  0.00    -0.004 C 
ATOM     13  C   UNL A   1     -23.989  -4.549  28.853  0.00  0.00    -0.000 C 
ATOM     14  C   UNL A   1     -25.137  -5.280  29.205  0.00  0.00    -0.000 C 
ATOM     15  C   UNL A   1     -26.232  -4.611  29.784  0.00  0.00    -0.000 C 
ATOM     16  C   UNL A   1     -26.155  -3.232  30.065  0.00  0.00    -0.004 C 
ENDBRANCH  10  11
BRANCH  10  17
ATOM     17  C   UNL A   1     -25.387  -0.679  31.571  0.00  0.00    +0.079 C 
ATOM     18  C   UNL A   1     -25.189   0.773  32.028  0.00  0.00    +0.019 C 
ATOM     19  C   UNL A   1     -25.336   0.684  33.544  0.00  0.00    +0.020 C 
ATOM     20  C   UNL A   1     -24.829  -0.715  33.905  0.00  0.00    +0.089 C 
ATOM     21  N   UNL A   1     -24.758  -1.481  32.646  0.00  0.00    -0.219 NA
ENDBRANCH  10  17
ENDBRANCH   9  10
BRANCH   9  22
ATOM     22  C   UNL A   1     -22.947   0.282  28.575  0.00  0.00    +0.058 C 
BRANCH  22  23
ATOM     23  C   UNL A   1     -22.574   1.518  27.756  0.00  0.00    +0.154 C 
ATOM     24  O   UNL A   1     -22.828   2.859  28.146  0.00  0.00    -0.223 OA
BRANCH  23  25
ATOM     25  C   UNL A   1     -21.353   1.550  26.970  0.00  0.00    +0.033 C 
ATOM     26  C   UNL A   1     -20.621   0.930  27.916  0.00  0.00    +0.003 C 
ENDBRANCH  23  25
ENDBRANCH  22  23
ENDBRANCH   9  22
ENDBRANCH   8   9
BRANCH   7  27
ATOM     27  C   UNL A   1     -25.423   4.133  29.543  0.00  0.00    +0.235 C 
BRANCH  27  28
ATOM     28  O   UNL A   1     -25.143   3.966  28.243  0.00  0.00    -0.455 OA
BRANCH  28  29
ATOM     29  C   UNL A   1     -25.642   4.093  27.123  0.00  0.00    +0.222 C 
ATOM     30  N   UNL A   1     -25.614   5.252  26.449  0.00  0.00    -0.236 NA
ATOM     31  C   UNL A   1     -25.026   6.479  26.963  0.00  0.00    +0.155 C 
BRANCH  29  33
ATOM     32  C   UNL A   1     -25.688   1.614  26.461  0.00  0.00    +0.041 C 
ATOM     33  C   UNL A   1     -26.250   2.920  26.395  0.00  0.00    +0.074 C 
ATOM     34  C   UNL A   1     -27.438   3.091  25.645  0.00  0.00    +0.107 C 
ATOM     35  N   UNL A   1     -28.075   2.089  25.003  0.00  0.00    -0.208 NA
ATOM     36  C   UNL A   1     -27.543   0.849  25.079  0.00  0.00    +0.253 C 
ATOM     37  C   UNL A   1     -26.354   0.576  25.777  0.00  0.00    +0.193 C 
ATOM     38  F   UNL A   1     -25.860  -0.681  25.795  0.00  0.00    -0.199 F 
BRANCH  36  39
ATOM     39  O   UNL A   1     -28.193  -0.208  24.477  0.00  0.00    -0.456 OA
BRANCH  39  40
ATOM     40  C   UNL A   1     -29.460   0.005  23.866  0.00  0.00    +0.243 C 
BRANCH  40  41
ATOM     41  C   UNL A   1     -30.065  -1.377  23.573  0.00  0.00    +0.229 C 
ATOM     42  O   UNL A   1     -30.729  -1.878  24.721  0.00  0.00    -0.216 OA
ENDBRANCH  40  41
ENDBRANCH  39  40
ENDBRANCH  36  39
ENDBRANCH  29  33
ENDBRANCH  28  29
ENDBRANCH  27  28
ENDBRANCH   7  27
TORSDOF 14
