REMARK  Name = outputs/IAG933/test6/raw/output_6095_IAG933_linker_design_.xyz
REMARK  18 active torsions:
REMARK  status: ('A' for Active; 'I' for Inactive)
REMARK    1  A    between atoms: C_1  and  C_2
REMARK    2  A    between atoms: C_1  and  C_8
REMARK    3  A    between atoms: C_1  and  C_46
REMARK    4  A    between atoms: C_13  and  C_39
REMARK    5  A    between atoms: C_14  and  C_15
REMARK    6  A    between atoms: C_21  and  O_22
REMARK    7  A    between atoms: O_22  and  C_23
REMARK    8  A    between atoms: C_23  and  C_24
REMARK    9  A    between atoms: N_28  and  C_38
REMARK   10  A    between atoms: N_28  and  C_39
REMARK   11  A    between atoms: N_28  and  C_46
REMARK   12  A    between atoms: C_30  and  C_33
REMARK   13  A    between atoms: C_33  and  C_43
REMARK   14  A    between atoms: C_34  and  C_44
REMARK   15  A    between atoms: O_36  and  C_42
REMARK   16  A    between atoms: O_36  and  C_46
REMARK   17  A    between atoms: C_38  and  C_40
REMARK   18  A    between atoms: C_42  and  C_44
REMARK                            x       y       z     vdW  Elec       q    Type
REMARK                         _______ _______ _______ _____ _____    ______ ____
ROOT
ATOM      1  C   UNL A   1     -25.184  -0.022  29.016  0.00  0.00    +0.182 C 
ENDROOT
BRANCH   1   2
ATOM      2  N   UNL A   1     -24.421   1.157  28.536  0.00  0.00    -0.246 NA
BRANCH   2   3
ATOM      3  C   UNL A   1     -22.970   1.255  29.147  0.00  0.00    +0.074 C 
BRANCH   3   5
ATOM      4  C   UNL A   1     -21.163   1.753  27.345  0.00  0.00    +0.002 C 
ATOM      5  C   UNL A   1     -21.884   0.701  28.199  0.00  0.00    +0.017 C 
ENDBRANCH   3   5
ENDBRANCH   2   3
BRANCH   2   6
ATOM      6  C   UNL A   1     -24.401   1.342  26.985  0.00  0.00    +0.103 C 
BRANCH   6   7
ATOM      7  C   UNL A   1     -25.688   1.614  26.461  0.00  0.00    +0.032 C 
ATOM      8  C   UNL A   1     -26.250   2.920  26.395  0.00  0.00    +0.074 C 
ATOM      9  C   UNL A   1     -27.438   3.091  25.645  0.00  0.00    +0.106 C 
ATOM     10  N   UNL A   1     -28.075   2.089  25.003  0.00  0.00    -0.208 NA
ATOM     11  C   UNL A   1     -27.543   0.849  25.079  0.00  0.00    +0.253 C 
ATOM     12  C   UNL A   1     -26.354   0.576  25.777  0.00  0.00    +0.190 C 
ATOM     13  F   UNL A   1     -25.860  -0.681  25.795  0.00  0.00    -0.200 F 
BRANCH   8  14
ATOM     14  C   UNL A   1     -25.642   4.093  27.123  0.00  0.00    +0.266 C 
ATOM     15  N   UNL A   1     -25.614   5.252  26.449  0.00  0.00    -0.200 NA
ATOM     16  C   UNL A   1     -25.026   6.479  26.963  0.00  0.00    +0.139 C 
ATOM     17  O   UNL A   1     -25.143   3.966  28.243  0.00  0.00    -0.268 OA
ENDBRANCH   8  14
BRANCH  11  18
ATOM     18  O   UNL A   1     -28.193  -0.208  24.477  0.00  0.00    -0.456 OA
BRANCH  18  19
ATOM     19  C   UNL A   1     -29.460   0.005  23.866  0.00  0.00    +0.243 C 
BRANCH  19  20
ATOM     20  C   UNL A   1     -30.065  -1.377  23.573  0.00  0.00    +0.229 C 
ATOM     21  O   UNL A   1     -30.729  -1.878  24.721  0.00  0.00    -0.216 OA
ENDBRANCH  19  20
ENDBRANCH  18  19
ENDBRANCH  11  18
ENDBRANCH   6   7
ENDBRANCH   2   6
ENDBRANCH   1   2
BRANCH   1  22
ATOM     22  C   UNL A   1     -24.855  -1.012  30.143  0.00  0.00    +0.081 C 
BRANCH  22  23
ATOM     23  C   UNL A   1     -24.973  -2.505  29.788  0.00  0.00    -0.017 C 
ATOM     24  C   UNL A   1     -23.906  -3.173  29.146  0.00  0.00    -0.004 C 
ATOM     25  C   UNL A   1     -23.989  -4.549  28.853  0.00  0.00    -0.000 C 
ATOM     26  C   UNL A   1     -25.137  -5.280  29.205  0.00  0.00    -0.000 C 
ATOM     27  C   UNL A   1     -26.232  -4.611  29.784  0.00  0.00    -0.000 C 
ATOM     28  C   UNL A   1     -26.155  -3.232  30.065  0.00  0.00    -0.004 C 
ENDBRANCH  22  23
BRANCH  22  29
ATOM     29  C   UNL A   1     -25.387  -0.679  31.571  0.00  0.00    +0.081 C 
ATOM     30  C   UNL A   1     -25.189   0.773  32.028  0.00  0.00    +0.019 C 
ATOM     31  C   UNL A   1     -25.336   0.684  33.544  0.00  0.00    +0.020 C 
ATOM     32  C   UNL A   1     -24.829  -0.715  33.905  0.00  0.00    +0.089 C 
ATOM     33  N   UNL A   1     -24.758  -1.481  32.646  0.00  0.00    -0.219 NA
ENDBRANCH  22  29
ENDBRANCH   1  22
BRANCH   1  34
ATOM     34  O   UNL A   1     -26.538  -0.417  28.653  0.00  0.00    -0.341 OA
BRANCH  34  35
ATOM     35  C   UNL A   1     -27.916  -0.415  29.150  0.00  0.00    +0.144 C 
BRANCH  35  36
ATOM     36  C   UNL A   1     -28.948   0.357  28.265  0.00  0.00    +0.033 C 
BRANCH  36  40
ATOM     37  C   UNL A   1     -28.251   3.515  29.193  0.00  0.00    +0.033 C 
ATOM     38  C   UNL A   1     -30.443   2.675  28.563  0.00  0.00    +0.091 C 
ATOM     39  C   UNL A   1     -29.673   3.978  28.739  0.00  0.00    +0.159 C 
ATOM     40  C   UNL A   1     -29.602   1.513  29.079  0.00  0.00    +0.012 C 
ATOM     41  O   UNL A   1     -29.518   4.953  27.730  0.00  0.00    -0.223 OA
ATOM     42  C   UNL A   1     -28.407   2.163  29.850  0.00  0.00    +0.003 C 
BRANCH  38  43
ATOM     43  C   UNL A   1     -31.199   2.515  27.261  0.00  0.00    +0.186 C 
ATOM     44  O   UNL A   1     -31.336   1.413  26.755  0.00  0.00    -0.293 OA
BRANCH  43  46
ATOM     45  O   UNL A   1     -31.345   4.279  25.577  0.00  0.00    -0.212 OA
ATOM     46  C   UNL A   1     -31.875   3.806  26.821  0.00  0.00    +0.246 C 
ENDBRANCH  43  46
ENDBRANCH  38  43
ENDBRANCH  36  40
ENDBRANCH  35  36
ENDBRANCH  34  35
ENDBRANCH   1  34
TORSDOF 18
