REMARK  Name = outputs/IAG933/test6/raw/output_6096_IAG933_linker_design_.xyz
REMARK  13 active torsions:
REMARK  status: ('A' for Active; 'I' for Inactive)
REMARK    1  A    between atoms: C_1  and  C_2
REMARK    2  A    between atoms: C_1  and  C_8
REMARK    3  A    between atoms: C_1  and  C_44
REMARK    4  A    between atoms: C_13  and  C_37
REMARK    5  A    between atoms: C_14  and  C_15
REMARK    6  A    between atoms: C_21  and  O_22
REMARK    7  A    between atoms: O_22  and  C_23
REMARK    8  A    between atoms: C_23  and  C_24
REMARK    9  A    between atoms: C_28  and  C_41
REMARK   10  A    between atoms: C_29  and  C_32
REMARK   11  A    between atoms: C_29  and  C_33
REMARK   12  A    between atoms: C_32  and  N_42
REMARK   13  A    between atoms: C_33  and  C_35
REMARK                            x       y       z     vdW  Elec       q    Type
REMARK                         _______ _______ _______ _____ _____    ______ ____
ROOT
ATOM      1  C   UNL A   1     -22.730  -0.040  29.193  0.00  0.00    +0.126 C 
ATOM      2  N   UNL A   1     -21.816  -0.794  29.849  0.00  0.00    -0.125 NA
ATOM      3  C   UNL A   1     -24.709   1.147  27.461  0.00  0.00    +0.109 C 
ATOM      4  F   UNL A   1     -20.948   0.944  28.046  0.00  0.00    -0.203 F 
ATOM      5  C   UNL A   1     -22.265   0.837  28.102  0.00  0.00    +0.159 C 
ATOM      6  C   UNL A   1     -23.274   1.470  27.272  0.00  0.00    +0.096 C 
ATOM      7  N   UNL A   1     -25.088   0.386  28.426  0.00  0.00    -0.307 N 
ATOM      8  C   UNL A   1     -24.234  -0.151  29.259  0.00  0.00    +0.049 C 
ENDROOT
BRANCH   3   9
ATOM      9  C   UNL A   1     -25.688   1.614  26.461  0.00  0.00    +0.092 C 
ATOM     10  C   UNL A   1     -26.250   2.920  26.395  0.00  0.00    +0.057 C 
ATOM     11  C   UNL A   1     -27.438   3.091  25.645  0.00  0.00    +0.102 C 
ATOM     12  N   UNL A   1     -28.075   2.089  25.003  0.00  0.00    -0.212 NA
ATOM     13  C   UNL A   1     -27.543   0.849  25.079  0.00  0.00    +0.234 C 
ATOM     14  C   UNL A   1     -26.354   0.576  25.777  0.00  0.00    +0.242 C 
ATOM     15  F   UNL A   1     -25.860  -0.681  25.795  0.00  0.00    -0.227 F 
BRANCH  10  16
ATOM     16  C   UNL A   1     -25.642   4.093  27.123  0.00  0.00    +0.263 C 
ATOM     17  N   UNL A   1     -25.614   5.252  26.449  0.00  0.00    -0.200 NA
ATOM     18  C   UNL A   1     -25.026   6.479  26.963  0.00  0.00    +0.139 C 
ATOM     19  O   UNL A   1     -25.143   3.966  28.243  0.00  0.00    -0.269 OA
ENDBRANCH  10  16
BRANCH  13  20
ATOM     20  O   UNL A   1     -28.193  -0.208  24.477  0.00  0.00    -0.459 OA
BRANCH  20  21
ATOM     21  C   UNL A   1     -29.460   0.005  23.866  0.00  0.00    +0.242 C 
BRANCH  21  22
ATOM     22  C   UNL A   1     -30.065  -1.377  23.573  0.00  0.00    +0.229 C 
ATOM     23  O   UNL A   1     -30.729  -1.878  24.721  0.00  0.00    -0.216 OA
ENDBRANCH  21  22
ENDBRANCH  20  21
ENDBRANCH  13  20
ENDBRANCH   3   9
BRANCH   6  24
ATOM     24  C   UNL A   1     -22.856   2.337  26.146  0.00  0.00    +0.418 C 
ATOM     25  F   UNL A   1     -23.403   3.312  25.558  0.00  0.00    -0.166 F 
ATOM     26  F   UNL A   1     -21.480   2.333  25.938  0.00  0.00    -0.166 F 
ATOM     27  F   UNL A   1     -23.222   1.881  24.959  0.00  0.00    -0.166 F 
ENDBRANCH   6  24
BRANCH   8  28
ATOM     28  C   UNL A   1     -24.855  -1.012  30.143  0.00  0.00    +0.075 C 
BRANCH  28  29
ATOM     29  C   UNL A   1     -24.973  -2.505  29.788  0.00  0.00    -0.016 C 
ATOM     30  C   UNL A   1     -23.906  -3.173  29.146  0.00  0.00    -0.004 C 
ATOM     31  C   UNL A   1     -23.989  -4.549  28.853  0.00  0.00    -0.000 C 
ATOM     32  C   UNL A   1     -25.137  -5.280  29.205  0.00  0.00    -0.000 C 
ATOM     33  C   UNL A   1     -26.232  -4.611  29.784  0.00  0.00    -0.000 C 
ATOM     34  C   UNL A   1     -26.155  -3.232  30.065  0.00  0.00    -0.004 C 
ENDBRANCH  28  29
BRANCH  28  35
ATOM     35  C   UNL A   1     -25.387  -0.679  31.571  0.00  0.00    +0.082 C 
ATOM     36  C   UNL A   1     -25.189   0.773  32.028  0.00  0.00    +0.020 C 
ATOM     37  C   UNL A   1     -25.336   0.684  33.544  0.00  0.00    +0.020 C 
ATOM     38  C   UNL A   1     -24.829  -0.715  33.905  0.00  0.00    +0.089 C 
ATOM     39  N   UNL A   1     -24.758  -1.481  32.646  0.00  0.00    -0.219 NA
ENDBRANCH  28  35
ENDBRANCH   8  28
BRANCH   7  40
ATOM     40  C   UNL A   1     -26.637  -0.017  28.564  0.00  0.00    +0.091 C 
BRANCH  40  41
ATOM     41  C   UNL A   1     -27.841   0.499  29.519  0.00  0.00    +0.024 C 
BRANCH  41  42
ATOM     42  C   UNL A   1     -29.251   0.242  29.007  0.00  0.00    +0.037 C 
BRANCH  42  43
ATOM     43  C   UNL A   1     -29.611   1.623  28.574  0.00  0.00    +0.182 C 
ATOM     44  O   UNL A   1     -28.661   2.603  28.809  0.00  0.00    -0.220 OA
ENDBRANCH  42  43
ENDBRANCH  41  42
ENDBRANCH  40  41
ENDBRANCH   7  40
TORSDOF 13
