REMARK  Name = outputs/IAG933/test6/raw/output_6097_IAG933_linker_design_.xyz
REMARK  9 active torsions:
REMARK  status: ('A' for Active; 'I' for Inactive)
REMARK    1  A    between atoms: C_1  and  C_2
REMARK    2  A    between atoms: C_13  and  C_33
REMARK    3  A    between atoms: C_14  and  C_15
REMARK    4  A    between atoms: C_21  and  O_22
REMARK    5  A    between atoms: O_22  and  C_23
REMARK    6  A    between atoms: C_23  and  C_24
REMARK    7  A    between atoms: C_34  and  O_37
REMARK    8  A    between atoms: O_37  and  C_40
REMARK    9  A    between atoms: C_38  and  C_40
REMARK                            x       y       z     vdW  Elec       q    Type
REMARK                         _______ _______ _______ _____ _____    ______ ____
ROOT
ATOM      1  C   UNL A   1     -24.855  -1.012  30.143  0.00  0.00    +0.116 C 
ATOM      2  C   UNL A   1     -25.387  -0.679  31.571  0.00  0.00    +0.088 C 
ATOM      3  C   UNL A   1     -25.189   0.773  32.028  0.00  0.00    +0.048 C 
ATOM      4  C   UNL A   1     -25.336   0.684  33.544  0.00  0.00    +0.023 C 
ATOM      5  C   UNL A   1     -24.829  -0.715  33.905  0.00  0.00    +0.089 C 
ATOM      6  N   UNL A   1     -24.758  -1.481  32.646  0.00  0.00    -0.219 NA
ATOM      7  N   UNL A   1     -24.879   0.824  28.376  0.00  0.00    -0.202 NA
ATOM      8  F   UNL A   1     -22.281   0.274  29.538  0.00  0.00    -0.204 F 
ATOM      9  O   UNL A   1     -26.813  -0.356  28.385  0.00  0.00    -0.273 OA
ATOM     10  O   UNL A   1     -23.777   1.755  30.167  0.00  0.00    -0.327 OA
ATOM     11  C   UNL A   1     -25.554  -0.184  29.037  0.00  0.00    +0.247 C 
ATOM     12  C   UNL A   1     -24.511   1.478  27.417  0.00  0.00    +0.130 C 
ATOM     13  C   UNL A   1     -23.058   1.219  29.141  0.00  0.00    +0.285 C 
ATOM     14  C   UNL A   1     -23.099   1.597  27.776  0.00  0.00    +0.147 C 
ATOM     15  C   UNL A   1     -23.786   1.211  31.471  0.00  0.00    +0.146 C 
ENDROOT
BRANCH  12  16
ATOM     16  C   UNL A   1     -25.688   1.614  26.461  0.00  0.00    +0.036 C 
ATOM     17  C   UNL A   1     -26.250   2.920  26.395  0.00  0.00    +0.074 C 
ATOM     18  C   UNL A   1     -27.438   3.091  25.645  0.00  0.00    +0.106 C 
ATOM     19  N   UNL A   1     -28.075   2.089  25.003  0.00  0.00    -0.208 NA
ATOM     20  C   UNL A   1     -27.543   0.849  25.079  0.00  0.00    +0.253 C 
ATOM     21  C   UNL A   1     -26.354   0.576  25.777  0.00  0.00    +0.191 C 
ATOM     22  F   UNL A   1     -25.860  -0.681  25.795  0.00  0.00    -0.200 F 
BRANCH  17  23
ATOM     23  C   UNL A   1     -25.642   4.093  27.123  0.00  0.00    +0.266 C 
ATOM     24  N   UNL A   1     -25.614   5.252  26.449  0.00  0.00    -0.200 NA
ATOM     25  C   UNL A   1     -25.026   6.479  26.963  0.00  0.00    +0.139 C 
ATOM     26  O   UNL A   1     -25.143   3.966  28.243  0.00  0.00    -0.268 OA
ENDBRANCH  17  23
BRANCH  20  27
ATOM     27  O   UNL A   1     -28.193  -0.208  24.477  0.00  0.00    -0.456 OA
BRANCH  27  28
ATOM     28  C   UNL A   1     -29.460   0.005  23.866  0.00  0.00    +0.243 C 
BRANCH  28  29
ATOM     29  C   UNL A   1     -30.065  -1.377  23.573  0.00  0.00    +0.229 C 
ATOM     30  O   UNL A   1     -30.729  -1.878  24.721  0.00  0.00    -0.216 OA
ENDBRANCH  28  29
ENDBRANCH  27  28
ENDBRANCH  20  27
ENDBRANCH  12  16
BRANCH   1  31
ATOM     31  C   UNL A   1     -24.973  -2.505  29.788  0.00  0.00    -0.013 C 
ATOM     32  C   UNL A   1     -23.906  -3.173  29.146  0.00  0.00    -0.004 C 
ATOM     33  C   UNL A   1     -23.989  -4.549  28.853  0.00  0.00    -0.000 C 
ATOM     34  C   UNL A   1     -25.137  -5.280  29.205  0.00  0.00    -0.000 C 
ATOM     35  C   UNL A   1     -26.232  -4.611  29.784  0.00  0.00    -0.000 C 
ATOM     36  C   UNL A   1     -26.155  -3.232  30.065  0.00  0.00    -0.004 C 
ENDBRANCH   1  31
BRANCH  14  38
ATOM     37  F   UNL A   1     -20.858   1.720  28.038  0.00  0.00    -0.204 F 
ATOM     38  C   UNL A   1     -21.885   1.689  27.177  0.00  0.00    +0.287 C 
BRANCH  38  39
ATOM     39  O   UNL A   1     -21.523   1.893  25.873  0.00  0.00    -0.296 OA
BRANCH  39  40
ATOM     40  C   UNL A   1     -22.559   1.956  24.879  0.00  0.00    +0.331 C 
ATOM     41  O   UNL A   1     -23.834   2.189  24.988  0.00  0.00    -0.184 OA
ENDBRANCH  39  40
ENDBRANCH  38  39
ENDBRANCH  14  38
TORSDOF 9
