REMARK  Name = outputs/IAG933/test6/raw/output_6099_IAG933_linker_design_.xyz
REMARK  11 active torsions:
REMARK  status: ('A' for Active; 'I' for Inactive)
REMARK    1  A    between atoms: C_1  and  C_2
REMARK    2  A    between atoms: C_1  and  C_8
REMARK    3  A    between atoms: C_1  and  C_30
REMARK    4  A    between atoms: C_13  and  C_38
REMARK    5  A    between atoms: C_14  and  C_15
REMARK    6  A    between atoms: C_21  and  O_22
REMARK    7  A    between atoms: O_22  and  C_23
REMARK    8  A    between atoms: C_23  and  C_24
REMARK    9  A    between atoms: N_29  and  C_30
REMARK   10  A    between atoms: N_29  and  C_37
REMARK   11  A    between atoms: C_30  and  N_32
REMARK                            x       y       z     vdW  Elec       q    Type
REMARK                         _______ _______ _______ _____ _____    ______ ____
ROOT
ATOM      1  C   UNL A   1     -22.823   0.722  28.659  0.00  0.00    +0.107 C 
ATOM      2  N   UNL A   1     -24.192   0.607  28.147  0.00  0.00    -0.255 NA
ATOM      3  C   UNL A   1     -23.057   2.002  26.612  0.00  0.00    +0.047 C 
ATOM      4  O   UNL A   1     -20.836   1.746  27.658  0.00  0.00    -0.222 OA
ATOM      5  C   UNL A   1     -24.313   1.274  26.777  0.00  0.00    +0.069 C 
ATOM      6  C   UNL A   1     -22.495   2.231  25.189  0.00  0.00    +0.004 C 
ATOM      7  C   UNL A   1     -22.073   1.094  27.370  0.00  0.00    +0.169 C 
ENDROOT
BRANCH   5   8
ATOM      8  C   UNL A   1     -25.688   1.614  26.461  0.00  0.00    +0.085 C 
ATOM      9  C   UNL A   1     -26.250   2.920  26.395  0.00  0.00    +0.056 C 
ATOM     10  C   UNL A   1     -27.438   3.091  25.645  0.00  0.00    +0.102 C 
ATOM     11  N   UNL A   1     -28.075   2.089  25.003  0.00  0.00    -0.212 NA
ATOM     12  C   UNL A   1     -27.543   0.849  25.079  0.00  0.00    +0.234 C 
ATOM     13  C   UNL A   1     -26.354   0.576  25.777  0.00  0.00    +0.241 C 
ATOM     14  F   UNL A   1     -25.860  -0.681  25.795  0.00  0.00    -0.227 F 
BRANCH   9  15
ATOM     15  C   UNL A   1     -25.642   4.093  27.123  0.00  0.00    +0.263 C 
ATOM     16  N   UNL A   1     -25.614   5.252  26.449  0.00  0.00    -0.200 NA
ATOM     17  C   UNL A   1     -25.026   6.479  26.963  0.00  0.00    +0.139 C 
ATOM     18  O   UNL A   1     -25.143   3.966  28.243  0.00  0.00    -0.269 OA
ENDBRANCH   9  15
BRANCH  12  19
ATOM     19  O   UNL A   1     -28.193  -0.208  24.477  0.00  0.00    -0.459 OA
BRANCH  19  20
ATOM     20  C   UNL A   1     -29.460   0.005  23.866  0.00  0.00    +0.242 C 
BRANCH  20  21
ATOM     21  C   UNL A   1     -30.065  -1.377  23.573  0.00  0.00    +0.229 C 
ATOM     22  O   UNL A   1     -30.729  -1.878  24.721  0.00  0.00    -0.216 OA
ENDBRANCH  20  21
ENDBRANCH  19  20
ENDBRANCH  12  19
ENDBRANCH   5   8
BRANCH   2  23
ATOM     23  C   UNL A   1     -25.137  -0.224  28.844  0.00  0.00    +0.157 C 
BRANCH  23  24
ATOM     24  C   UNL A   1     -24.855  -1.012  30.143  0.00  0.00    +0.074 C 
BRANCH  24  25
ATOM     25  C   UNL A   1     -24.973  -2.505  29.788  0.00  0.00    -0.018 C 
ATOM     26  C   UNL A   1     -23.906  -3.173  29.146  0.00  0.00    -0.004 C 
ATOM     27  C   UNL A   1     -23.989  -4.549  28.853  0.00  0.00    -0.000 C 
ATOM     28  C   UNL A   1     -25.137  -5.280  29.205  0.00  0.00    -0.000 C 
ATOM     29  C   UNL A   1     -26.232  -4.611  29.784  0.00  0.00    -0.000 C 
ATOM     30  C   UNL A   1     -26.155  -3.232  30.065  0.00  0.00    -0.004 C 
ENDBRANCH  24  25
BRANCH  24  31
ATOM     31  C   UNL A   1     -25.387  -0.679  31.571  0.00  0.00    +0.080 C 
ATOM     32  C   UNL A   1     -25.189   0.773  32.028  0.00  0.00    +0.019 C 
ATOM     33  C   UNL A   1     -25.336   0.684  33.544  0.00  0.00    +0.020 C 
ATOM     34  C   UNL A   1     -24.829  -0.715  33.905  0.00  0.00    +0.089 C 
ATOM     35  N   UNL A   1     -24.758  -1.481  32.646  0.00  0.00    -0.219 NA
ENDBRANCH  24  31
ENDBRANCH  23  24
BRANCH  23  36
ATOM     36  N   UNL A   1     -26.384  -0.535  28.360  0.00  0.00    -0.223 NA
BRANCH  36  40
ATOM     37  C   UNL A   1     -29.692   0.445  30.736  0.00  0.00    +0.000 C 
ATOM     38  C   UNL A   1     -28.960   1.425  30.101  0.00  0.00    +0.001 C 
ATOM     39  C   UNL A   1     -27.881   1.029  29.334  0.00  0.00    +0.016 C 
ATOM     40  C   UNL A   1     -27.499  -0.269  29.114  0.00  0.00    +0.067 C 
ATOM     41  C   UNL A   1     -28.273  -1.256  29.804  0.00  0.00    +0.016 C 
ATOM     42  C   UNL A   1     -29.342  -0.920  30.630  0.00  0.00    +0.001 C 
ENDBRANCH  36  40
ENDBRANCH  23  36
ENDBRANCH   2  23
TORSDOF 11
