MODEL 609
MODEL 1
REMARK VINA RESULT:    -5.613      0.000      0.000
REMARK INTER + INTRA:          -7.008
REMARK INTER:                  -6.597
REMARK INTRA:                  -0.411
REMARK UNBOUND:                -0.411
REMARK  Name = No_609-gen_results/8p0m/2024-11-27-11-27-31/
REMARK  3 active torsions:
REMARK  status: ('A' for Active; 'I' for Inactive)
REMARK    1  A    between atoms: C_1  and  C_2
REMARK    2  A    between atoms: C_1  and  C_8
REMARK    3  A    between atoms: C_8  and  C_9
REMARK                            x       y       z     vdW  Elec       q    Type
REMARK                         _______ _______ _______ _____ _____    ______ ____
ROOT
ATOM      1  C   UNL A   1     -24.656  -2.459  28.828  0.00  0.00    -0.022 A 
ATOM      2  C   UNL A   1     -23.871  -3.564  28.503  0.00  0.00    -0.004 A 
ATOM      3  C   UNL A   1     -24.238  -4.988  28.630  0.00  0.00    -0.000 A 
ATOM      4  C   UNL A   1     -25.443  -5.257  29.346  0.00  0.00    -0.000 A 
ATOM      5  C   UNL A   1     -26.241  -4.175  29.732  0.00  0.00    -0.000 A 
ATOM      6  C   UNL A   1     -25.895  -2.886  29.517  0.00  0.00    -0.004 A 
ENDROOT
BRANCH   1   7
ATOM      7  C   UNL A   1     -24.292  -1.314  28.687  0.00  0.00    +0.031 C 
BRANCH   7   8
ATOM      8  C   UNL A   1     -22.948  -1.017  29.249  0.00  0.00    +0.030 C 
BRANCH   8   9
ATOM      9  C   UNL A   1     -22.244  -0.219  28.923  0.00  0.00    -0.030 C 
ATOM     10  C   UNL A   1     -22.631   0.819  28.029  0.00  0.00    -0.030 C 
ATOM     11  C   UNL A   1     -21.762   1.746  27.375  0.00  0.00    +0.030 C 
ENDBRANCH   8   9
ENDBRANCH   7   8
ENDBRANCH   1   7
TORSDOF 3
ENDMDL
ENDMDL
