REMARK  Name = outputs/IAG933/test6/raw/output_61_IAG933_linker_design_.xyz
REMARK  12 active torsions:
REMARK  status: ('A' for Active; 'I' for Inactive)
REMARK    1  A    between atoms: C_1  and  C_2
REMARK    2  A    between atoms: C_1  and  C_8
REMARK    3  A    between atoms: C_1  and  N_29
REMARK    4  A    between atoms: C_13  and  C_41
REMARK    5  A    between atoms: C_14  and  C_15
REMARK    6  A    between atoms: C_21  and  O_22
REMARK    7  A    between atoms: O_22  and  C_23
REMARK    8  A    between atoms: C_23  and  C_24
REMARK    9  A    between atoms: N_29  and  C_32
REMARK   10  A    between atoms: C_32  and  C_40
REMARK   11  A    between atoms: C_35  and  C_42
REMARK   12  A    between atoms: N_38  and  C_40
REMARK                            x       y       z     vdW  Elec       q    Type
REMARK                         _______ _______ _______ _____ _____    ______ ____
ROOT
ATOM      1  N   UNL A   1     -25.007  -0.106  29.011  0.00  0.00    -0.184 N 
ATOM      2  C   UNL A   1     -23.843   0.580  28.776  0.00  0.00    +0.382 C 
ATOM      3  N   UNL A   1     -22.912   0.685  29.776  0.00  0.00    +0.193 NA
ENDROOT
BRANCH   2   6
ATOM      4  O   UNL A   1     -21.337   2.084  27.821  0.00  0.00    -0.245 OA
ATOM      5  C   UNL A   1     -23.624   2.039  25.331  0.00  0.00    +0.232 C 
ATOM      6  C   UNL A   1     -23.589   1.180  27.639  0.00  0.00    +0.158 C 
ATOM      7  O   UNL A   1     -22.202   1.964  25.717  0.00  0.00    -0.441 OA
ATOM      8  C   UNL A   1     -22.328   1.762  27.087  0.00  0.00    +0.348 C 
ATOM      9  C   UNL A   1     -24.293   1.605  26.407  0.00  0.00    +0.020 C 
BRANCH   9  10
ATOM     10  C   UNL A   1     -25.688   1.614  26.461  0.00  0.00    +0.092 C 
ATOM     11  C   UNL A   1     -26.250   2.920  26.395  0.00  0.00    +0.059 C 
ATOM     12  C   UNL A   1     -27.438   3.091  25.645  0.00  0.00    +0.102 C 
ATOM     13  N   UNL A   1     -28.075   2.089  25.003  0.00  0.00    -0.212 NA
ATOM     14  C   UNL A   1     -27.543   0.849  25.079  0.00  0.00    +0.234 C 
ATOM     15  C   UNL A   1     -26.354   0.576  25.777  0.00  0.00    +0.244 C 
ATOM     16  F   UNL A   1     -25.860  -0.681  25.795  0.00  0.00    -0.227 F 
BRANCH  11  17
ATOM     17  C   UNL A   1     -25.642   4.093  27.123  0.00  0.00    +0.263 C 
ATOM     18  N   UNL A   1     -25.614   5.252  26.449  0.00  0.00    -0.200 NA
ATOM     19  C   UNL A   1     -25.026   6.479  26.963  0.00  0.00    +0.139 C 
ATOM     20  O   UNL A   1     -25.143   3.966  28.243  0.00  0.00    -0.269 OA
ENDBRANCH  11  17
BRANCH  14  21
ATOM     21  O   UNL A   1     -28.193  -0.208  24.477  0.00  0.00    -0.459 OA
BRANCH  21  22
ATOM     22  C   UNL A   1     -29.460   0.005  23.866  0.00  0.00    +0.242 C 
BRANCH  22  23
ATOM     23  C   UNL A   1     -30.065  -1.377  23.573  0.00  0.00    +0.229 C 
ATOM     24  O   UNL A   1     -30.729  -1.878  24.721  0.00  0.00    -0.216 OA
ENDBRANCH  22  23
ENDBRANCH  21  22
ENDBRANCH  14  21
ENDBRANCH   9  10
ENDBRANCH   2   6
BRANCH   1  25
ATOM     25  C   UNL A   1     -24.855  -1.012  30.143  0.00  0.00    +0.199 C 
BRANCH  25  26
ATOM     26  C   UNL A   1     -24.973  -2.505  29.788  0.00  0.00    +0.021 C 
ATOM     27  C   UNL A   1     -23.906  -3.173  29.146  0.00  0.00    -0.000 C 
ATOM     28  C   UNL A   1     -23.989  -4.549  28.853  0.00  0.00    -0.000 C 
ATOM     29  C   UNL A   1     -25.137  -5.280  29.205  0.00  0.00    -0.000 C 
ATOM     30  C   UNL A   1     -26.232  -4.611  29.784  0.00  0.00    -0.000 C 
ATOM     31  C   UNL A   1     -26.155  -3.232  30.065  0.00  0.00    -0.000 C 
ENDBRANCH  25  26
BRANCH  25  32
ATOM     32  C   UNL A   1     -25.387  -0.679  31.571  0.00  0.00    +0.120 C 
ATOM     33  C   UNL A   1     -25.189   0.773  32.028  0.00  0.00    +0.023 C 
ATOM     34  C   UNL A   1     -25.336   0.684  33.544  0.00  0.00    +0.020 C 
ATOM     35  C   UNL A   1     -24.829  -0.715  33.905  0.00  0.00    +0.089 C 
ATOM     36  N   UNL A   1     -24.758  -1.481  32.646  0.00  0.00    -0.215 NA
ENDBRANCH  25  32
ENDBRANCH   1  25
BRANCH   1  37
ATOM     37  C   UNL A   1     -26.153  -0.144  28.356  0.00  0.00    +0.220 C 
BRANCH  37  38
ATOM     38  C   UNL A   1     -27.543  -0.081  28.871  0.00  0.00    +0.125 C 
BRANCH  38  43
ATOM     39  C   UNL A   1     -28.999   1.783  28.013  0.00  0.00    +0.213 C 
ATOM     40  C   UNL A   1     -28.051   2.525  30.073  0.00  0.00    +0.075 C 
ATOM     41  O   UNL A   1     -29.892   0.695  27.894  0.00  0.00    -0.205 OA
ATOM     42  C   UNL A   1     -28.671   3.728  29.365  0.00  0.00    +0.021 C 
ATOM     43  N   UNL A   1     -28.039   1.385  29.060  0.00  0.00    -0.244 NA
ATOM     44  C   UNL A   1     -29.661   3.092  28.352  0.00  0.00    +0.051 C 
ENDBRANCH  38  43
ENDBRANCH  37  38
ENDBRANCH   1  37
TORSDOF 12
