REMARK  Name = outputs/IAG933/test6/raw/output_6102_IAG933_linker_design_.xyz
REMARK  16 active torsions:
REMARK  status: ('A' for Active; 'I' for Inactive)
REMARK    1  A    between atoms: C_1  and  C_2
REMARK    2  A    between atoms: C_1  and  C_8
REMARK    3  A    between atoms: C_1  and  C_31
REMARK    4  A    between atoms: C_13  and  C_33
REMARK    5  A    between atoms: C_14  and  C_15
REMARK    6  A    between atoms: C_21  and  O_22
REMARK    7  A    between atoms: O_22  and  C_23
REMARK    8  A    between atoms: C_23  and  C_24
REMARK    9  A    between atoms: O_29  and  C_32
REMARK   10  A    between atoms: O_29  and  C_35
REMARK   11  A    between atoms: N_30  and  C_46
REMARK   12  A    between atoms: C_31  and  C_45
REMARK   13  A    between atoms: C_32  and  C_37
REMARK   14  A    between atoms: C_33  and  C_45
REMARK   15  A    between atoms: C_36  and  C_45
REMARK   16  A    between atoms: C_42  and  C_46
REMARK                            x       y       z     vdW  Elec       q    Type
REMARK                         _______ _______ _______ _____ _____    ______ ____
ROOT
ATOM      1  N   UNL A   1     -26.991  -0.448  29.258  0.00  0.00    -0.187 NA
ATOM      2  C   UNL A   1     -25.539  -0.131  29.168  0.00  0.00    +0.040 C 
ENDROOT
BRANCH   1   4
ATOM      3  O   UNL A   1     -29.195  -0.796  28.729  0.00  0.00    -0.273 OA
ATOM      4  C   UNL A   1     -28.218  -0.031  28.952  0.00  0.00    +0.247 C 
BRANCH   4   8
ATOM      5  C   UNL A   1     -29.798   2.099  28.952  0.00  0.00    +0.175 C 
ATOM      6  C   UNL A   1     -28.898   1.890  30.261  0.00  0.00    +0.046 C 
ATOM      7  O   UNL A   1     -30.485   1.456  27.791  0.00  0.00    -0.221 OA
ATOM      8  C   UNL A   1     -28.391   1.462  29.014  0.00  0.00    +0.113 C 
BRANCH   5   9
ATOM      9  C   UNL A   1     -30.004   3.721  28.606  0.00  0.00    +0.239 C 
BRANCH   9  10
ATOM     10  O   UNL A   1     -28.884   4.504  29.195  0.00  0.00    -0.446 OA
BRANCH  10  11
ATOM     11  C   UNL A   1     -28.934   4.722  30.525  0.00  0.00    +0.318 C 
ATOM     12  O   UNL A   1     -27.984   5.129  31.164  0.00  0.00    -0.250 OA
ATOM     13  C   UNL A   1     -30.214   4.340  31.160  0.00  0.00    +0.121 C 
ENDBRANCH  10  11
ENDBRANCH   9  10
ENDBRANCH   5   9
ENDBRANCH   4   8
ENDBRANCH   1   4
BRANCH   2  14
ATOM     14  C   UNL A   1     -24.855  -1.012  30.143  0.00  0.00    +0.072 C 
BRANCH  14  15
ATOM     15  C   UNL A   1     -24.973  -2.505  29.788  0.00  0.00    -0.016 C 
ATOM     16  C   UNL A   1     -23.906  -3.173  29.146  0.00  0.00    -0.004 C 
ATOM     17  C   UNL A   1     -23.989  -4.549  28.853  0.00  0.00    -0.000 C 
ATOM     18  C   UNL A   1     -25.137  -5.280  29.205  0.00  0.00    -0.000 C 
ATOM     19  C   UNL A   1     -26.232  -4.611  29.784  0.00  0.00    -0.000 C 
ATOM     20  C   UNL A   1     -26.155  -3.232  30.065  0.00  0.00    -0.004 C 
ENDBRANCH  14  15
BRANCH  14  21
ATOM     21  C   UNL A   1     -25.387  -0.679  31.571  0.00  0.00    +0.082 C 
ATOM     22  C   UNL A   1     -25.189   0.773  32.028  0.00  0.00    +0.020 C 
ATOM     23  C   UNL A   1     -25.336   0.684  33.544  0.00  0.00    +0.020 C 
ATOM     24  C   UNL A   1     -24.829  -0.715  33.905  0.00  0.00    +0.089 C 
ATOM     25  N   UNL A   1     -24.758  -1.481  32.646  0.00  0.00    -0.219 NA
ENDBRANCH  14  21
ENDBRANCH   2  14
BRANCH   2  26
ATOM     26  C   UNL A   1     -24.642   0.731  28.658  0.00  0.00    +0.089 C 
BRANCH  26  28
ATOM     27  C   UNL A   1     -21.752   1.538  27.377  0.00  0.00    +0.030 C 
ATOM     28  C   UNL A   1     -24.552   1.259  27.334  0.00  0.00    -0.017 C 
ATOM     29  C   UNL A   1     -23.123   1.502  26.689  0.00  0.00    -0.029 C 
BRANCH  28  30
ATOM     30  C   UNL A   1     -25.688   1.614  26.461  0.00  0.00    +0.034 C 
ATOM     31  C   UNL A   1     -26.250   2.920  26.395  0.00  0.00    +0.076 C 
ATOM     32  C   UNL A   1     -27.438   3.091  25.645  0.00  0.00    +0.107 C 
ATOM     33  N   UNL A   1     -28.075   2.089  25.003  0.00  0.00    -0.208 NA
ATOM     34  C   UNL A   1     -27.543   0.849  25.079  0.00  0.00    +0.253 C 
ATOM     35  C   UNL A   1     -26.354   0.576  25.777  0.00  0.00    +0.193 C 
ATOM     36  F   UNL A   1     -25.860  -0.681  25.795  0.00  0.00    -0.199 F 
BRANCH  31  37
ATOM     37  C   UNL A   1     -25.642   4.093  27.123  0.00  0.00    +0.266 C 
ATOM     38  N   UNL A   1     -25.614   5.252  26.449  0.00  0.00    -0.200 NA
ATOM     39  C   UNL A   1     -25.026   6.479  26.963  0.00  0.00    +0.139 C 
ATOM     40  O   UNL A   1     -25.143   3.966  28.243  0.00  0.00    -0.268 OA
ENDBRANCH  31  37
BRANCH  34  41
ATOM     41  O   UNL A   1     -28.193  -0.208  24.477  0.00  0.00    -0.456 OA
BRANCH  41  42
ATOM     42  C   UNL A   1     -29.460   0.005  23.866  0.00  0.00    +0.243 C 
BRANCH  42  43
ATOM     43  C   UNL A   1     -30.065  -1.377  23.573  0.00  0.00    +0.229 C 
ATOM     44  O   UNL A   1     -30.729  -1.878  24.721  0.00  0.00    -0.216 OA
ENDBRANCH  42  43
ENDBRANCH  41  42
ENDBRANCH  34  41
ENDBRANCH  28  30
ENDBRANCH  26  28
BRANCH  26  45
ATOM     45  C   UNL A   1     -23.478   1.085  29.563  0.00  0.00    +0.192 C 
ATOM     46  O   UNL A   1     -22.586   0.065  29.641  0.00  0.00    -0.220 OA
ENDBRANCH  26  45
ENDBRANCH   2  26
TORSDOF 16
