REMARK  Name = outputs/IAG933/test6/raw/output_6103_IAG933_linker_design_.xyz
REMARK  11 active torsions:
REMARK  status: ('A' for Active; 'I' for Inactive)
REMARK    1  A    between atoms: C_1  and  C_2
REMARK    2  A    between atoms: C_1  and  C_8
REMARK    3  A    between atoms: C_1  and  C_30
REMARK    4  A    between atoms: C_13  and  C_43
REMARK    5  A    between atoms: C_14  and  C_15
REMARK    6  A    between atoms: C_21  and  O_22
REMARK    7  A    between atoms: O_22  and  C_23
REMARK    8  A    between atoms: C_23  and  C_24
REMARK    9  A    between atoms: N_28  and  C_31
REMARK   10  A    between atoms: N_28  and  C_33
REMARK   11  A    between atoms: C_34  and  C_38
REMARK                            x       y       z     vdW  Elec       q    Type
REMARK                         _______ _______ _______ _____ _____    ______ ____
ROOT
ATOM      1  C   UNL A   1     -24.486  -0.174  29.171  0.00  0.00    +0.081 A 
ATOM      2  C   UNL A   1     -25.492   0.339  28.327  0.00  0.00    +0.079 A 
ATOM      3  C   UNL A   1     -23.613   1.471  27.031  0.00  0.00    +0.112 A 
ATOM      4  N   UNL A   1     -23.172   0.115  28.951  0.00  0.00    -0.220 NA
ATOM      5  F   UNL A   1     -21.437   1.313  27.803  0.00  0.00    -0.182 F 
ATOM      6  C   UNL A   1     -22.755   0.963  27.925  0.00  0.00    +0.231 A 
ATOM      7  C   UNL A   1     -24.876   1.191  27.248  0.00  0.00    +0.014 A 
ENDROOT
BRANCH   7   8
ATOM      8  C   UNL A   1     -25.688   1.614  26.461  0.00  0.00    +0.094 C 
ATOM      9  C   UNL A   1     -26.250   2.920  26.395  0.00  0.00    +0.059 C 
ATOM     10  C   UNL A   1     -27.438   3.091  25.645  0.00  0.00    +0.102 C 
ATOM     11  N   UNL A   1     -28.075   2.089  25.003  0.00  0.00    -0.212 NA
ATOM     12  C   UNL A   1     -27.543   0.849  25.079  0.00  0.00    +0.234 C 
ATOM     13  C   UNL A   1     -26.354   0.576  25.777  0.00  0.00    +0.244 C 
ATOM     14  F   UNL A   1     -25.860  -0.681  25.795  0.00  0.00    -0.227 F 
BRANCH   9  15
ATOM     15  C   UNL A   1     -25.642   4.093  27.123  0.00  0.00    +0.263 C 
ATOM     16  N   UNL A   1     -25.614   5.252  26.449  0.00  0.00    -0.200 NA
ATOM     17  C   UNL A   1     -25.026   6.479  26.963  0.00  0.00    +0.139 C 
ATOM     18  O   UNL A   1     -25.143   3.966  28.243  0.00  0.00    -0.269 OA
ENDBRANCH   9  15
BRANCH  12  19
ATOM     19  O   UNL A   1     -28.193  -0.208  24.477  0.00  0.00    -0.459 OA
BRANCH  19  20
ATOM     20  C   UNL A   1     -29.460   0.005  23.866  0.00  0.00    +0.242 C 
BRANCH  20  21
ATOM     21  C   UNL A   1     -30.065  -1.377  23.573  0.00  0.00    +0.229 C 
ATOM     22  O   UNL A   1     -30.729  -1.878  24.721  0.00  0.00    -0.216 OA
ENDBRANCH  20  21
ENDBRANCH  19  20
ENDBRANCH  12  19
ENDBRANCH   7   8
BRANCH   3  23
ATOM     23  C   UNL A   1     -23.156   2.182  25.900  0.00  0.00    +0.104 C 
ATOM     24  N   UNL A   1     -22.844   2.768  24.931  0.00  0.00    -0.191 NA
ENDBRANCH   3  23
BRANCH   1  25
ATOM     25  C   UNL A   1     -24.855  -1.012  30.143  0.00  0.00    +0.080 C 
BRANCH  25  26
ATOM     26  C   UNL A   1     -24.973  -2.505  29.788  0.00  0.00    -0.015 C 
ATOM     27  C   UNL A   1     -23.906  -3.173  29.146  0.00  0.00    -0.004 C 
ATOM     28  C   UNL A   1     -23.989  -4.549  28.853  0.00  0.00    -0.000 C 
ATOM     29  C   UNL A   1     -25.137  -5.280  29.205  0.00  0.00    -0.000 C 
ATOM     30  C   UNL A   1     -26.232  -4.611  29.784  0.00  0.00    -0.000 C 
ATOM     31  C   UNL A   1     -26.155  -3.232  30.065  0.00  0.00    -0.004 C 
ENDBRANCH  25  26
BRANCH  25  32
ATOM     32  C   UNL A   1     -25.387  -0.679  31.571  0.00  0.00    +0.082 C 
ATOM     33  C   UNL A   1     -25.189   0.773  32.028  0.00  0.00    +0.020 C 
ATOM     34  C   UNL A   1     -25.336   0.684  33.544  0.00  0.00    +0.020 C 
ATOM     35  C   UNL A   1     -24.829  -0.715  33.905  0.00  0.00    +0.089 C 
ATOM     36  N   UNL A   1     -24.758  -1.481  32.646  0.00  0.00    -0.219 NA
ENDBRANCH  25  32
ENDBRANCH   1  25
BRANCH   2  37
ATOM     37  N   UNL A   1     -26.815  -0.175  28.560  0.00  0.00    -0.207 NA
BRANCH  37  40
ATOM     38  C   UNL A   1     -31.132   0.715  29.142  0.00  0.00    +0.296 C 
ATOM     39  C   UNL A   1     -28.794   1.374  29.683  0.00  0.00    +0.197 C 
ATOM     40  C   UNL A   1     -28.035   0.210  29.064  0.00  0.00    +0.241 C 
ATOM     41  O   UNL A   1     -30.076   1.691  29.081  0.00  0.00    -0.322 OA
ATOM     42  C   UNL A   1     -29.922  -1.263  28.894  0.00  0.00    +0.297 C 
ATOM     43  O   UNL A   1     -30.863  -0.373  28.267  0.00  0.00    -0.298 OA
ATOM     44  O   UNL A   1     -28.780  -1.024  29.615  0.00  0.00    -0.306 OA
ENDBRANCH  37  40
ENDBRANCH   2  37
TORSDOF 11
