REMARK  Name = outputs/IAG933/test6/raw/output_6109_IAG933_linker_design_.xyz
REMARK  10 active torsions:
REMARK  status: ('A' for Active; 'I' for Inactive)
REMARK    1  A    between atoms: C_1  and  C_2
REMARK    2  A    between atoms: C_1  and  C_8
REMARK    3  A    between atoms: C_1  and  N_32
REMARK    4  A    between atoms: C_13  and  N_30
REMARK    5  A    between atoms: C_14  and  C_15
REMARK    6  A    between atoms: C_21  and  O_22
REMARK    7  A    between atoms: O_22  and  C_23
REMARK    8  A    between atoms: C_23  and  C_24
REMARK    9  A    between atoms: C_29  and  N_38
REMARK   10  A    between atoms: N_30  and  C_33
REMARK                            x       y       z     vdW  Elec       q    Type
REMARK                         _______ _______ _______ _____ _____    ______ ____
ROOT
ATOM      1  O   UNL A   1     -26.385   0.695  28.829  0.00  0.00    -0.250 OA
ATOM      2  N   UNL A   1     -24.800   1.230  27.375  0.00  0.00    -0.233 N 
ATOM      3  N   UNL A   1     -24.417  -0.171  29.256  0.00  0.00    -0.184 NA
ATOM      4  C   UNL A   1     -25.221   0.582  28.483  0.00  0.00    +0.328 C 
ENDROOT
BRANCH   2   5
ATOM      5  C   UNL A   1     -25.688   1.614  26.461  0.00  0.00    +0.151 C 
ATOM      6  C   UNL A   1     -26.250   2.920  26.395  0.00  0.00    +0.073 C 
ATOM      7  C   UNL A   1     -27.438   3.091  25.645  0.00  0.00    +0.104 C 
ATOM      8  N   UNL A   1     -28.075   2.089  25.003  0.00  0.00    -0.212 NA
ATOM      9  C   UNL A   1     -27.543   0.849  25.079  0.00  0.00    +0.236 C 
ATOM     10  C   UNL A   1     -26.354   0.576  25.777  0.00  0.00    +0.259 C 
ATOM     11  F   UNL A   1     -25.860  -0.681  25.795  0.00  0.00    -0.225 F 
BRANCH   6  12
ATOM     12  C   UNL A   1     -25.642   4.093  27.123  0.00  0.00    +0.264 C 
ATOM     13  N   UNL A   1     -25.614   5.252  26.449  0.00  0.00    -0.200 NA
ATOM     14  C   UNL A   1     -25.026   6.479  26.963  0.00  0.00    +0.139 C 
ATOM     15  O   UNL A   1     -25.143   3.966  28.243  0.00  0.00    -0.269 OA
ENDBRANCH   6  12
BRANCH   9  16
ATOM     16  O   UNL A   1     -28.193  -0.208  24.477  0.00  0.00    -0.459 OA
BRANCH  16  17
ATOM     17  C   UNL A   1     -29.460   0.005  23.866  0.00  0.00    +0.242 C 
BRANCH  17  18
ATOM     18  C   UNL A   1     -30.065  -1.377  23.573  0.00  0.00    +0.229 C 
ATOM     19  O   UNL A   1     -30.729  -1.878  24.721  0.00  0.00    -0.216 OA
ENDBRANCH  17  18
ENDBRANCH  16  17
ENDBRANCH   9  16
ENDBRANCH   2   5
BRANCH   2  21
ATOM     20  C   UNL A   1     -22.679   0.999  27.942  0.00  0.00    +0.102 C 
ATOM     21  C   UNL A   1     -23.447   1.481  27.148  0.00  0.00    +0.093 C 
ATOM     22  N   UNL A   1     -21.363   2.009  26.598  0.00  0.00    -0.174 NA
ATOM     23  C   UNL A   1     -22.635   2.127  26.273  0.00  0.00    +0.134 C 
ATOM     24  N   UNL A   1     -21.585   1.101  28.029  0.00  0.00    -0.189 N 
BRANCH  24  25
ATOM     25  C   UNL A   1     -21.701   0.496  28.601  0.00  0.00    +0.225 C 
ATOM     26  N   UNL A   1     -21.664  -0.637  29.441  0.00  0.00    -0.105 NA
ENDBRANCH  24  25
ENDBRANCH   2  21
BRANCH   3  27
ATOM     27  C   UNL A   1     -24.855  -1.012  30.143  0.00  0.00    +0.135 C 
BRANCH  27  28
ATOM     28  C   UNL A   1     -24.973  -2.505  29.788  0.00  0.00    -0.001 C 
ATOM     29  C   UNL A   1     -23.906  -3.173  29.146  0.00  0.00    -0.003 C 
ATOM     30  C   UNL A   1     -23.989  -4.549  28.853  0.00  0.00    -0.000 C 
ATOM     31  C   UNL A   1     -25.137  -5.280  29.205  0.00  0.00    -0.000 C 
ATOM     32  C   UNL A   1     -26.232  -4.611  29.784  0.00  0.00    -0.000 C 
ATOM     33  C   UNL A   1     -26.155  -3.232  30.065  0.00  0.00    -0.003 C 
ENDBRANCH  27  28
BRANCH  27  34
ATOM     34  C   UNL A   1     -25.387  -0.679  31.571  0.00  0.00    +0.097 C 
ATOM     35  C   UNL A   1     -25.189   0.773  32.028  0.00  0.00    +0.021 C 
ATOM     36  C   UNL A   1     -25.336   0.684  33.544  0.00  0.00    +0.020 C 
ATOM     37  C   UNL A   1     -24.829  -0.715  33.905  0.00  0.00    +0.089 C 
ATOM     38  N   UNL A   1     -24.758  -1.481  32.646  0.00  0.00    -0.217 NA
ENDBRANCH  27  34
ENDBRANCH   3  27
TORSDOF 10
