MODEL 610
MODEL 1
REMARK VINA RESULT:    -5.016      0.000      0.000
REMARK INTER + INTRA:          -5.353
REMARK INTER:                  -5.602
REMARK INTRA:                   0.249
REMARK UNBOUND:                 0.249
REMARK  Name = No_610-gen_results/8p0m/2024-11-27-11-27-31/
REMARK  2 active torsions:
REMARK  status: ('A' for Active; 'I' for Inactive)
REMARK    1  A    between atoms: C_2  and  C_5
REMARK    2  A    between atoms: C_6  and  C_7
REMARK                            x       y       z     vdW  Elec       q    Type
REMARK                         _______ _______ _______ _____ _____    ______ ____
ROOT
ATOM      1  F   UNL A   1     -10.249 -10.529  16.920  0.00  0.00    -0.166 F 
ATOM      2  C   UNL A   1      -9.351 -10.206  17.707  0.00  0.00    +0.418 C 
ATOM      3  F   UNL A   1      -8.897 -11.102  18.006  0.00  0.00    -0.166 F 
ATOM      4  F   UNL A   1      -8.462  -9.315  17.145  0.00  0.00    -0.166 F 
ENDROOT
BRANCH   2   5
ATOM      5  C   UNL A   1     -10.012  -9.441  18.885  0.00  0.00    +0.071 C 
ATOM      6  C   UNL A   1      -9.253  -9.298  19.939  0.00  0.00    -0.022 C 
BRANCH   6   7
ATOM      7  C   UNL A   1      -7.879  -9.345  19.968  0.00  0.00    +0.026 C 
ATOM      8  C   UNL A   1      -7.030  -8.084  19.766  0.00  0.00    +0.005 C 
ENDBRANCH   6   7
ENDBRANCH   2   5
TORSDOF 2
ENDMDL
ENDMDL
