REMARK  Name = outputs/IAG933/test6/raw/output_6110_IAG933_linker_design_.xyz
REMARK  7 active torsions:
REMARK  status: ('A' for Active; 'I' for Inactive)
REMARK    1  A    between atoms: C_1  and  C_2
REMARK    2  A    between atoms: C_1  and  C_8
REMARK    3  A    between atoms: C_1  and  O_37
REMARK    4  A    between atoms: C_21  and  O_22
REMARK    5  A    between atoms: O_22  and  C_23
REMARK    6  A    between atoms: C_23  and  C_24
REMARK    7  A    between atoms: O_37  and  C_39
REMARK                            x       y       z     vdW  Elec       q    Type
REMARK                         _______ _______ _______ _____ _____    ______ ____
ROOT
ATOM      1  C   UNL A   1     -25.688   1.614  26.461  0.00  0.00    +0.041 C 
ATOM      2  C   UNL A   1     -26.250   2.920  26.395  0.00  0.00    +0.074 C 
ATOM      3  C   UNL A   1     -25.642   4.093  27.123  0.00  0.00    +0.266 C 
ATOM      4  N   UNL A   1     -25.614   5.252  26.449  0.00  0.00    -0.199 NA
ATOM      5  C   UNL A   1     -25.026   6.479  26.963  0.00  0.00    +0.147 C 
ATOM      6  O   UNL A   1     -25.143   3.966  28.243  0.00  0.00    -0.268 OA
ATOM      7  C   UNL A   1     -27.438   3.091  25.645  0.00  0.00    +0.106 C 
ATOM      8  N   UNL A   1     -28.075   2.089  25.003  0.00  0.00    -0.208 NA
ATOM      9  C   UNL A   1     -27.543   0.849  25.079  0.00  0.00    +0.253 C 
ATOM     10  C   UNL A   1     -26.354   0.576  25.777  0.00  0.00    +0.191 C 
ATOM     11  F   UNL A   1     -25.860  -0.681  25.795  0.00  0.00    -0.200 F 
ATOM     12  C   UNL A   1     -23.253   1.762  26.259  0.00  0.00    +0.181 C 
ATOM     13  C   UNL A   1     -23.616   6.280  27.554  0.00  0.00    +0.166 C 
ATOM     14  O   UNL A   1     -20.842  -0.494  29.038  0.00  0.00    -0.210 OA
ATOM     15  O   UNL A   1     -22.785   5.119  27.134  0.00  0.00    -0.352 OA
ATOM     16  C   UNL A   1     -21.863   3.697  24.908  0.00  0.00    +0.032 C 
ATOM     17  C   UNL A   1     -21.994   2.145  27.024  0.00  0.00    +0.066 C 
ATOM     18  O   UNL A   1     -20.198   1.578  28.069  0.00  0.00    -0.220 OA
ATOM     19  C   UNL A   1     -21.850   0.190  28.526  0.00  0.00    +0.257 C 
ATOM     20  C   UNL A   1     -21.019   2.900  26.046  0.00  0.00    +0.008 C 
ATOM     21  N   UNL A   1     -24.222   0.678  28.234  0.00  0.00    -0.234 NA
ATOM     22  C   UNL A   1     -23.205   0.074  28.890  0.00  0.00    +0.230 C 
ATOM     23  C   UNL A   1     -21.445   1.200  27.541  0.00  0.00    +0.194 C 
ATOM     24  C   UNL A   1     -22.068   4.681  25.980  0.00  0.00    +0.142 C 
ATOM     25  O   UNL A   1     -23.203   1.349  25.004  0.00  0.00    -0.221 OA
ATOM     26  C   UNL A   1     -24.362   1.244  27.041  0.00  0.00    +0.161 C 
ENDROOT
BRANCH   9  27
ATOM     27  O   UNL A   1     -28.193  -0.208  24.477  0.00  0.00    -0.456 OA
BRANCH  27  28
ATOM     28  C   UNL A   1     -29.460   0.005  23.866  0.00  0.00    +0.243 C 
BRANCH  28  29
ATOM     29  C   UNL A   1     -30.065  -1.377  23.573  0.00  0.00    +0.229 C 
ATOM     30  O   UNL A   1     -30.729  -1.878  24.721  0.00  0.00    -0.216 OA
ENDBRANCH  28  29
ENDBRANCH  27  28
ENDBRANCH   9  27
BRANCH  22  31
ATOM     31  O   UNL A   1     -23.492  -0.562  30.059  0.00  0.00    -0.459 OA
BRANCH  31  32
ATOM     32  C   UNL A   1     -24.855  -1.012  30.143  0.00  0.00    +0.205 C 
BRANCH  32  33
ATOM     33  C   UNL A   1     -24.973  -2.505  29.788  0.00  0.00    +0.019 C 
ATOM     34  C   UNL A   1     -23.906  -3.173  29.146  0.00  0.00    -0.001 C 
ATOM     35  C   UNL A   1     -23.989  -4.549  28.853  0.00  0.00    -0.000 C 
ATOM     36  C   UNL A   1     -25.137  -5.280  29.205  0.00  0.00    -0.000 C 
ATOM     37  C   UNL A   1     -26.232  -4.611  29.784  0.00  0.00    -0.000 C 
ATOM     38  C   UNL A   1     -26.155  -3.232  30.065  0.00  0.00    -0.001 C 
ENDBRANCH  32  33
BRANCH  32  39
ATOM     39  C   UNL A   1     -25.387  -0.679  31.571  0.00  0.00    +0.117 C 
ATOM     40  C   UNL A   1     -25.189   0.773  32.028  0.00  0.00    +0.023 C 
ATOM     41  C   UNL A   1     -25.336   0.684  33.544  0.00  0.00    +0.020 C 
ATOM     42  C   UNL A   1     -24.829  -0.715  33.905  0.00  0.00    +0.089 C 
ATOM     43  N   UNL A   1     -24.758  -1.481  32.646  0.00  0.00    -0.215 NA
ENDBRANCH  32  39
ENDBRANCH  31  32
ENDBRANCH  22  31
TORSDOF 7
