REMARK  Name = outputs/IAG933/test6/raw/output_6111_IAG933_linker_design_.xyz
REMARK  11 active torsions:
REMARK  status: ('A' for Active; 'I' for Inactive)
REMARK    1  A    between atoms: C_1  and  C_2
REMARK    2  A    between atoms: C_1  and  C_8
REMARK    3  A    between atoms: C_1  and  C_31
REMARK    4  A    between atoms: C_13  and  N_35
REMARK    5  A    between atoms: C_14  and  C_15
REMARK    6  A    between atoms: C_21  and  O_22
REMARK    7  A    between atoms: O_22  and  C_23
REMARK    8  A    between atoms: C_23  and  C_24
REMARK    9  A    between atoms: C_32  and  O_36
REMARK   10  A    between atoms: C_33  and  N_41
REMARK   11  A    between atoms: C_34  and  C_43
REMARK                            x       y       z     vdW  Elec       q    Type
REMARK                         _______ _______ _______ _____ _____    ______ ____
ROOT
ATOM      1  C   UNL A   1     -23.201   0.202  28.589  0.00  0.00    +0.109 C 
ATOM      2  C   UNL A   1     -24.419   0.065  29.188  0.00  0.00    +0.048 C 
ATOM      3  C   UNL A   1     -23.532   1.208  27.679  0.00  0.00    +0.288 C 
ATOM      4  C   UNL A   1     -25.409   0.723  28.603  0.00  0.00    +0.312 C 
ATOM      5  N   UNL A   1     -24.818   1.308  27.532  0.00  0.00    -0.168 N 
ENDROOT
BRANCH   5   6
ATOM      6  C   UNL A   1     -25.688   1.614  26.461  0.00  0.00    +0.232 C 
ATOM      7  C   UNL A   1     -26.250   2.920  26.395  0.00  0.00    +0.097 C 
ATOM      8  C   UNL A   1     -27.438   3.091  25.645  0.00  0.00    +0.106 C 
ATOM      9  N   UNL A   1     -28.075   2.089  25.003  0.00  0.00    -0.212 NA
ATOM     10  C   UNL A   1     -27.543   0.849  25.079  0.00  0.00    +0.238 C 
ATOM     11  C   UNL A   1     -26.354   0.576  25.777  0.00  0.00    +0.282 C 
ATOM     12  F   UNL A   1     -25.860  -0.681  25.795  0.00  0.00    -0.223 F 
BRANCH   7  13
ATOM     13  C   UNL A   1     -25.642   4.093  27.123  0.00  0.00    +0.266 C 
ATOM     14  N   UNL A   1     -25.614   5.252  26.449  0.00  0.00    -0.200 NA
ATOM     15  C   UNL A   1     -25.026   6.479  26.963  0.00  0.00    +0.139 C 
ATOM     16  O   UNL A   1     -25.143   3.966  28.243  0.00  0.00    -0.269 OA
ENDBRANCH   7  13
BRANCH  10  17
ATOM     17  O   UNL A   1     -28.193  -0.208  24.477  0.00  0.00    -0.458 OA
BRANCH  17  18
ATOM     18  C   UNL A   1     -29.460   0.005  23.866  0.00  0.00    +0.242 C 
BRANCH  18  19
ATOM     19  C   UNL A   1     -30.065  -1.377  23.573  0.00  0.00    +0.229 C 
ATOM     20  O   UNL A   1     -30.729  -1.878  24.721  0.00  0.00    -0.216 OA
ENDBRANCH  18  19
ENDBRANCH  17  18
ENDBRANCH  10  17
ENDBRANCH   5   6
BRANCH   4  22
ATOM     21  O   UNL A   1     -28.286  -0.712  28.686  0.00  0.00    -0.243 OA
ATOM     22  N   UNL A   1     -26.592   0.598  29.108  0.00  0.00    +0.025 NA
ATOM     23  C   UNL A   1     -27.784   0.413  28.831  0.00  0.00    +0.353 C 
BRANCH  23  26
ATOM     24  C   UNL A   1     -29.392   4.203  31.162  0.00  0.00    +0.090 C 
ATOM     25  N   UNL A   1     -29.639   3.108  30.258  0.00  0.00    -0.271 NA
ATOM     26  C   UNL A   1     -28.423   1.648  28.928  0.00  0.00    +0.123 C 
ATOM     27  C   UNL A   1     -28.578   2.047  30.349  0.00  0.00    +0.084 C 
ATOM     28  C   UNL A   1     -30.063   3.257  28.850  0.00  0.00    +0.073 C 
ATOM     29  C   UNL A   1     -29.731   1.872  28.212  0.00  0.00    +0.030 C 
ENDBRANCH  23  26
ENDBRANCH   4  22
BRANCH   3  30
ATOM     30  O   UNL A   1     -22.543   2.130  27.284  0.00  0.00    -0.315 OA
ATOM     31  C   UNL A   1     -21.152   1.710  27.596  0.00  0.00    +0.178 C 
ENDBRANCH   3  30
BRANCH   2  32
ATOM     32  C   UNL A   1     -24.855  -1.012  30.143  0.00  0.00    +0.064 C 
BRANCH  32  33
ATOM     33  C   UNL A   1     -24.973  -2.505  29.788  0.00  0.00    -0.017 C 
ATOM     34  C   UNL A   1     -23.906  -3.173  29.146  0.00  0.00    -0.004 C 
ATOM     35  C   UNL A   1     -23.989  -4.549  28.853  0.00  0.00    -0.000 C 
ATOM     36  C   UNL A   1     -25.137  -5.280  29.205  0.00  0.00    -0.000 C 
ATOM     37  C   UNL A   1     -26.232  -4.611  29.784  0.00  0.00    -0.000 C 
ATOM     38  C   UNL A   1     -26.155  -3.232  30.065  0.00  0.00    -0.004 C 
ENDBRANCH  32  33
BRANCH  32  39
ATOM     39  C   UNL A   1     -25.387  -0.679  31.571  0.00  0.00    +0.081 C 
ATOM     40  C   UNL A   1     -25.189   0.773  32.028  0.00  0.00    +0.019 C 
ATOM     41  C   UNL A   1     -25.336   0.684  33.544  0.00  0.00    +0.020 C 
ATOM     42  C   UNL A   1     -24.829  -0.715  33.905  0.00  0.00    +0.089 C 
ATOM     43  N   UNL A   1     -24.758  -1.481  32.646  0.00  0.00    -0.219 NA
ENDBRANCH  32  39
ENDBRANCH   2  32
TORSDOF 11
