REMARK  Name = outputs/IAG933/test6/raw/output_6114_IAG933_linker_design_.xyz
REMARK  7 active torsions:
REMARK  status: ('A' for Active; 'I' for Inactive)
REMARK    1  A    between atoms: C_1  and  C_2
REMARK    2  A    between atoms: C_13  and  C_40
REMARK    3  A    between atoms: C_14  and  C_15
REMARK    4  A    between atoms: C_21  and  O_22
REMARK    5  A    between atoms: O_22  and  C_23
REMARK    6  A    between atoms: C_23  and  C_24
REMARK    7  A    between atoms: C_34  and  C_40
REMARK                            x       y       z     vdW  Elec       q    Type
REMARK                         _______ _______ _______ _____ _____    ______ ____
ROOT
ATOM      1  C   UNL A   1     -24.855  -1.012  30.143  0.00  0.00    +0.059 C 
ATOM      2  C   UNL A   1     -25.387  -0.679  31.571  0.00  0.00    +0.080 C 
ATOM      3  C   UNL A   1     -25.189   0.773  32.028  0.00  0.00    +0.044 C 
ATOM      4  C   UNL A   1     -25.336   0.684  33.544  0.00  0.00    +0.022 C 
ATOM      5  C   UNL A   1     -24.829  -0.715  33.905  0.00  0.00    +0.089 C 
ATOM      6  N   UNL A   1     -24.758  -1.481  32.646  0.00  0.00    -0.219 NA
ATOM      7  C   UNL A   1     -26.727   3.192  31.228  0.00  0.00    +0.300 C 
ATOM      8  C   UNL A   1     -22.266   1.343  27.793  0.00  0.00    +0.260 C 
ATOM      9  S   UNL A   1     -25.386   3.668  32.118  0.00  0.00    +0.021 S 
ATOM     10  C   UNL A   1     -25.874   1.389  29.462  0.00  0.00    +0.099 C 
ATOM     11  O   UNL A   1     -21.400   1.976  26.951  0.00  0.00    -0.272 OA
ATOM     12  O   UNL A   1     -25.740   4.819  33.057  0.00  0.00    -0.171 OA
ATOM     13  C   UNL A   1     -23.826   1.342  27.765  0.00  0.00    +0.138 C 
ATOM     14  C   UNL A   1     -25.673   2.062  30.938  0.00  0.00    +0.178 C 
ATOM     15  C   UNL A   1     -24.016  -0.184  29.286  0.00  0.00    +0.102 C 
ATOM     16  N   UNL A   1     -21.735   0.629  28.768  0.00  0.00    -0.180 NA
ATOM     17  C   UNL A   1     -22.647  -0.173  29.629  0.00  0.00    +0.078 C 
ATOM     18  O   UNL A   1     -23.932   3.739  31.922  0.00  0.00    -0.171 OA
ATOM     19  O   UNL A   1     -26.936   4.193  30.302  0.00  0.00    -0.195 OA
ATOM     20  N   UNL A   1     -24.588   1.065  28.777  0.00  0.00    -0.261 NA
ENDROOT
BRANCH   1  21
ATOM     21  C   UNL A   1     -24.973  -2.505  29.788  0.00  0.00    -0.019 C 
ATOM     22  C   UNL A   1     -23.906  -3.173  29.146  0.00  0.00    -0.004 C 
ATOM     23  C   UNL A   1     -23.989  -4.549  28.853  0.00  0.00    -0.000 C 
ATOM     24  C   UNL A   1     -25.137  -5.280  29.205  0.00  0.00    -0.000 C 
ATOM     25  C   UNL A   1     -26.232  -4.611  29.784  0.00  0.00    -0.000 C 
ATOM     26  C   UNL A   1     -26.155  -3.232  30.065  0.00  0.00    -0.004 C 
ENDBRANCH   1  21
BRANCH  13  27
ATOM     27  C   UNL A   1     -24.383   1.461  26.619  0.00  0.00    +0.033 C 
BRANCH  27  28
ATOM     28  C   UNL A   1     -25.688   1.614  26.461  0.00  0.00    +0.072 C 
ATOM     29  C   UNL A   1     -26.250   2.920  26.395  0.00  0.00    +0.055 C 
ATOM     30  C   UNL A   1     -27.438   3.091  25.645  0.00  0.00    +0.102 C 
ATOM     31  N   UNL A   1     -28.075   2.089  25.003  0.00  0.00    -0.212 NA
ATOM     32  C   UNL A   1     -27.543   0.849  25.079  0.00  0.00    +0.234 C 
ATOM     33  C   UNL A   1     -26.354   0.576  25.777  0.00  0.00    +0.240 C 
ATOM     34  F   UNL A   1     -25.860  -0.681  25.795  0.00  0.00    -0.227 F 
BRANCH  29  35
ATOM     35  C   UNL A   1     -25.642   4.093  27.123  0.00  0.00    +0.262 C 
ATOM     36  N   UNL A   1     -25.614   5.252  26.449  0.00  0.00    -0.200 NA
ATOM     37  C   UNL A   1     -25.026   6.479  26.963  0.00  0.00    +0.139 C 
ATOM     38  O   UNL A   1     -25.143   3.966  28.243  0.00  0.00    -0.269 OA
ENDBRANCH  29  35
BRANCH  32  39
ATOM     39  O   UNL A   1     -28.193  -0.208  24.477  0.00  0.00    -0.459 OA
BRANCH  39  40
ATOM     40  C   UNL A   1     -29.460   0.005  23.866  0.00  0.00    +0.242 C 
BRANCH  40  41
ATOM     41  C   UNL A   1     -30.065  -1.377  23.573  0.00  0.00    +0.229 C 
ATOM     42  O   UNL A   1     -30.729  -1.878  24.721  0.00  0.00    -0.216 OA
ENDBRANCH  40  41
ENDBRANCH  39  40
ENDBRANCH  32  39
ENDBRANCH  27  28
ENDBRANCH  13  27
TORSDOF 7
