REMARK  Name = outputs/IAG933/test6/raw/output_6115_IAG933_linker_design_.xyz
REMARK  18 active torsions:
REMARK  status: ('A' for Active; 'I' for Inactive)
REMARK    1  A    between atoms: C_1  and  C_2
REMARK    2  A    between atoms: C_1  and  C_8
REMARK    3  A    between atoms: C_1  and  C_35
REMARK    4  A    between atoms: C_13  and  C_42
REMARK    5  A    between atoms: C_14  and  C_15
REMARK    6  A    between atoms: C_21  and  O_22
REMARK    7  A    between atoms: O_22  and  C_23
REMARK    8  A    between atoms: C_23  and  C_24
REMARK    9  A    between atoms: C_28  and  C_30
REMARK   10  A    between atoms: C_30  and  C_33
REMARK   11  A    between atoms: C_30  and  C_42
REMARK   12  A    between atoms: N_31  and  C_33
REMARK   13  A    between atoms: N_31  and  C_35
REMARK   14  A    between atoms: C_35  and  C_38
REMARK   15  A    between atoms: N_37  and  C_39
REMARK   16  A    between atoms: C_38  and  C_41
REMARK   17  A    between atoms: C_39  and  C_47
REMARK   18  A    between atoms: C_41  and  C_47
REMARK                            x       y       z     vdW  Elec       q    Type
REMARK                         _______ _______ _______ _____ _____    ______ ____
ROOT
ATOM      1  C   UNL A   1     -25.133  -0.153  28.961  0.00  0.00    +0.079 C 
ENDROOT
BRANCH   1   2
ATOM      2  C   UNL A   1     -24.855  -1.012  30.143  0.00  0.00    +0.054 C 
BRANCH   2   3
ATOM      3  C   UNL A   1     -24.973  -2.505  29.788  0.00  0.00    -0.020 C 
ATOM      4  C   UNL A   1     -23.906  -3.173  29.146  0.00  0.00    -0.004 C 
ATOM      5  C   UNL A   1     -23.989  -4.549  28.853  0.00  0.00    -0.000 C 
ATOM      6  C   UNL A   1     -25.137  -5.280  29.205  0.00  0.00    -0.000 C 
ATOM      7  C   UNL A   1     -26.232  -4.611  29.784  0.00  0.00    -0.000 C 
ATOM      8  C   UNL A   1     -26.155  -3.232  30.065  0.00  0.00    -0.004 C 
ENDBRANCH   2   3
BRANCH   2   9
ATOM      9  C   UNL A   1     -25.387  -0.679  31.571  0.00  0.00    +0.078 C 
ATOM     10  C   UNL A   1     -25.189   0.773  32.028  0.00  0.00    +0.019 C 
ATOM     11  C   UNL A   1     -25.336   0.684  33.544  0.00  0.00    +0.020 C 
ATOM     12  C   UNL A   1     -24.829  -0.715  33.905  0.00  0.00    +0.089 C 
ATOM     13  N   UNL A   1     -24.758  -1.481  32.646  0.00  0.00    -0.219 NA
ENDBRANCH   2   9
ENDBRANCH   1   2
BRANCH   1  14
ATOM     14  C   UNL A   1     -26.470   0.510  28.814  0.00  0.00    +0.026 C 
BRANCH  14  15
ATOM     15  C   UNL A   1     -27.456   0.759  29.806  0.00  0.00    +0.068 C 
BRANCH  15  17
ATOM     16  O   UNL A   1     -29.515   0.069  29.418  0.00  0.00    -0.294 OA
ATOM     17  C   UNL A   1     -28.771   0.869  29.882  0.00  0.00    +0.169 C 
BRANCH  17  18
ATOM     18  C   UNL A   1     -29.346   2.081  30.602  0.00  0.00    +0.133 C 
ATOM     19  C   UNL A   1     -30.076   2.777  29.534  0.00  0.00    +0.030 C 
BRANCH  18  22
ATOM     20  O   UNL A   1     -30.699   3.555  31.884  0.00  0.00    -0.275 OA
ATOM     21  C   UNL A   1     -27.172   5.046  30.376  0.00  0.00    +0.011 C 
ATOM     22  N   UNL A   1     -28.746   2.903  31.511  0.00  0.00    -0.275 N 
ATOM     23  C   UNL A   1     -27.332   3.115  31.921  0.00  0.00    +0.094 C 
ATOM     24  C   UNL A   1     -29.401   4.039  31.400  0.00  0.00    +0.226 C 
ATOM     25  C   UNL A   1     -26.580   4.336  31.542  0.00  0.00    +0.022 C 
ATOM     26  C   UNL A   1     -28.736   4.910  30.204  0.00  0.00    +0.085 C 
ENDBRANCH  18  22
ENDBRANCH  17  18
ENDBRANCH  15  17
ENDBRANCH  14  15
ENDBRANCH   1  14
BRANCH   1  27
ATOM     27  N   UNL A   1     -24.189  -0.087  28.195  0.00  0.00    -0.219 NA
BRANCH  27  28
ATOM     28  C   UNL A   1     -22.887   0.470  28.204  0.00  0.00    +0.091 C 
BRANCH  28  29
ATOM     29  C   UNL A   1     -22.963   1.787  27.386  0.00  0.00    +0.051 C 
BRANCH  29  30
ATOM     30  C   UNL A   1     -21.458   2.131  27.108  0.00  0.00    +0.183 C 
ATOM     31  O   UNL A   1     -20.652   1.574  28.196  0.00  0.00    -0.220 OA
ENDBRANCH  29  30
BRANCH  29  32
ATOM     32  C   UNL A   1     -24.282   1.633  26.512  0.00  0.00    +0.012 C 
BRANCH  32  33
ATOM     33  C   UNL A   1     -25.688   1.614  26.461  0.00  0.00    +0.070 C 
ATOM     34  C   UNL A   1     -26.250   2.920  26.395  0.00  0.00    +0.055 C 
ATOM     35  C   UNL A   1     -27.438   3.091  25.645  0.00  0.00    +0.102 C 
ATOM     36  N   UNL A   1     -28.075   2.089  25.003  0.00  0.00    -0.212 NA
ATOM     37  C   UNL A   1     -27.543   0.849  25.079  0.00  0.00    +0.234 C 
ATOM     38  C   UNL A   1     -26.354   0.576  25.777  0.00  0.00    +0.240 C 
ATOM     39  F   UNL A   1     -25.860  -0.681  25.795  0.00  0.00    -0.227 F 
BRANCH  34  40
ATOM     40  C   UNL A   1     -25.642   4.093  27.123  0.00  0.00    +0.262 C 
ATOM     41  N   UNL A   1     -25.614   5.252  26.449  0.00  0.00    -0.200 NA
ATOM     42  C   UNL A   1     -25.026   6.479  26.963  0.00  0.00    +0.139 C 
ATOM     43  O   UNL A   1     -25.143   3.966  28.243  0.00  0.00    -0.269 OA
ENDBRANCH  34  40
BRANCH  37  44
ATOM     44  O   UNL A   1     -28.193  -0.208  24.477  0.00  0.00    -0.459 OA
BRANCH  44  45
ATOM     45  C   UNL A   1     -29.460   0.005  23.866  0.00  0.00    +0.242 C 
BRANCH  45  46
ATOM     46  C   UNL A   1     -30.065  -1.377  23.573  0.00  0.00    +0.229 C 
ATOM     47  O   UNL A   1     -30.729  -1.878  24.721  0.00  0.00    -0.216 OA
ENDBRANCH  45  46
ENDBRANCH  44  45
ENDBRANCH  37  44
ENDBRANCH  32  33
ENDBRANCH  29  32
ENDBRANCH  28  29
ENDBRANCH  27  28
ENDBRANCH   1  27
TORSDOF 18
