REMARK  Name = outputs/IAG933/test6/raw/output_6129_IAG933_linker_design_.xyz
REMARK  16 active torsions:
REMARK  status: ('A' for Active; 'I' for Inactive)
REMARK    1  A    between atoms: C_1  and  C_2
REMARK    2  A    between atoms: C_1  and  C_8
REMARK    3  A    between atoms: C_1  and  C_35
REMARK    4  A    between atoms: C_13  and  C_40
REMARK    5  A    between atoms: C_14  and  C_15
REMARK    6  A    between atoms: C_21  and  O_22
REMARK    7  A    between atoms: O_22  and  C_23
REMARK    8  A    between atoms: C_23  and  C_24
REMARK    9  A    between atoms: C_28  and  C_37
REMARK   10  A    between atoms: C_30  and  N_39
REMARK   11  A    between atoms: C_30  and  C_40
REMARK   12  A    between atoms: C_34  and  C_41
REMARK   13  A    between atoms: C_35  and  C_37
REMARK   14  A    between atoms: C_35  and  N_39
REMARK   15  A    between atoms: C_36  and  C_41
REMARK   16  A    between atoms: C_40  and  C_42
REMARK                            x       y       z     vdW  Elec       q    Type
REMARK                         _______ _______ _______ _____ _____    ______ ____
ROOT
ATOM      1  C   UNL A   1     -25.968  -0.237  29.393  0.00  0.00    +0.083 C 
ENDROOT
BRANCH   1   2
ATOM      2  C   UNL A   1     -24.855  -1.012  30.143  0.00  0.00    +0.055 C 
BRANCH   2   3
ATOM      3  C   UNL A   1     -24.973  -2.505  29.788  0.00  0.00    -0.020 C 
ATOM      4  C   UNL A   1     -23.906  -3.173  29.146  0.00  0.00    -0.004 C 
ATOM      5  C   UNL A   1     -23.989  -4.549  28.853  0.00  0.00    -0.000 C 
ATOM      6  C   UNL A   1     -25.137  -5.280  29.205  0.00  0.00    -0.000 C 
ATOM      7  C   UNL A   1     -26.232  -4.611  29.784  0.00  0.00    -0.000 C 
ATOM      8  C   UNL A   1     -26.155  -3.232  30.065  0.00  0.00    -0.004 C 
ENDBRANCH   2   3
BRANCH   2   9
ATOM      9  C   UNL A   1     -25.387  -0.679  31.571  0.00  0.00    +0.078 C 
ATOM     10  C   UNL A   1     -25.189   0.773  32.028  0.00  0.00    +0.019 C 
ATOM     11  C   UNL A   1     -25.336   0.684  33.544  0.00  0.00    +0.020 C 
ATOM     12  C   UNL A   1     -24.829  -0.715  33.905  0.00  0.00    +0.089 C 
ATOM     13  N   UNL A   1     -24.758  -1.481  32.646  0.00  0.00    -0.219 NA
ENDBRANCH   2   9
ENDBRANCH   1   2
BRANCH   1  14
ATOM     14  C   UNL A   1     -27.432  -0.463  29.912  0.00  0.00    +0.044 C 
BRANCH  14  15
ATOM     15  C   UNL A   1     -28.609   0.133  29.260  0.00  0.00    -0.021 C 
ATOM     16  C   UNL A   1     -29.950   2.015  28.562  0.00  0.00    -0.001 C 
ATOM     17  C   UNL A   1     -28.848   1.525  29.262  0.00  0.00    -0.004 C 
ATOM     18  C   UNL A   1     -30.613  -0.345  28.037  0.00  0.00    -0.020 C 
ATOM     19  C   UNL A   1     -29.456  -0.771  28.611  0.00  0.00    -0.008 C 
ATOM     20  C   UNL A   1     -30.776   1.083  27.919  0.00  0.00    -0.004 C 
BRANCH  18  21
ATOM     21  C   UNL A   1     -31.673  -1.526  27.805  0.00  0.00    +0.059 C 
BRANCH  21  23
ATOM     22  C   UNL A   1     -31.849  -4.200  27.536  0.00  0.00    +0.036 C 
ATOM     23  C   UNL A   1     -31.137  -2.963  28.123  0.00  0.00    +0.156 C 
ATOM     24  O   UNL A   1     -30.542  -3.343  29.352  0.00  0.00    -0.223 OA
ENDBRANCH  21  23
ENDBRANCH  18  21
ENDBRANCH  14  15
ENDBRANCH   1  14
BRANCH   1  25
ATOM     25  N   UNL A   1     -25.597   1.097  29.031  0.00  0.00    -0.218 NA
BRANCH  25  26
ATOM     26  C   UNL A   1     -24.500   1.450  28.449  0.00  0.00    +0.094 C 
BRANCH  26  27
ATOM     27  C   UNL A   1     -24.333   1.403  27.207  0.00  0.00    +0.057 C 
BRANCH  27  28
ATOM     28  C   UNL A   1     -25.688   1.614  26.461  0.00  0.00    +0.018 C 
ATOM     29  C   UNL A   1     -26.250   2.920  26.395  0.00  0.00    +0.073 C 
ATOM     30  C   UNL A   1     -27.438   3.091  25.645  0.00  0.00    +0.106 C 
ATOM     31  N   UNL A   1     -28.075   2.089  25.003  0.00  0.00    -0.208 NA
ATOM     32  C   UNL A   1     -27.543   0.849  25.079  0.00  0.00    +0.253 C 
ATOM     33  C   UNL A   1     -26.354   0.576  25.777  0.00  0.00    +0.189 C 
ATOM     34  F   UNL A   1     -25.860  -0.681  25.795  0.00  0.00    -0.200 F 
BRANCH  29  35
ATOM     35  C   UNL A   1     -25.642   4.093  27.123  0.00  0.00    +0.266 C 
ATOM     36  N   UNL A   1     -25.614   5.252  26.449  0.00  0.00    -0.200 NA
ATOM     37  C   UNL A   1     -25.026   6.479  26.963  0.00  0.00    +0.139 C 
ATOM     38  O   UNL A   1     -25.143   3.966  28.243  0.00  0.00    -0.268 OA
ENDBRANCH  29  35
BRANCH  32  39
ATOM     39  O   UNL A   1     -28.193  -0.208  24.477  0.00  0.00    -0.456 OA
BRANCH  39  40
ATOM     40  C   UNL A   1     -29.460   0.005  23.866  0.00  0.00    +0.243 C 
BRANCH  40  41
ATOM     41  C   UNL A   1     -30.065  -1.377  23.573  0.00  0.00    +0.229 C 
ATOM     42  O   UNL A   1     -30.729  -1.878  24.721  0.00  0.00    -0.216 OA
ENDBRANCH  40  41
ENDBRANCH  39  40
ENDBRANCH  32  39
ENDBRANCH  27  28
BRANCH  27  44
ATOM     43 CL   UNL A   1     -21.552   1.727  27.819  0.00  0.00    -0.115 Cl
ATOM     44  C   UNL A   1     -22.833   1.147  26.696  0.00  0.00    +0.085 C 
ATOM     45  C   UNL A   1     -22.736   2.068  25.420  0.00  0.00    +0.018 C 
ENDBRANCH  27  44
ENDBRANCH  26  27
ENDBRANCH  25  26
ENDBRANCH   1  25
TORSDOF 16
