MODEL 612
MODEL 1
REMARK VINA RESULT:    -6.347      0.000      0.000
REMARK INTER + INTRA:          -7.962
REMARK INTER:                  -7.460
REMARK INTRA:                  -0.502
REMARK UNBOUND:                -0.502
REMARK  Name = No_612-gen_results/8p0m/2024-11-27-11-27-31/
REMARK  3 active torsions:
REMARK  status: ('A' for Active; 'I' for Inactive)
REMARK    1  A    between atoms: C_3  and  C_7
REMARK    2  A    between atoms: C_6  and  C_13
REMARK    3  A    between atoms: N_14  and  C_16
REMARK                            x       y       z     vdW  Elec       q    Type
REMARK                         _______ _______ _______ _____ _____    ______ ____
ROOT
ATOM      1  C   UNL A   1     -10.446   0.605  36.207  0.00  0.00    +0.005 A 
ATOM      2  C   UNL A   1      -9.387   0.022  36.204  0.00  0.00    +0.000 A 
ATOM      3  C   UNL A   1      -8.390   0.239  35.253  0.00  0.00    +0.000 A 
ATOM      4  C   UNL A   1      -8.641   1.167  34.167  0.00  0.00    +0.000 A 
ATOM      5  C   UNL A   1      -9.901   1.803  34.232  0.00  0.00    +0.005 A 
ATOM      6  C   UNL A   1     -10.778   1.528  35.164  0.00  0.00    +0.055 A 
ENDROOT
BRANCH   3   7
ATOM      7  C   UNL A   1      -7.064  -0.429  35.193  0.00  0.00    +0.000 A 
ATOM      8  C   UNL A   1      -5.965   0.188  35.545  0.00  0.00    +0.000 A 
ATOM      9  C   UNL A   1      -4.688  -0.452  35.415  0.00  0.00    +0.000 A 
ATOM     10  C   UNL A   1      -4.519  -1.649  34.796  0.00  0.00    +0.000 A 
ATOM     11  C   UNL A   1      -6.917  -1.709  34.526  0.00  0.00    +0.000 A 
ATOM     12  C   UNL A   1      -5.636  -2.295  34.345  0.00  0.00    +0.000 A 
ENDBRANCH   3   7
BRANCH   6  13
ATOM     13  C   UNL A   1     -12.106   2.206  35.086  0.00  0.00    +0.269 C 
ATOM     14  N   UNL A   1     -12.655   2.656  36.109  0.00  0.00    -0.174 NA
ATOM     15  O   UNL A   1     -12.707   2.266  33.959  0.00  0.00    -0.268 OA
BRANCH  14  16
ATOM     16  C   UNL A   1     -13.947   3.367  36.103  0.00  0.00    +0.084 C 
ATOM     17  C   UNL A   1     -14.927   3.073  36.392  0.00  0.00    -0.008 C 
ATOM     18  C   UNL A   1     -16.178   3.843  36.356  0.00  0.00    +0.032 C 
ENDBRANCH  14  16
ENDBRANCH   6  13
TORSDOF 3
ENDMDL
ENDMDL
