REMARK  Name = outputs/IAG933/test6/raw/output_6134_IAG933_linker_design_.xyz
REMARK  9 active torsions:
REMARK  status: ('A' for Active; 'I' for Inactive)
REMARK    1  A    between atoms: C_1  and  C_2
REMARK    2  A    between atoms: C_1  and  C_8
REMARK    3  A    between atoms: C_1  and  N_37
REMARK    4  A    between atoms: C_13  and  C_36
REMARK    5  A    between atoms: C_14  and  C_15
REMARK    6  A    between atoms: C_21  and  O_22
REMARK    7  A    between atoms: O_22  and  C_23
REMARK    8  A    between atoms: C_23  and  C_24
REMARK    9  A    between atoms: C_42  and  O_43
REMARK                            x       y       z     vdW  Elec       q    Type
REMARK                         _______ _______ _______ _____ _____    ______ ____
ROOT
ATOM      1  O   UNL A   1     -20.706  -0.440  28.398  0.00  0.00    -0.189 OA
ATOM      2  O   UNL A   1     -24.688  -0.735  27.200  0.00  0.00    -0.204 OA
ATOM      3  O   UNL A   1     -23.146   1.999  29.911  0.00  0.00    -0.216 OA
ATOM      4  O   UNL A   1     -21.949   0.069  30.778  0.00  0.00    -0.202 OA
ATOM      5  C   UNL A   1     -22.208   1.701  27.686  0.00  0.00    +0.130 C 
ATOM      6  F   UNL A   1     -23.556   2.712  25.369  0.00  0.00    -0.234 F 
ATOM      7  C   UNL A   1     -24.654   0.389  28.242  0.00  0.00    +0.222 C 
ATOM      8  C   UNL A   1     -22.706  -0.039  29.723  0.00  0.00    +0.248 C 
ATOM      9  C   UNL A   1     -24.513   1.129  26.970  0.00  0.00    +0.106 C 
ATOM     10  N   UNL A   1     -24.042  -0.205  29.468  0.00  0.00    -0.217 NA
ATOM     11  C   UNL A   1     -22.612   1.335  29.094  0.00  0.00    +0.228 C 
ATOM     12  C   UNL A   1     -23.246   1.930  26.388  0.00  0.00    +0.199 C 
ATOM     13  O   UNL A   1     -21.005   2.411  25.778  0.00  0.00    -0.220 OA
ATOM     14  C   UNL A   1     -21.940   1.782  26.593  0.00  0.00    +0.192 C 
ATOM     15  C   UNL A   1     -20.973   0.799  28.395  0.00  0.00    +0.289 C 
ENDROOT
BRANCH   9  16
ATOM     16  C   UNL A   1     -25.688   1.614  26.461  0.00  0.00    +0.022 C 
ATOM     17  C   UNL A   1     -26.250   2.920  26.395  0.00  0.00    +0.073 C 
ATOM     18  C   UNL A   1     -27.438   3.091  25.645  0.00  0.00    +0.106 C 
ATOM     19  N   UNL A   1     -28.075   2.089  25.003  0.00  0.00    -0.208 NA
ATOM     20  C   UNL A   1     -27.543   0.849  25.079  0.00  0.00    +0.253 C 
ATOM     21  C   UNL A   1     -26.354   0.576  25.777  0.00  0.00    +0.189 C 
ATOM     22  F   UNL A   1     -25.860  -0.681  25.795  0.00  0.00    -0.200 F 
BRANCH  17  23
ATOM     23  C   UNL A   1     -25.642   4.093  27.123  0.00  0.00    +0.266 C 
ATOM     24  N   UNL A   1     -25.614   5.252  26.449  0.00  0.00    -0.200 NA
ATOM     25  C   UNL A   1     -25.026   6.479  26.963  0.00  0.00    +0.139 C 
ATOM     26  O   UNL A   1     -25.143   3.966  28.243  0.00  0.00    -0.268 OA
ENDBRANCH  17  23
BRANCH  20  27
ATOM     27  O   UNL A   1     -28.193  -0.208  24.477  0.00  0.00    -0.456 OA
BRANCH  27  28
ATOM     28  C   UNL A   1     -29.460   0.005  23.866  0.00  0.00    +0.243 C 
BRANCH  28  29
ATOM     29  C   UNL A   1     -30.065  -1.377  23.573  0.00  0.00    +0.229 C 
ATOM     30  O   UNL A   1     -30.729  -1.878  24.721  0.00  0.00    -0.216 OA
ENDBRANCH  28  29
ENDBRANCH  27  28
ENDBRANCH  20  27
ENDBRANCH   9  16
BRANCH  15  31
ATOM     31  O   UNL A   1     -19.743   1.409  28.172  0.00  0.00    -0.151 OA
ATOM     32  F   UNL A   1     -19.626   2.701  28.070  0.00  0.00    -0.044 F 
ENDBRANCH  15  31
BRANCH  10  33
ATOM     33  C   UNL A   1     -24.855  -1.012  30.143  0.00  0.00    +0.100 C 
BRANCH  33  34
ATOM     34  C   UNL A   1     -24.973  -2.505  29.788  0.00  0.00    -0.006 C 
ATOM     35  C   UNL A   1     -23.906  -3.173  29.146  0.00  0.00    -0.003 C 
ATOM     36  C   UNL A   1     -23.989  -4.549  28.853  0.00  0.00    -0.000 C 
ATOM     37  C   UNL A   1     -25.137  -5.280  29.205  0.00  0.00    -0.000 C 
ATOM     38  C   UNL A   1     -26.232  -4.611  29.784  0.00  0.00    -0.000 C 
ATOM     39  C   UNL A   1     -26.155  -3.232  30.065  0.00  0.00    -0.003 C 
ENDBRANCH  33  34
BRANCH  33  40
ATOM     40  C   UNL A   1     -25.387  -0.679  31.571  0.00  0.00    +0.092 C 
ATOM     41  C   UNL A   1     -25.189   0.773  32.028  0.00  0.00    +0.021 C 
ATOM     42  C   UNL A   1     -25.336   0.684  33.544  0.00  0.00    +0.020 C 
ATOM     43  C   UNL A   1     -24.829  -0.715  33.905  0.00  0.00    +0.089 C 
ATOM     44  N   UNL A   1     -24.758  -1.481  32.646  0.00  0.00    -0.218 NA
ENDBRANCH  33  40
ENDBRANCH  10  33
TORSDOF 9
