REMARK  Name = outputs/IAG933/test6/raw/output_6136_IAG933_linker_design_.xyz
REMARK  5 active torsions:
REMARK  status: ('A' for Active; 'I' for Inactive)
REMARK    1  A    between atoms: C_1  and  C_2
REMARK    2  A    between atoms: C_1  and  C_8
REMARK    3  A    between atoms: C_1  and  C_33
REMARK    4  A    between atoms: C_14  and  C_15
REMARK    5  A    between atoms: O_28  and  C_41
REMARK                            x       y       z     vdW  Elec       q    Type
REMARK                         _______ _______ _______ _____ _____    ______ ____
ROOT
ATOM      1  C   UNL A   1     -25.688   1.614  26.461  0.00  0.00    +0.147 C 
ATOM      2  C   UNL A   1     -26.250   2.920  26.395  0.00  0.00    +0.064 C 
ATOM      3  C   UNL A   1     -27.438   3.091  25.645  0.00  0.00    +0.103 C 
ATOM      4  N   UNL A   1     -28.075   2.089  25.003  0.00  0.00    -0.212 NA
ATOM      5  C   UNL A   1     -27.543   0.849  25.079  0.00  0.00    +0.235 C 
ATOM      6  O   UNL A   1     -28.193  -0.208  24.477  0.00  0.00    -0.459 OA
ATOM      7  C   UNL A   1     -29.460   0.005  23.866  0.00  0.00    +0.239 C 
ATOM      8  C   UNL A   1     -30.065  -1.377  23.573  0.00  0.00    +0.190 C 
ATOM      9  O   UNL A   1     -30.729  -1.878  24.721  0.00  0.00    -0.345 OA
ATOM     10  C   UNL A   1     -26.354   0.576  25.777  0.00  0.00    +0.249 C 
ATOM     11  F   UNL A   1     -25.860  -0.681  25.795  0.00  0.00    -0.226 F 
ATOM     12  C   UNL A   1     -32.635   2.815  30.545  0.00  0.00    +0.012 C 
ATOM     13  C   UNL A   1     -31.286  -0.260  26.709  0.00  0.00    +0.007 C 
ATOM     14  C   UNL A   1     -31.684  -1.217  25.502  0.00  0.00    +0.169 C 
ATOM     15  C   UNL A   1     -21.683   1.443  27.896  0.00  0.00    +0.095 C 
ATOM     16  C   UNL A   1     -25.422  -0.136  28.973  0.00  0.00    +0.145 C 
ATOM     17  O   UNL A   1     -23.400   1.821  25.934  0.00  0.00    -0.274 OA
ATOM     18  C   UNL A   1     -22.906   0.840  28.641  0.00  0.00    +0.232 C 
ATOM     19  C   UNL A   1     -29.781   0.031  28.535  0.00  0.00    -0.015 C 
ATOM     20  C   UNL A   1     -26.829   0.377  29.409  0.00  0.00    +0.174 C 
ATOM     21  C   UNL A   1     -30.648   1.283  30.588  0.00  0.00    -0.000 C 
ATOM     22  C   UNL A   1     -31.607   2.124  31.149  0.00  0.00    -0.001 C 
ATOM     23  C   UNL A   1     -33.664   3.840  31.444  0.00  0.00    +0.034 C 
ATOM     24  C   UNL A   1     -32.792   2.373  29.070  0.00  0.00    +0.135 C 
ATOM     25  C   UNL A   1     -28.319  -0.396  29.210  0.00  0.00    +0.092 C 
ATOM     26  C   UNL A   1     -31.926   1.268  28.506  0.00  0.00    +0.033 C 
ATOM     27  N   UNL A   1     -24.340   0.629  28.162  0.00  0.00    -0.224 N 
ATOM     28  C   UNL A   1     -30.005  -0.459  27.336  0.00  0.00    -0.006 C 
ATOM     29  O   UNL A   1     -26.850   1.510  29.815  0.00  0.00    -0.294 OA
ATOM     30  C   UNL A   1     -32.187   0.650  27.267  0.00  0.00    +0.001 C 
ATOM     31  O   UNL A   1     -22.532  -0.005  29.591  0.00  0.00    -0.274 OA
ATOM     32  C   UNL A   1     -30.753   0.835  29.233  0.00  0.00    -0.001 C 
ATOM     33  C   UNL A   1     -24.395   1.327  26.812  0.00  0.00    +0.239 C 
ENDROOT
BRANCH   2  34
ATOM     34  C   UNL A   1     -25.642   4.093  27.123  0.00  0.00    +0.263 C 
ATOM     35  N   UNL A   1     -25.614   5.252  26.449  0.00  0.00    -0.200 NA
ATOM     36  C   UNL A   1     -25.026   6.479  26.963  0.00  0.00    +0.139 C 
ATOM     37  O   UNL A   1     -25.143   3.966  28.243  0.00  0.00    -0.269 OA
ENDBRANCH   2  34
BRANCH  24  38
ATOM     38  O   UNL A   1     -33.730   3.032  28.345  0.00  0.00    -0.472 OA
ATOM     39  C   UNL A   1     -34.983   3.615  28.770  0.00  0.00    +0.253 C 
ENDBRANCH  24  38
BRANCH  16  40
ATOM     40  C   UNL A   1     -24.855  -1.012  30.143  0.00  0.00    +0.064 C 
BRANCH  40  41
ATOM     41  C   UNL A   1     -24.973  -2.505  29.788  0.00  0.00    -0.019 C 
ATOM     42  C   UNL A   1     -23.906  -3.173  29.146  0.00  0.00    -0.004 C 
ATOM     43  C   UNL A   1     -23.989  -4.549  28.853  0.00  0.00    -0.000 C 
ATOM     44  C   UNL A   1     -25.137  -5.280  29.205  0.00  0.00    -0.000 C 
ATOM     45  C   UNL A   1     -26.232  -4.611  29.784  0.00  0.00    -0.000 C 
ATOM     46  C   UNL A   1     -26.155  -3.232  30.065  0.00  0.00    -0.004 C 
ENDBRANCH  40  41
BRANCH  40  47
ATOM     47  C   UNL A   1     -25.387  -0.679  31.571  0.00  0.00    +0.079 C 
ATOM     48  C   UNL A   1     -25.189   0.773  32.028  0.00  0.00    +0.019 C 
ATOM     49  C   UNL A   1     -25.336   0.684  33.544  0.00  0.00    +0.020 C 
ATOM     50  C   UNL A   1     -24.829  -0.715  33.905  0.00  0.00    +0.089 C 
ATOM     51  N   UNL A   1     -24.758  -1.481  32.646  0.00  0.00    -0.219 NA
ENDBRANCH  40  47
ENDBRANCH  16  40
TORSDOF 5
