MODEL 613
MODEL 1
REMARK VINA RESULT:    -6.401      0.000      0.000
REMARK INTER + INTRA:          -9.472
REMARK INTER:                  -8.646
REMARK INTRA:                  -0.826
REMARK UNBOUND:                -0.826
REMARK  Name = No_613-gen_results/8p0m/2024-11-27-11-27-31/
REMARK  6 active torsions:
REMARK  status: ('A' for Active; 'I' for Inactive)
REMARK    1  A    between atoms: C_2  and  C_3
REMARK    2  A    between atoms: C_2  and  C_9
REMARK    3  A    between atoms: C_9  and  C_10
REMARK    4  A    between atoms: C_10  and  C_11
REMARK    5  A    between atoms: C_12  and  C_13
REMARK    6  A    between atoms: C_14  and  C_15
REMARK                            x       y       z     vdW  Elec       q    Type
REMARK                         _______ _______ _______ _____ _____    ______ ____
ROOT
ATOM      1 CL   UNL A   1     -25.510  -0.250  29.096  0.00  0.00    -0.110 Cl
ATOM      2  C   UNL A   1     -24.625  -1.117  29.663  0.00  0.00    +0.102 C 
ENDROOT
BRANCH   2   3
ATOM      3  C   UNL A   1     -24.746  -2.457  29.464  0.00  0.00    -0.007 A 
ATOM      4  C   UNL A   1     -25.964  -3.163  29.885  0.00  0.00    -0.003 A 
ATOM      5  C   UNL A   1     -26.173  -4.512  29.735  0.00  0.00    -0.000 A 
ATOM      6  C   UNL A   1     -25.187  -5.298  29.051  0.00  0.00    -0.000 A 
ATOM      7  C   UNL A   1     -24.021  -4.651  28.560  0.00  0.00    -0.000 A 
ATOM      8  C   UNL A   1     -23.884  -3.320  28.753  0.00  0.00    -0.003 A 
ENDBRANCH   2   3
BRANCH   2   9
ATOM      9  C   UNL A   1     -23.476  -0.718  30.418  0.00  0.00    +0.025 C 
BRANCH   9  10
ATOM     10  C   UNL A   1     -22.284  -0.690  29.756  0.00  0.00    +0.028 C 
BRANCH  10  11
ATOM     11  C   UNL A   1     -22.082  -0.129  28.547  0.00  0.00    -0.026 C 
ATOM     12  C   UNL A   1     -22.384   1.205  28.293  0.00  0.00    -0.005 C 
BRANCH  12  13
ATOM     13  C   UNL A   1     -22.122   1.992  27.206  0.00  0.00    -0.000 C 
ATOM     14  C   UNL A   1     -23.020   2.037  26.117  0.00  0.00    -0.000 C 
BRANCH  14  15
ATOM     15  C   UNL A   1     -24.273   1.522  26.264  0.00  0.00    -0.000 C 
ATOM     16  C   UNL A   1     -24.816   0.542  25.396  0.00  0.00    -0.000 C 
ENDBRANCH  14  15
ENDBRANCH  12  13
ENDBRANCH  10  11
ENDBRANCH   9  10
ENDBRANCH   2   9
TORSDOF 6
ENDMDL
ENDMDL
