REMARK  Name = No_614-gen_results/8p0m/2024-11-27-11-27-31/
REMARK  2 active torsions:
REMARK  status: ('A' for Active; 'I' for Inactive)
REMARK    1  A    between atoms: C_5  and  C_6
REMARK    2  A    between atoms: C_11  and  C_21
REMARK                            x       y       z     vdW  Elec       q    Type
REMARK                         _______ _______ _______ _____ _____    ______ ____
ROOT
ATOM      1  C   UNL A   1     -28.016  -0.814  28.878  0.00  0.00    +0.067 A 
ATOM      2  C   UNL A   1     -28.469  -0.785  29.829  0.00  0.00    +0.016 A 
ATOM      3  C   UNL A   1     -28.196   0.348  28.055  0.00  0.00    -0.006 A 
ATOM      4  C   UNL A   1     -29.019   1.350  28.378  0.00  0.00    +0.001 A 
ATOM      5  C   UNL A   1     -29.625   1.268  29.601  0.00  0.00    +0.071 A 
ATOM      6  C   UNL A   1     -29.340   0.148  30.409  0.00  0.00    +0.005 A 
ATOM      7  C   UNL A   1     -27.400   0.321  26.688  0.00  0.00    +0.039 C 
ATOM      8  C   UNL A   1     -25.954   0.368  26.719  0.00  0.00    +0.029 C 
ATOM      9  C   UNL A   1     -25.221  -0.164  27.752  0.00  0.00    -0.007 A 
ATOM     10  C   UNL A   1     -23.823  -0.011  27.863  0.00  0.00    -0.003 A 
ATOM     11  C   UNL A   1     -23.089  -0.534  28.994  0.00  0.00    -0.000 A 
ATOM     12  C   UNL A   1     -23.693  -1.620  29.659  0.00  0.00    +0.001 A 
ATOM     13  C   UNL A   1     -25.012  -1.979  29.437  0.00  0.00    +0.016 A 
ATOM     14  C   UNL A   1     -25.682  -1.292  28.511  0.00  0.00    +0.067 A 
ATOM     15  N   UNL A   1     -27.071  -1.216  28.759  0.00  0.00    -0.213 NA
ATOM     16  C   UNL A   1     -25.293   1.011  25.619  0.00  0.00    +0.005 C 
ENDROOT
BRANCH   5  17
ATOM     17  C   UNL A   1     -30.524   2.315  30.065  0.00  0.00    +0.419 C 
ATOM     18  F   UNL A   1     -30.259   2.723  31.172  0.00  0.00    -0.166 F 
ATOM     19  F   UNL A   1     -31.796   1.786  30.078  0.00  0.00    -0.166 F 
ATOM     20  F   UNL A   1     -30.516   3.311  29.121  0.00  0.00    -0.166 F 
ENDBRANCH   5  17
BRANCH   7  21
ATOM     21  C   UNL A   1     -28.142   0.480  25.541  0.00  0.00    +0.072 C 
ATOM     22 BR   UNL A   1     -28.080   1.223  24.680  0.00  0.00    -0.080 Br
ENDBRANCH   7  21
TORSDOF 2
