REMARK  Name = outputs/IAG933/test6/raw/output_6140_IAG933_linker_design_.xyz
REMARK  20 active torsions:
REMARK  status: ('A' for Active; 'I' for Inactive)
REMARK    1  A    between atoms: C_1  and  C_2
REMARK    2  A    between atoms: C_1  and  C_8
REMARK    3  A    between atoms: C_9  and  N_33
REMARK    4  A    between atoms: C_13  and  C_37
REMARK    5  A    between atoms: C_14  and  C_15
REMARK    6  A    between atoms: C_15  and  O_18
REMARK    7  A    between atoms: O_18  and  C_50
REMARK    8  A    between atoms: C_21  and  O_22
REMARK    9  A    between atoms: O_22  and  C_23
REMARK   10  A    between atoms: C_23  and  C_24
REMARK   11  A    between atoms: C_29  and  C_35
REMARK   12  A    between atoms: N_30  and  C_47
REMARK   13  A    between atoms: C_32  and  O_36
REMARK   14  A    between atoms: C_32  and  C_48
REMARK   15  A    between atoms: C_35  and  C_53
REMARK   16  A    between atoms: C_37  and  N_39
REMARK   17  A    between atoms: N_39  and  C_58
REMARK   18  A    between atoms: C_47  and  C_52
REMARK   19  A    between atoms: C_48  and  C_52
REMARK   20  A    between atoms: C_52  and  C_55
REMARK                            x       y       z     vdW  Elec       q    Type
REMARK                         _______ _______ _______ _____ _____    ______ ____
ROOT
ATOM      1  C   UNL A   1     -25.225   2.592  30.492  0.00  0.00    +0.156 C 
ATOM      2  C   UNL A   1     -26.822   4.718  30.257  0.00  0.00    +0.019 C 
ATOM      3  N   UNL A   1     -26.230   1.926  31.449  0.00  0.00    -0.300 N 
ATOM      4  C   UNL A   1     -27.560   2.762  31.788  0.00  0.00    +0.061 C 
ATOM      5  C   UNL A   1     -25.478   3.927  29.734  0.00  0.00    +0.141 C 
ATOM      6  C   UNL A   1     -27.879   3.994  31.157  0.00  0.00    +0.015 C 
ENDROOT
BRANCH   3   8
ATOM      7  C   UNL A   1     -25.387  -0.679  31.571  0.00  0.00    +0.095 C 
ATOM      8  C   UNL A   1     -25.189   0.773  32.028  0.00  0.00    +0.091 C 
ATOM      9  C   UNL A   1     -25.336   0.684  33.544  0.00  0.00    +0.040 C 
ATOM     10  C   UNL A   1     -24.829  -0.715  33.905  0.00  0.00    +0.090 C 
ATOM     11  N   UNL A   1     -24.758  -1.481  32.646  0.00  0.00    -0.217 NA
BRANCH   7  12
ATOM     12  C   UNL A   1     -24.855  -1.012  30.143  0.00  0.00    +0.045 C 
BRANCH  12  13
ATOM     13  C   UNL A   1     -24.973  -2.505  29.788  0.00  0.00    -0.021 C 
ATOM     14  C   UNL A   1     -23.906  -3.173  29.146  0.00  0.00    -0.004 C 
ATOM     15  C   UNL A   1     -23.989  -4.549  28.853  0.00  0.00    -0.000 C 
ATOM     16  C   UNL A   1     -25.137  -5.280  29.205  0.00  0.00    -0.000 C 
ATOM     17  C   UNL A   1     -26.232  -4.611  29.784  0.00  0.00    -0.000 C 
ATOM     18  C   UNL A   1     -26.155  -3.232  30.065  0.00  0.00    -0.004 C 
ENDBRANCH  12  13
ENDBRANCH   7  12
ENDBRANCH   3   8
BRANCH   2  20
ATOM     19  C   UNL A   1     -27.493   7.225  30.615  0.00  0.00    +0.014 C 
ATOM     20  C   UNL A   1     -26.410   6.360  30.228  0.00  0.00    +0.095 C 
BRANCH  20  24
ATOM     21  C   UNL A   1     -25.652   5.908  32.542  0.00  0.00    -0.028 C 
ATOM     22  O   UNL A   1     -24.367   7.535  31.355  0.00  0.00    -0.282 OA
ATOM     23  O   UNL A   1     -26.715   4.448  33.877  0.00  0.00    -0.283 OA
ATOM     24  C   UNL A   1     -25.215   6.503  31.231  0.00  0.00    +0.214 C 
ATOM     25  C   UNL A   1     -26.459   5.615  33.581  0.00  0.00    +0.211 C 
BRANCH  25  26
ATOM     26  C   UNL A   1     -26.396   6.674  34.410  0.00  0.00    +0.094 C 
BRANCH  26  28
ATOM     27  C   UNL A   1     -25.029   6.692  36.475  0.00  0.00    +0.003 C 
ATOM     28  C   UNL A   1     -25.087   6.629  35.005  0.00  0.00    +0.037 C 
BRANCH  28  29
ATOM     29  C   UNL A   1     -23.680   6.408  34.339  0.00  0.00    +0.116 C 
ATOM     30  C   UNL A   1     -22.867   5.388  33.449  0.00  0.00    +0.032 C 
BRANCH  29  31
ATOM     31  O   UNL A   1     -23.038   7.709  34.061  0.00  0.00    -0.354 OA
ATOM     32  C   UNL A   1     -21.657   7.736  33.618  0.00  0.00    +0.174 C 
ENDBRANCH  29  31
ENDBRANCH  28  29
ENDBRANCH  26  28
BRANCH  26  33
ATOM     33  C   UNL A   1     -27.455   7.650  34.529  0.00  0.00    +0.125 C 
BRANCH  33  34
ATOM     34  N   UNL A   1     -28.040   8.383  33.420  0.00  0.00    -0.185 NA
ATOM     35  O   UNL A   1     -29.535   8.927  31.863  0.00  0.00    -0.247 OA
ATOM     36  C   UNL A   1     -28.676   9.277  32.746  0.00  0.00    +0.359 C 
ATOM     37  N   UNL A   1     -28.450  10.621  33.039  0.00  0.00    -0.068 NA
ENDBRANCH  33  34
ENDBRANCH  26  33
ENDBRANCH  25  26
ENDBRANCH  20  24
ENDBRANCH   2  20
BRANCH   5  38
ATOM     38  O   UNL A   1     -25.143   3.966  28.243  0.00  0.00    -0.440 OA
BRANCH  38  39
ATOM     39  C   UNL A   1     -25.642   4.093  27.123  0.00  0.00    +0.223 C 
ATOM     40  N   UNL A   1     -25.614   5.252  26.449  0.00  0.00    -0.236 NA
ATOM     41  C   UNL A   1     -25.026   6.479  26.963  0.00  0.00    +0.155 C 
BRANCH  39  43
ATOM     42  C   UNL A   1     -25.688   1.614  26.461  0.00  0.00    +0.091 C 
ATOM     43  C   UNL A   1     -26.250   2.920  26.395  0.00  0.00    +0.055 C 
ATOM     44  C   UNL A   1     -27.438   3.091  25.645  0.00  0.00    +0.102 C 
ATOM     45  N   UNL A   1     -28.075   2.089  25.003  0.00  0.00    -0.212 NA
ATOM     46  C   UNL A   1     -27.543   0.849  25.079  0.00  0.00    +0.234 C 
ATOM     47  C   UNL A   1     -26.354   0.576  25.777  0.00  0.00    +0.242 C 
ATOM     48  F   UNL A   1     -25.860  -0.681  25.795  0.00  0.00    -0.227 F 
BRANCH  46  49
ATOM     49  O   UNL A   1     -28.193  -0.208  24.477  0.00  0.00    -0.459 OA
BRANCH  49  50
ATOM     50  C   UNL A   1     -29.460   0.005  23.866  0.00  0.00    +0.242 C 
BRANCH  50  51
ATOM     51  C   UNL A   1     -30.065  -1.377  23.573  0.00  0.00    +0.229 C 
ATOM     52  O   UNL A   1     -30.729  -1.878  24.721  0.00  0.00    -0.216 OA
ENDBRANCH  50  51
ENDBRANCH  49  50
ENDBRANCH  46  49
BRANCH  42  53
ATOM     53  C   UNL A   1     -24.734   1.306  27.586  0.00  0.00    +0.119 C 
BRANCH  53  54
ATOM     54  N   UNL A   1     -23.381   1.969  27.446  0.00  0.00    -0.181 N 
ATOM     55  C   UNL A   1     -22.303   1.218  27.947  0.00  0.00    +0.458 C 
ATOM     56  O   UNL A   1     -21.144   1.622  27.940  0.00  0.00    -0.221 OA
ATOM     57  O   UNL A   1     -22.444   0.095  28.415  0.00  0.00    -0.221 OA
BRANCH  54  59
ATOM     58  C   UNL A   1     -22.686   2.673  25.028  0.00  0.00    +0.008 C 
ATOM     59  C   UNL A   1     -23.041   2.356  26.155  0.00  0.00    +0.023 C 
ENDBRANCH  54  59
ENDBRANCH  53  54
ENDBRANCH  42  53
ENDBRANCH  39  43
ENDBRANCH  38  39
ENDBRANCH   5  38
TORSDOF 20
