REMARK  Name = outputs/IAG933/test6/raw/output_6146_IAG933_linker_design_.xyz
REMARK  7 active torsions:
REMARK  status: ('A' for Active; 'I' for Inactive)
REMARK    1  A    between atoms: C_1  and  C_2
REMARK    2  A    between atoms: C_1  and  C_8
REMARK    3  A    between atoms: C_1  and  O_36
REMARK    4  A    between atoms: C_14  and  C_15
REMARK    5  A    between atoms: C_30  and  C_35
REMARK    6  A    between atoms: C_30  and  N_42
REMARK    7  A    between atoms: C_35  and  O_36
REMARK                            x       y       z     vdW  Elec       q    Type
REMARK                         _______ _______ _______ _____ _____    ______ ____
ROOT
ATOM      1  C   UNL A   1     -25.688   1.614  26.461  0.00  0.00    +0.129 C 
ATOM      2  C   UNL A   1     -26.250   2.920  26.395  0.00  0.00    +0.070 C 
ATOM      3  C   UNL A   1     -27.438   3.091  25.645  0.00  0.00    +0.103 C 
ATOM      4  N   UNL A   1     -28.075   2.089  25.003  0.00  0.00    -0.212 NA
ATOM      5  C   UNL A   1     -27.543   0.849  25.079  0.00  0.00    +0.235 C 
ATOM      6  O   UNL A   1     -28.193  -0.208  24.477  0.00  0.00    -0.459 OA
ATOM      7  C   UNL A   1     -29.460   0.005  23.866  0.00  0.00    +0.239 C 
ATOM      8  C   UNL A   1     -30.065  -1.377  23.573  0.00  0.00    +0.189 C 
ATOM      9  O   UNL A   1     -30.729  -1.878  24.721  0.00  0.00    -0.350 OA
ATOM     10  C   UNL A   1     -26.354   0.576  25.777  0.00  0.00    +0.255 C 
ATOM     11  F   UNL A   1     -25.860  -0.681  25.795  0.00  0.00    -0.225 F 
ATOM     12  N   UNL A   1     -28.800   1.163  29.381  0.00  0.00    -0.259 NA
ATOM     13  C   UNL A   1     -28.740   2.954  31.250  0.00  0.00    +0.019 C 
ATOM     14  C   UNL A   1     -31.455  -0.679  27.337  0.00  0.00    +0.005 C 
ATOM     15  C   UNL A   1     -29.876   3.007  29.059  0.00  0.00    +0.106 C 
ATOM     16  N   UNL A   1     -30.085   2.169  27.961  0.00  0.00    -0.202 NA
ATOM     17  C   UNL A   1     -32.615  -0.632  28.314  0.00  0.00    +0.000 C 
ATOM     18  C   UNL A   1     -30.119  -0.273  27.925  0.00  0.00    +0.034 C 
ATOM     19  C   UNL A   1     -26.205   0.621  28.439  0.00  0.00    +0.091 C 
ATOM     20  C   UNL A   1     -31.747  -2.186  26.944  0.00  0.00    +0.032 C 
ATOM     21  N   UNL A   1     -25.005   1.090  27.511  0.00  0.00    -0.256 NA
ATOM     22  C   UNL A   1     -27.431   0.568  29.481  0.00  0.00    +0.091 C 
ATOM     23  C   UNL A   1     -29.483   2.155  30.125  0.00  0.00    +0.076 C 
ATOM     24  C   UNL A   1     -31.930  -2.328  25.379  0.00  0.00    +0.142 C 
ATOM     25  C   UNL A   1     -29.708   0.957  28.395  0.00  0.00    +0.132 C 
ENDROOT
BRANCH   2  26
ATOM     26  C   UNL A   1     -25.642   4.093  27.123  0.00  0.00    +0.264 C 
ATOM     27  N   UNL A   1     -25.614   5.252  26.449  0.00  0.00    -0.200 NA
ATOM     28  C   UNL A   1     -25.026   6.479  26.963  0.00  0.00    +0.139 C 
ATOM     29  O   UNL A   1     -25.143   3.966  28.243  0.00  0.00    -0.269 OA
ENDBRANCH   2  26
BRANCH  21  30
ATOM     30  C   UNL A   1     -23.453   1.013  26.977  0.00  0.00    +0.143 C 
ATOM     31 BR   UNL A   1     -22.640   2.051  25.723  0.00  0.00    -0.061 Br
BRANCH  30  32
ATOM     32  C   UNL A   1     -22.733   0.612  28.384  0.00  0.00    +0.141 C 
ATOM     33  C   UNL A   1     -21.227   0.869  28.050  0.00  0.00    +0.035 C 
BRANCH  32  34
ATOM     34  O   UNL A   1     -23.722  -0.396  29.309  0.00  0.00    -0.351 OA
BRANCH  34  35
ATOM     35  C   UNL A   1     -24.855  -1.012  30.143  0.00  0.00    +0.153 C 
BRANCH  35  36
ATOM     36  C   UNL A   1     -24.973  -2.505  29.788  0.00  0.00    +0.006 C 
ATOM     37  C   UNL A   1     -23.906  -3.173  29.146  0.00  0.00    -0.002 C 
ATOM     38  C   UNL A   1     -23.989  -4.549  28.853  0.00  0.00    -0.000 C 
ATOM     39  C   UNL A   1     -25.137  -5.280  29.205  0.00  0.00    -0.000 C 
ATOM     40  C   UNL A   1     -26.232  -4.611  29.784  0.00  0.00    -0.000 C 
ATOM     41  C   UNL A   1     -26.155  -3.232  30.065  0.00  0.00    -0.002 C 
ENDBRANCH  35  36
BRANCH  35  42
ATOM     42  C   UNL A   1     -25.387  -0.679  31.571  0.00  0.00    +0.104 C 
ATOM     43  C   UNL A   1     -25.189   0.773  32.028  0.00  0.00    +0.022 C 
ATOM     44  C   UNL A   1     -25.336   0.684  33.544  0.00  0.00    +0.020 C 
ATOM     45  C   UNL A   1     -24.829  -0.715  33.905  0.00  0.00    +0.089 C 
ATOM     46  N   UNL A   1     -24.758  -1.481  32.646  0.00  0.00    -0.217 NA
ENDBRANCH  35  42
ENDBRANCH  34  35
ENDBRANCH  32  34
ENDBRANCH  30  32
ENDBRANCH  21  30
TORSDOF 7
