MODEL 614
MODEL 1
REMARK VINA RESULT:    -7.016      0.000      0.000
REMARK INTER + INTRA:          -8.399
REMARK INTER:                  -7.836
REMARK INTRA:                  -0.563
REMARK UNBOUND:                -0.563
REMARK  Name = No_614-gen_results/8p0m/2024-11-27-11-27-31/
REMARK  2 active torsions:
REMARK  status: ('A' for Active; 'I' for Inactive)
REMARK    1  A    between atoms: C_5  and  C_6
REMARK    2  A    between atoms: C_11  and  C_21
REMARK                            x       y       z     vdW  Elec       q    Type
REMARK                         _______ _______ _______ _____ _____    ______ ____
ROOT
ATOM      1  C   UNL A   1     -23.314   2.138  26.386  0.00  0.00    +0.067 A 
ATOM      2  C   UNL A   1     -22.350   2.168  26.809  0.00  0.00    +0.016 A 
ATOM      3  C   UNL A   1     -24.206   1.143  26.909  0.00  0.00    -0.006 A 
ATOM      4  C   UNL A   1     -23.816   0.190  27.761  0.00  0.00    +0.001 A 
ATOM      5  C   UNL A   1     -22.523   0.261  28.201  0.00  0.00    +0.071 A 
ATOM      6  C   UNL A   1     -21.717   1.316  27.725  0.00  0.00    +0.005 A 
ATOM      7  C   UNL A   1     -25.680   1.209  26.339  0.00  0.00    +0.039 C 
ATOM      8  C   UNL A   1     -26.506   2.352  26.666  0.00  0.00    +0.029 C 
ATOM      9  C   UNL A   1     -25.981   3.603  26.882  0.00  0.00    -0.007 A 
ATOM     10  C   UNL A   1     -26.753   4.696  27.329  0.00  0.00    -0.003 A 
ATOM     11  C   UNL A   1     -26.158   5.985  27.603  0.00  0.00    -0.000 A 
ATOM     12  C   UNL A   1     -24.958   6.257  26.916  0.00  0.00    +0.001 A 
ATOM     13  C   UNL A   1     -24.247   5.270  26.254  0.00  0.00    +0.016 A 
ATOM     14  C   UNL A   1     -24.779   4.047  26.234  0.00  0.00    +0.067 A 
ATOM     15  N   UNL A   1     -23.817   3.014  26.164  0.00  0.00    -0.213 NA
ATOM     16  C   UNL A   1     -27.921   2.133  26.770  0.00  0.00    +0.005 C 
ENDROOT
BRANCH   5  17
ATOM     17  C   UNL A   1     -21.998  -0.712  29.149  0.00  0.00    +0.419 C 
ATOM     18  F   UNL A   1     -22.028  -0.332  30.296  0.00  0.00    -0.166 F 
ATOM     19  F   UNL A   1     -20.690  -0.961  28.796  0.00  0.00    -0.166 F 
ATOM     20  F   UNL A   1     -22.691  -1.881  28.962  0.00  0.00    -0.166 F 
ENDBRANCH   5  17
BRANCH   7  21
ATOM     21  C   UNL A   1     -26.164   0.065  25.750  0.00  0.00    +0.072 C 
ATOM     22 BR   UNL A   1     -25.991  -0.408  24.729  0.00  0.00    -0.080 Br
ENDBRANCH   7  21
TORSDOF 2
ENDMDL
ENDMDL
