REMARK  Name = outputs/IAG933/test6/raw/output_6150_IAG933_linker_design_.xyz
REMARK  11 active torsions:
REMARK  status: ('A' for Active; 'I' for Inactive)
REMARK    1  A    between atoms: C_1  and  C_2
REMARK    2  A    between atoms: C_1  and  C_8
REMARK    3  A    between atoms: C_1  and  C_33
REMARK    4  A    between atoms: C_13  and  C_35
REMARK    5  A    between atoms: C_14  and  C_15
REMARK    6  A    between atoms: C_21  and  O_22
REMARK    7  A    between atoms: O_22  and  C_23
REMARK    8  A    between atoms: C_23  and  C_24
REMARK    9  A    between atoms: C_33  and  N_36
REMARK   10  A    between atoms: C_33  and  C_41
REMARK   11  A    between atoms: C_34  and  N_36
REMARK                            x       y       z     vdW  Elec       q    Type
REMARK                         _______ _______ _______ _____ _____    ______ ____
ROOT
ATOM      1  C   UNL A   1     -21.852   1.888  26.745  0.00  0.00    +0.015 C 
ATOM      2  O   UNL A   1     -22.871   0.625  29.932  0.00  0.00    -0.285 OA
ATOM      3  C   UNL A   1     -24.214   0.962  28.196  0.00  0.00    +0.102 C 
ATOM      4  C   UNL A   1     -24.274   1.412  26.833  0.00  0.00    +0.013 C 
ATOM      5  C   UNL A   1     -23.073   1.625  26.145  0.00  0.00    +0.056 C 
ATOM      6  C   UNL A   1     -21.754   1.612  28.113  0.00  0.00    +0.044 C 
ATOM      7  C   UNL A   1     -22.915   1.127  28.750  0.00  0.00    +0.210 C 
ATOM      8 CL   UNL A   1     -23.143   1.421  24.390  0.00  0.00    -0.083 Cl
ENDROOT
BRANCH   4   9
ATOM      9  C   UNL A   1     -25.688   1.614  26.461  0.00  0.00    +0.095 C 
ATOM     10  C   UNL A   1     -26.250   2.920  26.395  0.00  0.00    +0.059 C 
ATOM     11  C   UNL A   1     -27.438   3.091  25.645  0.00  0.00    +0.102 C 
ATOM     12  N   UNL A   1     -28.075   2.089  25.003  0.00  0.00    -0.212 NA
ATOM     13  C   UNL A   1     -27.543   0.849  25.079  0.00  0.00    +0.234 C 
ATOM     14  C   UNL A   1     -26.354   0.576  25.777  0.00  0.00    +0.244 C 
ATOM     15  F   UNL A   1     -25.860  -0.681  25.795  0.00  0.00    -0.227 F 
BRANCH  10  16
ATOM     16  C   UNL A   1     -25.642   4.093  27.123  0.00  0.00    +0.263 C 
ATOM     17  N   UNL A   1     -25.614   5.252  26.449  0.00  0.00    -0.200 NA
ATOM     18  C   UNL A   1     -25.026   6.479  26.963  0.00  0.00    +0.139 C 
ATOM     19  O   UNL A   1     -25.143   3.966  28.243  0.00  0.00    -0.269 OA
ENDBRANCH  10  16
BRANCH  13  20
ATOM     20  O   UNL A   1     -28.193  -0.208  24.477  0.00  0.00    -0.459 OA
BRANCH  20  21
ATOM     21  C   UNL A   1     -29.460   0.005  23.866  0.00  0.00    +0.242 C 
BRANCH  21  22
ATOM     22  C   UNL A   1     -30.065  -1.377  23.573  0.00  0.00    +0.229 C 
ATOM     23  O   UNL A   1     -30.729  -1.878  24.721  0.00  0.00    -0.216 OA
ENDBRANCH  21  22
ENDBRANCH  20  21
ENDBRANCH  13  20
ENDBRANCH   4   9
BRANCH   3  24
ATOM     24  N   UNL A   1     -25.288   0.870  28.823  0.00  0.00    -0.227 NA
BRANCH  24  25
ATOM     25  C   UNL A   1     -25.860  -0.345  29.186  0.00  0.00    +0.174 C 
BRANCH  25  32
ATOM     26  C   UNL A   1     -29.071   1.358  28.011  0.00  0.00    +0.093 C 
ATOM     27  C   UNL A   1     -28.748   3.491  29.115  0.00  0.00    +0.004 C 
ATOM     28  O   UNL A   1     -27.873  -0.985  28.064  0.00  0.00    -0.273 OA
ATOM     29  C   UNL A   1     -28.553   2.873  30.518  0.00  0.00    +0.022 C 
ATOM     30  C   UNL A   1     -28.758   1.385  30.462  0.00  0.00    +0.093 C 
ATOM     31  C   UNL A   1     -31.129   2.390  29.053  0.00  0.00    +0.002 C 
ATOM     32  C   UNL A   1     -27.384  -0.235  28.788  0.00  0.00    +0.246 C 
ATOM     33  N   UNL A   1     -28.447   0.961  29.197  0.00  0.00    -0.278 N 
ATOM     34  C   UNL A   1     -29.798   2.625  28.333  0.00  0.00    +0.020 C 
ENDBRANCH  25  32
BRANCH  25  35
ATOM     35  C   UNL A   1     -24.855  -1.012  30.143  0.00  0.00    +0.067 C 
BRANCH  35  36
ATOM     36  C   UNL A   1     -24.973  -2.505  29.788  0.00  0.00    -0.019 C 
ATOM     37  C   UNL A   1     -23.906  -3.173  29.146  0.00  0.00    -0.004 C 
ATOM     38  C   UNL A   1     -23.989  -4.549  28.853  0.00  0.00    -0.000 C 
ATOM     39  C   UNL A   1     -25.137  -5.280  29.205  0.00  0.00    -0.000 C 
ATOM     40  C   UNL A   1     -26.232  -4.611  29.784  0.00  0.00    -0.000 C 
ATOM     41  C   UNL A   1     -26.155  -3.232  30.065  0.00  0.00    -0.004 C 
ENDBRANCH  35  36
BRANCH  35  42
ATOM     42  C   UNL A   1     -25.387  -0.679  31.571  0.00  0.00    +0.079 C 
ATOM     43  C   UNL A   1     -25.189   0.773  32.028  0.00  0.00    +0.019 C 
ATOM     44  C   UNL A   1     -25.336   0.684  33.544  0.00  0.00    +0.020 C 
ATOM     45  C   UNL A   1     -24.829  -0.715  33.905  0.00  0.00    +0.089 C 
ATOM     46  N   UNL A   1     -24.758  -1.481  32.646  0.00  0.00    -0.219 NA
ENDBRANCH  35  42
ENDBRANCH  25  35
ENDBRANCH  24  25
ENDBRANCH   3  24
TORSDOF 11
