MODEL 615
MODEL 1
REMARK VINA RESULT:    -8.118      0.000      0.000
REMARK INTER + INTRA:          -9.489
REMARK INTER:                  -9.067
REMARK INTRA:                  -0.422
REMARK UNBOUND:                -0.422
REMARK  Name = No_615-gen_results/8p0m/2024-11-27-11-27-31/
REMARK  2 active torsions:
REMARK  status: ('A' for Active; 'I' for Inactive)
REMARK    1  A    between atoms: C_6  and  C_32
REMARK    2  A    between atoms: C_32  and  C_34
REMARK                            x       y       z     vdW  Elec       q    Type
REMARK                         _______ _______ _______ _____ _____    ______ ____
ROOT
ATOM      1  C   UNL A   1     -11.440   0.245  37.516  0.00  0.00    +0.004 A 
ATOM      2  C   UNL A   1     -10.671   0.093  38.221  0.00  0.00    +0.053 A 
ATOM      3  C   UNL A   1     -11.133   1.277  36.527  0.00  0.00    -0.000 A 
ATOM      4  C   UNL A   1     -10.257   1.099  35.682  0.00  0.00    -0.004 A 
ATOM      5  C   UNL A   1      -9.209  -0.135  37.682  0.00  0.00    +0.000 A 
ATOM      6  C   UNL A   1      -8.961   0.595  36.473  0.00  0.00    -0.022 A 
ATOM      7  C   UNL A   1     -10.765  -0.780  39.482  0.00  0.00    +0.249 C 
ATOM      8  N   UNL A   1     -11.415  -0.174  40.422  0.00  0.00    -0.276 N 
ATOM      9  C   UNL A   1     -12.271  -0.827  41.243  0.00  0.00    +0.094 C 
ATOM     10  O   UNL A   1     -10.338  -1.949  39.622  0.00  0.00    -0.270 OA
ATOM     11  C   UNL A   1     -13.416  -0.130  41.613  0.00  0.00    +0.031 C 
ATOM     12  C   UNL A   1     -13.542   1.195  41.252  0.00  0.00    +0.082 C 
ATOM     13  C   UNL A   1     -12.635   1.831  40.417  0.00  0.00    +0.031 C 
ATOM     14  C   UNL A   1     -11.436   1.213  40.275  0.00  0.00    +0.094 C 
ATOM     15  C   UNL A   1     -12.371   1.999  35.904  0.00  0.00    -0.000 A 
ATOM     16  C   UNL A   1     -13.169   2.631  36.472  0.00  0.00    -0.000 A 
ATOM     17  C   UNL A   1     -14.145   3.175  36.113  0.00  0.00    -0.000 A 
ATOM     18  C   UNL A   1     -14.597   2.984  34.751  0.00  0.00    -0.000 A 
ATOM     19  C   UNL A   1     -12.703   1.882  34.459  0.00  0.00    -0.000 A 
ATOM     20  C   UNL A   1     -13.763   2.324  33.951  0.00  0.00    -0.000 A 
ATOM     21  C   UNL A   1     -14.806   1.910  41.657  0.00  0.00    +0.245 C 
ATOM     22  O   UNL A   1     -15.731   1.498  42.181  0.00  0.00    -0.273 OA
ATOM     23  N   UNL A   1     -15.061   3.210  41.000  0.00  0.00    -0.178 NA
ATOM     24  C   UNL A   1     -16.231   3.957  41.262  0.00  0.00    +0.084 C 
ATOM     25  C   UNL A   1     -15.250   3.989  36.760  0.00  0.00    -0.000 C 
ATOM     26  C   UNL A   1     -14.698   5.075  37.487  0.00  0.00    -0.000 C 
ATOM     27  C   UNL A   1     -15.083   5.626  38.448  0.00  0.00    -0.004 C 
ATOM     28  C   UNL A   1     -16.245   5.238  39.198  0.00  0.00    -0.025 C 
ATOM     29  C   UNL A   1     -16.449   4.343  40.135  0.00  0.00    -0.009 C 
ATOM     30  C   UNL A   1     -17.613   3.382  39.452  0.00  0.00    +0.032 C 
ATOM     31  C   UNL A   1     -17.330   6.333  39.137  0.00  0.00    +0.031 C 
ENDROOT
BRANCH   6  32
ATOM     32  C   UNL A   1      -7.654   0.581  35.840  0.00  0.00    +0.022 C 
ATOM     33  C   UNL A   1      -6.615   0.744  36.424  0.00  0.00    +0.005 C 
BRANCH  32  34
ATOM     34  C   UNL A   1      -7.584  -0.322  34.658  0.00  0.00    +0.004 C 
ATOM     35  C   UNL A   1      -6.949  -1.463  34.563  0.00  0.00    +0.000 C 
ENDBRANCH  32  34
ENDBRANCH   6  32
TORSDOF 2
ENDMDL
ENDMDL
