REMARK  Name = outputs/IAG933/test6/raw/output_6167_IAG933_linker_design_.xyz
REMARK  19 active torsions:
REMARK  status: ('A' for Active; 'I' for Inactive)
REMARK    1  A    between atoms: C_1  and  C_2
REMARK    2  A    between atoms: C_1  and  C_8
REMARK    3  A    between atoms: C_1  and  N_29
REMARK    4  A    between atoms: C_13  and  C_37
REMARK    5  A    between atoms: C_14  and  C_15
REMARK    6  A    between atoms: C_21  and  O_22
REMARK    7  A    between atoms: O_22  and  C_23
REMARK    8  A    between atoms: C_23  and  C_24
REMARK    9  A    between atoms: N_29  and  C_30
REMARK   10  A    between atoms: N_29  and  C_41
REMARK   11  A    between atoms: C_30  and  O_31
REMARK   12  A    between atoms: O_31  and  C_44
REMARK   13  A    between atoms: C_33  and  C_38
REMARK   14  A    between atoms: C_34  and  C_36
REMARK   15  A    between atoms: C_34  and  C_39
REMARK   16  A    between atoms: C_34  and  C_44
REMARK   17  A    between atoms: C_37  and  C_41
REMARK   18  A    between atoms: C_37  and  C_42
REMARK   19  A    between atoms: C_38  and  C_39
REMARK                            x       y       z     vdW  Elec       q    Type
REMARK                         _______ _______ _______ _____ _____    ______ ____
ROOT
ATOM      1  N   UNL A   1     -25.208  -0.037  29.132  0.00  0.00    -0.243 NA
ENDROOT
BRANCH   1   2
ATOM      2  C   UNL A   1     -24.855  -1.012  30.143  0.00  0.00    +0.098 C 
BRANCH   2   3
ATOM      3  C   UNL A   1     -24.973  -2.505  29.788  0.00  0.00    -0.006 C 
ATOM      4  C   UNL A   1     -23.906  -3.173  29.146  0.00  0.00    -0.003 C 
ATOM      5  C   UNL A   1     -23.989  -4.549  28.853  0.00  0.00    -0.000 C 
ATOM      6  C   UNL A   1     -25.137  -5.280  29.205  0.00  0.00    -0.000 C 
ATOM      7  C   UNL A   1     -26.232  -4.611  29.784  0.00  0.00    -0.000 C 
ATOM      8  C   UNL A   1     -26.155  -3.232  30.065  0.00  0.00    -0.003 C 
ENDBRANCH   2   3
BRANCH   2   9
ATOM      9  C   UNL A   1     -25.387  -0.679  31.571  0.00  0.00    +0.092 C 
ATOM     10  C   UNL A   1     -25.189   0.773  32.028  0.00  0.00    +0.021 C 
ATOM     11  C   UNL A   1     -25.336   0.684  33.544  0.00  0.00    +0.020 C 
ATOM     12  C   UNL A   1     -24.829  -0.715  33.905  0.00  0.00    +0.089 C 
ATOM     13  N   UNL A   1     -24.758  -1.481  32.646  0.00  0.00    -0.218 NA
ENDBRANCH   2   9
ENDBRANCH   1   2
BRANCH   1  14
ATOM     14  C   UNL A   1     -24.500   0.714  28.455  0.00  0.00    +0.083 C 
BRANCH  14  15
ATOM     15  C   UNL A   1     -24.372   1.286  27.131  0.00  0.00    +0.064 C 
BRANCH  15  16
ATOM     16  C   UNL A   1     -25.688   1.614  26.461  0.00  0.00    +0.021 C 
ATOM     17  C   UNL A   1     -26.250   2.920  26.395  0.00  0.00    +0.073 C 
ATOM     18  C   UNL A   1     -27.438   3.091  25.645  0.00  0.00    +0.106 C 
ATOM     19  N   UNL A   1     -28.075   2.089  25.003  0.00  0.00    -0.208 NA
ATOM     20  C   UNL A   1     -27.543   0.849  25.079  0.00  0.00    +0.253 C 
ATOM     21  C   UNL A   1     -26.354   0.576  25.777  0.00  0.00    +0.190 C 
ATOM     22  F   UNL A   1     -25.860  -0.681  25.795  0.00  0.00    -0.200 F 
BRANCH  17  23
ATOM     23  C   UNL A   1     -25.642   4.093  27.123  0.00  0.00    +0.266 C 
ATOM     24  N   UNL A   1     -25.614   5.252  26.449  0.00  0.00    -0.200 NA
ATOM     25  C   UNL A   1     -25.026   6.479  26.963  0.00  0.00    +0.139 C 
ATOM     26  O   UNL A   1     -25.143   3.966  28.243  0.00  0.00    -0.268 OA
ENDBRANCH  17  23
BRANCH  20  27
ATOM     27  O   UNL A   1     -28.193  -0.208  24.477  0.00  0.00    -0.456 OA
BRANCH  27  28
ATOM     28  C   UNL A   1     -29.460   0.005  23.866  0.00  0.00    +0.243 C 
BRANCH  28  29
ATOM     29  C   UNL A   1     -30.065  -1.377  23.573  0.00  0.00    +0.229 C 
ATOM     30  O   UNL A   1     -30.729  -1.878  24.721  0.00  0.00    -0.216 OA
ENDBRANCH  28  29
ENDBRANCH  27  28
ENDBRANCH  20  27
ENDBRANCH  15  16
BRANCH  15  33
ATOM     31  C   UNL A   1     -21.851   1.827  26.690  0.00  0.00    +0.102 C 
ATOM     32  N   UNL A   1     -21.472   1.552  28.039  0.00  0.00    -0.127 NA
ATOM     33  C   UNL A   1     -23.176   1.708  26.341  0.00  0.00    -0.001 C 
ENDBRANCH  15  33
ENDBRANCH  14  15
ENDBRANCH   1  14
BRANCH   1  34
ATOM     34  C   UNL A   1     -26.658  -0.173  28.999  0.00  0.00    +0.220 C 
BRANCH  34  35
ATOM     35  O   UNL A   1     -27.519  -1.032  29.177  0.00  0.00    -0.337 OA
BRANCH  35  36
ATOM     36  C   UNL A   1     -28.629  -0.321  29.745  0.00  0.00    +0.155 C 
BRANCH  36  37
ATOM     37  C   UNL A   1     -29.901  -1.181  29.644  0.00  0.00    +0.133 C 
BRANCH  37  40
ATOM     38  O   UNL A   1     -31.252  -2.145  27.977  0.00  0.00    -0.246 OA
ATOM     39  O   UNL A   1     -30.604  -0.017  27.647  0.00  0.00    -0.246 OA
ATOM     40  C   UNL A   1     -30.673  -1.077  28.286  0.00  0.00    +0.367 C 
ENDBRANCH  37  40
BRANCH  37  41
ATOM     41  C   UNL A   1     -30.884  -0.834  30.790  0.00  0.00    +0.014 C 
BRANCH  41  42
ATOM     42  C   UNL A   1     -31.465   0.525  30.534  0.00  0.00    +0.001 C 
BRANCH  42  43
ATOM     43  C   UNL A   1     -32.767   0.782  30.489  0.00  0.00    +0.000 C 
ATOM     44  C   UNL A   1     -33.178   0.294  31.860  0.00  0.00    +0.000 C 
ENDBRANCH  42  43
ENDBRANCH  41  42
ENDBRANCH  37  41
ENDBRANCH  36  37
ENDBRANCH  35  36
ENDBRANCH  34  35
ENDBRANCH   1  34
TORSDOF 19
