MODEL 616
MODEL 1
REMARK VINA RESULT:    -4.752      0.000      0.000
REMARK INTER + INTRA:          -5.202
REMARK INTER:                  -5.030
REMARK INTRA:                  -0.172
REMARK UNBOUND:                -0.172
REMARK  Name = No_616-gen_results/8p0m/2024-11-27-11-27-31/
REMARK  1 active torsions:
REMARK  status: ('A' for Active; 'I' for Inactive)
REMARK    1  A    between atoms: C_3  and  C_7
REMARK                            x       y       z     vdW  Elec       q    Type
REMARK                         _______ _______ _______ _____ _____    ______ ____
ROOT
ATOM      1  C   UNL A   1     -26.021  -3.057  29.630  0.00  0.00    -0.000 A 
ATOM      2  C   UNL A   1     -26.225  -4.087  29.718  0.00  0.00    -0.000 A 
ATOM      3  C   UNL A   1     -24.805  -2.676  29.021  0.00  0.00    -0.000 A 
ATOM      4  C   UNL A   1     -23.894  -3.607  28.562  0.00  0.00    -0.000 A 
ATOM      5  C   UNL A   1     -25.438  -5.268  29.314  0.00  0.00    -0.000 A 
ATOM      6  C   UNL A   1     -24.264  -4.948  28.727  0.00  0.00    -0.000 A 
ENDROOT
BRANCH   3   7
ATOM      7  C   UNL A   1     -24.411  -1.243  28.801  0.00  0.00    -0.005 C 
ATOM      8  C   UNL A   1     -23.988  -0.512  29.931  0.00  0.00    -0.026 C 
ATOM      9  C   UNL A   1     -23.459  -1.181  31.074  0.00  0.00    +0.031 C 
ENDBRANCH   3   7
TORSDOF 1
ENDMDL
ENDMDL
