REMARK  Name = outputs/IAG933/test6/raw/output_6173_IAG933_linker_design_.xyz
REMARK  13 active torsions:
REMARK  status: ('A' for Active; 'I' for Inactive)
REMARK    1  A    between atoms: C_1  and  C_2
REMARK    2  A    between atoms: C_1  and  C_8
REMARK    3  A    between atoms: C_1  and  N_43
REMARK    4  A    between atoms: C_13  and  C_29
REMARK    5  A    between atoms: C_14  and  C_15
REMARK    6  A    between atoms: C_21  and  O_22
REMARK    7  A    between atoms: O_22  and  C_23
REMARK    8  A    between atoms: C_23  and  C_24
REMARK    9  A    between atoms: C_29  and  C_31
REMARK   10  A    between atoms: C_31  and  O_33
REMARK   11  A    between atoms: C_31  and  N_43
REMARK   12  A    between atoms: O_33  and  C_40
REMARK   13  A    between atoms: C_42  and  N_43
REMARK                            x       y       z     vdW  Elec       q    Type
REMARK                         _______ _______ _______ _____ _____    ______ ____
ROOT
ATOM      1  N   UNL A   1     -25.284  -0.091  29.011  0.00  0.00    -0.275 N 
ENDROOT
BRANCH   1  12
ATOM      2  C   UNL A   1     -27.990  -0.802  29.023  0.00  0.00    -0.088 C 
ATOM      3  C   UNL A   1     -31.414   1.196  32.509  0.00  0.00    +0.143 C 
ATOM      4  C   UNL A   1     -29.270  -0.805  29.643  0.00  0.00    +0.042 C 
ATOM      5  C   UNL A   1     -29.472  -1.458  30.865  0.00  0.00    +0.109 C 
ATOM      6  C   UNL A   1     -29.242  -2.953  31.144  0.00  0.00    +0.015 C 
ATOM      7  O   UNL A   1     -29.536  -0.780  33.171  0.00  0.00    -0.273 OA
ATOM      8  N   UNL A   1     -31.162   0.487  30.228  0.00  0.00    -0.174 NA
ATOM      9  N   UNL A   1     -30.864   0.253  31.567  0.00  0.00    -0.179 N 
ATOM     10  C   UNL A   1     -29.992  -0.692  32.014  0.00  0.00    +0.249 C 
ATOM     11  C   UNL A   1     -30.328   0.066  29.226  0.00  0.00    +0.122 C 
ATOM     12  C   UNL A   1     -26.614  -0.310  28.640  0.00  0.00    +0.106 C 
ENDBRANCH   1  12
BRANCH   1  13
ATOM     13  C   UNL A   1     -24.855  -1.012  30.143  0.00  0.00    +0.114 C 
BRANCH  13  14
ATOM     14  C   UNL A   1     -24.973  -2.505  29.788  0.00  0.00    -0.003 C 
ATOM     15  C   UNL A   1     -23.906  -3.173  29.146  0.00  0.00    -0.003 C 
ATOM     16  C   UNL A   1     -23.989  -4.549  28.853  0.00  0.00    -0.000 C 
ATOM     17  C   UNL A   1     -25.137  -5.280  29.205  0.00  0.00    -0.000 C 
ATOM     18  C   UNL A   1     -26.232  -4.611  29.784  0.00  0.00    -0.000 C 
ATOM     19  C   UNL A   1     -26.155  -3.232  30.065  0.00  0.00    -0.003 C 
ENDBRANCH  13  14
BRANCH  13  20
ATOM     20  C   UNL A   1     -25.387  -0.679  31.571  0.00  0.00    +0.095 C 
ATOM     21  C   UNL A   1     -25.189   0.773  32.028  0.00  0.00    +0.021 C 
ATOM     22  C   UNL A   1     -25.336   0.684  33.544  0.00  0.00    +0.020 C 
ATOM     23  C   UNL A   1     -24.829  -0.715  33.905  0.00  0.00    +0.089 C 
ATOM     24  N   UNL A   1     -24.758  -1.481  32.646  0.00  0.00    -0.217 NA
ENDBRANCH  13  20
ENDBRANCH   1  13
BRANCH   1  25
ATOM     25  C   UNL A   1     -24.188   0.524  28.353  0.00  0.00    +0.197 C 
BRANCH  25  26
ATOM     26  C   UNL A   1     -24.503   0.949  27.014  0.00  0.00    +0.080 C 
BRANCH  26  27
ATOM     27  C   UNL A   1     -25.688   1.614  26.461  0.00  0.00    +0.020 C 
ATOM     28  C   UNL A   1     -26.250   2.920  26.395  0.00  0.00    +0.073 C 
ATOM     29  C   UNL A   1     -27.438   3.091  25.645  0.00  0.00    +0.106 C 
ATOM     30  N   UNL A   1     -28.075   2.089  25.003  0.00  0.00    -0.208 NA
ATOM     31  C   UNL A   1     -27.543   0.849  25.079  0.00  0.00    +0.253 C 
ATOM     32  C   UNL A   1     -26.354   0.576  25.777  0.00  0.00    +0.189 C 
ATOM     33  F   UNL A   1     -25.860  -0.681  25.795  0.00  0.00    -0.200 F 
BRANCH  28  34
ATOM     34  C   UNL A   1     -25.642   4.093  27.123  0.00  0.00    +0.266 C 
ATOM     35  N   UNL A   1     -25.614   5.252  26.449  0.00  0.00    -0.200 NA
ATOM     36  C   UNL A   1     -25.026   6.479  26.963  0.00  0.00    +0.139 C 
ATOM     37  O   UNL A   1     -25.143   3.966  28.243  0.00  0.00    -0.268 OA
ENDBRANCH  28  34
BRANCH  31  38
ATOM     38  O   UNL A   1     -28.193  -0.208  24.477  0.00  0.00    -0.456 OA
BRANCH  38  39
ATOM     39  C   UNL A   1     -29.460   0.005  23.866  0.00  0.00    +0.243 C 
BRANCH  39  40
ATOM     40  C   UNL A   1     -30.065  -1.377  23.573  0.00  0.00    +0.229 C 
ATOM     41  O   UNL A   1     -30.729  -1.878  24.721  0.00  0.00    -0.216 OA
ENDBRANCH  39  40
ENDBRANCH  38  39
ENDBRANCH  31  38
ENDBRANCH  26  27
ENDBRANCH  25  26
BRANCH  25  42
ATOM     42  O   UNL A   1     -22.915   0.724  28.792  0.00  0.00    -0.337 OA
BRANCH  42  43
ATOM     43  C   UNL A   1     -22.076   1.684  27.887  0.00  0.00    +0.144 C 
ATOM     44  C   UNL A   1     -20.618   1.387  28.132  0.00  0.00    +0.035 C 
ENDBRANCH  42  43
ENDBRANCH  25  42
ENDBRANCH   1  25
TORSDOF 13
