MODEL 617
MODEL 1
REMARK VINA RESULT:    -7.409      0.000      0.000
REMARK INTER + INTRA:          -8.854
REMARK INTER:                  -8.275
REMARK INTRA:                  -0.579
REMARK UNBOUND:                -0.579
REMARK  Name = No_617-gen_results/8p0m/2024-11-27-11-27-31/
REMARK  2 active torsions:
REMARK  status: ('A' for Active; 'I' for Inactive)
REMARK    1  A    between atoms: C_3  and  C_7
REMARK    2  A    between atoms: C_6  and  C_12
REMARK                            x       y       z     vdW  Elec       q    Type
REMARK                         _______ _______ _______ _____ _____    ______ ____
ROOT
ATOM      1  C   UNL A   1     -23.673   1.334  29.832  0.00  0.00    +0.015 A 
ATOM      2  C   UNL A   1     -24.152   0.713  30.536  0.00  0.00    +0.058 A 
ATOM      3  C   UNL A   1     -23.448   0.812  28.539  0.00  0.00    +0.072 A 
ATOM      4  C   UNL A   1     -23.822  -0.472  28.194  0.00  0.00    +0.004 A 
ATOM      5  C   UNL A   1     -24.648  -0.673  30.427  0.00  0.00    +0.011 A 
ATOM      6  C   UNL A   1     -24.451  -1.212  29.204  0.00  0.00    +0.001 A 
ATOM      7 CL   UNL A   1     -24.574   1.393  32.183  0.00  0.00    -0.082 Cl
ENDROOT
BRANCH   6   8
ATOM      8  C   UNL A   1     -24.847  -2.638  28.893  0.00  0.00    +0.000 A 
ATOM      9  C   UNL A   1     -23.909  -3.449  28.569  0.00  0.00    +0.000 A 
ATOM     10  C   UNL A   1     -24.135  -4.836  28.548  0.00  0.00    +0.000 A 
ATOM     11  C   UNL A   1     -25.011  -5.309  29.146  0.00  0.00    +0.000 A 
ATOM     12  C   UNL A   1     -26.128  -4.506  29.665  0.00  0.00    +0.000 A 
ATOM     13  C   UNL A   1     -25.983  -3.123  29.638  0.00  0.00    +0.000 A 
ENDBRANCH   6   8
BRANCH   3  14
ATOM     14  C   UNL A   1     -22.821   1.606  27.428  0.00  0.00    +0.419 C 
ATOM     15  F   UNL A   1     -23.276   2.752  27.488  0.00  0.00    -0.166 F 
ATOM     16  F   UNL A   1     -23.256   1.096  26.249  0.00  0.00    -0.166 F 
ATOM     17  F   UNL A   1     -21.590   1.928  27.610  0.00  0.00    -0.166 F 
ENDBRANCH   3  14
TORSDOF 2
ENDMDL
ENDMDL
