REMARK  Name = outputs/IAG933/test6/raw/output_6180_IAG933_linker_design_.xyz
REMARK  16 active torsions:
REMARK  status: ('A' for Active; 'I' for Inactive)
REMARK    1  A    between atoms: C_1  and  C_2
REMARK    2  A    between atoms: C_1  and  C_8
REMARK    3  A    between atoms: C_1  and  C_28
REMARK    4  A    between atoms: C_13  and  C_30
REMARK    5  A    between atoms: C_14  and  C_15
REMARK    6  A    between atoms: C_21  and  O_22
REMARK    7  A    between atoms: O_22  and  C_23
REMARK    8  A    between atoms: C_23  and  C_24
REMARK    9  A    between atoms: C_32  and  C_34
REMARK   10  A    between atoms: C_32  and  C_46
REMARK   11  A    between atoms: C_34  and  O_42
REMARK   12  A    between atoms: N_35  and  C_43
REMARK   13  A    between atoms: O_39  and  C_40
REMARK   14  A    between atoms: O_39  and  N_44
REMARK   15  A    between atoms: O_42  and  C_45
REMARK   16  A    between atoms: C_43  and  C_45
REMARK                            x       y       z     vdW  Elec       q    Type
REMARK                         _______ _______ _______ _____ _____    ______ ____
ROOT
ATOM      1  C   UNL A   1     -24.016  -0.081  29.195  0.00  0.00    +0.046 C 
ATOM      2  C   UNL A   1     -24.309   1.222  26.876  0.00  0.00    +0.065 C 
ATOM      3  C   UNL A   1     -24.905   0.633  28.502  0.00  0.00    +0.079 C 
ATOM      4  C   UNL A   1     -23.242   1.928  26.886  0.00  0.00    +0.026 C 
ATOM      5  C   UNL A   1     -22.328   1.684  28.028  0.00  0.00    +0.081 C 
ATOM      6 CL   UNL A   1     -20.692   1.691  27.431  0.00  0.00    -0.115 Cl
ATOM      7  C   UNL A   1     -22.525   0.081  28.447  0.00  0.00    +0.022 C 
ATOM      8  N   UNL A   1     -26.055   0.359  28.942  0.00  0.00    -0.081 NA
ENDROOT
BRANCH   2   9
ATOM      9  C   UNL A   1     -25.688   1.614  26.461  0.00  0.00    +0.021 C 
ATOM     10  C   UNL A   1     -26.250   2.920  26.395  0.00  0.00    +0.073 C 
ATOM     11  C   UNL A   1     -27.438   3.091  25.645  0.00  0.00    +0.106 C 
ATOM     12  N   UNL A   1     -28.075   2.089  25.003  0.00  0.00    -0.208 NA
ATOM     13  C   UNL A   1     -27.543   0.849  25.079  0.00  0.00    +0.253 C 
ATOM     14  C   UNL A   1     -26.354   0.576  25.777  0.00  0.00    +0.190 C 
ATOM     15  F   UNL A   1     -25.860  -0.681  25.795  0.00  0.00    -0.200 F 
BRANCH  10  16
ATOM     16  C   UNL A   1     -25.642   4.093  27.123  0.00  0.00    +0.266 C 
ATOM     17  N   UNL A   1     -25.614   5.252  26.449  0.00  0.00    -0.200 NA
ATOM     18  C   UNL A   1     -25.026   6.479  26.963  0.00  0.00    +0.139 C 
ATOM     19  O   UNL A   1     -25.143   3.966  28.243  0.00  0.00    -0.268 OA
ENDBRANCH  10  16
BRANCH  13  20
ATOM     20  O   UNL A   1     -28.193  -0.208  24.477  0.00  0.00    -0.456 OA
BRANCH  20  21
ATOM     21  C   UNL A   1     -29.460   0.005  23.866  0.00  0.00    +0.243 C 
BRANCH  21  22
ATOM     22  C   UNL A   1     -30.065  -1.377  23.573  0.00  0.00    +0.229 C 
ATOM     23  O   UNL A   1     -30.729  -1.878  24.721  0.00  0.00    -0.216 OA
ENDBRANCH  21  22
ENDBRANCH  20  21
ENDBRANCH  13  20
ENDBRANCH   2   9
BRANCH   1  24
ATOM     24  C   UNL A   1     -24.855  -1.012  30.143  0.00  0.00    +0.044 C 
BRANCH  24  25
ATOM     25  C   UNL A   1     -24.973  -2.505  29.788  0.00  0.00    -0.021 C 
ATOM     26  C   UNL A   1     -23.906  -3.173  29.146  0.00  0.00    -0.004 C 
ATOM     27  C   UNL A   1     -23.989  -4.549  28.853  0.00  0.00    -0.000 C 
ATOM     28  C   UNL A   1     -25.137  -5.280  29.205  0.00  0.00    -0.000 C 
ATOM     29  C   UNL A   1     -26.232  -4.611  29.784  0.00  0.00    -0.000 C 
ATOM     30  C   UNL A   1     -26.155  -3.232  30.065  0.00  0.00    -0.004 C 
ENDBRANCH  24  25
BRANCH  24  31
ATOM     31  C   UNL A   1     -25.387  -0.679  31.571  0.00  0.00    +0.077 C 
ATOM     32  C   UNL A   1     -25.189   0.773  32.028  0.00  0.00    +0.019 C 
ATOM     33  C   UNL A   1     -25.336   0.684  33.544  0.00  0.00    +0.020 C 
ATOM     34  C   UNL A   1     -24.829  -0.715  33.905  0.00  0.00    +0.089 C 
ATOM     35  N   UNL A   1     -24.758  -1.481  32.646  0.00  0.00    -0.219 NA
ENDBRANCH  24  31
ENDBRANCH   1  24
BRANCH   8  36
ATOM     36  O   UNL A   1     -26.996  -0.649  28.729  0.00  0.00    -0.298 OA
BRANCH  36  39
ATOM     37  O   UNL A   1     -28.651   0.583  29.702  0.00  0.00    -0.222 OA
ATOM     38  N   UNL A   1     -29.037  -0.126  27.614  0.00  0.00    -0.164 NA
ATOM     39  C   UNL A   1     -28.229  -0.003  28.708  0.00  0.00    +0.446 C 
BRANCH  38  40
ATOM     40  C   UNL A   1     -30.495  -0.138  27.835  0.00  0.00    +0.151 C 
BRANCH  40  41
ATOM     41  C   UNL A   1     -30.963  -1.510  28.370  0.00  0.00    +0.166 C 
BRANCH  41  42
ATOM     42  O   UNL A   1     -31.406  -2.461  27.385  0.00  0.00    -0.352 OA
BRANCH  42  43
ATOM     43  C   UNL A   1     -32.023  -3.655  27.944  0.00  0.00    +0.142 C 
BRANCH  43  44
ATOM     44  C   UNL A   1     -31.337  -4.140  29.251  0.00  0.00    +0.032 C 
BRANCH  44  46
ATOM     45  C   UNL A   1     -33.461  -5.208  30.329  0.00  0.00    +0.000 C 
ATOM     46  C   UNL A   1     -32.000  -5.405  29.849  0.00  0.00    +0.003 C 
ENDBRANCH  44  46
ENDBRANCH  43  44
ENDBRANCH  42  43
ENDBRANCH  41  42
ENDBRANCH  40  41
ENDBRANCH  38  40
ENDBRANCH  36  39
ENDBRANCH   8  36
TORSDOF 16
