REMARK  Name = outputs/IAG933/test6/raw/output_6183_IAG933_linker_design_.xyz
REMARK  14 active torsions:
REMARK  status: ('A' for Active; 'I' for Inactive)
REMARK    1  A    between atoms: C_1  and  C_2
REMARK    2  A    between atoms: C_1  and  C_8
REMARK    3  A    between atoms: C_1  and  C_41
REMARK    4  A    between atoms: C_13  and  C_44
REMARK    5  A    between atoms: C_14  and  C_15
REMARK    6  A    between atoms: C_21  and  O_22
REMARK    7  A    between atoms: O_22  and  C_23
REMARK    8  A    between atoms: C_23  and  C_24
REMARK    9  A    between atoms: O_31  and  C_40
REMARK   10  A    between atoms: O_31  and  C_43
REMARK   11  A    between atoms: N_33  and  C_45
REMARK   12  A    between atoms: C_38  and  C_41
REMARK   13  A    between atoms: C_41  and  C_42
REMARK   14  A    between atoms: C_43  and  C_45
REMARK                            x       y       z     vdW  Elec       q    Type
REMARK                         _______ _______ _______ _____ _____    ______ ____
ROOT
ATOM      1  C   UNL A   1     -25.293   0.073  29.123  0.00  0.00    +0.082 C 
ENDROOT
BRANCH   1   5
ATOM      2  C   UNL A   1     -23.237   1.880  26.098  0.00  0.00    +0.004 C 
ATOM      3  C   UNL A   1     -21.909   1.480  28.247  0.00  0.00    +0.000 C 
ATOM      4  C   UNL A   1     -22.740   0.248  28.599  0.00  0.00    +0.001 C 
ATOM      5  C   UNL A   1     -24.142   0.182  27.959  0.00  0.00    +0.013 C 
ATOM      6  C   UNL A   1     -21.845   1.795  26.743  0.00  0.00    +0.000 C 
ATOM      7  C   UNL A   1     -24.362   1.436  27.079  0.00  0.00    +0.025 C 
BRANCH   7   8
ATOM      8  C   UNL A   1     -25.688   1.614  26.461  0.00  0.00    +0.016 C 
ATOM      9  C   UNL A   1     -26.250   2.920  26.395  0.00  0.00    +0.073 C 
ATOM     10  C   UNL A   1     -27.438   3.091  25.645  0.00  0.00    +0.106 C 
ATOM     11  N   UNL A   1     -28.075   2.089  25.003  0.00  0.00    -0.208 NA
ATOM     12  C   UNL A   1     -27.543   0.849  25.079  0.00  0.00    +0.253 C 
ATOM     13  C   UNL A   1     -26.354   0.576  25.777  0.00  0.00    +0.189 C 
ATOM     14  F   UNL A   1     -25.860  -0.681  25.795  0.00  0.00    -0.200 F 
BRANCH   9  15
ATOM     15  C   UNL A   1     -25.642   4.093  27.123  0.00  0.00    +0.266 C 
ATOM     16  N   UNL A   1     -25.614   5.252  26.449  0.00  0.00    -0.200 NA
ATOM     17  C   UNL A   1     -25.026   6.479  26.963  0.00  0.00    +0.139 C 
ATOM     18  O   UNL A   1     -25.143   3.966  28.243  0.00  0.00    -0.268 OA
ENDBRANCH   9  15
BRANCH  12  19
ATOM     19  O   UNL A   1     -28.193  -0.208  24.477  0.00  0.00    -0.456 OA
BRANCH  19  20
ATOM     20  C   UNL A   1     -29.460   0.005  23.866  0.00  0.00    +0.243 C 
BRANCH  20  21
ATOM     21  C   UNL A   1     -30.065  -1.377  23.573  0.00  0.00    +0.229 C 
ATOM     22  O   UNL A   1     -30.729  -1.878  24.721  0.00  0.00    -0.216 OA
ENDBRANCH  20  21
ENDBRANCH  19  20
ENDBRANCH  12  19
ENDBRANCH   7   8
ENDBRANCH   1   5
BRANCH   1  26
ATOM     23  C   UNL A   1     -29.559   0.573  29.421  0.00  0.00    +0.115 C 
ATOM     24  N   UNL A   1     -28.119   0.877  29.715  0.00  0.00    -0.268 N 
ATOM     25  O   UNL A   1     -27.428  -0.967  28.564  0.00  0.00    -0.275 OA
ATOM     26  C   UNL A   1     -26.979  -0.037  29.177  0.00  0.00    +0.226 C 
BRANCH  24  27
ATOM     27  C   UNL A   1     -28.358   1.471  31.040  0.00  0.00    +0.204 C 
BRANCH  27  29
ATOM     28  O   UNL A   1     -28.463   3.597  29.953  0.00  0.00    -0.248 OA
ATOM     29  C   UNL A   1     -29.075   2.775  30.671  0.00  0.00    +0.337 C 
BRANCH  29  30
ATOM     30  O   UNL A   1     -30.414   2.945  31.061  0.00  0.00    -0.451 OA
BRANCH  30  33
ATOM     31  C   UNL A   1     -31.825   4.768  30.416  0.00  0.00    +0.047 C 
ATOM     32  C   UNL A   1     -30.132   5.408  32.014  0.00  0.00    +0.047 C 
ATOM     33  C   UNL A   1     -30.975   4.192  31.556  0.00  0.00    +0.169 C 
ENDBRANCH  30  33
ENDBRANCH  29  30
ENDBRANCH  27  29
ENDBRANCH  24  27
ENDBRANCH   1  26
BRANCH   1  34
ATOM     34  C   UNL A   1     -24.855  -1.012  30.143  0.00  0.00    +0.047 C 
BRANCH  34  35
ATOM     35  C   UNL A   1     -24.973  -2.505  29.788  0.00  0.00    -0.021 C 
ATOM     36  C   UNL A   1     -23.906  -3.173  29.146  0.00  0.00    -0.004 C 
ATOM     37  C   UNL A   1     -23.989  -4.549  28.853  0.00  0.00    -0.000 C 
ATOM     38  C   UNL A   1     -25.137  -5.280  29.205  0.00  0.00    -0.000 C 
ATOM     39  C   UNL A   1     -26.232  -4.611  29.784  0.00  0.00    -0.000 C 
ATOM     40  C   UNL A   1     -26.155  -3.232  30.065  0.00  0.00    -0.004 C 
ENDBRANCH  34  35
BRANCH  34  41
ATOM     41  C   UNL A   1     -25.387  -0.679  31.571  0.00  0.00    +0.077 C 
ATOM     42  C   UNL A   1     -25.189   0.773  32.028  0.00  0.00    +0.019 C 
ATOM     43  C   UNL A   1     -25.336   0.684  33.544  0.00  0.00    +0.020 C 
ATOM     44  C   UNL A   1     -24.829  -0.715  33.905  0.00  0.00    +0.089 C 
ATOM     45  N   UNL A   1     -24.758  -1.481  32.646  0.00  0.00    -0.219 NA
ENDBRANCH  34  41
ENDBRANCH   1  34
TORSDOF 14
