REMARK  Name = outputs/IAG933/test6/raw/output_6184_IAG933_linker_design_.xyz
REMARK  10 active torsions:
REMARK  status: ('A' for Active; 'I' for Inactive)
REMARK    1  A    between atoms: C_1  and  C_2
REMARK    2  A    between atoms: C_1  and  C_8
REMARK    3  A    between atoms: C_1  and  N_32
REMARK    4  A    between atoms: C_13  and  N_33
REMARK    5  A    between atoms: C_14  and  C_15
REMARK    6  A    between atoms: C_21  and  O_22
REMARK    7  A    between atoms: O_22  and  C_23
REMARK    8  A    between atoms: C_23  and  C_24
REMARK    9  A    between atoms: C_29  and  N_32
REMARK   10  A    between atoms: N_33  and  C_34
REMARK                            x       y       z     vdW  Elec       q    Type
REMARK                         _______ _______ _______ _____ _____    ______ ____
ROOT
ATOM      1  S   UNL A   1     -22.246   0.041  29.355  0.00  0.00    -0.069 S 
ATOM      2  C   UNL A   1     -23.810   0.355  28.553  0.00  0.00    +0.110 C 
ATOM      3  C   UNL A   1     -21.350   1.002  28.367  0.00  0.00    +0.038 C 
ATOM      4  C   UNL A   1     -22.104   1.528  27.368  0.00  0.00    +0.025 C 
ATOM      5  C   UNL A   1     -23.481   1.141  27.536  0.00  0.00    +0.087 C 
ENDROOT
BRANCH   2   6
ATOM      6  N   UNL A   1     -25.037  -0.153  28.951  0.00  0.00    -0.226 NA
BRANCH   6   7
ATOM      7  C   UNL A   1     -24.855  -1.012  30.143  0.00  0.00    +0.131 C 
BRANCH   7   8
ATOM      8  C   UNL A   1     -24.973  -2.505  29.788  0.00  0.00    -0.001 C 
ATOM      9  C   UNL A   1     -23.906  -3.173  29.146  0.00  0.00    -0.003 C 
ATOM     10  C   UNL A   1     -23.989  -4.549  28.853  0.00  0.00    -0.000 C 
ATOM     11  C   UNL A   1     -25.137  -5.280  29.205  0.00  0.00    -0.000 C 
ATOM     12  C   UNL A   1     -26.232  -4.611  29.784  0.00  0.00    -0.000 C 
ATOM     13  C   UNL A   1     -26.155  -3.232  30.065  0.00  0.00    -0.003 C 
ENDBRANCH   7   8
BRANCH   7  14
ATOM     14  C   UNL A   1     -25.387  -0.679  31.571  0.00  0.00    +0.097 C 
ATOM     15  C   UNL A   1     -25.189   0.773  32.028  0.00  0.00    +0.021 C 
ATOM     16  C   UNL A   1     -25.336   0.684  33.544  0.00  0.00    +0.020 C 
ATOM     17  C   UNL A   1     -24.829  -0.715  33.905  0.00  0.00    +0.089 C 
ATOM     18  N   UNL A   1     -24.758  -1.481  32.646  0.00  0.00    -0.217 NA
ENDBRANCH   7  14
ENDBRANCH   6   7
ENDBRANCH   2   6
BRANCH   5  19
ATOM     19  N   UNL A   1     -24.376   1.560  26.795  0.00  0.00    -0.230 NA
BRANCH  19  20
ATOM     20  C   UNL A   1     -25.688   1.614  26.461  0.00  0.00    +0.162 C 
ATOM     21  C   UNL A   1     -26.250   2.920  26.395  0.00  0.00    +0.075 C 
ATOM     22  C   UNL A   1     -27.438   3.091  25.645  0.00  0.00    +0.104 C 
ATOM     23  N   UNL A   1     -28.075   2.089  25.003  0.00  0.00    -0.212 NA
ATOM     24  C   UNL A   1     -27.543   0.849  25.079  0.00  0.00    +0.236 C 
ATOM     25  C   UNL A   1     -26.354   0.576  25.777  0.00  0.00    +0.260 C 
ATOM     26  F   UNL A   1     -25.860  -0.681  25.795  0.00  0.00    -0.225 F 
BRANCH  21  27
ATOM     27  C   UNL A   1     -25.642   4.093  27.123  0.00  0.00    +0.264 C 
ATOM     28  N   UNL A   1     -25.614   5.252  26.449  0.00  0.00    -0.200 NA
ATOM     29  C   UNL A   1     -25.026   6.479  26.963  0.00  0.00    +0.139 C 
ATOM     30  O   UNL A   1     -25.143   3.966  28.243  0.00  0.00    -0.269 OA
ENDBRANCH  21  27
BRANCH  24  31
ATOM     31  O   UNL A   1     -28.193  -0.208  24.477  0.00  0.00    -0.459 OA
BRANCH  31  32
ATOM     32  C   UNL A   1     -29.460   0.005  23.866  0.00  0.00    +0.242 C 
BRANCH  32  33
ATOM     33  C   UNL A   1     -30.065  -1.377  23.573  0.00  0.00    +0.229 C 
ATOM     34  O   UNL A   1     -30.729  -1.878  24.721  0.00  0.00    -0.216 OA
ENDBRANCH  32  33
ENDBRANCH  31  32
ENDBRANCH  24  31
ENDBRANCH  19  20
ENDBRANCH   5  19
TORSDOF 10
