REMARK  Name = outputs/IAG933/test6/raw/output_6188_IAG933_linker_design_.xyz
REMARK  13 active torsions:
REMARK  status: ('A' for Active; 'I' for Inactive)
REMARK    1  A    between atoms: C_1  and  C_2
REMARK    2  A    between atoms: C_1  and  C_8
REMARK    3  A    between atoms: C_1  and  C_38
REMARK    4  A    between atoms: C_13  and  C_33
REMARK    5  A    between atoms: C_14  and  C_15
REMARK    6  A    between atoms: C_21  and  O_22
REMARK    7  A    between atoms: O_22  and  C_23
REMARK    8  A    between atoms: C_23  and  C_24
REMARK    9  A    between atoms: N_28  and  C_32
REMARK   10  A    between atoms: O_30  and  C_33
REMARK   11  A    between atoms: O_30  and  C_41
REMARK   12  A    between atoms: C_33  and  C_42
REMARK   13  A    between atoms: C_34  and  C_39
REMARK                            x       y       z     vdW  Elec       q    Type
REMARK                         _______ _______ _______ _____ _____    ______ ____
ROOT
ATOM      1  C   UNL A   1     -22.621   0.172  27.855  0.00  0.00    +0.158 C 
ATOM      2  C   UNL A   1     -21.349   0.606  28.387  0.00  0.00    +0.204 C 
ATOM      3  O   UNL A   1     -20.303  -0.429  28.200  0.00  0.00    -0.218 OA
ATOM      4  C   UNL A   1     -21.010   1.764  27.418  0.00  0.00    +0.180 C 
ATOM      5  O   UNL A   1     -21.996   2.092  26.657  0.00  0.00    -0.349 OA
ATOM      6  C   UNL A   1     -23.118   1.353  26.872  0.00  0.00    +0.165 C 
ENDROOT
BRANCH   1   7
ATOM      7  N   UNL A   1     -23.809  -0.031  28.503  0.00  0.00    -0.202 NA
ATOM      8  C   UNL A   1     -23.550  -0.380  29.802  0.00  0.00    +0.246 C 
ATOM      9  O   UNL A   1     -22.604  -0.218  30.513  0.00  0.00    -0.273 OA
BRANCH   8  10
ATOM     10  C   UNL A   1     -24.855  -1.012  30.143  0.00  0.00    +0.116 C 
BRANCH  10  11
ATOM     11  C   UNL A   1     -24.973  -2.505  29.788  0.00  0.00    -0.013 C 
ATOM     12  C   UNL A   1     -23.906  -3.173  29.146  0.00  0.00    -0.004 C 
ATOM     13  C   UNL A   1     -23.989  -4.549  28.853  0.00  0.00    -0.000 C 
ATOM     14  C   UNL A   1     -25.137  -5.280  29.205  0.00  0.00    -0.000 C 
ATOM     15  C   UNL A   1     -26.232  -4.611  29.784  0.00  0.00    -0.000 C 
ATOM     16  C   UNL A   1     -26.155  -3.232  30.065  0.00  0.00    -0.004 C 
ENDBRANCH  10  11
BRANCH  10  17
ATOM     17  C   UNL A   1     -25.387  -0.679  31.571  0.00  0.00    +0.086 C 
ATOM     18  C   UNL A   1     -25.189   0.773  32.028  0.00  0.00    +0.020 C 
ATOM     19  C   UNL A   1     -25.336   0.684  33.544  0.00  0.00    +0.020 C 
ATOM     20  C   UNL A   1     -24.829  -0.715  33.905  0.00  0.00    +0.089 C 
ATOM     21  N   UNL A   1     -24.758  -1.481  32.646  0.00  0.00    -0.219 NA
ENDBRANCH  10  17
ENDBRANCH   8  10
ENDBRANCH   1   7
BRANCH   4  23
ATOM     22  O   UNL A   1     -18.806   2.022  27.874  0.00  0.00    -0.218 OA
ATOM     23  C   UNL A   1     -19.641   1.390  26.784  0.00  0.00    +0.214 C 
ENDBRANCH   4  23
BRANCH   6  24
ATOM     24  C   UNL A   1     -24.204   1.775  26.346  0.00  0.00    +0.157 C 
BRANCH  24  25
ATOM     25  C   UNL A   1     -25.688   1.614  26.461  0.00  0.00    +0.100 C 
ATOM     26  C   UNL A   1     -26.250   2.920  26.395  0.00  0.00    +0.057 C 
ATOM     27  C   UNL A   1     -27.438   3.091  25.645  0.00  0.00    +0.102 C 
ATOM     28  N   UNL A   1     -28.075   2.089  25.003  0.00  0.00    -0.212 NA
ATOM     29  C   UNL A   1     -27.543   0.849  25.079  0.00  0.00    +0.234 C 
ATOM     30  C   UNL A   1     -26.354   0.576  25.777  0.00  0.00    +0.242 C 
ATOM     31  F   UNL A   1     -25.860  -0.681  25.795  0.00  0.00    -0.227 F 
BRANCH  26  32
ATOM     32  C   UNL A   1     -25.642   4.093  27.123  0.00  0.00    +0.263 C 
ATOM     33  N   UNL A   1     -25.614   5.252  26.449  0.00  0.00    -0.200 NA
ATOM     34  C   UNL A   1     -25.026   6.479  26.963  0.00  0.00    +0.139 C 
ATOM     35  O   UNL A   1     -25.143   3.966  28.243  0.00  0.00    -0.269 OA
ENDBRANCH  26  32
BRANCH  29  36
ATOM     36  O   UNL A   1     -28.193  -0.208  24.477  0.00  0.00    -0.459 OA
BRANCH  36  37
ATOM     37  C   UNL A   1     -29.460   0.005  23.866  0.00  0.00    +0.242 C 
BRANCH  37  38
ATOM     38  C   UNL A   1     -30.065  -1.377  23.573  0.00  0.00    +0.229 C 
ATOM     39  O   UNL A   1     -30.729  -1.878  24.721  0.00  0.00    -0.216 OA
ENDBRANCH  37  38
ENDBRANCH  36  37
ENDBRANCH  29  36
ENDBRANCH  24  25
BRANCH  24  40
ATOM     40  O   UNL A   1     -23.899   2.609  25.223  0.00  0.00    -0.299 OA
BRANCH  40  43
ATOM     41  F   UNL A   1     -23.798   0.438  24.368  0.00  0.00    -0.166 F 
ATOM     42  F   UNL A   1     -22.120   1.598  24.314  0.00  0.00    -0.166 F 
ATOM     43  C   UNL A   1     -23.334   1.646  24.558  0.00  0.00    +0.450 C 
ENDBRANCH  40  43
ENDBRANCH  24  40
ENDBRANCH   6  24
TORSDOF 13
