MODEL 618
MODEL 1
REMARK VINA RESULT:    -7.186      0.000      0.000
REMARK INTER + INTRA:          -7.890
REMARK INTER:                  -7.606
REMARK INTRA:                  -0.284
REMARK UNBOUND:                -0.284
REMARK  Name = No_618-gen_results/8p0m/2024-11-27-11-27-31/
REMARK  1 active torsions:
REMARK  status: ('A' for Active; 'I' for Inactive)
REMARK    1  A    between atoms: C_3  and  C_7
REMARK                            x       y       z     vdW  Elec       q    Type
REMARK                         _______ _______ _______ _____ _____    ______ ____
ROOT
ATOM      1  C   UNL A   1     -26.453  -3.216  29.979  0.00  0.00    +0.002 A 
ATOM      2  C   UNL A   1     -25.679  -2.351  29.643  0.00  0.00    +0.000 A 
ATOM      3  C   UNL A   1     -24.442  -2.570  29.060  0.00  0.00    +0.002 A 
ATOM      4  C   UNL A   1     -24.073  -3.925  28.813  0.00  0.00    +0.030 A 
ATOM      5  C   UNL A   1     -25.013  -4.855  29.048  0.00  0.00    +0.140 A 
ATOM      6  C   UNL A   1     -26.171  -4.551  29.558  0.00  0.00    +0.030 A 
ATOM      7  F   UNL A   1     -24.845  -6.154  28.675  0.00  0.00    -0.204 F 
ENDROOT
BRANCH   3   8
ATOM      8  C   UNL A   1     -23.455  -1.465  28.789  0.00  0.00    +0.002 A 
ATOM      9  C   UNL A   1     -22.416  -1.177  29.269  0.00  0.00    +0.000 A 
ATOM     10  C   UNL A   1     -21.565  -0.033  28.873  0.00  0.00    +0.002 A 
ATOM     11  C   UNL A   1     -22.107   0.896  27.963  0.00  0.00    +0.030 A 
ATOM     12  C   UNL A   1     -23.431   0.704  27.527  0.00  0.00    +0.140 A 
ATOM     13  C   UNL A   1     -24.141  -0.425  27.874  0.00  0.00    +0.030 A 
ATOM     14  F   UNL A   1     -23.867   1.622  26.680  0.00  0.00    -0.204 F 
ENDBRANCH   3   8
TORSDOF 1
ENDMDL
ENDMDL
