REMARK  Name = outputs/IAG933/test6/raw/output_6190_IAG933_linker_design_.xyz
REMARK  13 active torsions:
REMARK  status: ('A' for Active; 'I' for Inactive)
REMARK    1  A    between atoms: C_1  and  C_2
REMARK    2  A    between atoms: C_1  and  C_8
REMARK    3  A    between atoms: C_1  and  C_39
REMARK    4  A    between atoms: C_13  and  C_38
REMARK    5  A    between atoms: C_14  and  C_15
REMARK    6  A    between atoms: C_21  and  O_22
REMARK    7  A    between atoms: O_22  and  C_23
REMARK    8  A    between atoms: C_23  and  C_24
REMARK    9  A    between atoms: C_31  and  C_36
REMARK   10  A    between atoms: C_35  and  C_36
REMARK   11  A    between atoms: C_35  and  C_38
REMARK   12  A    between atoms: C_35  and  C_39
REMARK   13  A    between atoms: C_39  and  C_41
REMARK                            x       y       z     vdW  Elec       q    Type
REMARK                         _______ _______ _______ _____ _____    ______ ____
ROOT
ATOM      1  C   UNL A   1     -25.107   0.164  29.084  0.00  0.00    +0.015 C 
ENDROOT
BRANCH   1   8
ATOM      2  N   UNL A   1     -30.776  -0.479  31.771  0.00  0.00    -0.130 NA
ATOM      3  C   UNL A   1     -27.614   1.971  29.561  0.00  0.00    +0.146 C 
ATOM      4  C   UNL A   1     -29.973   0.358  30.932  0.00  0.00    +0.126 C 
ATOM      5  O   UNL A   1     -28.063   1.938  30.910  0.00  0.00    -0.352 OA
ATOM      6  C   UNL A   1     -28.784  -0.658  28.845  0.00  0.00    -0.029 C 
ATOM      7  C   UNL A   1     -29.338   1.560  31.370  0.00  0.00    +0.161 C 
ATOM      8  C   UNL A   1     -26.624   0.695  28.977  0.00  0.00    +0.052 C 
ATOM      9  C   UNL A   1     -27.493  -0.417  28.500  0.00  0.00    -0.029 C 
ATOM     10  C   UNL A   1     -29.648  -0.125  29.707  0.00  0.00    +0.047 C 
ENDBRANCH   1   8
BRANCH   1  11
ATOM     11  C   UNL A   1     -24.855  -1.012  30.143  0.00  0.00    +0.039 C 
BRANCH  11  12
ATOM     12  C   UNL A   1     -24.973  -2.505  29.788  0.00  0.00    -0.021 C 
ATOM     13  C   UNL A   1     -23.906  -3.173  29.146  0.00  0.00    -0.004 C 
ATOM     14  C   UNL A   1     -23.989  -4.549  28.853  0.00  0.00    -0.000 C 
ATOM     15  C   UNL A   1     -25.137  -5.280  29.205  0.00  0.00    -0.000 C 
ATOM     16  C   UNL A   1     -26.232  -4.611  29.784  0.00  0.00    -0.000 C 
ATOM     17  C   UNL A   1     -26.155  -3.232  30.065  0.00  0.00    -0.004 C 
ENDBRANCH  11  12
BRANCH  11  18
ATOM     18  C   UNL A   1     -25.387  -0.679  31.571  0.00  0.00    +0.077 C 
ATOM     19  C   UNL A   1     -25.189   0.773  32.028  0.00  0.00    +0.019 C 
ATOM     20  C   UNL A   1     -25.336   0.684  33.544  0.00  0.00    +0.020 C 
ATOM     21  C   UNL A   1     -24.829  -0.715  33.905  0.00  0.00    +0.089 C 
ATOM     22  N   UNL A   1     -24.758  -1.481  32.646  0.00  0.00    -0.219 NA
ENDBRANCH  11  18
ENDBRANCH   1  11
BRANCH   1  23
ATOM     23  C   UNL A   1     -23.952   0.281  27.978  0.00  0.00    +0.038 C 
BRANCH  23  25
ATOM     24  O   UNL A   1     -22.249   0.373  29.705  0.00  0.00    -0.220 OA
ATOM     25  C   UNL A   1     -22.422   0.531  28.308  0.00  0.00    +0.185 C 
BRANCH  25  27
ATOM     26  O   UNL A   1     -21.440   1.999  26.689  0.00  0.00    -0.218 OA
ATOM     27  C   UNL A   1     -21.899   1.957  28.053  0.00  0.00    +0.215 C 
ENDBRANCH  25  27
ENDBRANCH  23  25
BRANCH  23  28
ATOM     28  C   UNL A   1     -24.303   1.206  26.840  0.00  0.00    +0.032 C 
BRANCH  28  29
ATOM     29  C   UNL A   1     -25.688   1.614  26.461  0.00  0.00    +0.016 C 
ATOM     30  C   UNL A   1     -26.250   2.920  26.395  0.00  0.00    +0.073 C 
ATOM     31  C   UNL A   1     -27.438   3.091  25.645  0.00  0.00    +0.106 C 
ATOM     32  N   UNL A   1     -28.075   2.089  25.003  0.00  0.00    -0.208 NA
ATOM     33  C   UNL A   1     -27.543   0.849  25.079  0.00  0.00    +0.253 C 
ATOM     34  C   UNL A   1     -26.354   0.576  25.777  0.00  0.00    +0.189 C 
ATOM     35  F   UNL A   1     -25.860  -0.681  25.795  0.00  0.00    -0.200 F 
BRANCH  30  36
ATOM     36  C   UNL A   1     -25.642   4.093  27.123  0.00  0.00    +0.266 C 
ATOM     37  N   UNL A   1     -25.614   5.252  26.449  0.00  0.00    -0.200 NA
ATOM     38  C   UNL A   1     -25.026   6.479  26.963  0.00  0.00    +0.139 C 
ATOM     39  O   UNL A   1     -25.143   3.966  28.243  0.00  0.00    -0.268 OA
ENDBRANCH  30  36
BRANCH  33  40
ATOM     40  O   UNL A   1     -28.193  -0.208  24.477  0.00  0.00    -0.456 OA
BRANCH  40  41
ATOM     41  C   UNL A   1     -29.460   0.005  23.866  0.00  0.00    +0.243 C 
BRANCH  41  42
ATOM     42  C   UNL A   1     -30.065  -1.377  23.573  0.00  0.00    +0.229 C 
ATOM     43  O   UNL A   1     -30.729  -1.878  24.721  0.00  0.00    -0.216 OA
ENDBRANCH  41  42
ENDBRANCH  40  41
ENDBRANCH  33  40
ENDBRANCH  28  29
ENDBRANCH  23  28
ENDBRANCH   1  23
TORSDOF 13
