MODEL 619
MODEL 1
REMARK VINA RESULT:    -6.634      0.000      0.000
REMARK INTER + INTRA:          -8.596
REMARK INTER:                  -8.185
REMARK INTRA:                  -0.412
REMARK UNBOUND:                -0.412
REMARK  Name = No_619-gen_results/8p0m/2024-11-27-11-27-31/
REMARK  4 active torsions:
REMARK  status: ('A' for Active; 'I' for Inactive)
REMARK    1  A    between atoms: C_1  and  C_2
REMARK    2  A    between atoms: C_1  and  N_8
REMARK    3  A    between atoms: C_5  and  C_9
REMARK    4  A    between atoms: C_14  and  C_17
REMARK                            x       y       z     vdW  Elec       q    Type
REMARK                         _______ _______ _______ _____ _____    ______ ____
ROOT
ATOM      1  C   UNL A   1     -23.892  -0.493  30.231  0.00  0.00    +0.099 C 
ENDROOT
BRANCH   1   2
ATOM      2  C   UNL A   1     -23.710   0.118  29.204  0.00  0.00    -0.006 A 
ATOM      3  C   UNL A   1     -24.743   0.617  28.411  0.00  0.00    -0.003 A 
ATOM      4  C   UNL A   1     -24.614   1.361  27.142  0.00  0.00    +0.006 A 
ATOM      5  C   UNL A   1     -23.293   1.783  26.801  0.00  0.00    +0.080 A 
ATOM      6  C   UNL A   1     -22.230   1.343  27.597  0.00  0.00    +0.006 A 
ATOM      7  C   UNL A   1     -22.398   0.591  28.708  0.00  0.00    -0.003 A 
BRANCH   5   8
ATOM      8  C   UNL A   1     -23.180   2.577  25.609  0.00  0.00    +0.388 C 
ATOM      9  O   UNL A   1     -22.387   2.319  24.678  0.00  0.00    -0.241 OA
ATOM     10  O   UNL A   1     -23.935   3.641  25.487  0.00  0.00    -0.241 OA
ENDBRANCH   5   8
ENDBRANCH   1   2
BRANCH   1  11
ATOM     11  N   UNL A   1     -24.765  -1.531  30.164  0.00  0.00    -0.269 NA
ATOM     12  C   UNL A   1     -25.956  -1.514  30.655  0.00  0.00    +0.072 C 
ATOM     13  C   UNL A   1     -24.248  -2.784  29.718  0.00  0.00    +0.083 C 
ATOM     14  C   UNL A   1     -25.130  -3.691  29.402  0.00  0.00    +0.107 C 
ATOM     15  C   UNL A   1     -26.949  -2.475  30.377  0.00  0.00    +0.018 C 
ATOM     16  C   UNL A   1     -26.468  -3.696  29.872  0.00  0.00    +0.013 C 
BRANCH  14  17
ATOM     17  C   UNL A   1     -24.633  -4.987  28.840  0.00  0.00    +0.311 C 
ATOM     18  O   UNL A   1     -25.000  -5.959  29.145  0.00  0.00    -0.259 OA
ATOM     19  F   UNL A   1     -23.571  -5.012  28.001  0.00  0.00    -0.164 F 
ENDBRANCH  14  17
ENDBRANCH   1  11
TORSDOF 4
ENDMDL
ENDMDL
