MODEL 61
MODEL 1
REMARK VINA RESULT:    -7.539      0.000      0.000
REMARK INTER + INTRA:          -8.454
REMARK INTER:                  -7.979
REMARK INTRA:                  -0.475
REMARK UNBOUND:                -0.475
REMARK  Name = No_61-gen_results/8p0m/2024-11-27-11-27-31/
REMARK  1 active torsions:
REMARK  status: ('A' for Active; 'I' for Inactive)
REMARK    1  A    between atoms: C_1  and  C_3
REMARK                            x       y       z     vdW  Elec       q    Type
REMARK                         _______ _______ _______ _____ _____    ______ ____
ROOT
ATOM      1  C   UNL A   1     -23.896  -2.041  29.682  0.00  0.00    +0.025 A 
ATOM      2  C   UNL A   1     -23.243  -1.161  28.858  0.00  0.00    -0.000 A 
ATOM      3  C   UNL A   1     -22.641  -0.078  29.374  0.00  0.00    -0.001 A 
ATOM      4  C   UNL A   1     -22.634   0.138  30.860  0.00  0.00    -0.004 A 
ATOM      5  C   UNL A   1     -23.296  -0.818  31.690  0.00  0.00    -0.021 A 
ATOM      6  C   UNL A   1     -23.897  -1.890  31.096  0.00  0.00    -0.005 A 
ATOM      7  C   UNL A   1     -21.955   0.977  28.632  0.00  0.00    +0.000 C 
ATOM      8  C   UNL A   1     -22.478   1.253  27.469  0.00  0.00    +0.001 C 
ATOM      9  C   UNL A   1     -23.711   0.758  27.054  0.00  0.00    +0.013 A 
ATOM     10  C   UNL A   1     -24.078   1.041  25.683  0.00  0.00    +0.001 A 
ATOM     11  C   UNL A   1     -25.315   0.547  25.164  0.00  0.00    +0.000 A 
ATOM     12  C   UNL A   1     -26.136  -0.157  26.069  0.00  0.00    +0.001 A 
ATOM     13  C   UNL A   1     -25.841  -0.279  27.378  0.00  0.00    +0.015 A 
ATOM     14  C   UNL A   1     -24.628   0.160  27.838  0.00  0.00    +0.048 A 
ATOM     15  N   UNL A   1     -24.540   0.360  29.042  0.00  0.00    -0.305 N 
ATOM     16  C   UNL A   1     -25.277   1.092  30.050  0.00  0.00    +0.112 C 
ATOM     17  C   UNL A   1     -24.309   0.238  30.071  0.00  0.00    +0.096 C 
ATOM     18  C   UNL A   1     -24.845  -0.332  31.262  0.00  0.00    +0.048 C 
ENDROOT
BRANCH   1  19
ATOM     19  C   UNL A   1     -24.516  -3.236  29.027  0.00  0.00    +0.262 C 
ATOM     20 CL   UNL A   1     -23.936  -4.023  28.496  0.00  0.00    -0.072 Cl
ATOM     21  F   UNL A   1     -25.907  -3.106  28.975  0.00  0.00    -0.214 F 
ENDBRANCH   1  19
TORSDOF 1
ENDMDL
ENDMDL
