REMARK  Name = No_620-gen_results/8p0m/2024-11-27-11-27-31/
REMARK  12 active torsions:
REMARK  status: ('A' for Active; 'I' for Inactive)
REMARK    1  A    between atoms: C_3  and  C_8
REMARK    2  A    between atoms: C_6  and  O_7
REMARK    3  A    between atoms: O_7  and  C_14
REMARK    4  A    between atoms: C_14  and  C_15
REMARK    5  A    between atoms: C_15  and  O_16
REMARK    6  A    between atoms: O_16  and  C_17
REMARK    7  A    between atoms: C_17  and  C_18
REMARK    8  A    between atoms: C_17  and  C_25
REMARK    9  A    between atoms: C_18  and  C_19
REMARK   10  A    between atoms: C_26  and  C_27
REMARK   11  A    between atoms: C_28  and  C_29
REMARK   12  A    between atoms: C_29  and  C_30
REMARK                            x       y       z     vdW  Elec       q    Type
REMARK                         _______ _______ _______ _____ _____    ______ ____
ROOT
ATOM      1  O   UNL A   1     -30.782  -4.827  29.713  0.00  0.00    -0.348 OA
ENDROOT
BRANCH   1   2
ATOM      2  C   UNL A   1     -30.093  -4.700  30.656  0.00  0.00    +0.190 C 
BRANCH   2   3
ATOM      3  C   UNL A   1     -28.881  -3.965  30.607  0.00  0.00    +0.237 C 
BRANCH   3   4
ATOM      4  O   UNL A   1     -29.000  -2.701  30.115  0.00  0.00    -0.473 OA
BRANCH   4  10
ATOM      5  C   UNL A   1     -28.016  -0.814  28.878  0.00  0.00    +0.037 A 
ATOM      6  C   UNL A   1     -27.064  -0.119  28.608  0.00  0.00    +0.003 A 
ATOM      7  C   UNL A   1     -25.792  -0.430  29.076  0.00  0.00    +0.000 A 
ATOM      8  C   UNL A   1     -25.576  -1.565  29.936  0.00  0.00    +0.003 A 
ATOM      9  C   UNL A   1     -26.735  -2.300  30.217  0.00  0.00    +0.037 A 
ATOM     10  C   UNL A   1     -27.918  -1.954  29.763  0.00  0.00    +0.139 A 
BRANCH   7  11
ATOM     11  C   UNL A   1     -24.529   0.349  28.800  0.00  0.00    +0.000 A 
ATOM     12  C   UNL A   1     -24.481   1.211  27.800  0.00  0.00    +0.000 A 
ATOM     13  C   UNL A   1     -23.452   1.859  27.455  0.00  0.00    +0.000 A 
ATOM     14  C   UNL A   1     -22.163   1.647  28.010  0.00  0.00    +0.000 A 
ATOM     15  C   UNL A   1     -23.314   0.027  29.441  0.00  0.00    +0.000 A 
ATOM     16  C   UNL A   1     -22.101   0.743  29.047  0.00  0.00    +0.000 A 
ENDBRANCH   7  11
ENDBRANCH   4  10
ENDBRANCH   3   4
ENDBRANCH   2   3
ENDBRANCH   1   2
BRANCH   1  17
ATOM     17  C   UNL A   1     -32.133  -4.841  29.815  0.00  0.00    +0.142 C 
BRANCH  17  18
ATOM     18  C   UNL A   1     -32.764  -3.547  29.941  0.00  0.00    +0.003 C 
ATOM     19  C   UNL A   1     -32.480  -2.579  30.298  0.00  0.00    -0.003 C 
BRANCH  19  20
ATOM     20  C   UNL A   1     -33.178  -1.304  30.386  0.00  0.00    -0.004 C 
ATOM     21  C   UNL A   1     -32.650  -0.104  30.953  0.00  0.00    -0.021 C 
BRANCH  21  22
ATOM     22  C   UNL A   1     -31.283  -0.130  31.325  0.00  0.00    +0.052 C 
BRANCH  22  23
ATOM     23  C   UNL A   1     -30.669   1.083  31.693  0.00  0.00    -0.026 C 
ATOM     24  C   UNL A   1     -30.902   2.080  31.110  0.00  0.00    -0.030 C 
ATOM     25  C   UNL A   1     -32.262   2.348  30.620  0.00  0.00    +0.030 C 
ENDBRANCH  22  23
ENDBRANCH  21  22
ENDBRANCH  19  20
ENDBRANCH  17  18
BRANCH  17  26
ATOM     26  C   UNL A   1     -32.595  -5.948  29.650  0.00  0.00    +0.060 C 
BRANCH  26  27
ATOM     27  C   UNL A   1     -32.593  -6.475  28.615  0.00  0.00    -0.019 A 
ATOM     28  C   UNL A   1     -31.599  -6.742  28.001  0.00  0.00    -0.004 A 
ATOM     29  C   UNL A   1     -31.390  -6.553  26.590  0.00  0.00    -0.000 A 
ATOM     30  C   UNL A   1     -32.497  -6.707  25.778  0.00  0.00    -0.000 A 
ATOM     31  C   UNL A   1     -33.763  -6.576  26.343  0.00  0.00    -0.000 A 
ATOM     32  C   UNL A   1     -33.819  -6.531  27.740  0.00  0.00    -0.004 A 
ENDBRANCH  26  27
ENDBRANCH  17  26
ENDBRANCH   1  17
TORSDOF 12
