REMARK  Name = outputs/IAG933/test6/raw/output_6208_IAG933_linker_design_.xyz
REMARK  17 active torsions:
REMARK  status: ('A' for Active; 'I' for Inactive)
REMARK    1  A    between atoms: C_1  and  C_2
REMARK    2  A    between atoms: C_1  and  C_8
REMARK    3  A    between atoms: C_1  and  O_39
REMARK    4  A    between atoms: C_14  and  C_15
REMARK    5  A    between atoms: C_15  and  O_18
REMARK    6  A    between atoms: O_18  and  C_42
REMARK    7  A    between atoms: C_21  and  O_22
REMARK    8  A    between atoms: O_22  and  C_23
REMARK    9  A    between atoms: C_23  and  C_24
REMARK   10  A    between atoms: C_29  and  C_44
REMARK   11  A    between atoms: C_31  and  C_32
REMARK   12  A    between atoms: C_31  and  C_40
REMARK   13  A    between atoms: C_37  and  C_42
REMARK   14  A    between atoms: O_39  and  C_41
REMARK   15  A    between atoms: C_40  and  C_41
REMARK   16  A    between atoms: C_40  and  C_47
REMARK   17  A    between atoms: C_42  and  C_47
REMARK                            x       y       z     vdW  Elec       q    Type
REMARK                         _______ _______ _______ _____ _____    ______ ____
ROOT
ATOM      1  C   UNL A   1     -25.067   3.606  29.423  0.00  0.00    +0.168 C 
ENDROOT
BRANCH   1   6
ATOM      2  C   UNL A   1     -27.296   6.177  30.217  0.00  0.00    -0.026 C 
ATOM      3  C   UNL A   1     -26.626   5.046  30.863  0.00  0.00    +0.035 C 
ATOM      4  C   UNL A   1     -27.323   3.810  30.692  0.00  0.00    +0.031 C 
ATOM      5  C   UNL A   1     -28.312   6.025  29.287  0.00  0.00    -0.005 C 
ATOM      6  C   UNL A   1     -24.989   4.582  30.767  0.00  0.00    +0.054 C 
ATOM      7  C   UNL A   1     -28.274   3.646  29.671  0.00  0.00    -0.026 C 
ATOM      8  C   UNL A   1     -25.630   5.364  31.802  0.00  0.00    +0.088 C 
ATOM      9  C   UNL A   1     -28.775   4.756  28.969  0.00  0.00    -0.005 C 
BRANCH   8  10
ATOM     10  C   UNL A   1     -24.842   5.519  33.100  0.00  0.00    +0.261 C 
ATOM     11  N   UNL A   1     -25.369   5.163  34.257  0.00  0.00    -0.088 NA
ATOM     12  O   UNL A   1     -23.694   5.960  33.001  0.00  0.00    -0.272 OA
ENDBRANCH   8  10
ENDBRANCH   1   6
BRANCH   1  13
ATOM     13  O   UNL A   1     -25.143   3.966  28.243  0.00  0.00    -0.464 OA
BRANCH  13  14
ATOM     14  C   UNL A   1     -25.642   4.093  27.123  0.00  0.00    +0.222 C 
ATOM     15  N   UNL A   1     -25.614   5.252  26.449  0.00  0.00    -0.236 NA
ATOM     16  C   UNL A   1     -25.026   6.479  26.963  0.00  0.00    +0.155 C 
BRANCH  14  18
ATOM     17  C   UNL A   1     -25.688   1.614  26.461  0.00  0.00    +0.041 C 
ATOM     18  C   UNL A   1     -26.250   2.920  26.395  0.00  0.00    +0.074 C 
ATOM     19  C   UNL A   1     -27.438   3.091  25.645  0.00  0.00    +0.107 C 
ATOM     20  N   UNL A   1     -28.075   2.089  25.003  0.00  0.00    -0.208 NA
ATOM     21  C   UNL A   1     -27.543   0.849  25.079  0.00  0.00    +0.253 C 
ATOM     22  C   UNL A   1     -26.354   0.576  25.777  0.00  0.00    +0.193 C 
ATOM     23  F   UNL A   1     -25.860  -0.681  25.795  0.00  0.00    -0.199 F 
BRANCH  21  24
ATOM     24  O   UNL A   1     -28.193  -0.208  24.477  0.00  0.00    -0.456 OA
BRANCH  24  25
ATOM     25  C   UNL A   1     -29.460   0.005  23.866  0.00  0.00    +0.243 C 
BRANCH  25  26
ATOM     26  C   UNL A   1     -30.065  -1.377  23.573  0.00  0.00    +0.229 C 
ATOM     27  O   UNL A   1     -30.729  -1.878  24.721  0.00  0.00    -0.216 OA
ENDBRANCH  25  26
ENDBRANCH  24  25
ENDBRANCH  21  24
ENDBRANCH  14  18
ENDBRANCH  13  14
ENDBRANCH   1  13
BRANCH   1  28
ATOM     28  C   UNL A   1     -24.296   2.366  29.823  0.00  0.00    +0.047 C 
BRANCH  28  29
ATOM     29  C   UNL A   1     -22.888   1.702  29.581  0.00  0.00    +0.044 C 
BRANCH  29  30
ATOM     30  C   UNL A   1     -22.273   2.276  28.384  0.00  0.00    +0.117 C 
BRANCH  30  31
ATOM     31  C   UNL A   1     -21.390   1.665  27.426  0.00  0.00    +0.365 C 
ATOM     32  O   UNL A   1     -21.183   2.132  26.299  0.00  0.00    -0.246 OA
ATOM     33  O   UNL A   1     -20.686   0.469  27.822  0.00  0.00    -0.246 OA
ENDBRANCH  30  31
ENDBRANCH  29  30
BRANCH  29  34
ATOM     34  C   UNL A   1     -22.931   0.102  29.676  0.00  0.00    +0.143 C 
BRANCH  34  35
ATOM     35  O   UNL A   1     -24.275  -0.204  29.338  0.00  0.00    -0.350 OA
BRANCH  35  36
ATOM     36  C   UNL A   1     -24.855  -1.012  30.143  0.00  0.00    +0.153 C 
BRANCH  36  37
ATOM     37  C   UNL A   1     -24.973  -2.505  29.788  0.00  0.00    +0.006 C 
ATOM     38  C   UNL A   1     -23.906  -3.173  29.146  0.00  0.00    -0.002 C 
ATOM     39  C   UNL A   1     -23.989  -4.549  28.853  0.00  0.00    -0.000 C 
ATOM     40  C   UNL A   1     -25.137  -5.280  29.205  0.00  0.00    -0.000 C 
ATOM     41  C   UNL A   1     -26.232  -4.611  29.784  0.00  0.00    -0.000 C 
ATOM     42  C   UNL A   1     -26.155  -3.232  30.065  0.00  0.00    -0.002 C 
ENDBRANCH  36  37
BRANCH  36  43
ATOM     43  C   UNL A   1     -25.387  -0.679  31.571  0.00  0.00    +0.104 C 
ATOM     44  C   UNL A   1     -25.189   0.773  32.028  0.00  0.00    +0.022 C 
ATOM     45  C   UNL A   1     -25.336   0.684  33.544  0.00  0.00    +0.020 C 
ATOM     46  C   UNL A   1     -24.829  -0.715  33.905  0.00  0.00    +0.089 C 
ATOM     47  N   UNL A   1     -24.758  -1.481  32.646  0.00  0.00    -0.217 NA
ENDBRANCH  36  43
ENDBRANCH  35  36
ENDBRANCH  34  35
ENDBRANCH  29  34
ENDBRANCH  28  29
ENDBRANCH   1  28
TORSDOF 17
