MODEL 620
MODEL 1
REMARK VINA RESULT:    -5.452      0.000      0.000
REMARK INTER + INTRA:         -14.749
REMARK INTER:                  -9.276
REMARK INTRA:                  -5.473
REMARK UNBOUND:                -5.473
REMARK  Name = No_620-gen_results/8p0m/2024-11-27-11-27-31/
REMARK  12 active torsions:
REMARK  status: ('A' for Active; 'I' for Inactive)
REMARK    1  A    between atoms: C_3  and  C_8
REMARK    2  A    between atoms: C_6  and  O_7
REMARK    3  A    between atoms: O_7  and  C_14
REMARK    4  A    between atoms: C_14  and  C_15
REMARK    5  A    between atoms: C_15  and  O_16
REMARK    6  A    between atoms: O_16  and  C_17
REMARK    7  A    between atoms: C_17  and  C_18
REMARK    8  A    between atoms: C_17  and  C_25
REMARK    9  A    between atoms: C_18  and  C_19
REMARK   10  A    between atoms: C_26  and  C_27
REMARK   11  A    between atoms: C_28  and  C_29
REMARK   12  A    between atoms: C_29  and  C_30
REMARK                            x       y       z     vdW  Elec       q    Type
REMARK                         _______ _______ _______ _____ _____    ______ ____
ROOT
ATOM      1  O   UNL A   1     -19.146 -19.086   5.656  0.00  0.00    -0.348 OA
ENDROOT
BRANCH   1   2
ATOM      2  C   UNL A   1     -20.281 -18.784   5.699  0.00  0.00    +0.190 C 
BRANCH   2   3
ATOM      3  C   UNL A   1     -20.825 -18.060   6.790  0.00  0.00    +0.237 C 
BRANCH   3   4
ATOM      4  O   UNL A   1     -21.878 -18.663   7.407  0.00  0.00    -0.473 OA
BRANCH   4  10
ATOM      5  C   UNL A   1     -21.284 -20.887   8.278  0.00  0.00    +0.037 A 
ATOM      6  C   UNL A   1     -21.467 -22.082   8.317  0.00  0.00    +0.003 A 
ATOM      7  C   UNL A   1     -22.372 -22.698   7.460  0.00  0.00    +0.000 A 
ATOM      8  C   UNL A   1     -23.154 -21.926   6.528  0.00  0.00    +0.003 A 
ATOM      9  C   UNL A   1     -22.896 -20.550   6.566  0.00  0.00    +0.037 A 
ATOM     10  C   UNL A   1     -22.042 -20.014   7.408  0.00  0.00    +0.139 A 
BRANCH   7  11
ATOM     11  C   UNL A   1     -22.679 -24.175   7.404  0.00  0.00    +0.000 A 
ATOM     12  C   UNL A   1     -23.299 -24.690   6.357  0.00  0.00    +0.000 A 
ATOM     13  C   UNL A   1     -23.653 -25.898   6.251  0.00  0.00    +0.000 A 
ATOM     14  C   UNL A   1     -23.556 -26.844   7.304  0.00  0.00    +0.000 A 
ATOM     15  C   UNL A   1     -22.523 -24.999   8.539  0.00  0.00    +0.000 A 
ATOM     16  C   UNL A   1     -22.946 -26.397   8.455  0.00  0.00    +0.000 A 
ENDBRANCH   7  11
ENDBRANCH   4  10
ENDBRANCH   3   4
ENDBRANCH   2   3
ENDBRANCH   1   2
BRANCH   1  17
ATOM     17  C   UNL A   1     -18.753 -20.383   5.664  0.00  0.00    +0.142 C 
BRANCH  17  18
ATOM     18  C   UNL A   1     -19.705 -21.327   5.125  0.00  0.00    +0.003 C 
ATOM     19  C   UNL A   1     -19.684 -22.125   4.412  0.00  0.00    -0.003 C 
BRANCH  19  20
ATOM     20  C   UNL A   1     -20.695 -23.051   3.921  0.00  0.00    -0.004 C 
ATOM     21  C   UNL A   1     -20.632 -24.475   4.008  0.00  0.00    -0.021 C 
BRANCH  21  22
ATOM     22  C   UNL A   1     -19.562 -25.014   4.765  0.00  0.00    +0.052 C 
BRANCH  22  23
ATOM     23  C   UNL A   1     -19.863 -25.960   5.764  0.00  0.00    -0.026 C 
ATOM     24  C   UNL A   1     -19.304 -25.942   6.801  0.00  0.00    -0.030 C 
ATOM     25  C   UNL A   1     -18.953 -24.660   7.429  0.00  0.00    +0.030 C 
ENDBRANCH  22  23
ENDBRANCH  21  22
ENDBRANCH  19  20
ENDBRANCH  17  18
BRANCH  17  26
ATOM     26  C   UNL A   1     -17.600 -20.511   6.010  0.00  0.00    +0.060 C 
BRANCH  26  27
ATOM     27  C   UNL A   1     -17.212 -21.471   6.537  0.00  0.00    -0.019 A 
ATOM     28  C   UNL A   1     -17.108 -21.587   7.725  0.00  0.00    -0.004 A 
ATOM     29  C   UNL A   1     -15.998 -22.169   8.433  0.00  0.00    -0.000 A 
ATOM     30  C   UNL A   1     -15.343 -23.208   7.802  0.00  0.00    -0.000 A 
ATOM     31  C   UNL A   1     -15.460 -23.331   6.419  0.00  0.00    -0.000 A 
ATOM     32  C   UNL A   1     -16.426 -22.528   5.804  0.00  0.00    -0.004 A 
ENDBRANCH  26  27
ENDBRANCH  17  26
ENDBRANCH   1  17
TORSDOF 12
ENDMDL
ENDMDL
