REMARK  Name = outputs/IAG933/test6/raw/output_6214_IAG933_linker_design_.xyz
REMARK  9 active torsions:
REMARK  status: ('A' for Active; 'I' for Inactive)
REMARK    1  A    between atoms: C_1  and  C_2
REMARK    2  A    between atoms: C_1  and  C_8
REMARK    3  A    between atoms: C_1  and  C_36
REMARK    4  A    between atoms: C_13  and  C_32
REMARK    5  A    between atoms: C_14  and  C_15
REMARK    6  A    between atoms: C_21  and  O_22
REMARK    7  A    between atoms: O_22  and  C_23
REMARK    8  A    between atoms: C_23  and  C_24
REMARK    9  A    between atoms: C_31  and  C_36
REMARK                            x       y       z     vdW  Elec       q    Type
REMARK                         _______ _______ _______ _____ _____    ______ ____
ROOT
ATOM      1  C   UNL A   1     -20.609  -0.068  28.769  0.00  0.00    +0.114 C 
ATOM      2  O   UNL A   1     -22.092   1.577  27.595  0.00  0.00    -0.449 OA
ATOM      3  C   UNL A   1     -22.752   1.944  25.410  0.00  0.00    +0.308 C 
ATOM      4  C   UNL A   1     -24.224   0.688  28.596  0.00  0.00    +0.072 C 
ATOM      5  C   UNL A   1     -24.482   1.258  27.238  0.00  0.00    +0.091 C 
ATOM      6  F   UNL A   1     -21.552   2.300  25.157  0.00  0.00    -0.169 F 
ATOM      7  F   UNL A   1     -19.861   1.834  27.642  0.00  0.00    -0.189 F 
ATOM      8  C   UNL A   1     -20.876   0.817  27.820  0.00  0.00    +0.330 C 
ATOM      9  C   UNL A   1     -23.075   1.592  26.771  0.00  0.00    +0.178 C 
ATOM     10  F   UNL A   1     -23.553   1.766  24.446  0.00  0.00    -0.169 F 
ATOM     11  O   UNL A   1     -22.575  -0.044  30.295  0.00  0.00    -0.353 OA
ATOM     12  C   UNL A   1     -23.323   1.197  29.765  0.00  0.00    +0.145 C 
ATOM     13  C   UNL A   1     -21.686  -0.826  29.461  0.00  0.00    +0.149 C 
ENDROOT
BRANCH   5  14
ATOM     14  C   UNL A   1     -25.688   1.614  26.461  0.00  0.00    +0.023 C 
ATOM     15  C   UNL A   1     -26.250   2.920  26.395  0.00  0.00    +0.073 C 
ATOM     16  C   UNL A   1     -27.438   3.091  25.645  0.00  0.00    +0.106 C 
ATOM     17  N   UNL A   1     -28.075   2.089  25.003  0.00  0.00    -0.208 NA
ATOM     18  C   UNL A   1     -27.543   0.849  25.079  0.00  0.00    +0.253 C 
ATOM     19  C   UNL A   1     -26.354   0.576  25.777  0.00  0.00    +0.190 C 
ATOM     20  F   UNL A   1     -25.860  -0.681  25.795  0.00  0.00    -0.200 F 
BRANCH  15  21
ATOM     21  C   UNL A   1     -25.642   4.093  27.123  0.00  0.00    +0.266 C 
ATOM     22  N   UNL A   1     -25.614   5.252  26.449  0.00  0.00    -0.200 NA
ATOM     23  C   UNL A   1     -25.026   6.479  26.963  0.00  0.00    +0.139 C 
ATOM     24  O   UNL A   1     -25.143   3.966  28.243  0.00  0.00    -0.268 OA
ENDBRANCH  15  21
BRANCH  18  25
ATOM     25  O   UNL A   1     -28.193  -0.208  24.477  0.00  0.00    -0.456 OA
BRANCH  25  26
ATOM     26  C   UNL A   1     -29.460   0.005  23.866  0.00  0.00    +0.243 C 
BRANCH  26  27
ATOM     27  C   UNL A   1     -30.065  -1.377  23.573  0.00  0.00    +0.229 C 
ATOM     28  O   UNL A   1     -30.729  -1.878  24.721  0.00  0.00    -0.216 OA
ENDBRANCH  26  27
ENDBRANCH  25  26
ENDBRANCH  18  25
ENDBRANCH   5  14
BRANCH   4  29
ATOM     29  C   UNL A   1     -25.478  -0.035  29.059  0.00  0.00    +0.160 C 
ATOM     30  O   UNL A   1     -26.469   1.008  28.935  0.00  0.00    -0.223 OA
BRANCH  29  31
ATOM     31  C   UNL A   1     -24.855  -1.012  30.143  0.00  0.00    +0.069 C 
BRANCH  31  32
ATOM     32  C   UNL A   1     -24.973  -2.505  29.788  0.00  0.00    -0.019 C 
ATOM     33  C   UNL A   1     -23.906  -3.173  29.146  0.00  0.00    -0.004 C 
ATOM     34  C   UNL A   1     -23.989  -4.549  28.853  0.00  0.00    -0.000 C 
ATOM     35  C   UNL A   1     -25.137  -5.280  29.205  0.00  0.00    -0.000 C 
ATOM     36  C   UNL A   1     -26.232  -4.611  29.784  0.00  0.00    -0.000 C 
ATOM     37  C   UNL A   1     -26.155  -3.232  30.065  0.00  0.00    -0.004 C 
ENDBRANCH  31  32
BRANCH  31  38
ATOM     38  C   UNL A   1     -25.387  -0.679  31.571  0.00  0.00    +0.079 C 
ATOM     39  C   UNL A   1     -25.189   0.773  32.028  0.00  0.00    +0.019 C 
ATOM     40  C   UNL A   1     -25.336   0.684  33.544  0.00  0.00    +0.020 C 
ATOM     41  C   UNL A   1     -24.829  -0.715  33.905  0.00  0.00    +0.089 C 
ATOM     42  N   UNL A   1     -24.758  -1.481  32.646  0.00  0.00    -0.219 NA
ENDBRANCH  31  38
ENDBRANCH  29  31
ENDBRANCH   4  29
TORSDOF 9
