MODEL 621
MODEL 1
REMARK VINA RESULT:    -6.138      0.000      0.000
REMARK INTER + INTRA:          -6.821
REMARK INTER:                  -6.497
REMARK INTRA:                  -0.324
REMARK UNBOUND:                -0.324
REMARK  Name = No_621-gen_results/8p0m/2024-11-27-11-27-31/
REMARK  1 active torsions:
REMARK  status: ('A' for Active; 'I' for Inactive)
REMARK    1  A    between atoms: C_3  and  C_7
REMARK                            x       y       z     vdW  Elec       q    Type
REMARK                         _______ _______ _______ _____ _____    ______ ____
ROOT
ATOM      1  C   UNL A   1     -24.763  -3.793  29.234  0.00  0.00    +0.011 A 
ATOM      2  C   UNL A   1     -23.958  -2.951  28.912  0.00  0.00    +0.001 A 
ATOM      3  C   UNL A   1     -24.182  -1.580  29.038  0.00  0.00    +0.000 A 
ATOM      4  C   UNL A   1     -25.467  -1.117  29.525  0.00  0.00    +0.001 A 
ATOM      5  C   UNL A   1     -26.372  -2.121  29.867  0.00  0.00    +0.011 A 
ATOM      6  C   UNL A   1     -26.080  -3.397  29.705  0.00  0.00    +0.058 A 
ATOM      7 CL   UNL A   1     -27.277  -4.573  30.098  0.00  0.00    -0.082 Cl
ENDROOT
BRANCH   3   8
ATOM      8  C   UNL A   1     -23.240  -0.476  28.668  0.00  0.00    +0.000 A 
ATOM      9  C   UNL A   1     -23.624   0.538  27.947  0.00  0.00    +0.000 A 
ATOM     10  C   UNL A   1     -22.737   1.468  27.453  0.00  0.00    +0.000 A 
ATOM     11  C   UNL A   1     -21.355   1.393  27.639  0.00  0.00    +0.000 A 
ATOM     12  C   UNL A   1     -21.796  -0.636  28.886  0.00  0.00    +0.000 A 
ATOM     13  C   UNL A   1     -20.880   0.340  28.396  0.00  0.00    +0.000 A 
ENDBRANCH   3   8
TORSDOF 1
ENDMDL
ENDMDL
