REMARK  Name = outputs/IAG933/test6/raw/output_6223_IAG933_linker_design_.xyz
REMARK  12 active torsions:
REMARK  status: ('A' for Active; 'I' for Inactive)
REMARK    1  A    between atoms: C_1  and  C_2
REMARK    2  A    between atoms: C_1  and  C_8
REMARK    3  A    between atoms: C_1  and  N_34
REMARK    4  A    between atoms: C_13  and  C_29
REMARK    5  A    between atoms: C_14  and  C_15
REMARK    6  A    between atoms: C_21  and  O_22
REMARK    7  A    between atoms: O_22  and  C_23
REMARK    8  A    between atoms: C_23  and  C_24
REMARK    9  A    between atoms: C_28  and  N_34
REMARK   10  A    between atoms: C_29  and  C_42
REMARK   11  A    between atoms: N_32  and  C_43
REMARK   12  A    between atoms: C_37  and  C_43
REMARK                            x       y       z     vdW  Elec       q    Type
REMARK                         _______ _______ _______ _____ _____    ______ ____
ROOT
ATOM      1  C   UNL A   1     -26.814   0.061  28.881  0.00  0.00    +0.325 C 
ATOM      2  N   UNL A   1     -27.528   1.102  29.191  0.00  0.00    -0.186 NA
ATOM      3  N   UNL A   1     -25.318   0.012  29.176  0.00  0.00    -0.237 N 
ATOM      4  O   UNL A   1     -27.401  -0.905  28.369  0.00  0.00    -0.251 OA
ENDROOT
BRANCH   3   5
ATOM      5  C   UNL A   1     -24.111   0.613  28.659  0.00  0.00    +0.195 C 
ATOM      6  C   UNL A   1     -21.972   1.527  27.781  0.00  0.00    +0.036 C 
ATOM      7  O   UNL A   1     -22.763   0.177  29.563  0.00  0.00    -0.338 OA
ATOM      8  C   UNL A   1     -21.603   0.599  28.959  0.00  0.00    +0.144 C 
ATOM      9  C   UNL A   1     -23.439   1.640  27.850  0.00  0.00    +0.050 C 
BRANCH   9  10
ATOM     10  C   UNL A   1     -24.160   1.422  26.514  0.00  0.00    +0.012 C 
BRANCH  10  11
ATOM     11  C   UNL A   1     -25.688   1.614  26.461  0.00  0.00    +0.070 C 
ATOM     12  C   UNL A   1     -26.250   2.920  26.395  0.00  0.00    +0.055 C 
ATOM     13  C   UNL A   1     -27.438   3.091  25.645  0.00  0.00    +0.102 C 
ATOM     14  N   UNL A   1     -28.075   2.089  25.003  0.00  0.00    -0.212 NA
ATOM     15  C   UNL A   1     -27.543   0.849  25.079  0.00  0.00    +0.234 C 
ATOM     16  C   UNL A   1     -26.354   0.576  25.777  0.00  0.00    +0.240 C 
ATOM     17  F   UNL A   1     -25.860  -0.681  25.795  0.00  0.00    -0.227 F 
BRANCH  12  18
ATOM     18  C   UNL A   1     -25.642   4.093  27.123  0.00  0.00    +0.262 C 
ATOM     19  N   UNL A   1     -25.614   5.252  26.449  0.00  0.00    -0.200 NA
ATOM     20  C   UNL A   1     -25.026   6.479  26.963  0.00  0.00    +0.139 C 
ATOM     21  O   UNL A   1     -25.143   3.966  28.243  0.00  0.00    -0.269 OA
ENDBRANCH  12  18
BRANCH  15  22
ATOM     22  O   UNL A   1     -28.193  -0.208  24.477  0.00  0.00    -0.459 OA
BRANCH  22  23
ATOM     23  C   UNL A   1     -29.460   0.005  23.866  0.00  0.00    +0.242 C 
BRANCH  23  24
ATOM     24  C   UNL A   1     -30.065  -1.377  23.573  0.00  0.00    +0.229 C 
ATOM     25  O   UNL A   1     -30.729  -1.878  24.721  0.00  0.00    -0.216 OA
ENDBRANCH  23  24
ENDBRANCH  22  23
ENDBRANCH  15  22
ENDBRANCH  10  11
ENDBRANCH   9  10
ENDBRANCH   3   5
BRANCH   2  27
ATOM     26  C   UNL A   1     -30.189  -0.116  28.523  0.00  0.00    +0.028 C 
ATOM     27  C   UNL A   1     -29.049   0.901  29.016  0.00  0.00    +0.119 C 
BRANCH  27  29
ATOM     28  C   UNL A   1     -29.512   5.061  29.159  0.00  0.00    -0.000 C 
ATOM     29  C   UNL A   1     -29.501   2.298  29.292  0.00  0.00    -0.003 C 
ATOM     30  C   UNL A   1     -28.625   4.438  30.057  0.00  0.00    -0.000 C 
ATOM     31  C   UNL A   1     -30.517   2.944  28.541  0.00  0.00    -0.003 C 
ATOM     32  C   UNL A   1     -30.503   4.348  28.464  0.00  0.00    -0.000 C 
ATOM     33  C   UNL A   1     -28.737   3.045  30.232  0.00  0.00    -0.003 C 
ENDBRANCH  27  29
ENDBRANCH   2  27
BRANCH   3  34
ATOM     34  C   UNL A   1     -24.855  -1.012  30.143  0.00  0.00    +0.117 C 
BRANCH  34  35
ATOM     35  C   UNL A   1     -24.973  -2.505  29.788  0.00  0.00    -0.003 C 
ATOM     36  C   UNL A   1     -23.906  -3.173  29.146  0.00  0.00    -0.003 C 
ATOM     37  C   UNL A   1     -23.989  -4.549  28.853  0.00  0.00    -0.000 C 
ATOM     38  C   UNL A   1     -25.137  -5.280  29.205  0.00  0.00    -0.000 C 
ATOM     39  C   UNL A   1     -26.232  -4.611  29.784  0.00  0.00    -0.000 C 
ATOM     40  C   UNL A   1     -26.155  -3.232  30.065  0.00  0.00    -0.003 C 
ENDBRANCH  34  35
BRANCH  34  41
ATOM     41  C   UNL A   1     -25.387  -0.679  31.571  0.00  0.00    +0.095 C 
ATOM     42  C   UNL A   1     -25.189   0.773  32.028  0.00  0.00    +0.021 C 
ATOM     43  C   UNL A   1     -25.336   0.684  33.544  0.00  0.00    +0.020 C 
ATOM     44  C   UNL A   1     -24.829  -0.715  33.905  0.00  0.00    +0.089 C 
ATOM     45  N   UNL A   1     -24.758  -1.481  32.646  0.00  0.00    -0.217 NA
ENDBRANCH  34  41
ENDBRANCH   3  34
TORSDOF 12
