REMARK  Name = outputs/IAG933/test6/raw/output_6228_IAG933_linker_design_.xyz
REMARK  12 active torsions:
REMARK  status: ('A' for Active; 'I' for Inactive)
REMARK    1  A    between atoms: C_1  and  C_2
REMARK    2  A    between atoms: C_1  and  C_8
REMARK    3  A    between atoms: C_1  and  C_42
REMARK    4  A    between atoms: C_13  and  C_37
REMARK    5  A    between atoms: C_14  and  C_15
REMARK    6  A    between atoms: C_21  and  O_22
REMARK    7  A    between atoms: O_22  and  C_23
REMARK    8  A    between atoms: C_23  and  C_24
REMARK    9  A    between atoms: C_28  and  N_30
REMARK   10  A    between atoms: C_28  and  C_42
REMARK   11  A    between atoms: N_32  and  C_42
REMARK   12  A    between atoms: C_35  and  C_40
REMARK                            x       y       z     vdW  Elec       q    Type
REMARK                         _______ _______ _______ _____ _____    ______ ____
ROOT
ATOM      1  C   UNL A   1     -22.474   1.334  27.925  0.00  0.00    +0.033 C 
ATOM      2  N   UNL A   1     -24.482   0.523  28.285  0.00  0.00    -0.283 N 
ATOM      3  C   UNL A   1     -20.996   1.715  27.680  0.00  0.00    +0.036 C 
ATOM      4  C   UNL A   1     -24.595   1.291  27.303  0.00  0.00    +0.093 C 
ATOM      5  C   UNL A   1     -23.168   0.424  28.719  0.00  0.00    +0.064 C 
ATOM      6  C   UNL A   1     -23.374   1.850  27.056  0.00  0.00    +0.206 C 
ATOM      7  O   UNL A   1     -23.040   2.589  25.870  0.00  0.00    -0.285 OA
ENDROOT
BRANCH   4   8
ATOM      8  C   UNL A   1     -25.688   1.614  26.461  0.00  0.00    +0.055 C 
ATOM      9  C   UNL A   1     -26.250   2.920  26.395  0.00  0.00    +0.078 C 
ATOM     10  C   UNL A   1     -27.438   3.091  25.645  0.00  0.00    +0.107 C 
ATOM     11  N   UNL A   1     -28.075   2.089  25.003  0.00  0.00    -0.208 NA
ATOM     12  C   UNL A   1     -27.543   0.849  25.079  0.00  0.00    +0.253 C 
ATOM     13  C   UNL A   1     -26.354   0.576  25.777  0.00  0.00    +0.194 C 
ATOM     14  F   UNL A   1     -25.860  -0.681  25.795  0.00  0.00    -0.199 F 
BRANCH   9  15
ATOM     15  C   UNL A   1     -25.642   4.093  27.123  0.00  0.00    +0.267 C 
ATOM     16  N   UNL A   1     -25.614   5.252  26.449  0.00  0.00    -0.200 NA
ATOM     17  C   UNL A   1     -25.026   6.479  26.963  0.00  0.00    +0.139 C 
ATOM     18  O   UNL A   1     -25.143   3.966  28.243  0.00  0.00    -0.268 OA
ENDBRANCH   9  15
BRANCH  12  19
ATOM     19  O   UNL A   1     -28.193  -0.208  24.477  0.00  0.00    -0.456 OA
BRANCH  19  20
ATOM     20  C   UNL A   1     -29.460   0.005  23.866  0.00  0.00    +0.243 C 
BRANCH  20  21
ATOM     21  C   UNL A   1     -30.065  -1.377  23.573  0.00  0.00    +0.229 C 
ATOM     22  O   UNL A   1     -30.729  -1.878  24.721  0.00  0.00    -0.216 OA
ENDBRANCH  20  21
ENDBRANCH  19  20
ENDBRANCH  12  19
ENDBRANCH   4   8
BRANCH   2  23
ATOM     23  C   UNL A   1     -25.525  -0.214  29.037  0.00  0.00    +0.104 C 
BRANCH  23  24
ATOM     24  C   UNL A   1     -24.855  -1.012  30.143  0.00  0.00    +0.059 C 
BRANCH  24  25
ATOM     25  C   UNL A   1     -24.973  -2.505  29.788  0.00  0.00    -0.019 C 
ATOM     26  C   UNL A   1     -23.906  -3.173  29.146  0.00  0.00    -0.004 C 
ATOM     27  C   UNL A   1     -23.989  -4.549  28.853  0.00  0.00    -0.000 C 
ATOM     28  C   UNL A   1     -25.137  -5.280  29.205  0.00  0.00    -0.000 C 
ATOM     29  C   UNL A   1     -26.232  -4.611  29.784  0.00  0.00    -0.000 C 
ATOM     30  C   UNL A   1     -26.155  -3.232  30.065  0.00  0.00    -0.004 C 
ENDBRANCH  24  25
BRANCH  24  31
ATOM     31  C   UNL A   1     -25.387  -0.679  31.571  0.00  0.00    +0.079 C 
ATOM     32  C   UNL A   1     -25.189   0.773  32.028  0.00  0.00    +0.019 C 
ATOM     33  C   UNL A   1     -25.336   0.684  33.544  0.00  0.00    +0.020 C 
ATOM     34  C   UNL A   1     -24.829  -0.715  33.905  0.00  0.00    +0.089 C 
ATOM     35  N   UNL A   1     -24.758  -1.481  32.646  0.00  0.00    -0.219 NA
ENDBRANCH  24  31
ENDBRANCH  23  24
BRANCH  23  36
ATOM     36  C   UNL A   1     -26.869   0.528  29.283  0.00  0.00    +0.136 C 
BRANCH  36  37
ATOM     37  N   UNL A   1     -26.894   1.861  29.866  0.00  0.00    -0.202 NA
ATOM     38  O   UNL A   1     -28.522   3.199  28.932  0.00  0.00    -0.272 OA
ATOM     39  C   UNL A   1     -27.492   3.058  29.688  0.00  0.00    +0.263 C 
BRANCH  39  42
ATOM     40  O   UNL A   1     -25.787   6.111  30.980  0.00  0.00    -0.199 OA
ATOM     41  O   UNL A   1     -27.070   6.016  31.409  0.00  0.00    -0.119 OA
ATOM     42  C   UNL A   1     -26.867   4.251  30.293  0.00  0.00    +0.216 C 
ATOM     43  C   UNL A   1     -25.563   5.057  30.335  0.00  0.00    +0.213 C 
ATOM     44  N   UNL A   1     -27.593   4.788  31.137  0.00  0.00    -0.039 NA
ENDBRANCH  39  42
ENDBRANCH  36  37
ENDBRANCH  23  36
ENDBRANCH   2  23
TORSDOF 12
