MODEL 622
MODEL 1
REMARK VINA RESULT:    -6.521      0.000      0.000
REMARK INTER + INTRA:          -9.720
REMARK INTER:                  -8.808
REMARK INTRA:                  -0.912
REMARK UNBOUND:                -0.912
REMARK  Name = No_622-gen_results/8p0m/2024-11-27-11-27-31/
REMARK  6 active torsions:
REMARK  status: ('A' for Active; 'I' for Inactive)
REMARK    1  A    between atoms: C_2  and  C_3
REMARK    2  A    between atoms: N_4  and  C_14
REMARK    3  A    between atoms: C_5  and  C_6
REMARK    4  A    between atoms: C_15  and  C_16
REMARK    5  A    between atoms: C_16  and  C_17
REMARK    6  A    between atoms: C_17  and  C_19
REMARK                            x       y       z     vdW  Elec       q    Type
REMARK                         _______ _______ _______ _____ _____    ______ ____
ROOT
ATOM      1  O   UNL A   1     -23.351   1.791  30.362  0.00  0.00    -0.270 OA
ATOM      2  C   UNL A   1     -23.395   0.883  29.654  0.00  0.00    +0.249 C 
ATOM      3  N   UNL A   1     -22.927  -0.445  30.039  0.00  0.00    -0.253 N 
ATOM      4  C   UNL A   1     -22.629  -0.713  31.416  0.00  0.00    +0.120 C 
ENDROOT
BRANCH   2   5
ATOM      5  C   UNL A   1     -23.665   1.029  28.309  0.00  0.00    +0.032 C 
ATOM      6  C   UNL A   1     -24.955   1.431  27.936  0.00  0.00    +0.000 C 
ATOM      7  C   UNL A   1     -22.588   1.882  27.563  0.00  0.00    +0.036 C 
BRANCH   6   8
ATOM      8  C   UNL A   1     -25.494   1.193  26.569  0.00  0.00    -0.000 A 
ATOM      9  C   UNL A   1     -26.601   1.976  26.084  0.00  0.00    -0.000 A 
ATOM     10  C   UNL A   1     -27.213   1.596  24.872  0.00  0.00    -0.000 A 
ATOM     11  C   UNL A   1     -26.785   0.435  24.233  0.00  0.00    -0.000 A 
ATOM     12  C   UNL A   1     -25.290  -0.032  25.897  0.00  0.00    -0.000 A 
ATOM     13  C   UNL A   1     -25.941  -0.391  24.767  0.00  0.00    -0.000 A 
ENDBRANCH   6   8
ENDBRANCH   2   5
BRANCH   3  14
ATOM     14  C   UNL A   1     -22.935  -1.523  29.112  0.00  0.00    +0.064 C 
ATOM     15  C   UNL A   1     -23.796  -2.346  29.099  0.00  0.00    -0.005 C 
BRANCH  15  16
ATOM     16  C   UNL A   1     -24.777  -2.615  29.618  0.00  0.00    +0.054 C 
BRANCH  16  17
ATOM     17  C   UNL A   1     -25.571  -3.867  29.652  0.00  0.00    -0.018 C 
ATOM     18  C   UNL A   1     -25.223  -5.052  29.144  0.00  0.00    -0.004 C 
BRANCH  17  19
ATOM     19  C   UNL A   1     -27.038  -3.585  30.003  0.00  0.00    -0.004 C 
ATOM     20  C   UNL A   1     -27.904  -4.595  30.335  0.00  0.00    -0.000 C 
ENDBRANCH  17  19
ENDBRANCH  16  17
ENDBRANCH  15  16
ENDBRANCH   3  14
TORSDOF 6
ENDMDL
ENDMDL
