REMARK  Name = outputs/IAG933/test6/raw/output_623_IAG933_linker_design_.xyz
REMARK  8 active torsions:
REMARK  status: ('A' for Active; 'I' for Inactive)
REMARK    1  A    between atoms: C_1  and  C_2
REMARK    2  A    between atoms: C_14  and  C_15
REMARK    3  A    between atoms: C_15  and  O_18
REMARK    4  A    between atoms: O_18  and  C_31
REMARK    5  A    between atoms: C_21  and  O_22
REMARK    6  A    between atoms: O_22  and  C_23
REMARK    7  A    between atoms: C_23  and  C_24
REMARK    8  A    between atoms: C_31  and  C_32
REMARK                            x       y       z     vdW  Elec       q    Type
REMARK                         _______ _______ _______ _____ _____    ______ ____
ROOT
ATOM      1  C   UNL A   1     -24.855  -1.012  30.143  0.00  0.00    +0.154 C 
ATOM      2  C   UNL A   1     -25.387  -0.679  31.571  0.00  0.00    +0.106 C 
ATOM      3  C   UNL A   1     -25.189   0.773  32.028  0.00  0.00    +0.051 C 
ATOM      4  C   UNL A   1     -25.336   0.684  33.544  0.00  0.00    +0.023 C 
ATOM      5  C   UNL A   1     -24.829  -0.715  33.905  0.00  0.00    +0.089 C 
ATOM      6  N   UNL A   1     -24.758  -1.481  32.646  0.00  0.00    -0.217 NA
ATOM      7  C   UNL A   1     -22.053   1.773  27.013  0.00  0.00    +0.345 C 
ATOM      8  C   UNL A   1     -21.920   0.028  28.617  0.00  0.00    +0.157 C 
ATOM      9  O   UNL A   1     -23.657  -0.473  29.976  0.00  0.00    -0.341 OA
ATOM     10  C   UNL A   1     -24.683   2.074  29.714  0.00  0.00    +0.124 C 
ATOM     11  O   UNL A   1     -23.835   2.797  31.891  0.00  0.00    -0.223 OA
ATOM     12  O   UNL A   1     -21.457   0.730  27.579  0.00  0.00    -0.423 OA
ATOM     13  C   UNL A   1     -23.085   2.265  27.703  0.00  0.00    +0.077 C 
ATOM     14  C   UNL A   1     -21.122  -0.920  29.165  0.00  0.00    +0.039 C 
ATOM     15  C   UNL A   1     -23.111   0.321  29.110  0.00  0.00    +0.191 C 
ATOM     16  O   UNL A   1     -21.696   2.214  25.835  0.00  0.00    -0.244 OA
ATOM     17  C   UNL A   1     -24.814   2.012  31.272  0.00  0.00    +0.163 C 
ATOM     18  C   UNL A   1     -23.653   1.545  28.770  0.00  0.00    +0.004 C 
ENDROOT
BRANCH   1  19
ATOM     19  C   UNL A   1     -24.973  -2.505  29.788  0.00  0.00    +0.006 C 
ATOM     20  C   UNL A   1     -23.906  -3.173  29.146  0.00  0.00    -0.002 C 
ATOM     21  C   UNL A   1     -23.989  -4.549  28.853  0.00  0.00    -0.000 C 
ATOM     22  C   UNL A   1     -25.137  -5.280  29.205  0.00  0.00    -0.000 C 
ATOM     23  C   UNL A   1     -26.232  -4.611  29.784  0.00  0.00    -0.000 C 
ATOM     24  C   UNL A   1     -26.155  -3.232  30.065  0.00  0.00    -0.002 C 
ENDBRANCH   1  19
BRANCH  10  25
ATOM     25  C   UNL A   1     -25.417   3.306  29.399  0.00  0.00    +0.325 C 
ATOM     26  O   UNL A   1     -25.484   4.254  30.384  0.00  0.00    -0.174 OA
BRANCH  25  27
ATOM     27  O   UNL A   1     -25.143   3.966  28.243  0.00  0.00    -0.434 OA
BRANCH  27  28
ATOM     28  C   UNL A   1     -25.642   4.093  27.123  0.00  0.00    +0.224 C 
ATOM     29  N   UNL A   1     -25.614   5.252  26.449  0.00  0.00    -0.236 NA
ATOM     30  C   UNL A   1     -25.026   6.479  26.963  0.00  0.00    +0.155 C 
BRANCH  28  32
ATOM     31  C   UNL A   1     -25.688   1.614  26.461  0.00  0.00    +0.041 C 
ATOM     32  C   UNL A   1     -26.250   2.920  26.395  0.00  0.00    +0.074 C 
ATOM     33  C   UNL A   1     -27.438   3.091  25.645  0.00  0.00    +0.107 C 
ATOM     34  N   UNL A   1     -28.075   2.089  25.003  0.00  0.00    -0.208 NA
ATOM     35  C   UNL A   1     -27.543   0.849  25.079  0.00  0.00    +0.253 C 
ATOM     36  C   UNL A   1     -26.354   0.576  25.777  0.00  0.00    +0.193 C 
ATOM     37  F   UNL A   1     -25.860  -0.681  25.795  0.00  0.00    -0.199 F 
BRANCH  35  38
ATOM     38  O   UNL A   1     -28.193  -0.208  24.477  0.00  0.00    -0.456 OA
BRANCH  38  39
ATOM     39  C   UNL A   1     -29.460   0.005  23.866  0.00  0.00    +0.243 C 
BRANCH  39  40
ATOM     40  C   UNL A   1     -30.065  -1.377  23.573  0.00  0.00    +0.229 C 
ATOM     41  O   UNL A   1     -30.729  -1.878  24.721  0.00  0.00    -0.216 OA
ENDBRANCH  39  40
ENDBRANCH  38  39
ENDBRANCH  35  38
ENDBRANCH  28  32
ENDBRANCH  27  28
ENDBRANCH  25  27
ENDBRANCH  10  25
TORSDOF 8
