REMARK  Name = outputs/IAG933/test6/raw/output_6230_IAG933_linker_design_.xyz
REMARK  12 active torsions:
REMARK  status: ('A' for Active; 'I' for Inactive)
REMARK    1  A    between atoms: C_1  and  C_2
REMARK    2  A    between atoms: C_1  and  C_8
REMARK    3  A    between atoms: C_1  and  C_41
REMARK    4  A    between atoms: C_13  and  C_30
REMARK    5  A    between atoms: C_14  and  C_15
REMARK    6  A    between atoms: C_21  and  O_22
REMARK    7  A    between atoms: O_22  and  C_23
REMARK    8  A    between atoms: C_23  and  C_24
REMARK    9  A    between atoms: C_31  and  C_34
REMARK   10  A    between atoms: C_31  and  O_44
REMARK   11  A    between atoms: C_38  and  C_41
REMARK   12  A    between atoms: C_41  and  O_44
REMARK                            x       y       z     vdW  Elec       q    Type
REMARK                         _______ _______ _______ _____ _____    ______ ____
ROOT
ATOM      1  C   UNL A   1     -24.366   1.355  27.151  0.00  0.00    +0.051 C 
ATOM      2  C   UNL A   1     -22.775   0.317  28.710  0.00  0.00    +0.284 C 
ATOM      3  N   UNL A   1     -20.391   1.042  28.480  0.00  0.00    +0.220 NA
ATOM      4  C   UNL A   1     -23.279   1.958  26.532  0.00  0.00    +0.236 C 
ATOM      5  O   UNL A   1     -22.410  -0.557  29.676  0.00  0.00    -0.279 OA
ATOM      6  C   UNL A   1     -24.163   0.500  28.313  0.00  0.00    +0.056 C 
ATOM      7  N   UNL A   1     -22.007   1.819  26.983  0.00  0.00    -0.026 NA
ATOM      8  C   UNL A   1     -21.712   1.028  28.074  0.00  0.00    +0.454 C 
ENDROOT
BRANCH   1   9
ATOM      9  C   UNL A   1     -25.688   1.614  26.461  0.00  0.00    +0.042 C 
ATOM     10  C   UNL A   1     -26.250   2.920  26.395  0.00  0.00    +0.077 C 
ATOM     11  C   UNL A   1     -27.438   3.091  25.645  0.00  0.00    +0.107 C 
ATOM     12  N   UNL A   1     -28.075   2.089  25.003  0.00  0.00    -0.208 NA
ATOM     13  C   UNL A   1     -27.543   0.849  25.079  0.00  0.00    +0.253 C 
ATOM     14  C   UNL A   1     -26.354   0.576  25.777  0.00  0.00    +0.193 C 
ATOM     15  F   UNL A   1     -25.860  -0.681  25.795  0.00  0.00    -0.199 F 
BRANCH  10  16
ATOM     16  C   UNL A   1     -25.642   4.093  27.123  0.00  0.00    +0.266 C 
ATOM     17  N   UNL A   1     -25.614   5.252  26.449  0.00  0.00    -0.200 NA
ATOM     18  C   UNL A   1     -25.026   6.479  26.963  0.00  0.00    +0.139 C 
ATOM     19  O   UNL A   1     -25.143   3.966  28.243  0.00  0.00    -0.268 OA
ENDBRANCH  10  16
BRANCH  13  20
ATOM     20  O   UNL A   1     -28.193  -0.208  24.477  0.00  0.00    -0.456 OA
BRANCH  20  21
ATOM     21  C   UNL A   1     -29.460   0.005  23.866  0.00  0.00    +0.243 C 
BRANCH  21  22
ATOM     22  C   UNL A   1     -30.065  -1.377  23.573  0.00  0.00    +0.229 C 
ATOM     23  O   UNL A   1     -30.729  -1.878  24.721  0.00  0.00    -0.216 OA
ENDBRANCH  21  22
ENDBRANCH  20  21
ENDBRANCH  13  20
ENDBRANCH   1   9
BRANCH   6  24
ATOM     24  C   UNL A   1     -25.220  -0.148  28.971  0.00  0.00    +0.146 C 
BRANCH  24  25
ATOM     25  C   UNL A   1     -24.855  -1.012  30.143  0.00  0.00    +0.070 C 
BRANCH  25  26
ATOM     26  C   UNL A   1     -24.973  -2.505  29.788  0.00  0.00    -0.018 C 
ATOM     27  C   UNL A   1     -23.906  -3.173  29.146  0.00  0.00    -0.004 C 
ATOM     28  C   UNL A   1     -23.989  -4.549  28.853  0.00  0.00    -0.000 C 
ATOM     29  C   UNL A   1     -25.137  -5.280  29.205  0.00  0.00    -0.000 C 
ATOM     30  C   UNL A   1     -26.232  -4.611  29.784  0.00  0.00    -0.000 C 
ATOM     31  C   UNL A   1     -26.155  -3.232  30.065  0.00  0.00    -0.004 C 
ENDBRANCH  25  26
BRANCH  25  32
ATOM     32  C   UNL A   1     -25.387  -0.679  31.571  0.00  0.00    +0.080 C 
ATOM     33  C   UNL A   1     -25.189   0.773  32.028  0.00  0.00    +0.019 C 
ATOM     34  C   UNL A   1     -25.336   0.684  33.544  0.00  0.00    +0.020 C 
ATOM     35  C   UNL A   1     -24.829  -0.715  33.905  0.00  0.00    +0.089 C 
ATOM     36  N   UNL A   1     -24.758  -1.481  32.646  0.00  0.00    -0.219 NA
ENDBRANCH  25  32
ENDBRANCH  24  25
BRANCH  24  37
ATOM     37  O   UNL A   1     -26.541  -0.055  28.587  0.00  0.00    -0.349 OA
BRANCH  37  38
ATOM     38  C   UNL A   1     -27.628  -0.775  28.266  0.00  0.00    +0.173 C 
BRANCH  38  42
ATOM     39  N   UNL A   1     -28.072   1.666  30.153  0.00  0.00    -0.130 NA
ATOM     40  C   UNL A   1     -29.061   1.055  29.239  0.00  0.00    +0.124 C 
ATOM     41  C   UNL A   1     -30.522   1.429  29.253  0.00  0.00    +0.054 C 
ATOM     42  C   UNL A   1     -28.970  -0.369  28.915  0.00  0.00    +0.162 C 
ATOM     43  O   UNL A   1     -30.199  -0.638  28.121  0.00  0.00    -0.352 OA
ATOM     44  C   UNL A   1     -31.246   0.351  28.375  0.00  0.00    +0.144 C 
ENDBRANCH  38  42
ENDBRANCH  37  38
ENDBRANCH  24  37
ENDBRANCH   6  24
TORSDOF 12
