REMARK  Name = outputs/IAG933/test6/raw/output_6231_IAG933_linker_design_.xyz
REMARK  13 active torsions:
REMARK  status: ('A' for Active; 'I' for Inactive)
REMARK    1  A    between atoms: C_1  and  C_2
REMARK    2  A    between atoms: C_1  and  C_8
REMARK    3  A    between atoms: C_1  and  C_30
REMARK    4  A    between atoms: C_13  and  N_32
REMARK    5  A    between atoms: C_14  and  C_15
REMARK    6  A    between atoms: C_21  and  O_22
REMARK    7  A    between atoms: O_22  and  C_23
REMARK    8  A    between atoms: C_23  and  C_24
REMARK    9  A    between atoms: C_30  and  C_35
REMARK   10  A    between atoms: C_30  and  C_38
REMARK   11  A    between atoms: C_31  and  N_32
REMARK   12  A    between atoms: C_31  and  C_33
REMARK   13  A    between atoms: C_34  and  C_35
REMARK                            x       y       z     vdW  Elec       q    Type
REMARK                         _______ _______ _______ _____ _____    ______ ____
ROOT
ATOM      1  C   UNL A   1     -20.460   0.828  28.530  0.00  0.00    +0.104 C 
ATOM      2  C   UNL A   1     -23.315   1.751  26.992  0.00  0.00    +0.045 C 
ATOM      3  F   UNL A   1     -20.187   1.736  27.686  0.00  0.00    -0.233 F 
ATOM      4  C   UNL A   1     -22.933   0.869  29.415  0.00  0.00    +0.140 C 
ATOM      5  O   UNL A   1     -21.865  -0.074  29.906  0.00  0.00    -0.327 OA
ATOM      6  C   UNL A   1     -20.903  -0.282  28.816  0.00  0.00    +0.272 C 
ATOM      7  C   UNL A   1     -21.098   1.822  28.109  0.00  0.00    +0.188 C 
ATOM      8  C   UNL A   1     -22.532   1.584  28.154  0.00  0.00    +0.026 C 
ATOM      9  O   UNL A   1     -21.788  -0.997  28.076  0.00  0.00    -0.190 OA
ENDROOT
BRANCH   2  10
ATOM     10  C   UNL A   1     -23.183   2.276  25.826  0.00  0.00    +0.043 C 
ATOM     11  C   UNL A   1     -22.767   2.847  24.665  0.00  0.00    +0.006 C 
ENDBRANCH   2  10
BRANCH   4  12
ATOM     12  C   UNL A   1     -24.324   0.135  29.262  0.00  0.00    +0.048 C 
BRANCH  12  13
ATOM     13  C   UNL A   1     -24.855  -1.012  30.143  0.00  0.00    +0.042 C 
BRANCH  13  14
ATOM     14  C   UNL A   1     -24.973  -2.505  29.788  0.00  0.00    -0.021 C 
ATOM     15  C   UNL A   1     -23.906  -3.173  29.146  0.00  0.00    -0.004 C 
ATOM     16  C   UNL A   1     -23.989  -4.549  28.853  0.00  0.00    -0.000 C 
ATOM     17  C   UNL A   1     -25.137  -5.280  29.205  0.00  0.00    -0.000 C 
ATOM     18  C   UNL A   1     -26.232  -4.611  29.784  0.00  0.00    -0.000 C 
ATOM     19  C   UNL A   1     -26.155  -3.232  30.065  0.00  0.00    -0.004 C 
ENDBRANCH  13  14
BRANCH  13  20
ATOM     20  C   UNL A   1     -25.387  -0.679  31.571  0.00  0.00    +0.077 C 
ATOM     21  C   UNL A   1     -25.189   0.773  32.028  0.00  0.00    +0.019 C 
ATOM     22  C   UNL A   1     -25.336   0.684  33.544  0.00  0.00    +0.020 C 
ATOM     23  C   UNL A   1     -24.829  -0.715  33.905  0.00  0.00    +0.089 C 
ATOM     24  N   UNL A   1     -24.758  -1.481  32.646  0.00  0.00    -0.219 NA
ENDBRANCH  13  20
ENDBRANCH  12  13
BRANCH  12  25
ATOM     25  C   UNL A   1     -25.477  -0.205  28.333  0.00  0.00    +0.117 C 
BRANCH  25  27
ATOM     26  O   UNL A   1     -26.861   1.403  29.263  0.00  0.00    -0.246 OA
ATOM     27  C   UNL A   1     -26.767   0.239  29.007  0.00  0.00    +0.365 C 
ATOM     28  O   UNL A   1     -27.682  -0.685  28.810  0.00  0.00    -0.246 OA
ENDBRANCH  25  27
ENDBRANCH  12  25
ENDBRANCH   4  12
BRANCH   2  29
ATOM     29  N   UNL A   1     -24.416   1.425  26.886  0.00  0.00    -0.215 NA
BRANCH  29  30
ATOM     30  C   UNL A   1     -25.688   1.614  26.461  0.00  0.00    +0.108 C 
ATOM     31  C   UNL A   1     -26.250   2.920  26.395  0.00  0.00    +0.092 C 
ATOM     32  C   UNL A   1     -27.438   3.091  25.645  0.00  0.00    +0.108 C 
ATOM     33  N   UNL A   1     -28.075   2.089  25.003  0.00  0.00    -0.208 NA
ATOM     34  C   UNL A   1     -27.543   0.849  25.079  0.00  0.00    +0.255 C 
ATOM     35  C   UNL A   1     -26.354   0.576  25.777  0.00  0.00    +0.208 C 
ATOM     36  F   UNL A   1     -25.860  -0.681  25.795  0.00  0.00    -0.198 F 
BRANCH  31  37
ATOM     37  C   UNL A   1     -25.642   4.093  27.123  0.00  0.00    +0.268 C 
ATOM     38  N   UNL A   1     -25.614   5.252  26.449  0.00  0.00    -0.200 NA
ATOM     39  C   UNL A   1     -25.026   6.479  26.963  0.00  0.00    +0.139 C 
ATOM     40  O   UNL A   1     -25.143   3.966  28.243  0.00  0.00    -0.268 OA
ENDBRANCH  31  37
BRANCH  34  41
ATOM     41  O   UNL A   1     -28.193  -0.208  24.477  0.00  0.00    -0.456 OA
BRANCH  41  42
ATOM     42  C   UNL A   1     -29.460   0.005  23.866  0.00  0.00    +0.243 C 
BRANCH  42  43
ATOM     43  C   UNL A   1     -30.065  -1.377  23.573  0.00  0.00    +0.229 C 
ATOM     44  O   UNL A   1     -30.729  -1.878  24.721  0.00  0.00    -0.216 OA
ENDBRANCH  42  43
ENDBRANCH  41  42
ENDBRANCH  34  41
ENDBRANCH  29  30
ENDBRANCH   2  29
TORSDOF 13
