MODEL 623
MODEL 1
REMARK VINA RESULT:    -5.653      0.000      0.000
REMARK INTER + INTRA:          -6.564
REMARK INTER:                  -6.314
REMARK INTRA:                  -0.250
REMARK UNBOUND:                -0.250
REMARK  Name = No_623-gen_results/8p0m/2024-11-27-11-27-31/
REMARK  2 active torsions:
REMARK  status: ('A' for Active; 'I' for Inactive)
REMARK    1  A    between atoms: C_2  and  C_7
REMARK    2  A    between atoms: C_4  and  C_10
REMARK                            x       y       z     vdW  Elec       q    Type
REMARK                         _______ _______ _______ _____ _____    ______ ____
ROOT
ATOM      1  C   UNL A   1     -29.189 -10.541  32.780  0.00  0.00    +0.007 A 
ATOM      2  C   UNL A   1     -28.211 -10.908  32.923  0.00  0.00    +0.080 A 
ATOM      3  C   UNL A   1     -29.485 -10.188  31.392  0.00  0.00    +0.000 A 
ATOM      4  C   UNL A   1     -29.577 -11.058  30.527  0.00  0.00    -0.000 A 
ATOM      5  C   UNL A   1     -27.712 -12.069  31.984  0.00  0.00    +0.007 A 
ATOM      6  C   UNL A   1     -28.274 -11.975  30.668  0.00  0.00    +0.000 A 
ENDROOT
BRANCH   2   7
ATOM      7  C   UNL A   1     -27.541 -11.165  34.272  0.00  0.00    +0.388 C 
ATOM      8  O   UNL A   1     -26.830 -10.485  34.817  0.00  0.00    -0.241 OA
ATOM      9  O   UNL A   1     -27.478 -12.524  34.512  0.00  0.00    -0.241 OA
ENDBRANCH   2   7
BRANCH   4  10
ATOM     10  C   UNL A   1     -29.992 -10.971  29.087  0.00  0.00    -0.005 C 
ATOM     11  C   UNL A   1     -29.430 -11.411  28.191  0.00  0.00    -0.026 C 
ATOM     12  C   UNL A   1     -29.923 -11.715  26.814  0.00  0.00    +0.031 C 
ENDBRANCH   4  10
TORSDOF 2
ENDMDL
ENDMDL
