REMARK  Name = outputs/IAG933/test6/raw/output_6246_IAG933_linker_design_.xyz
REMARK  11 active torsions:
REMARK  status: ('A' for Active; 'I' for Inactive)
REMARK    1  A    between atoms: C_1  and  C_2
REMARK    2  A    between atoms: C_1  and  C_8
REMARK    3  A    between atoms: C_1  and  N_43
REMARK    4  A    between atoms: C_13  and  C_34
REMARK    5  A    between atoms: C_14  and  C_15
REMARK    6  A    between atoms: C_21  and  O_22
REMARK    7  A    between atoms: O_22  and  C_23
REMARK    8  A    between atoms: C_23  and  C_24
REMARK    9  A    between atoms: C_29  and  N_43
REMARK   10  A    between atoms: N_30  and  C_40
REMARK   11  A    between atoms: C_32  and  C_37
REMARK                            x       y       z     vdW  Elec       q    Type
REMARK                         _______ _______ _______ _____ _____    ______ ____
ROOT
ATOM      1  N   UNL A   1     -27.709   0.381  29.279  0.00  0.00    -0.228 NA
ATOM      2  C   UNL A   1     -26.594  -0.154  28.712  0.00  0.00    +0.164 C 
ATOM      3  N   UNL A   1     -25.246  -0.043  29.098  0.00  0.00    -0.289 N 
ENDROOT
BRANCH   1   8
ATOM      4  C   UNL A   1     -31.756  -0.208  28.359  0.00  0.00    -0.000 C 
ATOM      5  C   UNL A   1     -29.973  -0.503  29.961  0.00  0.00    +0.028 C 
ATOM      6  C   UNL A   1     -29.492   0.374  27.737  0.00  0.00    +0.019 C 
ATOM      7  C   UNL A   1     -31.305  -0.588  29.609  0.00  0.00    -0.000 C 
ATOM      8  C   UNL A   1     -29.035   0.029  29.032  0.00  0.00    +0.081 C 
ATOM      9  C   UNL A   1     -30.852   0.310  27.410  0.00  0.00    +0.002 C 
BRANCH   5  10
ATOM     10  C   UNL A   1     -29.656  -0.944  31.376  0.00  0.00    +0.210 C 
ATOM     11  O   UNL A   1     -30.034  -2.309  31.575  0.00  0.00    -0.215 OA
ENDBRANCH   5  10
ENDBRANCH   1   8
BRANCH   3  12
ATOM     12  C   UNL A   1     -24.350   0.875  28.463  0.00  0.00    +0.079 C 
ATOM     13  C   UNL A   1     -23.101   0.325  28.902  0.00  0.00    +0.020 C 
ATOM     14  C   UNL A   1     -22.047   1.111  28.611  0.00  0.00    +0.002 C 
ATOM     15  C   UNL A   1     -24.327   1.360  26.964  0.00  0.00    +0.043 C 
ATOM     16  C   UNL A   1     -21.943   1.646  27.133  0.00  0.00    +0.000 C 
ATOM     17  C   UNL A   1     -23.259   2.186  26.650  0.00  0.00    +0.006 C 
BRANCH  15  18
ATOM     18  C   UNL A   1     -25.688   1.614  26.461  0.00  0.00    +0.017 C 
ATOM     19  C   UNL A   1     -26.250   2.920  26.395  0.00  0.00    +0.073 C 
ATOM     20  C   UNL A   1     -27.438   3.091  25.645  0.00  0.00    +0.106 C 
ATOM     21  N   UNL A   1     -28.075   2.089  25.003  0.00  0.00    -0.208 NA
ATOM     22  C   UNL A   1     -27.543   0.849  25.079  0.00  0.00    +0.253 C 
ATOM     23  C   UNL A   1     -26.354   0.576  25.777  0.00  0.00    +0.189 C 
ATOM     24  F   UNL A   1     -25.860  -0.681  25.795  0.00  0.00    -0.200 F 
BRANCH  19  25
ATOM     25  C   UNL A   1     -25.642   4.093  27.123  0.00  0.00    +0.266 C 
ATOM     26  N   UNL A   1     -25.614   5.252  26.449  0.00  0.00    -0.200 NA
ATOM     27  C   UNL A   1     -25.026   6.479  26.963  0.00  0.00    +0.139 C 
ATOM     28  O   UNL A   1     -25.143   3.966  28.243  0.00  0.00    -0.268 OA
ENDBRANCH  19  25
BRANCH  22  29
ATOM     29  O   UNL A   1     -28.193  -0.208  24.477  0.00  0.00    -0.456 OA
BRANCH  29  30
ATOM     30  C   UNL A   1     -29.460   0.005  23.866  0.00  0.00    +0.243 C 
BRANCH  30  31
ATOM     31  C   UNL A   1     -30.065  -1.377  23.573  0.00  0.00    +0.229 C 
ATOM     32  O   UNL A   1     -30.729  -1.878  24.721  0.00  0.00    -0.216 OA
ENDBRANCH  30  31
ENDBRANCH  29  30
ENDBRANCH  22  29
ENDBRANCH  15  18
ENDBRANCH   3  12
BRANCH   3  33
ATOM     33  C   UNL A   1     -24.855  -1.012  30.143  0.00  0.00    +0.113 C 
BRANCH  33  34
ATOM     34  C   UNL A   1     -24.973  -2.505  29.788  0.00  0.00    -0.003 C 
ATOM     35  C   UNL A   1     -23.906  -3.173  29.146  0.00  0.00    -0.003 C 
ATOM     36  C   UNL A   1     -23.989  -4.549  28.853  0.00  0.00    -0.000 C 
ATOM     37  C   UNL A   1     -25.137  -5.280  29.205  0.00  0.00    -0.000 C 
ATOM     38  C   UNL A   1     -26.232  -4.611  29.784  0.00  0.00    -0.000 C 
ATOM     39  C   UNL A   1     -26.155  -3.232  30.065  0.00  0.00    -0.003 C 
ENDBRANCH  33  34
BRANCH  33  40
ATOM     40  C   UNL A   1     -25.387  -0.679  31.571  0.00  0.00    +0.095 C 
ATOM     41  C   UNL A   1     -25.189   0.773  32.028  0.00  0.00    +0.021 C 
ATOM     42  C   UNL A   1     -25.336   0.684  33.544  0.00  0.00    +0.020 C 
ATOM     43  C   UNL A   1     -24.829  -0.715  33.905  0.00  0.00    +0.089 C 
ATOM     44  N   UNL A   1     -24.758  -1.481  32.646  0.00  0.00    -0.217 NA
ENDBRANCH  33  40
ENDBRANCH   3  33
TORSDOF 11
