REMARK  Name = outputs/IAG933/test6/raw/output_6247_IAG933_linker_design_.xyz
REMARK  13 active torsions:
REMARK  status: ('A' for Active; 'I' for Inactive)
REMARK    1  A    between atoms: C_1  and  C_2
REMARK    2  A    between atoms: C_1  and  C_8
REMARK    3  A    between atoms: C_1  and  C_40
REMARK    4  A    between atoms: C_13  and  C_43
REMARK    5  A    between atoms: C_14  and  C_15
REMARK    6  A    between atoms: C_21  and  O_22
REMARK    7  A    between atoms: O_22  and  C_23
REMARK    8  A    between atoms: C_23  and  C_24
REMARK    9  A    between atoms: C_31  and  C_35
REMARK   10  A    between atoms: C_35  and  C_43
REMARK   11  A    between atoms: C_37  and  C_42
REMARK   12  A    between atoms: C_40  and  C_42
REMARK   13  A    between atoms: C_40  and  C_43
REMARK                            x       y       z     vdW  Elec       q    Type
REMARK                         _______ _______ _______ _____ _____    ______ ____
ROOT
ATOM      1  C   UNL A   1     -25.166   0.098  28.945  0.00  0.00    +0.006 C 
ENDROOT
BRANCH   1   2
ATOM      2  C   UNL A   1     -24.855  -1.012  30.143  0.00  0.00    +0.038 C 
BRANCH   2   3
ATOM      3  C   UNL A   1     -24.973  -2.505  29.788  0.00  0.00    -0.021 C 
ATOM      4  C   UNL A   1     -23.906  -3.173  29.146  0.00  0.00    -0.004 C 
ATOM      5  C   UNL A   1     -23.989  -4.549  28.853  0.00  0.00    -0.000 C 
ATOM      6  C   UNL A   1     -25.137  -5.280  29.205  0.00  0.00    -0.000 C 
ATOM      7  C   UNL A   1     -26.232  -4.611  29.784  0.00  0.00    -0.000 C 
ATOM      8  C   UNL A   1     -26.155  -3.232  30.065  0.00  0.00    -0.004 C 
ENDBRANCH   2   3
BRANCH   2   9
ATOM      9  C   UNL A   1     -25.387  -0.679  31.571  0.00  0.00    +0.077 C 
ATOM     10  C   UNL A   1     -25.189   0.773  32.028  0.00  0.00    +0.019 C 
ATOM     11  C   UNL A   1     -25.336   0.684  33.544  0.00  0.00    +0.020 C 
ATOM     12  C   UNL A   1     -24.829  -0.715  33.905  0.00  0.00    +0.089 C 
ATOM     13  N   UNL A   1     -24.758  -1.481  32.646  0.00  0.00    -0.219 NA
ENDBRANCH   2   9
ENDBRANCH   1   2
BRANCH   1  14
ATOM     14  C   UNL A   1     -26.529  -0.514  28.519  0.00  0.00    +0.003 C 
BRANCH  14  21
ATOM     15  O   UNL A   1     -32.615  -0.013  27.724  0.00  0.00    -0.223 OA
ATOM     16  C   UNL A   1     -28.353   0.548  30.050  0.00  0.00    +0.003 C 
ATOM     17  C   UNL A   1     -31.345   0.085  28.008  0.00  0.00    +0.154 C 
ATOM     18  C   UNL A   1     -29.832   0.996  30.121  0.00  0.00    +0.003 C 
ATOM     19  C   UNL A   1     -30.838   1.093  29.004  0.00  0.00    +0.033 C 
ATOM     20  C   UNL A   1     -29.200  -1.094  28.384  0.00  0.00    +0.154 C 
ATOM     21  C   UNL A   1     -28.075  -0.101  28.657  0.00  0.00    +0.030 C 
ATOM     22  C   UNL A   1     -30.271  -0.757  27.409  0.00  0.00    +0.066 C 
ATOM     23  O   UNL A   1     -29.370  -2.039  29.364  0.00  0.00    -0.223 OA
ENDBRANCH  14  21
ENDBRANCH   1  14
BRANCH   1  24
ATOM     24  C   UNL A   1     -24.771   1.095  27.626  0.00  0.00    +0.008 C 
BRANCH  24  25
ATOM     25  C   UNL A   1     -25.688   1.614  26.461  0.00  0.00    +0.070 C 
ATOM     26  C   UNL A   1     -26.250   2.920  26.395  0.00  0.00    +0.055 C 
ATOM     27  C   UNL A   1     -27.438   3.091  25.645  0.00  0.00    +0.102 C 
ATOM     28  N   UNL A   1     -28.075   2.089  25.003  0.00  0.00    -0.212 NA
ATOM     29  C   UNL A   1     -27.543   0.849  25.079  0.00  0.00    +0.234 C 
ATOM     30  C   UNL A   1     -26.354   0.576  25.777  0.00  0.00    +0.240 C 
ATOM     31  F   UNL A   1     -25.860  -0.681  25.795  0.00  0.00    -0.227 F 
BRANCH  26  32
ATOM     32  C   UNL A   1     -25.642   4.093  27.123  0.00  0.00    +0.262 C 
ATOM     33  N   UNL A   1     -25.614   5.252  26.449  0.00  0.00    -0.200 NA
ATOM     34  C   UNL A   1     -25.026   6.479  26.963  0.00  0.00    +0.139 C 
ATOM     35  O   UNL A   1     -25.143   3.966  28.243  0.00  0.00    -0.269 OA
ENDBRANCH  26  32
BRANCH  29  36
ATOM     36  O   UNL A   1     -28.193  -0.208  24.477  0.00  0.00    -0.459 OA
BRANCH  36  37
ATOM     37  C   UNL A   1     -29.460   0.005  23.866  0.00  0.00    +0.242 C 
BRANCH  37  38
ATOM     38  C   UNL A   1     -30.065  -1.377  23.573  0.00  0.00    +0.229 C 
ATOM     39  O   UNL A   1     -30.729  -1.878  24.721  0.00  0.00    -0.216 OA
ENDBRANCH  37  38
ENDBRANCH  36  37
ENDBRANCH  29  36
ENDBRANCH  24  25
BRANCH  24  41
ATOM     40  C   UNL A   1     -22.953   2.014  25.525  0.00  0.00    +0.000 C 
ATOM     41  C   UNL A   1     -23.327   1.564  27.301  0.00  0.00    +0.000 C 
BRANCH  41  42
ATOM     42  C   UNL A   1     -22.325   0.709  28.151  0.00  0.00    +0.000 C 
ATOM     43  C   UNL A   1     -20.916   1.357  27.779  0.00  0.00    +0.000 C 
ENDBRANCH  41  42
ENDBRANCH  24  41
ENDBRANCH   1  24
TORSDOF 13
