MODEL 624
MODEL 1
REMARK VINA RESULT:    -8.472      0.000      0.000
REMARK INTER + INTRA:         -12.726
REMARK INTER:                 -10.949
REMARK INTRA:                  -1.777
REMARK UNBOUND:                -1.777
REMARK  Name = No_624-gen_results/8p0m/2024-11-27-11-27-31/
REMARK  5 active torsions:
REMARK  status: ('A' for Active; 'I' for Inactive)
REMARK    1  A    between atoms: C_1  and  C_10
REMARK    2  A    between atoms: C_5  and  C_7
REMARK    3  A    between atoms: C_7  and  C_9
REMARK    4  A    between atoms: C_13  and  C_14
REMARK    5  A    between atoms: C_18  and  C_24
REMARK                            x       y       z     vdW  Elec       q    Type
REMARK                         _______ _______ _______ _____ _____    ______ ____
ROOT
ATOM      1  C   UNL A   1     -30.989 -14.311  25.500  0.00  0.00    -0.008 A 
ATOM      2  C   UNL A   1     -30.418 -14.044  26.558  0.00  0.00    -0.003 A 
ATOM      3  C   UNL A   1     -32.356 -14.504  25.195  0.00  0.00    -0.003 A 
ATOM      4  C   UNL A   1     -31.058 -14.524  27.806  0.00  0.00    -0.000 A 
ATOM      5  C   UNL A   1     -32.383 -14.932  27.724  0.00  0.00    -0.000 A 
ATOM      6  C   UNL A   1     -32.977 -15.049  26.416  0.00  0.00    -0.000 A 
ENDROOT
BRANCH   2   7
ATOM      7  C   UNL A   1     -29.491 -13.145  26.683  0.00  0.00    -0.000 A 
ATOM      8  C   UNL A   1     -29.672 -11.704  26.181  0.00  0.00    -0.000 A 
ATOM      9  C   UNL A   1     -30.120 -10.952  26.759  0.00  0.00    -0.000 A 
ATOM     10  C   UNL A   1     -30.327 -10.986  28.116  0.00  0.00    -0.000 A 
ATOM     11  C   UNL A   1     -29.407 -11.673  28.847  0.00  0.00    -0.000 A 
ATOM     12  C   UNL A   1     -29.358 -12.842  28.302  0.00  0.00    -0.000 A 
BRANCH  11  13
ATOM     13  C   UNL A   1     -29.031 -11.375  30.224  0.00  0.00    -0.000 A 
ATOM     14  C   UNL A   1     -28.291 -11.904  30.817  0.00  0.00    +0.000 A 
ATOM     15  C   UNL A   1     -29.832 -10.283  30.844  0.00  0.00    +0.000 A 
ATOM     16  C   UNL A   1     -27.912 -11.752  32.250  0.00  0.00    +0.000 A 
ATOM     17  C   UNL A   1     -29.562  -9.975  32.218  0.00  0.00    +0.000 A 
ATOM     18  C   UNL A   1     -28.602 -10.716  32.905  0.00  0.00    +0.000 A 
ENDBRANCH  11  13
ENDBRANCH   2   7
BRANCH   1  19
ATOM     19  C   UNL A   1     -30.116 -14.649  24.370  0.00  0.00    +0.101 C 
ATOM     20 BR   UNL A   1     -28.811 -15.731  24.594  0.00  0.00    -0.072 Br
BRANCH  19  25
ATOM     21  C   UNL A   1     -30.142 -12.902  21.060  0.00  0.00    +0.080 A 
ATOM     22  C   UNL A   1     -31.096 -13.439  20.547  0.00  0.00    +0.007 A 
ATOM     23  C   UNL A   1     -31.826 -14.473  21.108  0.00  0.00    -0.000 A 
ATOM     24  C   UNL A   1     -31.434 -14.914  22.407  0.00  0.00    -0.003 A 
ATOM     25  C   UNL A   1     -30.465 -14.196  23.010  0.00  0.00    -0.008 A 
ATOM     26  C   UNL A   1     -29.883 -13.155  22.409  0.00  0.00    +0.004 A 
BRANCH  21  27
ATOM     27  C   UNL A   1     -29.444 -11.750  20.351  0.00  0.00    +0.388 C 
ATOM     28  O   UNL A   1     -29.639 -10.756  20.251  0.00  0.00    -0.241 OA
ATOM     29  O   UNL A   1     -28.200 -12.234  19.838  0.00  0.00    -0.241 OA
ENDBRANCH  21  27
ENDBRANCH  19  25
ENDBRANCH   1  19
TORSDOF 5
ENDMDL
ENDMDL
