REMARK  Name = outputs/IAG933/test6/raw/output_625_IAG933_linker_design_.xyz
REMARK  11 active torsions:
REMARK  status: ('A' for Active; 'I' for Inactive)
REMARK    1  A    between atoms: C_1  and  C_2
REMARK    2  A    between atoms: C_1  and  C_8
REMARK    3  A    between atoms: C_1  and  N_36
REMARK    4  A    between atoms: C_13  and  C_35
REMARK    5  A    between atoms: C_14  and  C_15
REMARK    6  A    between atoms: C_21  and  O_22
REMARK    7  A    between atoms: O_22  and  C_23
REMARK    8  A    between atoms: C_23  and  C_24
REMARK    9  A    between atoms: N_29  and  C_35
REMARK   10  A    between atoms: C_31  and  C_37
REMARK   11  A    between atoms: C_31  and  C_39
REMARK                            x       y       z     vdW  Elec       q    Type
REMARK                         _______ _______ _______ _____ _____    ______ ____
ROOT
ATOM      1  C   UNL A   1     -25.022   0.884  27.765  0.00  0.00    +0.146 C 
ATOM      2  N   UNL A   1     -25.219  -0.119  29.003  0.00  0.00    -0.253 NA
ATOM      3  C   UNL A   1     -25.980   0.977  28.971  0.00  0.00    +0.095 C 
ENDROOT
BRANCH   1   4
ATOM      4  C   UNL A   1     -25.688   1.614  26.461  0.00  0.00    +0.104 C 
ATOM      5  C   UNL A   1     -26.250   2.920  26.395  0.00  0.00    +0.058 C 
ATOM      6  C   UNL A   1     -27.438   3.091  25.645  0.00  0.00    +0.102 C 
ATOM      7  N   UNL A   1     -28.075   2.089  25.003  0.00  0.00    -0.212 NA
ATOM      8  C   UNL A   1     -27.543   0.849  25.079  0.00  0.00    +0.234 C 
ATOM      9  C   UNL A   1     -26.354   0.576  25.777  0.00  0.00    +0.243 C 
ATOM     10  F   UNL A   1     -25.860  -0.681  25.795  0.00  0.00    -0.227 F 
BRANCH   5  11
ATOM     11  C   UNL A   1     -25.642   4.093  27.123  0.00  0.00    +0.263 C 
ATOM     12  N   UNL A   1     -25.614   5.252  26.449  0.00  0.00    -0.200 NA
ATOM     13  C   UNL A   1     -25.026   6.479  26.963  0.00  0.00    +0.139 C 
ATOM     14  O   UNL A   1     -25.143   3.966  28.243  0.00  0.00    -0.269 OA
ENDBRANCH   5  11
BRANCH   8  15
ATOM     15  O   UNL A   1     -28.193  -0.208  24.477  0.00  0.00    -0.459 OA
BRANCH  15  16
ATOM     16  C   UNL A   1     -29.460   0.005  23.866  0.00  0.00    +0.242 C 
BRANCH  16  17
ATOM     17  C   UNL A   1     -30.065  -1.377  23.573  0.00  0.00    +0.229 C 
ATOM     18  O   UNL A   1     -30.729  -1.878  24.721  0.00  0.00    -0.216 OA
ENDBRANCH  16  17
ENDBRANCH  15  16
ENDBRANCH   8  15
ENDBRANCH   1   4
BRANCH   1  19
ATOM     19  N   UNL A   1     -23.605   1.484  27.581  0.00  0.00    -0.192 NA
ATOM     20  O   UNL A   1     -22.549  -0.393  28.527  0.00  0.00    -0.273 OA
ATOM     21  C   UNL A   1     -21.138   1.475  27.855  0.00  0.00    +0.097 C 
ATOM     22  C   UNL A   1     -22.400   0.655  27.953  0.00  0.00    +0.243 C 
ENDBRANCH   1  19
BRANCH   2  23
ATOM     23  C   UNL A   1     -24.855  -1.012  30.143  0.00  0.00    +0.098 C 
BRANCH  23  24
ATOM     24  C   UNL A   1     -24.973  -2.505  29.788  0.00  0.00    -0.006 C 
ATOM     25  C   UNL A   1     -23.906  -3.173  29.146  0.00  0.00    -0.003 C 
ATOM     26  C   UNL A   1     -23.989  -4.549  28.853  0.00  0.00    -0.000 C 
ATOM     27  C   UNL A   1     -25.137  -5.280  29.205  0.00  0.00    -0.000 C 
ATOM     28  C   UNL A   1     -26.232  -4.611  29.784  0.00  0.00    -0.000 C 
ATOM     29  C   UNL A   1     -26.155  -3.232  30.065  0.00  0.00    -0.003 C 
ENDBRANCH  23  24
BRANCH  23  30
ATOM     30  C   UNL A   1     -25.387  -0.679  31.571  0.00  0.00    +0.092 C 
ATOM     31  C   UNL A   1     -25.189   0.773  32.028  0.00  0.00    +0.021 C 
ATOM     32  C   UNL A   1     -25.336   0.684  33.544  0.00  0.00    +0.020 C 
ATOM     33  C   UNL A   1     -24.829  -0.715  33.905  0.00  0.00    +0.089 C 
ATOM     34  N   UNL A   1     -24.758  -1.481  32.646  0.00  0.00    -0.218 NA
ENDBRANCH  23  30
ENDBRANCH   2  23
BRANCH   3  35
ATOM     35  C   UNL A   1     -27.255   0.972  30.010  0.00  0.00    +0.052 C 
BRANCH  35  40
ATOM     36  O   UNL A   1     -30.882  -0.279  30.447  0.00  0.00    -0.218 OA
ATOM     37  C   UNL A   1     -31.486   0.449  29.700  0.00  0.00    +0.215 C 
ATOM     38  O   UNL A   1     -30.113   0.017  27.553  0.00  0.00    -0.220 OA
ATOM     39  C   UNL A   1     -29.458   1.883  29.008  0.00  0.00    +0.069 C 
ATOM     40  C   UNL A   1     -28.822   0.694  29.796  0.00  0.00    +0.156 C 
ATOM     41  O   UNL A   1     -29.650  -0.040  30.813  0.00  0.00    -0.223 OA
ATOM     42  C   UNL A   1     -30.668   1.064  28.419  0.00  0.00    +0.187 C 
ENDBRANCH  35  40
ENDBRANCH   3  35
TORSDOF 11
