REMARK  Name = outputs/IAG933/test6/raw/output_6255_IAG933_linker_design_.xyz
REMARK  9 active torsions:
REMARK  status: ('A' for Active; 'I' for Inactive)
REMARK    1  A    between atoms: C_1  and  C_2
REMARK    2  A    between atoms: C_1  and  C_8
REMARK    3  A    between atoms: C_1  and  N_29
REMARK    4  A    between atoms: C_13  and  N_28
REMARK    5  A    between atoms: C_14  and  C_15
REMARK    6  A    between atoms: C_21  and  O_22
REMARK    7  A    between atoms: O_22  and  C_23
REMARK    8  A    between atoms: C_23  and  C_24
REMARK    9  A    between atoms: C_31  and  C_33
REMARK                            x       y       z     vdW  Elec       q    Type
REMARK                         _______ _______ _______ _____ _____    ______ ____
ROOT
ATOM      1  N   UNL A   1     -24.373   1.358  27.034  0.00  0.00    -0.117 N 
ATOM      2  N   UNL A   1     -24.669  -0.126  29.128  0.00  0.00    -0.067 NA
ATOM      3  C   UNL A   1     -21.947   1.640  26.686  0.00  0.00    +0.081 C 
ATOM      4  C   UNL A   1     -21.636   1.018  27.887  0.00  0.00    -0.005 C 
ATOM      5  C   UNL A   1     -22.587   0.440  28.748  0.00  0.00    +0.161 C 
ATOM      6  C   UNL A   1     -23.953   0.526  28.366  0.00  0.00    +0.312 C 
ATOM      7  O   UNL A   1     -23.428   2.665  25.292  0.00  0.00    -0.241 OA
ATOM      8  C   UNL A   1     -23.279   1.932  26.289  0.00  0.00    +0.341 C 
ENDROOT
BRANCH   1   9
ATOM      9  C   UNL A   1     -25.688   1.614  26.461  0.00  0.00    +0.184 C 
ATOM     10  C   UNL A   1     -26.250   2.920  26.395  0.00  0.00    +0.114 C 
ATOM     11  C   UNL A   1     -27.438   3.091  25.645  0.00  0.00    +0.110 C 
ATOM     12  N   UNL A   1     -28.075   2.089  25.003  0.00  0.00    -0.208 NA
ATOM     13  C   UNL A   1     -27.543   0.849  25.079  0.00  0.00    +0.257 C 
ATOM     14  C   UNL A   1     -26.354   0.576  25.777  0.00  0.00    +0.230 C 
ATOM     15  F   UNL A   1     -25.860  -0.681  25.795  0.00  0.00    -0.196 F 
BRANCH  10  16
ATOM     16  C   UNL A   1     -25.642   4.093  27.123  0.00  0.00    +0.270 C 
ATOM     17  N   UNL A   1     -25.614   5.252  26.449  0.00  0.00    -0.200 NA
ATOM     18  C   UNL A   1     -25.026   6.479  26.963  0.00  0.00    +0.139 C 
ATOM     19  O   UNL A   1     -25.143   3.966  28.243  0.00  0.00    -0.268 OA
ENDBRANCH  10  16
BRANCH  13  20
ATOM     20  O   UNL A   1     -28.193  -0.208  24.477  0.00  0.00    -0.456 OA
BRANCH  20  21
ATOM     21  C   UNL A   1     -29.460   0.005  23.866  0.00  0.00    +0.243 C 
BRANCH  21  22
ATOM     22  C   UNL A   1     -30.065  -1.377  23.573  0.00  0.00    +0.229 C 
ATOM     23  O   UNL A   1     -30.729  -1.878  24.721  0.00  0.00    -0.216 OA
ENDBRANCH  21  22
ENDBRANCH  20  21
ENDBRANCH  13  20
ENDBRANCH   1   9
BRANCH   5  24
ATOM     24  C   UNL A   1     -21.974  -0.374  29.784  0.00  0.00    +0.199 C 
ATOM     25  O   UNL A   1     -22.326   0.509  30.308  0.00  0.00    -0.219 OA
ENDBRANCH   5  24
BRANCH   2  26
ATOM     26  C   UNL A   1     -24.855  -1.012  30.143  0.00  0.00    +0.253 C 
BRANCH  26  27
ATOM     27  C   UNL A   1     -24.973  -2.505  29.788  0.00  0.00    +0.028 C 
ATOM     28  C   UNL A   1     -23.906  -3.173  29.146  0.00  0.00    -0.000 C 
ATOM     29  C   UNL A   1     -23.989  -4.549  28.853  0.00  0.00    -0.000 C 
ATOM     30  C   UNL A   1     -25.137  -5.280  29.205  0.00  0.00    -0.000 C 
ATOM     31  C   UNL A   1     -26.232  -4.611  29.784  0.00  0.00    -0.000 C 
ATOM     32  C   UNL A   1     -26.155  -3.232  30.065  0.00  0.00    -0.000 C 
ENDBRANCH  26  27
BRANCH  26  33
ATOM     33  C   UNL A   1     -25.387  -0.679  31.571  0.00  0.00    +0.126 C 
ATOM     34  C   UNL A   1     -25.189   0.773  32.028  0.00  0.00    +0.024 C 
ATOM     35  C   UNL A   1     -25.336   0.684  33.544  0.00  0.00    +0.020 C 
ATOM     36  C   UNL A   1     -24.829  -0.715  33.905  0.00  0.00    +0.089 C 
ATOM     37  N   UNL A   1     -24.758  -1.481  32.646  0.00  0.00    -0.215 NA
ENDBRANCH  26  33
ENDBRANCH   2  26
TORSDOF 9
