MODEL 625
MODEL 1
REMARK VINA RESULT:    -5.882      0.000      0.000
REMARK INTER + INTRA:          -7.721
REMARK INTER:                  -7.258
REMARK INTRA:                  -0.464
REMARK UNBOUND:                -0.464
REMARK  Name = No_625-gen_results/8p0m/2024-11-27-11-27-31/
REMARK  4 active torsions:
REMARK  status: ('A' for Active; 'I' for Inactive)
REMARK    1  A    between atoms: C_1  and  C_2
REMARK    2  A    between atoms: C_1  and  C_8
REMARK    3  A    between atoms: C_5  and  C_10
REMARK    4  A    between atoms: C_8  and  N_9
REMARK                            x       y       z     vdW  Elec       q    Type
REMARK                         _______ _______ _______ _____ _____    ______ ____
ROOT
ATOM      1  C   UNL A   1     -29.740 -10.713  30.282  0.00  0.00    -0.020 A 
ATOM      2  C   UNL A   1     -28.806 -11.620  30.242  0.00  0.00    -0.004 A 
ATOM      3  C   UNL A   1     -27.932 -12.030  31.369  0.00  0.00    +0.006 A 
ATOM      4  C   UNL A   1     -28.109 -11.327  32.594  0.00  0.00    +0.080 A 
ATOM      5  C   UNL A   1     -29.050 -10.330  32.624  0.00  0.00    +0.006 A 
ATOM      6  C   UNL A   1     -29.818  -9.975  31.567  0.00  0.00    -0.004 A 
ENDROOT
BRANCH   4   7
ATOM      7  C   UNL A   1     -27.326 -11.648  33.761  0.00  0.00    +0.388 C 
ATOM      8  O   UNL A   1     -27.089 -11.002  34.658  0.00  0.00    -0.241 OA
ATOM      9  O   UNL A   1     -26.758 -12.889  33.689  0.00  0.00    -0.241 OA
ENDBRANCH   4   7
BRANCH   1  10
ATOM     10  C   UNL A   1     -30.464 -10.353  29.383  0.00  0.00    +0.053 C 
BRANCH  10  11
ATOM     11  C   UNL A   1     -30.711 -11.328  28.228  0.00  0.00    +0.136 C 
BRANCH  11  12
ATOM     12  N   UNL A   1     -30.367 -10.997  26.923  0.00  0.00    -0.208 NA
ATOM     13  C   UNL A   1     -29.584 -11.579  26.316  0.00  0.00    +0.420 C 
ATOM     14  F   UNL A   1     -28.580 -11.995  26.826  0.00  0.00    -0.140 F 
ATOM     15  O   UNL A   1     -30.086 -12.613  25.403  0.00  0.00    -0.231 OA
ENDBRANCH  11  12
ENDBRANCH  10  11
ENDBRANCH   1  10
TORSDOF 4
ENDMDL
ENDMDL
