REMARK  Name = outputs/IAG933/test6/raw/output_6266_IAG933_linker_design_.xyz
REMARK  12 active torsions:
REMARK  status: ('A' for Active; 'I' for Inactive)
REMARK    1  A    between atoms: C_1  and  C_2
REMARK    2  A    between atoms: C_1  and  C_8
REMARK    3  A    between atoms: C_1  and  C_41
REMARK    4  A    between atoms: C_13  and  C_43
REMARK    5  A    between atoms: C_14  and  C_15
REMARK    6  A    between atoms: C_21  and  O_22
REMARK    7  A    between atoms: O_22  and  C_23
REMARK    8  A    between atoms: C_23  and  C_24
REMARK    9  A    between atoms: C_28  and  O_46
REMARK   10  A    between atoms: N_30  and  C_41
REMARK   11  A    between atoms: C_34  and  C_39
REMARK   12  A    between atoms: C_41  and  O_46
REMARK                            x       y       z     vdW  Elec       q    Type
REMARK                         _______ _______ _______ _____ _____    ______ ____
ROOT
ATOM      1  C   UNL A   1     -25.535  -0.114  28.958  0.00  0.00    +0.182 C 
ENDROOT
BRANCH   1   2
ATOM      2  N   UNL A   1     -24.391   0.703  28.460  0.00  0.00    -0.248 NA
ATOM      3  C   UNL A   1     -23.227   1.895  26.786  0.00  0.00    +0.022 C 
ATOM      4  C   UNL A   1     -20.813   1.417  27.450  0.00  0.00    +0.002 C 
ATOM      5  C   UNL A   1     -24.529   1.319  27.335  0.00  0.00    +0.085 C 
ATOM      6  C   UNL A   1     -22.296   1.475  27.852  0.00  0.00    +0.018 C 
ATOM      7  C   UNL A   1     -22.979   0.361  28.602  0.00  0.00    +0.074 C 
BRANCH   5   8
ATOM      8  C   UNL A   1     -25.688   1.614  26.461  0.00  0.00    +0.030 C 
ATOM      9  C   UNL A   1     -26.250   2.920  26.395  0.00  0.00    +0.074 C 
ATOM     10  C   UNL A   1     -27.438   3.091  25.645  0.00  0.00    +0.106 C 
ATOM     11  N   UNL A   1     -28.075   2.089  25.003  0.00  0.00    -0.208 NA
ATOM     12  C   UNL A   1     -27.543   0.849  25.079  0.00  0.00    +0.253 C 
ATOM     13  C   UNL A   1     -26.354   0.576  25.777  0.00  0.00    +0.190 C 
ATOM     14  F   UNL A   1     -25.860  -0.681  25.795  0.00  0.00    -0.200 F 
BRANCH   9  15
ATOM     15  C   UNL A   1     -25.642   4.093  27.123  0.00  0.00    +0.266 C 
ATOM     16  N   UNL A   1     -25.614   5.252  26.449  0.00  0.00    -0.200 NA
ATOM     17  C   UNL A   1     -25.026   6.479  26.963  0.00  0.00    +0.139 C 
ATOM     18  O   UNL A   1     -25.143   3.966  28.243  0.00  0.00    -0.268 OA
ENDBRANCH   9  15
BRANCH  12  19
ATOM     19  O   UNL A   1     -28.193  -0.208  24.477  0.00  0.00    -0.456 OA
BRANCH  19  20
ATOM     20  C   UNL A   1     -29.460   0.005  23.866  0.00  0.00    +0.243 C 
BRANCH  20  21
ATOM     21  C   UNL A   1     -30.065  -1.377  23.573  0.00  0.00    +0.229 C 
ATOM     22  O   UNL A   1     -30.729  -1.878  24.721  0.00  0.00    -0.216 OA
ENDBRANCH  20  21
ENDBRANCH  19  20
ENDBRANCH  12  19
ENDBRANCH   5   8
ENDBRANCH   1   2
BRANCH   1  23
ATOM     23  C   UNL A   1     -24.855  -1.012  30.143  0.00  0.00    +0.081 C 
BRANCH  23  24
ATOM     24  C   UNL A   1     -24.973  -2.505  29.788  0.00  0.00    -0.017 C 
ATOM     25  C   UNL A   1     -23.906  -3.173  29.146  0.00  0.00    -0.004 C 
ATOM     26  C   UNL A   1     -23.989  -4.549  28.853  0.00  0.00    -0.000 C 
ATOM     27  C   UNL A   1     -25.137  -5.280  29.205  0.00  0.00    -0.000 C 
ATOM     28  C   UNL A   1     -26.232  -4.611  29.784  0.00  0.00    -0.000 C 
ATOM     29  C   UNL A   1     -26.155  -3.232  30.065  0.00  0.00    -0.004 C 
ENDBRANCH  23  24
BRANCH  23  30
ATOM     30  C   UNL A   1     -25.387  -0.679  31.571  0.00  0.00    +0.081 C 
ATOM     31  C   UNL A   1     -25.189   0.773  32.028  0.00  0.00    +0.019 C 
ATOM     32  C   UNL A   1     -25.336   0.684  33.544  0.00  0.00    +0.020 C 
ATOM     33  C   UNL A   1     -24.829  -0.715  33.905  0.00  0.00    +0.089 C 
ATOM     34  N   UNL A   1     -24.758  -1.481  32.646  0.00  0.00    -0.219 NA
ENDBRANCH  23  30
ENDBRANCH   1  23
BRANCH   1  35
ATOM     35  O   UNL A   1     -26.715   0.839  29.061  0.00  0.00    -0.339 OA
BRANCH  35  36
ATOM     36  C   UNL A   1     -28.236   0.696  29.161  0.00  0.00    +0.164 C 
ATOM     37  O   UNL A   1     -29.941  -0.626  28.466  0.00  0.00    -0.331 OA
ATOM     38  C   UNL A   1     -29.277   0.850  30.510  0.00  0.00    +0.124 C 
ATOM     39  C   UNL A   1     -30.273  -1.009  29.810  0.00  0.00    +0.255 C 
ATOM     40  C   UNL A   1     -29.378   0.410  31.327  0.00  0.00    +0.170 C 
ATOM     41  C   UNL A   1     -28.926   0.231  28.245  0.00  0.00    +0.175 C 
ATOM     42  N   UNL A   1     -29.576   0.767  32.841  0.00  0.00    -0.113 NA
ATOM     43  N   UNL A   1     -29.968   0.319  30.753  0.00  0.00    -0.224 NA
BRANCH  39  47
ATOM     44  N   UNL A   1     -30.344  -3.006  31.299  0.00  0.00    -0.234 NA
ATOM     45  O   UNL A   1     -28.763  -3.160  29.744  0.00  0.00    -0.459 OA
ATOM     46  C   UNL A   1     -29.053  -4.480  30.181  0.00  0.00    +0.233 C 
ATOM     47  C   UNL A   1     -29.664  -2.297  30.214  0.00  0.00    +0.241 C 
ATOM     48  C   UNL A   1     -29.660  -4.307  31.563  0.00  0.00    +0.176 C 
ENDBRANCH  39  47
ENDBRANCH  35  36
ENDBRANCH   1  35
TORSDOF 12
