MODEL 626
MODEL 1
REMARK VINA RESULT:    -6.291      0.000      0.000
REMARK INTER + INTRA:          -7.043
REMARK INTER:                  -6.659
REMARK INTRA:                  -0.384
REMARK UNBOUND:                -0.384
REMARK  Name = No_626-gen_results/8p0m/2024-11-27-11-27-31/
REMARK  1 active torsions:
REMARK  status: ('A' for Active; 'I' for Inactive)
REMARK    1  A    between atoms: C_4  and  C_7
REMARK                            x       y       z     vdW  Elec       q    Type
REMARK                         _______ _______ _______ _____ _____    ______ ____
ROOT
ATOM      1  C   UNL A   1     -26.244  -4.504  29.676  0.00  0.00    +0.000 A 
ATOM      2  C   UNL A   1     -25.510  -5.132  29.255  0.00  0.00    +0.000 A 
ATOM      3  C   UNL A   1     -25.866  -3.044  29.784  0.00  0.00    +0.000 A 
ATOM      4  C   UNL A   1     -24.660  -2.597  29.204  0.00  0.00    +0.000 A 
ATOM      5  C   UNL A   1     -24.220  -4.923  28.559  0.00  0.00    +0.000 A 
ATOM      6  C   UNL A   1     -23.842  -3.590  28.632  0.00  0.00    +0.000 A 
ENDROOT
BRANCH   4   7
ATOM      7  C   UNL A   1     -24.245  -1.239  29.290  0.00  0.00    +0.000 A 
ATOM      8  C   UNL A   1     -24.357  -0.495  28.079  0.00  0.00    +0.000 A 
ATOM      9  C   UNL A   1     -23.509   0.614  27.883  0.00  0.00    +0.000 A 
ATOM     10  C   UNL A   1     -22.340   0.546  28.152  0.00  0.00    +0.000 A 
ATOM     11  C   UNL A   1     -22.100  -0.019  29.510  0.00  0.00    +0.000 A 
ATOM     12  C   UNL A   1     -23.072  -0.895  30.054  0.00  0.00    +0.000 A 
ENDBRANCH   4   7
TORSDOF 1
ENDMDL
ENDMDL
