REMARK  Name = outputs/IAG933/test6/raw/output_627_IAG933_linker_design_.xyz
REMARK  15 active torsions:
REMARK  status: ('A' for Active; 'I' for Inactive)
REMARK    1  A    between atoms: C_1  and  C_2
REMARK    2  A    between atoms: C_1  and  C_8
REMARK    3  A    between atoms: C_1  and  C_33
REMARK    4  A    between atoms: C_13  and  C_38
REMARK    5  A    between atoms: C_14  and  C_15
REMARK    6  A    between atoms: C_21  and  O_22
REMARK    7  A    between atoms: O_22  and  C_23
REMARK    8  A    between atoms: C_23  and  C_24
REMARK    9  A    between atoms: C_28  and  O_31
REMARK   10  A    between atoms: C_28  and  C_32
REMARK   11  A    between atoms: C_30  and  O_31
REMARK   12  A    between atoms: C_32  and  C_41
REMARK   13  A    between atoms: C_33  and  C_39
REMARK   14  A    between atoms: C_33  and  C_45
REMARK   15  A    between atoms: N_36  and  C_41
REMARK                            x       y       z     vdW  Elec       q    Type
REMARK                         _______ _______ _______ _____ _____    ______ ____
ROOT
ATOM      1  C   UNL A   1     -25.261  -0.055  29.039  0.00  0.00    +0.106 C 
ENDROOT
BRANCH   1   4
ATOM      2  C   UNL A   1     -21.886   0.874  27.734  0.00  0.00    -0.000 C 
ATOM      3  C   UNL A   1     -24.434   1.218  26.836  0.00  0.00    -0.001 C 
ATOM      4  C   UNL A   1     -24.219   0.505  28.059  0.00  0.00    -0.013 C 
ATOM      5  C   UNL A   1     -22.105   1.489  26.502  0.00  0.00    -0.000 C 
ATOM      6  C   UNL A   1     -23.371   1.607  26.009  0.00  0.00    -0.000 C 
ATOM      7  C   UNL A   1     -22.921   0.373  28.504  0.00  0.00    -0.004 C 
BRANCH   3   8
ATOM      8  C   UNL A   1     -25.688   1.614  26.461  0.00  0.00    +0.038 C 
ATOM      9  C   UNL A   1     -26.250   2.920  26.395  0.00  0.00    +0.076 C 
ATOM     10  C   UNL A   1     -27.438   3.091  25.645  0.00  0.00    +0.107 C 
ATOM     11  N   UNL A   1     -28.075   2.089  25.003  0.00  0.00    -0.208 NA
ATOM     12  C   UNL A   1     -27.543   0.849  25.079  0.00  0.00    +0.253 C 
ATOM     13  C   UNL A   1     -26.354   0.576  25.777  0.00  0.00    +0.193 C 
ATOM     14  F   UNL A   1     -25.860  -0.681  25.795  0.00  0.00    -0.199 F 
BRANCH   9  15
ATOM     15  C   UNL A   1     -25.642   4.093  27.123  0.00  0.00    +0.266 C 
ATOM     16  N   UNL A   1     -25.614   5.252  26.449  0.00  0.00    -0.200 NA
ATOM     17  C   UNL A   1     -25.026   6.479  26.963  0.00  0.00    +0.139 C 
ATOM     18  O   UNL A   1     -25.143   3.966  28.243  0.00  0.00    -0.268 OA
ENDBRANCH   9  15
BRANCH  12  19
ATOM     19  O   UNL A   1     -28.193  -0.208  24.477  0.00  0.00    -0.456 OA
BRANCH  19  20
ATOM     20  C   UNL A   1     -29.460   0.005  23.866  0.00  0.00    +0.243 C 
BRANCH  20  21
ATOM     21  C   UNL A   1     -30.065  -1.377  23.573  0.00  0.00    +0.229 C 
ATOM     22  O   UNL A   1     -30.729  -1.878  24.721  0.00  0.00    -0.216 OA
ENDBRANCH  20  21
ENDBRANCH  19  20
ENDBRANCH  12  19
ENDBRANCH   3   8
ENDBRANCH   1   4
BRANCH   1  25
ATOM     23  O   UNL A   1     -26.941   1.586  29.156  0.00  0.00    -0.273 OA
ATOM     24  N   UNL A   1     -27.634  -0.601  29.656  0.00  0.00    -0.205 NA
ATOM     25  C   UNL A   1     -26.721   0.425  29.317  0.00  0.00    +0.245 C 
BRANCH  24  26
ATOM     26  C   UNL A   1     -28.851  -0.313  30.422  0.00  0.00    +0.119 C 
BRANCH  26  27
ATOM     27  C   UNL A   1     -30.083  -0.892  29.784  0.00  0.00    +0.066 C 
ATOM     28  C   UNL A   1     -29.837  -0.594  28.171  0.00  0.00    +0.006 C 
BRANCH  27  29
ATOM     29  C   UNL A   1     -30.200  -2.065  30.868  0.00  0.00    +0.214 C 
BRANCH  29  30
ATOM     30  O   UNL A   1     -31.543  -2.593  30.742  0.00  0.00    -0.416 OA
BRANCH  30  31
ATOM     31  C   UNL A   1     -31.381  -3.793  30.144  0.00  0.00    +0.552 C 
ATOM     32  O   UNL A   1     -30.822  -4.002  29.054  0.00  0.00    -0.200 OA
ATOM     33  O   UNL A   1     -31.821  -4.766  30.866  0.00  0.00    -0.200 OA
ENDBRANCH  30  31
ENDBRANCH  29  30
ENDBRANCH  27  29
ENDBRANCH  26  27
ENDBRANCH  24  26
ENDBRANCH   1  25
BRANCH   1  34
ATOM     34  C   UNL A   1     -24.855  -1.012  30.143  0.00  0.00    +0.051 C 
BRANCH  34  35
ATOM     35  C   UNL A   1     -24.973  -2.505  29.788  0.00  0.00    -0.020 C 
ATOM     36  C   UNL A   1     -23.906  -3.173  29.146  0.00  0.00    -0.004 C 
ATOM     37  C   UNL A   1     -23.989  -4.549  28.853  0.00  0.00    -0.000 C 
ATOM     38  C   UNL A   1     -25.137  -5.280  29.205  0.00  0.00    -0.000 C 
ATOM     39  C   UNL A   1     -26.232  -4.611  29.784  0.00  0.00    -0.000 C 
ATOM     40  C   UNL A   1     -26.155  -3.232  30.065  0.00  0.00    -0.004 C 
ENDBRANCH  34  35
BRANCH  34  41
ATOM     41  C   UNL A   1     -25.387  -0.679  31.571  0.00  0.00    +0.078 C 
ATOM     42  C   UNL A   1     -25.189   0.773  32.028  0.00  0.00    +0.019 C 
ATOM     43  C   UNL A   1     -25.336   0.684  33.544  0.00  0.00    +0.020 C 
ATOM     44  C   UNL A   1     -24.829  -0.715  33.905  0.00  0.00    +0.089 C 
ATOM     45  N   UNL A   1     -24.758  -1.481  32.646  0.00  0.00    -0.219 NA
ENDBRANCH  34  41
ENDBRANCH   1  34
TORSDOF 15
