REMARK  Name = outputs/IAG933/test6/raw/output_6271_IAG933_linker_design_.xyz
REMARK  10 active torsions:
REMARK  status: ('A' for Active; 'I' for Inactive)
REMARK    1  A    between atoms: C_1  and  C_2
REMARK    2  A    between atoms: C_1  and  C_8
REMARK    3  A    between atoms: C_1  and  N_37
REMARK    4  A    between atoms: C_13  and  C_31
REMARK    5  A    between atoms: C_14  and  C_15
REMARK    6  A    between atoms: C_21  and  O_22
REMARK    7  A    between atoms: O_22  and  C_23
REMARK    8  A    between atoms: C_23  and  C_24
REMARK    9  A    between atoms: C_35  and  N_37
REMARK   10  A    between atoms: N_37  and  N_43
REMARK                            x       y       z     vdW  Elec       q    Type
REMARK                         _______ _______ _______ _____ _____    ______ ____
ROOT
ATOM      1  C   UNL A   1     -22.138   1.686  26.954  0.00  0.00    +0.142 C 
ATOM      2  C   UNL A   1     -24.405   1.319  27.152  0.00  0.00    +0.023 C 
ATOM      3  C   UNL A   1     -21.869   1.037  28.086  0.00  0.00    +0.049 C 
ATOM      4  F   UNL A   1     -21.121   2.236  26.343  0.00  0.00    -0.204 F 
ATOM      5  C   UNL A   1     -24.237   0.599  28.352  0.00  0.00    +0.103 C 
ATOM      6  C   UNL A   1     -23.352   1.885  26.405  0.00  0.00    +0.031 C 
ATOM      7  N   UNL A   1     -22.523  -0.375  29.657  0.00  0.00    -0.127 NA
ATOM      8  C   UNL A   1     -22.919   0.361  28.769  0.00  0.00    +0.108 C 
ENDROOT
BRANCH   2   9
ATOM      9  C   UNL A   1     -25.688   1.614  26.461  0.00  0.00    +0.040 C 
ATOM     10  C   UNL A   1     -26.250   2.920  26.395  0.00  0.00    +0.077 C 
ATOM     11  C   UNL A   1     -27.438   3.091  25.645  0.00  0.00    +0.107 C 
ATOM     12  N   UNL A   1     -28.075   2.089  25.003  0.00  0.00    -0.208 NA
ATOM     13  C   UNL A   1     -27.543   0.849  25.079  0.00  0.00    +0.253 C 
ATOM     14  C   UNL A   1     -26.354   0.576  25.777  0.00  0.00    +0.193 C 
ATOM     15  F   UNL A   1     -25.860  -0.681  25.795  0.00  0.00    -0.199 F 
BRANCH  10  16
ATOM     16  C   UNL A   1     -25.642   4.093  27.123  0.00  0.00    +0.266 C 
ATOM     17  N   UNL A   1     -25.614   5.252  26.449  0.00  0.00    -0.200 NA
ATOM     18  C   UNL A   1     -25.026   6.479  26.963  0.00  0.00    +0.139 C 
ATOM     19  O   UNL A   1     -25.143   3.966  28.243  0.00  0.00    -0.268 OA
ENDBRANCH  10  16
BRANCH  13  20
ATOM     20  O   UNL A   1     -28.193  -0.208  24.477  0.00  0.00    -0.456 OA
BRANCH  20  21
ATOM     21  C   UNL A   1     -29.460   0.005  23.866  0.00  0.00    +0.243 C 
BRANCH  21  22
ATOM     22  C   UNL A   1     -30.065  -1.377  23.573  0.00  0.00    +0.229 C 
ATOM     23  O   UNL A   1     -30.729  -1.878  24.721  0.00  0.00    -0.216 OA
ENDBRANCH  21  22
ENDBRANCH  20  21
ENDBRANCH  13  20
ENDBRANCH   2   9
BRANCH   5  24
ATOM     24  N   UNL A   1     -25.331   0.052  29.115  0.00  0.00    -0.154 N 
BRANCH  24  31
ATOM     25  N   UNL A   1     -26.563   3.784  30.215  0.00  0.00    +0.193 NA
ATOM     26  C   UNL A   1     -27.635   0.553  29.165  0.00  0.00    +0.420 C 
ATOM     27  C   UNL A   1     -28.495   2.427  29.989  0.00  0.00    +0.222 C 
ATOM     28  C   UNL A   1     -30.057   1.230  28.504  0.00  0.00    +0.119 C 
ATOM     29  O   UNL A   1     -27.716  -0.695  29.035  0.00  0.00    -0.221 OA
ATOM     30  C   UNL A   1     -27.182   2.653  29.947  0.00  0.00    +0.401 C 
ATOM     31  N   UNL A   1     -26.433   1.168  29.382  0.00  0.00    -0.033 N 
ATOM     32  N   UNL A   1     -28.753   1.353  29.294  0.00  0.00    -0.229 N 
ENDBRANCH  24  31
BRANCH  24  33
ATOM     33  C   UNL A   1     -24.855  -1.012  30.143  0.00  0.00    +0.152 C 
BRANCH  33  34
ATOM     34  C   UNL A   1     -24.973  -2.505  29.788  0.00  0.00    +0.001 C 
ATOM     35  C   UNL A   1     -23.906  -3.173  29.146  0.00  0.00    -0.003 C 
ATOM     36  C   UNL A   1     -23.989  -4.549  28.853  0.00  0.00    -0.000 C 
ATOM     37  C   UNL A   1     -25.137  -5.280  29.205  0.00  0.00    -0.000 C 
ATOM     38  C   UNL A   1     -26.232  -4.611  29.784  0.00  0.00    -0.000 C 
ATOM     39  C   UNL A   1     -26.155  -3.232  30.065  0.00  0.00    -0.003 C 
ENDBRANCH  33  34
BRANCH  33  40
ATOM     40  C   UNL A   1     -25.387  -0.679  31.571  0.00  0.00    +0.099 C 
ATOM     41  C   UNL A   1     -25.189   0.773  32.028  0.00  0.00    +0.021 C 
ATOM     42  C   UNL A   1     -25.336   0.684  33.544  0.00  0.00    +0.020 C 
ATOM     43  C   UNL A   1     -24.829  -0.715  33.905  0.00  0.00    +0.089 C 
ATOM     44  N   UNL A   1     -24.758  -1.481  32.646  0.00  0.00    -0.217 NA
ENDBRANCH  33  40
ENDBRANCH  24  33
ENDBRANCH   5  24
TORSDOF 10
