REMARK  Name = outputs/IAG933/test6/raw/output_6274_IAG933_linker_design_.xyz
REMARK  11 active torsions:
REMARK  status: ('A' for Active; 'I' for Inactive)
REMARK    1  A    between atoms: C_1  and  C_2
REMARK    2  A    between atoms: C_1  and  C_8
REMARK    3  A    between atoms: C_1  and  C_40
REMARK    4  A    between atoms: C_13  and  C_29
REMARK    5  A    between atoms: C_14  and  C_15
REMARK    6  A    between atoms: C_21  and  O_22
REMARK    7  A    between atoms: O_22  and  C_23
REMARK    8  A    between atoms: C_23  and  C_24
REMARK    9  A    between atoms: C_28  and  C_40
REMARK   10  A    between atoms: O_38  and  C_42
REMARK   11  A    between atoms: N_39  and  C_40
REMARK                            x       y       z     vdW  Elec       q    Type
REMARK                         _______ _______ _______ _____ _____    ______ ____
ROOT
ATOM      1  C   UNL A   1     -24.241   0.897  28.742  0.00  0.00    +0.157 C 
ATOM      2  C   UNL A   1     -24.443   1.300  27.328  0.00  0.00    +0.080 C 
ATOM      3  C   UNL A   1     -22.862   0.443  28.962  0.00  0.00    +0.059 C 
ATOM      4  C   UNL A   1     -21.298   1.818  27.706  0.00  0.00    +0.036 C 
ATOM      5  O   UNL A   1     -24.336   2.022  29.587  0.00  0.00    -0.223 OA
ATOM      6  C   UNL A   1     -21.637   1.057  28.777  0.00  0.00    -0.020 C 
ATOM      7  C   UNL A   1     -23.309   1.545  26.652  0.00  0.00    +0.021 C 
ATOM      8  C   UNL A   1     -22.178   1.762  26.628  0.00  0.00    +0.182 C 
ENDROOT
BRANCH   2   9
ATOM      9  C   UNL A   1     -25.688   1.614  26.461  0.00  0.00    +0.022 C 
ATOM     10  C   UNL A   1     -26.250   2.920  26.395  0.00  0.00    +0.073 C 
ATOM     11  C   UNL A   1     -27.438   3.091  25.645  0.00  0.00    +0.106 C 
ATOM     12  N   UNL A   1     -28.075   2.089  25.003  0.00  0.00    -0.208 NA
ATOM     13  C   UNL A   1     -27.543   0.849  25.079  0.00  0.00    +0.253 C 
ATOM     14  C   UNL A   1     -26.354   0.576  25.777  0.00  0.00    +0.190 C 
ATOM     15  F   UNL A   1     -25.860  -0.681  25.795  0.00  0.00    -0.200 F 
BRANCH  10  16
ATOM     16  C   UNL A   1     -25.642   4.093  27.123  0.00  0.00    +0.266 C 
ATOM     17  N   UNL A   1     -25.614   5.252  26.449  0.00  0.00    -0.200 NA
ATOM     18  C   UNL A   1     -25.026   6.479  26.963  0.00  0.00    +0.139 C 
ATOM     19  O   UNL A   1     -25.143   3.966  28.243  0.00  0.00    -0.268 OA
ENDBRANCH  10  16
BRANCH  13  20
ATOM     20  O   UNL A   1     -28.193  -0.208  24.477  0.00  0.00    -0.456 OA
BRANCH  20  21
ATOM     21  C   UNL A   1     -29.460   0.005  23.866  0.00  0.00    +0.243 C 
BRANCH  21  22
ATOM     22  C   UNL A   1     -30.065  -1.377  23.573  0.00  0.00    +0.229 C 
ATOM     23  O   UNL A   1     -30.729  -1.878  24.721  0.00  0.00    -0.216 OA
ENDBRANCH  21  22
ENDBRANCH  20  21
ENDBRANCH  13  20
ENDBRANCH   2   9
BRANCH   8  25
ATOM     24  O   UNL A   1     -22.801   3.139  24.870  0.00  0.00    +0.028 OA
ATOM     25  O   UNL A   1     -21.737   2.210  25.367  0.00  0.00    -0.303 OA
ENDBRANCH   8  25
BRANCH   1  26
ATOM     26  C   UNL A   1     -25.333  -0.211  29.012  0.00  0.00    +0.133 C 
BRANCH  26  30
ATOM     27  O   UNL A   1     -28.591   0.706  29.832  0.00  0.00    -0.221 OA
ATOM     28  O   UNL A   1     -27.930  -1.139  28.878  0.00  0.00    -0.221 OA
ATOM     29  C   UNL A   1     -27.727   0.050  29.256  0.00  0.00    +0.463 C 
ATOM     30  N   UNL A   1     -26.544   0.655  29.068  0.00  0.00    -0.165 NA
ENDBRANCH  26  30
BRANCH  26  31
ATOM     31  C   UNL A   1     -24.855  -1.012  30.143  0.00  0.00    +0.061 C 
BRANCH  31  32
ATOM     32  C   UNL A   1     -24.973  -2.505  29.788  0.00  0.00    -0.019 C 
ATOM     33  C   UNL A   1     -23.906  -3.173  29.146  0.00  0.00    -0.004 C 
ATOM     34  C   UNL A   1     -23.989  -4.549  28.853  0.00  0.00    -0.000 C 
ATOM     35  C   UNL A   1     -25.137  -5.280  29.205  0.00  0.00    -0.000 C 
ATOM     36  C   UNL A   1     -26.232  -4.611  29.784  0.00  0.00    -0.000 C 
ATOM     37  C   UNL A   1     -26.155  -3.232  30.065  0.00  0.00    -0.004 C 
ENDBRANCH  31  32
BRANCH  31  38
ATOM     38  C   UNL A   1     -25.387  -0.679  31.571  0.00  0.00    +0.079 C 
ATOM     39  C   UNL A   1     -25.189   0.773  32.028  0.00  0.00    +0.019 C 
ATOM     40  C   UNL A   1     -25.336   0.684  33.544  0.00  0.00    +0.020 C 
ATOM     41  C   UNL A   1     -24.829  -0.715  33.905  0.00  0.00    +0.089 C 
ATOM     42  N   UNL A   1     -24.758  -1.481  32.646  0.00  0.00    -0.219 NA
ENDBRANCH  31  38
ENDBRANCH  26  31
ENDBRANCH   1  26
TORSDOF 11
