REMARK  Name = outputs/IAG933/test6/raw/output_6276_IAG933_linker_design_.xyz
REMARK  9 active torsions:
REMARK  status: ('A' for Active; 'I' for Inactive)
REMARK    1  A    between atoms: C_1  and  C_2
REMARK    2  A    between atoms: C_1  and  C_8
REMARK    3  A    between atoms: C_1  and  C_36
REMARK    4  A    between atoms: C_13  and  C_34
REMARK    5  A    between atoms: C_14  and  C_15
REMARK    6  A    between atoms: C_21  and  O_22
REMARK    7  A    between atoms: O_22  and  C_23
REMARK    8  A    between atoms: C_23  and  C_24
REMARK    9  A    between atoms: C_35  and  C_36
REMARK                            x       y       z     vdW  Elec       q    Type
REMARK                         _______ _______ _______ _____ _____    ______ ____
ROOT
ATOM      1  C   UNL A   1     -22.183   0.397  28.968  0.00  0.00    +0.266 C 
ATOM      2  C   UNL A   1     -22.063   1.660  26.813  0.00  0.00    +0.229 C 
ATOM      3  N   UNL A   1     -21.284   1.078  28.002  0.00  0.00    -0.207 NA
ATOM      4  O   UNL A   1     -23.614   2.630  25.374  0.00  0.00    -0.308 OA
ATOM      5  F   UNL A   1     -22.035   0.261  30.030  0.00  0.00    -0.210 F 
ATOM      6  C   UNL A   1     -24.590   1.174  27.298  0.00  0.00    +0.068 C 
ATOM      7  C   UNL A   1     -24.565   0.918  28.436  0.00  0.00    +0.070 C 
ATOM      8  O   UNL A   1     -21.365   2.016  25.971  0.00  0.00    -0.433 OA
ATOM      9  C   UNL A   1     -23.259   0.531  29.000  0.00  0.00    +0.069 C 
ATOM     10  C   UNL A   1     -22.195   2.513  24.884  0.00  0.00    +0.362 C 
ATOM     11  C   UNL A   1     -23.511   1.766  26.547  0.00  0.00    +0.198 C 
ENDROOT
BRANCH   6  12
ATOM     12  C   UNL A   1     -25.688   1.614  26.461  0.00  0.00    +0.019 C 
ATOM     13  C   UNL A   1     -26.250   2.920  26.395  0.00  0.00    +0.073 C 
ATOM     14  C   UNL A   1     -27.438   3.091  25.645  0.00  0.00    +0.106 C 
ATOM     15  N   UNL A   1     -28.075   2.089  25.003  0.00  0.00    -0.208 NA
ATOM     16  C   UNL A   1     -27.543   0.849  25.079  0.00  0.00    +0.253 C 
ATOM     17  C   UNL A   1     -26.354   0.576  25.777  0.00  0.00    +0.189 C 
ATOM     18  F   UNL A   1     -25.860  -0.681  25.795  0.00  0.00    -0.200 F 
BRANCH  13  19
ATOM     19  C   UNL A   1     -25.642   4.093  27.123  0.00  0.00    +0.266 C 
ATOM     20  N   UNL A   1     -25.614   5.252  26.449  0.00  0.00    -0.200 NA
ATOM     21  C   UNL A   1     -25.026   6.479  26.963  0.00  0.00    +0.139 C 
ATOM     22  O   UNL A   1     -25.143   3.966  28.243  0.00  0.00    -0.268 OA
ENDBRANCH  13  19
BRANCH  16  23
ATOM     23  O   UNL A   1     -28.193  -0.208  24.477  0.00  0.00    -0.456 OA
BRANCH  23  24
ATOM     24  C   UNL A   1     -29.460   0.005  23.866  0.00  0.00    +0.243 C 
BRANCH  24  25
ATOM     25  C   UNL A   1     -30.065  -1.377  23.573  0.00  0.00    +0.229 C 
ATOM     26  O   UNL A   1     -30.729  -1.878  24.721  0.00  0.00    -0.216 OA
ENDBRANCH  24  25
ENDBRANCH  23  24
ENDBRANCH  16  23
ENDBRANCH   6  12
BRANCH   7  28
ATOM     27  O   UNL A   1     -26.627  -0.418  28.712  0.00  0.00    -0.296 OA
ATOM     28  C   UNL A   1     -25.498  -0.235  29.051  0.00  0.00    +0.156 C 
BRANCH  28  29
ATOM     29  C   UNL A   1     -24.855  -1.012  30.143  0.00  0.00    +0.096 C 
BRANCH  29  30
ATOM     30  C   UNL A   1     -24.973  -2.505  29.788  0.00  0.00    -0.014 C 
ATOM     31  C   UNL A   1     -23.906  -3.173  29.146  0.00  0.00    -0.004 C 
ATOM     32  C   UNL A   1     -23.989  -4.549  28.853  0.00  0.00    -0.000 C 
ATOM     33  C   UNL A   1     -25.137  -5.280  29.205  0.00  0.00    -0.000 C 
ATOM     34  C   UNL A   1     -26.232  -4.611  29.784  0.00  0.00    -0.000 C 
ATOM     35  C   UNL A   1     -26.155  -3.232  30.065  0.00  0.00    -0.004 C 
ENDBRANCH  29  30
BRANCH  29  36
ATOM     36  C   UNL A   1     -25.387  -0.679  31.571  0.00  0.00    +0.084 C 
ATOM     37  C   UNL A   1     -25.189   0.773  32.028  0.00  0.00    +0.020 C 
ATOM     38  C   UNL A   1     -25.336   0.684  33.544  0.00  0.00    +0.020 C 
ATOM     39  C   UNL A   1     -24.829  -0.715  33.905  0.00  0.00    +0.089 C 
ATOM     40  N   UNL A   1     -24.758  -1.481  32.646  0.00  0.00    -0.219 NA
ENDBRANCH  29  36
ENDBRANCH  28  29
ENDBRANCH   7  28
TORSDOF 9
