MODEL 627
MODEL 1
REMARK VINA RESULT:    -7.271      0.000      0.000
REMARK INTER + INTRA:          -9.308
REMARK INTER:                  -8.546
REMARK INTRA:                  -0.762
REMARK UNBOUND:                -0.762
REMARK  Name = No_627-gen_results/8p0m/2024-11-27-11-27-31/
REMARK  3 active torsions:
REMARK  status: ('A' for Active; 'I' for Inactive)
REMARK    1  A    between atoms: C_3  and  C_12
REMARK    2  A    between atoms: C_13  and  C_14
REMARK    3  A    between atoms: C_15  and  C_16
REMARK                            x       y       z     vdW  Elec       q    Type
REMARK                         _______ _______ _______ _____ _____    ______ ____
ROOT
ATOM      1  C   UNL A   1     -24.167   0.198  27.980  0.00  0.00    -0.022 A 
ATOM      2  C   UNL A   1     -23.437   0.551  27.307  0.00  0.00    -0.026 A 
ATOM      3  C   UNL A   1     -23.719  -0.916  28.900  0.00  0.00    +0.044 C 
ATOM      4  C   UNL A   1     -22.546  -0.735  29.617  0.00  0.00    +0.008 C 
ATOM      5  C   UNL A   1     -23.823   1.552  26.264  0.00  0.00    -0.005 A 
ATOM      6  C   UNL A   1     -24.928   1.288  25.569  0.00  0.00    -0.000 A 
ATOM      7  C   UNL A   1     -21.584   0.090  28.984  0.00  0.00    +0.005 C 
ATOM      8  C   UNL A   1     -22.087   0.960  27.976  0.00  0.00    +0.026 C 
ATOM      9  C   UNL A   1     -25.463   0.033  25.724  0.00  0.00    -0.000 A 
ATOM     10  C   UNL A   1     -25.602  -0.404  27.143  0.00  0.00    -0.004 A 
ATOM     11  C   UNL A   1     -22.716  -0.431  31.054  0.00  0.00    +0.001 C 
ENDROOT
BRANCH   3  12
ATOM     12  C   UNL A   1     -23.820  -2.357  28.536  0.00  0.00    -0.022 C 
ATOM     13  C   UNL A   1     -24.188  -3.241  29.210  0.00  0.00    -0.004 C 
BRANCH  13  14
ATOM     14  C   UNL A   1     -24.536  -4.306  29.191  0.00  0.00    -0.000 C 
ATOM     15  C   UNL A   1     -25.852  -4.955  29.460  0.00  0.00    -0.000 C 
BRANCH  15  16
ATOM     16  C   UNL A   1     -26.808  -4.129  29.950  0.00  0.00    -0.000 C 
ATOM     17  C   UNL A   1     -28.070  -4.636  30.311  0.00  0.00    -0.000 C 
ENDBRANCH  15  16
ENDBRANCH  13  14
ENDBRANCH   3  12
TORSDOF 3
ENDMDL
ENDMDL
