REMARK  Name = outputs/IAG933/test6/raw/output_6288_IAG933_linker_design_.xyz
REMARK  14 active torsions:
REMARK  status: ('A' for Active; 'I' for Inactive)
REMARK    1  A    between atoms: C_1  and  C_2
REMARK    2  A    between atoms: C_1  and  C_8
REMARK    3  A    between atoms: C_9  and  C_31
REMARK    4  A    between atoms: C_13  and  C_34
REMARK    5  A    between atoms: C_14  and  C_15
REMARK    6  A    between atoms: C_21  and  O_22
REMARK    7  A    between atoms: O_22  and  C_23
REMARK    8  A    between atoms: C_23  and  C_24
REMARK    9  A    between atoms: C_29  and  C_36
REMARK   10  A    between atoms: C_30  and  C_40
REMARK   11  A    between atoms: C_31  and  N_43
REMARK   12  A    between atoms: C_31  and  N_44
REMARK   13  A    between atoms: C_36  and  N_44
REMARK   14  A    between atoms: C_40  and  N_43
REMARK                            x       y       z     vdW  Elec       q    Type
REMARK                         _______ _______ _______ _____ _____    ______ ____
ROOT
ATOM      1  C   UNL A   1     -22.980   1.189  29.926  0.00  0.00    +0.113 C 
ENDROOT
BRANCH   1   2
ATOM      2  C   UNL A   1     -22.846   0.663  28.422  0.00  0.00    +0.149 C 
ATOM      3  F   UNL A   1     -21.396   2.471  27.860  0.00  0.00    -0.205 F 
ATOM      4  O   UNL A   1     -21.059   1.436  26.984  0.00  0.00    -0.188 OA
ATOM      5  C   UNL A   1     -24.518   1.443  26.989  0.00  0.00    +0.103 C 
ATOM      6  N   UNL A   1     -24.192   0.428  27.915  0.00  0.00    -0.209 NA
ATOM      7  C   UNL A   1     -22.248   1.513  27.521  0.00  0.00    +0.274 C 
ATOM      8  C   UNL A   1     -23.349   2.096  26.594  0.00  0.00    +0.088 C 
BRANCH   5   9
ATOM      9  C   UNL A   1     -25.688   1.614  26.461  0.00  0.00    +0.032 C 
ATOM     10  C   UNL A   1     -26.250   2.920  26.395  0.00  0.00    +0.074 C 
ATOM     11  C   UNL A   1     -27.438   3.091  25.645  0.00  0.00    +0.106 C 
ATOM     12  N   UNL A   1     -28.075   2.089  25.003  0.00  0.00    -0.208 NA
ATOM     13  C   UNL A   1     -27.543   0.849  25.079  0.00  0.00    +0.253 C 
ATOM     14  C   UNL A   1     -26.354   0.576  25.777  0.00  0.00    +0.190 C 
ATOM     15  F   UNL A   1     -25.860  -0.681  25.795  0.00  0.00    -0.200 F 
BRANCH  10  16
ATOM     16  C   UNL A   1     -25.642   4.093  27.123  0.00  0.00    +0.266 C 
ATOM     17  N   UNL A   1     -25.614   5.252  26.449  0.00  0.00    -0.200 NA
ATOM     18  C   UNL A   1     -25.026   6.479  26.963  0.00  0.00    +0.139 C 
ATOM     19  O   UNL A   1     -25.143   3.966  28.243  0.00  0.00    -0.268 OA
ENDBRANCH  10  16
BRANCH  13  20
ATOM     20  O   UNL A   1     -28.193  -0.208  24.477  0.00  0.00    -0.456 OA
BRANCH  20  21
ATOM     21  C   UNL A   1     -29.460   0.005  23.866  0.00  0.00    +0.243 C 
BRANCH  21  22
ATOM     22  C   UNL A   1     -30.065  -1.377  23.573  0.00  0.00    +0.229 C 
ATOM     23  O   UNL A   1     -30.729  -1.878  24.721  0.00  0.00    -0.216 OA
ENDBRANCH  21  22
ENDBRANCH  20  21
ENDBRANCH  13  20
ENDBRANCH   5   9
ENDBRANCH   1   2
BRANCH   1  24
ATOM     24  N   UNL A   1     -24.072   2.096  30.267  0.00  0.00    -0.201 NA
BRANCH  24  25
ATOM     25  C   UNL A   1     -24.824   2.068  31.351  0.00  0.00    +0.147 C 
BRANCH  25  27
ATOM     26  C   UNL A   1     -25.387  -0.679  31.571  0.00  0.00    +0.080 C 
ATOM     27  C   UNL A   1     -25.189   0.773  32.028  0.00  0.00    +0.050 C 
ATOM     28  C   UNL A   1     -25.336   0.684  33.544  0.00  0.00    +0.023 C 
ATOM     29  C   UNL A   1     -24.829  -0.715  33.905  0.00  0.00    +0.089 C 
ATOM     30  N   UNL A   1     -24.758  -1.481  32.646  0.00  0.00    -0.219 NA
BRANCH  26  31
ATOM     31  C   UNL A   1     -24.855  -1.012  30.143  0.00  0.00    +0.044 C 
BRANCH  31  32
ATOM     32  C   UNL A   1     -24.973  -2.505  29.788  0.00  0.00    -0.021 C 
ATOM     33  C   UNL A   1     -23.906  -3.173  29.146  0.00  0.00    -0.004 C 
ATOM     34  C   UNL A   1     -23.989  -4.549  28.853  0.00  0.00    -0.000 C 
ATOM     35  C   UNL A   1     -25.137  -5.280  29.205  0.00  0.00    -0.000 C 
ATOM     36  C   UNL A   1     -26.232  -4.611  29.784  0.00  0.00    -0.000 C 
ATOM     37  C   UNL A   1     -26.155  -3.232  30.065  0.00  0.00    -0.004 C 
ENDBRANCH  31  32
ENDBRANCH  26  31
ENDBRANCH  25  27
BRANCH  25  38
ATOM     38  N   UNL A   1     -25.368   3.334  31.863  0.00  0.00    -0.197 NA
BRANCH  38  39
ATOM     39  C   UNL A   1     -24.738   4.513  32.518  0.00  0.00    +0.117 C 
BRANCH  39  41
ATOM     40  C   UNL A   1     -27.275   6.582  34.327  0.00  0.00    -0.000 C 
ATOM     41  C   UNL A   1     -25.604   4.978  33.635  0.00  0.00    -0.005 C 
ATOM     42  C   UNL A   1     -26.320   5.118  35.974  0.00  0.00    -0.000 C 
ATOM     43  C   UNL A   1     -25.609   4.476  34.958  0.00  0.00    -0.003 C 
ATOM     44  C   UNL A   1     -27.142   6.174  35.645  0.00  0.00    -0.000 C 
ATOM     45  C   UNL A   1     -26.504   5.989  33.329  0.00  0.00    -0.003 C 
ENDBRANCH  39  41
ENDBRANCH  38  39
ENDBRANCH  25  38
ENDBRANCH  24  25
ENDBRANCH   1  24
TORSDOF 14
