MODEL 628
MODEL 1
REMARK VINA RESULT:    -7.764      0.000      0.000
REMARK INTER + INTRA:         -10.614
REMARK INTER:                  -9.126
REMARK INTRA:                  -1.488
REMARK UNBOUND:                -1.488
REMARK  Name = No_628-gen_results/8p0m/2024-11-27-11-27-31/
REMARK  3 active torsions:
REMARK  status: ('A' for Active; 'I' for Inactive)
REMARK    1  A    between atoms: C_2  and  C_7
REMARK    2  A    between atoms: C_7  and  C_8
REMARK    3  A    between atoms: C_7  and  C_14
REMARK                            x       y       z     vdW  Elec       q    Type
REMARK                         _______ _______ _______ _____ _____    ______ ____
ROOT
ATOM      1  C   UNL A   1     -24.331  -1.228  29.703  0.00  0.00    +0.067 C 
ENDROOT
BRANCH   1   3
ATOM      2  C   UNL A   1     -23.783  -3.404  28.857  0.00  0.00    -0.004 A 
ATOM      3  C   UNL A   1     -24.563  -2.670  29.419  0.00  0.00    -0.014 A 
ATOM      4  C   UNL A   1     -25.786  -3.141  29.884  0.00  0.00    -0.004 A 
ATOM      5  C   UNL A   1     -26.183  -4.508  29.668  0.00  0.00    -0.000 A 
ATOM      6  C   UNL A   1     -25.233  -5.281  28.989  0.00  0.00    -0.000 A 
ATOM      7  C   UNL A   1     -24.097  -4.783  28.556  0.00  0.00    -0.000 A 
ENDBRANCH   1   3
BRANCH   1   8
ATOM      8  C   UNL A   1     -23.908  -0.343  28.976  0.00  0.00    -0.014 A 
ATOM      9  C   UNL A   1     -22.429   0.018  29.112  0.00  0.00    -0.004 A 
ATOM     10  C   UNL A   1     -21.887   0.928  28.127  0.00  0.00    -0.000 A 
ATOM     11  C   UNL A   1     -22.685   1.495  27.206  0.00  0.00    -0.000 A 
ATOM     12  C   UNL A   1     -23.994   1.114  27.000  0.00  0.00    -0.000 A 
ATOM     13  C   UNL A   1     -24.585   0.201  27.876  0.00  0.00    -0.004 A 
ENDBRANCH   1   8
BRANCH   1  14
ATOM     14  C   UNL A   1     -24.630  -0.911  31.130  0.00  0.00    -0.014 A 
ATOM     15  C   UNL A   1     -25.452   0.053  31.436  0.00  0.00    -0.004 A 
ATOM     16  C   UNL A   1     -23.657  -1.297  32.069  0.00  0.00    -0.004 A 
ATOM     17  C   UNL A   1     -23.895  -1.126  33.375  0.00  0.00    -0.000 A 
ATOM     18  C   UNL A   1     -25.763   0.302  32.784  0.00  0.00    -0.000 A 
ATOM     19  C   UNL A   1     -24.938  -0.230  33.758  0.00  0.00    -0.000 A 
ENDBRANCH   1  14
TORSDOF 3
ENDMDL
ENDMDL
