REMARK  Name = No_629-gen_results/8p0m/2024-11-27-11-27-31/
REMARK  3 active torsions:
REMARK  status: ('A' for Active; 'I' for Inactive)
REMARK    1  A    between atoms: C_1  and  C_2
REMARK    2  A    between atoms: C_1  and  C_8
REMARK    3  A    between atoms: C_8  and  C_9
REMARK                            x       y       z     vdW  Elec       q    Type
REMARK                         _______ _______ _______ _____ _____    ______ ____
ROOT
ATOM      1  C   UNL A   1     -28.618  -0.469  30.221  0.00  0.00    +0.031 C 
ENDROOT
BRANCH   1   2
ATOM      2  C   UNL A   1     -28.311   0.506  30.787  0.00  0.00    -0.022 A 
ATOM      3  C   UNL A   1     -28.612   1.097  31.814  0.00  0.00    -0.004 A 
ATOM      4  C   UNL A   1     -28.123   2.366  32.421  0.00  0.00    -0.001 A 
ATOM      5  C   UNL A   1     -27.066   2.983  31.660  0.00  0.00    -0.004 A 
ATOM      6  C   UNL A   1     -26.569   2.330  30.566  0.00  0.00    -0.022 A 
ATOM      7  C   UNL A   1     -25.432   3.042  30.017  0.00  0.00    +0.031 C 
ATOM      8  C   UNL A   1     -27.110   1.243  30.211  0.00  0.00    -0.009 A 
ENDBRANCH   1   2
BRANCH   1   9
ATOM      9  C   UNL A   1     -28.016  -0.814  28.878  0.00  0.00    +0.031 C 
BRANCH   9  10
ATOM     10  C   UNL A   1     -27.064  -0.119  28.608  0.00  0.00    -0.022 A 
ATOM     11  C   UNL A   1     -25.765  -0.390  29.036  0.00  0.00    -0.004 A 
ATOM     12  C   UNL A   1     -24.552   0.406  28.765  0.00  0.00    -0.000 A 
ATOM     13  C   UNL A   1     -24.696   1.448  27.799  0.00  0.00    -0.000 A 
ATOM     14  C   UNL A   1     -25.976   1.725  27.308  0.00  0.00    -0.000 A 
ATOM     15  C   UNL A   1     -27.072   1.013  27.654  0.00  0.00    -0.004 A 
ENDBRANCH   9  10
ENDBRANCH   1   9
TORSDOF 3
