REMARK  Name = outputs/IAG933/test6/raw/output_6291_IAG933_linker_design_.xyz
REMARK  10 active torsions:
REMARK  status: ('A' for Active; 'I' for Inactive)
REMARK    1  A    between atoms: C_1  and  C_2
REMARK    2  A    between atoms: C_1  and  C_8
REMARK    3  A    between atoms: C_1  and  N_40
REMARK    4  A    between atoms: C_13  and  C_34
REMARK    5  A    between atoms: C_14  and  C_15
REMARK    6  A    between atoms: C_21  and  O_22
REMARK    7  A    between atoms: O_22  and  C_23
REMARK    8  A    between atoms: C_23  and  C_24
REMARK    9  A    between atoms: N_28  and  S_29
REMARK   10  A    between atoms: N_28  and  C_38
REMARK                            x       y       z     vdW  Elec       q    Type
REMARK                         _______ _______ _______ _____ _____    ______ ____
ROOT
ATOM      1 CL   UNL A   1     -22.707   2.325  25.501  0.00  0.00    -0.082 Cl
ATOM      2  C   UNL A   1     -21.352   1.221  27.568  0.00  0.00    +0.011 C 
ATOM      3  C   UNL A   1     -22.279   0.005  29.461  0.00  0.00    +0.017 C 
ATOM      4  C   UNL A   1     -23.686   1.072  27.806  0.00  0.00    +0.026 A 
ATOM      5  C   UNL A   1     -25.076   1.064  27.731  0.00  0.00    +0.020 A 
ATOM      6  C   UNL A   1     -21.258   0.484  28.767  0.00  0.00    +0.002 C 
ATOM      7  C   UNL A   1     -25.971   0.921  28.753  0.00  0.00    +0.149 A 
ATOM      8  N   UNL A   1     -24.621  -0.034  29.282  0.00  0.00    -0.310 N 
ATOM      9  C   UNL A   1     -23.431   0.382  28.939  0.00  0.00    +0.062 A 
ATOM     10  C   UNL A   1     -22.591   1.527  27.007  0.00  0.00    +0.059 C 
ENDROOT
BRANCH   5  11
ATOM     11  C   UNL A   1     -25.688   1.614  26.461  0.00  0.00    +0.095 C 
ATOM     12  C   UNL A   1     -26.250   2.920  26.395  0.00  0.00    +0.059 C 
ATOM     13  C   UNL A   1     -27.438   3.091  25.645  0.00  0.00    +0.102 C 
ATOM     14  N   UNL A   1     -28.075   2.089  25.003  0.00  0.00    -0.212 NA
ATOM     15  C   UNL A   1     -27.543   0.849  25.079  0.00  0.00    +0.234 C 
ATOM     16  C   UNL A   1     -26.354   0.576  25.777  0.00  0.00    +0.244 C 
ATOM     17  F   UNL A   1     -25.860  -0.681  25.795  0.00  0.00    -0.227 F 
BRANCH  12  18
ATOM     18  C   UNL A   1     -25.642   4.093  27.123  0.00  0.00    +0.263 C 
ATOM     19  N   UNL A   1     -25.614   5.252  26.449  0.00  0.00    -0.200 NA
ATOM     20  C   UNL A   1     -25.026   6.479  26.963  0.00  0.00    +0.139 C 
ATOM     21  O   UNL A   1     -25.143   3.966  28.243  0.00  0.00    -0.269 OA
ENDBRANCH  12  18
BRANCH  15  22
ATOM     22  O   UNL A   1     -28.193  -0.208  24.477  0.00  0.00    -0.459 OA
BRANCH  22  23
ATOM     23  C   UNL A   1     -29.460   0.005  23.866  0.00  0.00    +0.242 C 
BRANCH  23  24
ATOM     24  C   UNL A   1     -30.065  -1.377  23.573  0.00  0.00    +0.229 C 
ATOM     25  O   UNL A   1     -30.729  -1.878  24.721  0.00  0.00    -0.216 OA
ENDBRANCH  23  24
ENDBRANCH  22  23
ENDBRANCH  15  22
ENDBRANCH   5  11
BRANCH   8  26
ATOM     26  C   UNL A   1     -24.855  -1.012  30.143  0.00  0.00    +0.125 C 
BRANCH  26  27
ATOM     27  C   UNL A   1     -24.973  -2.505  29.788  0.00  0.00    -0.000 C 
ATOM     28  C   UNL A   1     -23.906  -3.173  29.146  0.00  0.00    -0.002 C 
ATOM     29  C   UNL A   1     -23.989  -4.549  28.853  0.00  0.00    -0.000 C 
ATOM     30  C   UNL A   1     -25.137  -5.280  29.205  0.00  0.00    -0.000 C 
ATOM     31  C   UNL A   1     -26.232  -4.611  29.784  0.00  0.00    -0.000 C 
ATOM     32  C   UNL A   1     -26.155  -3.232  30.065  0.00  0.00    -0.002 C 
ENDBRANCH  26  27
BRANCH  26  33
ATOM     33  C   UNL A   1     -25.387  -0.679  31.571  0.00  0.00    +0.098 C 
ATOM     34  C   UNL A   1     -25.189   0.773  32.028  0.00  0.00    +0.021 C 
ATOM     35  C   UNL A   1     -25.336   0.684  33.544  0.00  0.00    +0.020 C 
ATOM     36  C   UNL A   1     -24.829  -0.715  33.905  0.00  0.00    +0.089 C 
ATOM     37  N   UNL A   1     -24.758  -1.481  32.646  0.00  0.00    -0.217 NA
ENDBRANCH  26  33
ENDBRANCH   8  26
BRANCH   7  38
ATOM     38  N   UNL A   1     -27.330   1.128  28.984  0.00  0.00    -0.083 NA
BRANCH  38  39
ATOM     39  S   UNL A   1     -28.767   0.165  28.832  0.00  0.00    +0.076 S 
ATOM     40  C   UNL A   1     -29.776   1.167  29.885  0.00  0.00    +0.202 C 
ATOM     41  O   UNL A   1     -28.401  -1.268  29.130  0.00  0.00    -0.153 OA
ATOM     42  O   UNL A   1     -29.646   0.096  27.617  0.00  0.00    -0.153 OA
ENDBRANCH  38  39
ENDBRANCH   7  38
TORSDOF 10
