REMARK  Name = outputs/IAG933/test6/raw/output_6292_IAG933_linker_design_.xyz
REMARK  12 active torsions:
REMARK  status: ('A' for Active; 'I' for Inactive)
REMARK    1  A    between atoms: C_1  and  C_2
REMARK    2  A    between atoms: C_1  and  C_8
REMARK    3  A    between atoms: C_1  and  C_44
REMARK    4  A    between atoms: C_13  and  C_31
REMARK    5  A    between atoms: C_14  and  C_15
REMARK    6  A    between atoms: C_21  and  O_22
REMARK    7  A    between atoms: O_22  and  C_23
REMARK    8  A    between atoms: C_23  and  C_24
REMARK    9  A    between atoms: C_29  and  C_44
REMARK   10  A    between atoms: C_30  and  C_36
REMARK   11  A    between atoms: C_37  and  O_39
REMARK   12  A    between atoms: N_40  and  C_44
REMARK                            x       y       z     vdW  Elec       q    Type
REMARK                         _______ _______ _______ _____ _____    ______ ____
ROOT
ATOM      1  C   UNL A   1     -25.392   0.026  29.092  0.00  0.00    +0.123 C 
ENDROOT
BRANCH   1   3
ATOM      2  C   UNL A   1     -22.065   1.812  26.953  0.00  0.00    -0.000 C 
ATOM      3  C   UNL A   1     -24.262   0.772  28.380  0.00  0.00    -0.002 C 
ATOM      4  C   UNL A   1     -24.411   1.384  27.159  0.00  0.00    +0.000 C 
ATOM      5  C   UNL A   1     -21.905   1.257  28.227  0.00  0.00    -0.000 C 
ATOM      6  C   UNL A   1     -23.321   1.879  26.356  0.00  0.00    -0.000 C 
ATOM      7  C   UNL A   1     -23.000   0.774  28.936  0.00  0.00    -0.003 C 
BRANCH   4   8
ATOM      8  C   UNL A   1     -25.688   1.614  26.461  0.00  0.00    +0.038 C 
ATOM      9  C   UNL A   1     -26.250   2.920  26.395  0.00  0.00    +0.076 C 
ATOM     10  C   UNL A   1     -27.438   3.091  25.645  0.00  0.00    +0.107 C 
ATOM     11  N   UNL A   1     -28.075   2.089  25.003  0.00  0.00    -0.208 NA
ATOM     12  C   UNL A   1     -27.543   0.849  25.079  0.00  0.00    +0.253 C 
ATOM     13  C   UNL A   1     -26.354   0.576  25.777  0.00  0.00    +0.193 C 
ATOM     14  F   UNL A   1     -25.860  -0.681  25.795  0.00  0.00    -0.199 F 
BRANCH   9  15
ATOM     15  C   UNL A   1     -25.642   4.093  27.123  0.00  0.00    +0.266 C 
ATOM     16  N   UNL A   1     -25.614   5.252  26.449  0.00  0.00    -0.200 NA
ATOM     17  C   UNL A   1     -25.026   6.479  26.963  0.00  0.00    +0.139 C 
ATOM     18  O   UNL A   1     -25.143   3.966  28.243  0.00  0.00    -0.268 OA
ENDBRANCH   9  15
BRANCH  12  19
ATOM     19  O   UNL A   1     -28.193  -0.208  24.477  0.00  0.00    -0.456 OA
BRANCH  19  20
ATOM     20  C   UNL A   1     -29.460   0.005  23.866  0.00  0.00    +0.243 C 
BRANCH  20  21
ATOM     21  C   UNL A   1     -30.065  -1.377  23.573  0.00  0.00    +0.229 C 
ATOM     22  O   UNL A   1     -30.729  -1.878  24.721  0.00  0.00    -0.216 OA
ENDBRANCH  20  21
ENDBRANCH  19  20
ENDBRANCH  12  19
ENDBRANCH   4   8
ENDBRANCH   1   3
BRANCH   1  24
ATOM     23  C   UNL A   1     -27.878   0.277  29.528  0.00  0.00    +0.241 C 
ATOM     24  N   UNL A   1     -26.813  -0.038  28.594  0.00  0.00    -0.202 NA
ATOM     25  O   UNL A   1     -27.714   1.058  30.477  0.00  0.00    -0.273 OA
BRANCH  23  26
ATOM     26  C   UNL A   1     -29.245  -0.438  29.274  0.00  0.00    +0.078 C 
ATOM     27  C   UNL A   1     -31.288  -1.824  28.146  0.00  0.00    +0.030 C 
ATOM     28  C   UNL A   1     -30.301  -2.380  30.539  0.00  0.00    +0.030 C 
ATOM     29  C   UNL A   1     -31.443  -2.397  29.505  0.00  0.00    +0.115 C 
ATOM     30  C   UNL A   1     -29.485  -1.087  30.627  0.00  0.00    +0.012 C 
ATOM     31  C   UNL A   1     -30.371  -0.606  28.161  0.00  0.00    +0.012 C 
BRANCH  29  33
ATOM     32  C   UNL A   1     -32.657  -4.109  28.186  0.00  0.00    +0.174 C 
ATOM     33  O   UNL A   1     -32.034  -3.749  29.408  0.00  0.00    -0.354 OA
ENDBRANCH  29  33
ENDBRANCH  23  26
ENDBRANCH   1  24
BRANCH   1  34
ATOM     34  C   UNL A   1     -24.855  -1.012  30.143  0.00  0.00    +0.062 C 
BRANCH  34  35
ATOM     35  C   UNL A   1     -24.973  -2.505  29.788  0.00  0.00    -0.019 C 
ATOM     36  C   UNL A   1     -23.906  -3.173  29.146  0.00  0.00    -0.004 C 
ATOM     37  C   UNL A   1     -23.989  -4.549  28.853  0.00  0.00    -0.000 C 
ATOM     38  C   UNL A   1     -25.137  -5.280  29.205  0.00  0.00    -0.000 C 
ATOM     39  C   UNL A   1     -26.232  -4.611  29.784  0.00  0.00    -0.000 C 
ATOM     40  C   UNL A   1     -26.155  -3.232  30.065  0.00  0.00    -0.004 C 
ENDBRANCH  34  35
BRANCH  34  41
ATOM     41  C   UNL A   1     -25.387  -0.679  31.571  0.00  0.00    +0.079 C 
ATOM     42  C   UNL A   1     -25.189   0.773  32.028  0.00  0.00    +0.019 C 
ATOM     43  C   UNL A   1     -25.336   0.684  33.544  0.00  0.00    +0.020 C 
ATOM     44  C   UNL A   1     -24.829  -0.715  33.905  0.00  0.00    +0.089 C 
ATOM     45  N   UNL A   1     -24.758  -1.481  32.646  0.00  0.00    -0.219 NA
ENDBRANCH  34  41
ENDBRANCH   1  34
TORSDOF 12
