MODEL 629
MODEL 1
REMARK VINA RESULT:    -7.120      0.000      0.000
REMARK INTER + INTRA:          -8.967
REMARK INTER:                  -8.369
REMARK INTRA:                  -0.599
REMARK UNBOUND:                -0.599
REMARK  Name = No_629-gen_results/8p0m/2024-11-27-11-27-31/
REMARK  3 active torsions:
REMARK  status: ('A' for Active; 'I' for Inactive)
REMARK    1  A    between atoms: C_1  and  C_2
REMARK    2  A    between atoms: C_1  and  C_8
REMARK    3  A    between atoms: C_8  and  C_9
REMARK                            x       y       z     vdW  Elec       q    Type
REMARK                         _______ _______ _______ _____ _____    ______ ____
ROOT
ATOM      1  C   UNL A   1     -24.146  -1.574  28.700  0.00  0.00    +0.031 C 
ENDROOT
BRANCH   1   2
ATOM      2  C   UNL A   1     -24.438  -2.699  28.816  0.00  0.00    -0.022 A 
ATOM      3  C   UNL A   1     -23.924  -3.796  28.651  0.00  0.00    -0.004 A 
ATOM      4  C   UNL A   1     -24.434  -5.182  28.844  0.00  0.00    -0.001 A 
ATOM      5  C   UNL A   1     -25.779  -5.220  29.362  0.00  0.00    -0.004 A 
ATOM      6  C   UNL A   1     -26.390  -4.045  29.703  0.00  0.00    -0.022 A 
ATOM      7  C   UNL A   1     -27.676  -4.298  30.323  0.00  0.00    +0.031 C 
ATOM      8  C   UNL A   1     -25.785  -2.958  29.477  0.00  0.00    -0.009 A 
ENDBRANCH   1   2
BRANCH   1   9
ATOM      9  C   UNL A   1     -24.992  -0.629  27.877  0.00  0.00    +0.031 C 
BRANCH   9  10
ATOM     10  C   UNL A   1     -24.335   0.244  27.359  0.00  0.00    -0.022 A 
ATOM     11  C   UNL A   1     -23.122   0.703  27.869  0.00  0.00    -0.004 A 
ATOM     12  C   UNL A   1     -22.264   1.767  27.311  0.00  0.00    -0.000 A 
ATOM     13  C   UNL A   1     -22.619   2.231  26.008  0.00  0.00    -0.000 A 
ATOM     14  C   UNL A   1     -23.807   1.762  25.437  0.00  0.00    -0.000 A 
ATOM     15  C   UNL A   1     -24.601   0.843  26.031  0.00  0.00    -0.004 A 
ENDBRANCH   9  10
ENDBRANCH   1   9
TORSDOF 3
ENDMDL
ENDMDL
