MODEL 62
MODEL 1
REMARK VINA RESULT:    -7.943      0.000      0.000
REMARK INTER + INTRA:          -9.667
REMARK INTER:                  -8.872
REMARK INTRA:                  -0.795
REMARK UNBOUND:                -0.795
REMARK  Name = No_62-gen_results/8p0m/2024-11-27-11-27-31/
REMARK  2 active torsions:
REMARK  status: ('A' for Active; 'I' for Inactive)
REMARK    1  A    between atoms: C_2  and  C_13
REMARK    2  A    between atoms: C_19  and  C_20
REMARK                            x       y       z     vdW  Elec       q    Type
REMARK                         _______ _______ _______ _____ _____    ______ ____
ROOT
ATOM      1  C   UNL A   1     -27.831   0.710  27.237  0.00  0.00    +0.026 A 
ATOM      2  C   UNL A   1     -28.075   0.535  26.227  0.00  0.00    +0.081 A 
ATOM      3  C   UNL A   1     -26.445   1.119  27.518  0.00  0.00    +0.083 A 
ATOM      4  C   UNL A   1     -25.540   1.395  26.452  0.00  0.00    +0.018 A 
ATOM      5  C   UNL A   1     -26.020   1.180  25.184  0.00  0.00    +0.002 A 
ATOM      6  C   UNL A   1     -27.294   0.779  24.985  0.00  0.00    +0.007 A 
ATOM      7  C   UNL A   1     -24.178   1.816  26.722  0.00  0.00    +0.004 A 
ATOM      8  C   UNL A   1     -23.415   2.011  25.997  0.00  0.00    +0.000 A 
ATOM      9  C   UNL A   1     -22.068   1.787  26.071  0.00  0.00    +0.000 A 
ATOM     10  C   UNL A   1     -21.531   1.713  27.376  0.00  0.00    +0.000 A 
ATOM     11  C   UNL A   1     -22.438   1.481  28.434  0.00  0.00    +0.003 A 
ATOM     12  C   UNL A   1     -23.846   1.520  28.128  0.00  0.00    +0.034 A 
ATOM     13  N   UNL A   1     -26.117   1.119  28.849  0.00  0.00    -0.229 NA
ATOM     14  C   UNL A   1     -24.751   1.284  29.168  0.00  0.00    +0.155 A 
ATOM     15  N   UNL A   1     -24.409   0.936  30.402  0.00  0.00    -0.157 NA
ATOM     16  C   UNL A   1     -23.987  -0.371  30.662  0.00  0.00    +0.270 C 
ATOM     17  O   UNL A   1     -23.231  -0.489  31.704  0.00  0.00    -0.268 OA
ENDROOT
BRANCH  16  18
ATOM     18  C   UNL A   1     -24.433  -1.524  30.102  0.00  0.00    +0.055 A 
ATOM     19  C   UNL A   1     -25.602  -2.119  30.385  0.00  0.00    +0.005 A 
ATOM     20  C   UNL A   1     -26.021  -3.329  29.858  0.00  0.00    +0.000 A 
ATOM     21  C   UNL A   1     -25.203  -3.993  28.987  0.00  0.00    +0.000 A 
ATOM     22  C   UNL A   1     -23.986  -3.466  28.653  0.00  0.00    +0.000 A 
ATOM     23  C   UNL A   1     -23.593  -2.300  29.216  0.00  0.00    +0.005 A 
ENDBRANCH  16  18
BRANCH   2  24
ATOM     24  C   UNL A   1     -29.552   0.045  25.877  0.00  0.00    +0.388 C 
ATOM     25  O   UNL A   1     -30.322  -0.335  26.805  0.00  0.00    -0.241 OA
ATOM     26  O   UNL A   1     -29.789  -0.220  24.666  0.00  0.00    -0.241 OA
ENDBRANCH   2  24
TORSDOF 2
ENDMDL
ENDMDL
