REMARK  Name = No_630-gen_results/8p0m/2024-11-27-11-27-31/
REMARK  5 active torsions:
REMARK  status: ('A' for Active; 'I' for Inactive)
REMARK    1  A    between atoms: C_3  and  N_8
REMARK    2  A    between atoms: C_5  and  C_6
REMARK    3  A    between atoms: C_11  and  N_19
REMARK    4  A    between atoms: C_17  and  C_25
REMARK    5  A    between atoms: C_25  and  C_27
REMARK                            x       y       z     vdW  Elec       q    Type
REMARK                         _______ _______ _______ _____ _____    ______ ____
ROOT
ATOM      1  C   UNL A   1     -28.016  -0.814  28.878  0.00  0.00    +0.015 A 
ATOM      2  C   UNL A   1     -28.469  -0.785  29.829  0.00  0.00    +0.001 A 
ATOM      3  C   UNL A   1     -28.182   0.428  28.113  0.00  0.00    +0.049 A 
ATOM      4  C   UNL A   1     -28.984   1.415  28.515  0.00  0.00    +0.015 A 
ATOM      5  C   UNL A   1     -29.380   0.138  30.461  0.00  0.00    +0.000 A 
ATOM      6  C   UNL A   1     -29.537   1.262  29.712  0.00  0.00    +0.001 A 
ENDROOT
BRANCH   5   7
ATOM      7  C   UNL A   1     -29.993  -0.023  31.737  0.00  0.00    +0.000 A 
ATOM      8  C   UNL A   1     -30.012  -1.071  32.356  0.00  0.00    +0.000 A 
ATOM      9  C   UNL A   1     -30.644  -1.245  33.626  0.00  0.00    +0.000 A 
ATOM     10  C   UNL A   1     -31.292  -0.144  34.192  0.00  0.00    +0.001 A 
ATOM     11  C   UNL A   1     -31.282   1.019  33.513  0.00  0.00    +0.015 A 
ATOM     12  C   UNL A   1     -30.647   1.149  32.324  0.00  0.00    +0.001 A 
BRANCH  11  13
ATOM     13  C   UNL A   1     -31.964   2.224  34.098  0.00  0.00    +0.081 C 
ATOM     14  N   UNL A   1     -32.145   2.470  35.194  0.00  0.00    -0.153 NA
BRANCH  13  15
ATOM     15  C   UNL A   1     -32.459   3.186  33.042  0.00  0.00    +0.048 C 
ATOM     16  C   UNL A   1     -33.204   4.309  33.487  0.00  0.00    +0.007 C 
ENDBRANCH  13  15
ENDBRANCH  11  13
ENDBRANCH   5   7
BRANCH   3  17
ATOM     17  N   UNL A   1     -27.465   0.416  26.832  0.00  0.00    -0.296 N 
ATOM     18  C   UNL A   1     -26.075   0.372  26.724  0.00  0.00    +0.092 C 
ATOM     19  C   UNL A   1     -25.485   0.639  25.483  0.00  0.00    +0.022 C 
ATOM     20  C   UNL A   1     -28.145   0.485  25.661  0.00  0.00    +0.134 C 
ATOM     21  C   UNL A   1     -27.567   0.562  24.391  0.00  0.00    +0.037 C 
ATOM     22  C   UNL A   1     -26.183   0.596  24.303  0.00  0.00    +0.005 C 
BRANCH  20  23
ATOM     23  N   UNL A   1     -29.506   0.402  25.648  0.00  0.00    -0.258 NA
ATOM     24  C   UNL A   1     -30.272   0.835  26.175  0.00  0.00    +0.073 C 
ATOM     25  C   UNL A   1     -31.720   0.473  25.986  0.00  0.00    +0.017 C 
ATOM     26  C   UNL A   1     -29.989  -0.397  24.412  0.00  0.00    +0.073 C 
ATOM     27  C   UNL A   1     -31.235  -0.836  24.336  0.00  0.00    +0.017 C 
ATOM     28  C   UNL A   1     -32.154  -0.344  25.083  0.00  0.00    +0.003 C 
ENDBRANCH  20  23
ENDBRANCH   3  17
TORSDOF 5
