REMARK  Name = outputs/IAG933/test6/raw/output_6300_IAG933_linker_design_.xyz
REMARK  13 active torsions:
REMARK  status: ('A' for Active; 'I' for Inactive)
REMARK    1  A    between atoms: C_1  and  C_2
REMARK    2  A    between atoms: C_1  and  C_8
REMARK    3  A    between atoms: C_1  and  C_33
REMARK    4  A    between atoms: C_13  and  C_38
REMARK    5  A    between atoms: C_14  and  C_15
REMARK    6  A    between atoms: C_21  and  O_22
REMARK    7  A    between atoms: O_22  and  C_23
REMARK    8  A    between atoms: C_23  and  C_24
REMARK    9  A    between atoms: C_28  and  C_38
REMARK   10  A    between atoms: C_30  and  C_33
REMARK   11  A    between atoms: N_31  and  C_40
REMARK   12  A    between atoms: C_33  and  C_40
REMARK   13  A    between atoms: O_37  and  C_38
REMARK                            x       y       z     vdW  Elec       q    Type
REMARK                         _______ _______ _______ _____ _____    ______ ____
ROOT
ATOM      1  C   UNL A   1     -23.263   1.273  27.381  0.00  0.00    -0.010 C 
ATOM      2  C   UNL A   1     -23.533   0.367  28.506  0.00  0.00    +0.045 C 
ATOM      3  C   UNL A   1     -22.001   1.822  27.139  0.00  0.00    -0.006 C 
ATOM      4  C   UNL A   1     -20.449   0.282  28.269  0.00  0.00    -0.000 C 
ATOM      5  C   UNL A   1     -21.233  -0.420  28.880  0.00  0.00    -0.004 C 
ATOM      6  C   UNL A   1     -20.783   1.406  27.483  0.00  0.00    -0.001 C 
ATOM      7  C   UNL A   1     -22.531  -0.376  29.106  0.00  0.00    -0.022 C 
ENDROOT
BRANCH   2   8
ATOM      8  C   UNL A   1     -24.829   0.090  29.092  0.00  0.00    +0.033 C 
BRANCH   8   9
ATOM      9  C   UNL A   1     -24.855  -1.012  30.143  0.00  0.00    +0.041 C 
BRANCH   9  10
ATOM     10  C   UNL A   1     -24.973  -2.505  29.788  0.00  0.00    -0.021 C 
ATOM     11  C   UNL A   1     -23.906  -3.173  29.146  0.00  0.00    -0.004 C 
ATOM     12  C   UNL A   1     -23.989  -4.549  28.853  0.00  0.00    -0.000 C 
ATOM     13  C   UNL A   1     -25.137  -5.280  29.205  0.00  0.00    -0.000 C 
ATOM     14  C   UNL A   1     -26.232  -4.611  29.784  0.00  0.00    -0.000 C 
ATOM     15  C   UNL A   1     -26.155  -3.232  30.065  0.00  0.00    -0.004 C 
ENDBRANCH   9  10
BRANCH   9  16
ATOM     16  C   UNL A   1     -25.387  -0.679  31.571  0.00  0.00    +0.077 C 
ATOM     17  C   UNL A   1     -25.189   0.773  32.028  0.00  0.00    +0.019 C 
ATOM     18  C   UNL A   1     -25.336   0.684  33.544  0.00  0.00    +0.020 C 
ATOM     19  C   UNL A   1     -24.829  -0.715  33.905  0.00  0.00    +0.089 C 
ATOM     20  N   UNL A   1     -24.758  -1.481  32.646  0.00  0.00    -0.219 NA
ENDBRANCH   9  16
ENDBRANCH   8   9
BRANCH   8  21
ATOM     21  C   UNL A   1     -25.448   1.444  29.521  0.00  0.00    +0.094 C 
BRANCH  21  23
ATOM     22  C   UNL A   1     -29.383   1.673  28.842  0.00  0.00    +0.011 C 
ATOM     23  N   UNL A   1     -26.949   1.284  29.389  0.00  0.00    -0.280 N 
ATOM     24  C   UNL A   1     -29.001   2.348  30.159  0.00  0.00    +0.022 C 
ATOM     25  C   UNL A   1     -27.562   2.015  30.536  0.00  0.00    +0.093 C 
ATOM     26  C   UNL A   1     -29.165   0.180  29.080  0.00  0.00    +0.085 C 
ATOM     27  O   UNL A   1     -27.203  -1.093  28.625  0.00  0.00    -0.275 OA
ATOM     28  C   UNL A   1     -27.675   0.067  29.042  0.00  0.00    +0.226 C 
ENDBRANCH  21  23
ENDBRANCH   8  21
ENDBRANCH   2   8
BRANCH   1  29
ATOM     29  C   UNL A   1     -24.210   1.584  26.476  0.00  0.00    +0.181 C 
BRANCH  29  30
ATOM     30  C   UNL A   1     -25.688   1.614  26.461  0.00  0.00    +0.104 C 
ATOM     31  C   UNL A   1     -26.250   2.920  26.395  0.00  0.00    +0.058 C 
ATOM     32  C   UNL A   1     -27.438   3.091  25.645  0.00  0.00    +0.102 C 
ATOM     33  N   UNL A   1     -28.075   2.089  25.003  0.00  0.00    -0.212 NA
ATOM     34  C   UNL A   1     -27.543   0.849  25.079  0.00  0.00    +0.234 C 
ATOM     35  C   UNL A   1     -26.354   0.576  25.777  0.00  0.00    +0.243 C 
ATOM     36  F   UNL A   1     -25.860  -0.681  25.795  0.00  0.00    -0.227 F 
BRANCH  31  37
ATOM     37  C   UNL A   1     -25.642   4.093  27.123  0.00  0.00    +0.263 C 
ATOM     38  N   UNL A   1     -25.614   5.252  26.449  0.00  0.00    -0.200 NA
ATOM     39  C   UNL A   1     -25.026   6.479  26.963  0.00  0.00    +0.139 C 
ATOM     40  O   UNL A   1     -25.143   3.966  28.243  0.00  0.00    -0.269 OA
ENDBRANCH  31  37
BRANCH  34  41
ATOM     41  O   UNL A   1     -28.193  -0.208  24.477  0.00  0.00    -0.459 OA
BRANCH  41  42
ATOM     42  C   UNL A   1     -29.460   0.005  23.866  0.00  0.00    +0.242 C 
BRANCH  42  43
ATOM     43  C   UNL A   1     -30.065  -1.377  23.573  0.00  0.00    +0.229 C 
ATOM     44  O   UNL A   1     -30.729  -1.878  24.721  0.00  0.00    -0.216 OA
ENDBRANCH  42  43
ENDBRANCH  41  42
ENDBRANCH  34  41
ENDBRANCH  29  30
BRANCH  29  46
ATOM     45  O   UNL A   1     -23.027   2.493  24.890  0.00  0.00    -0.034 OA
ATOM     46  O   UNL A   1     -23.664   1.523  25.093  0.00  0.00    -0.187 OA
ENDBRANCH  29  46
ENDBRANCH   1  29
TORSDOF 13
