REMARK  Name = outputs/IAG933/test6/raw/output_6306_IAG933_linker_design_.xyz
REMARK  14 active torsions:
REMARK  status: ('A' for Active; 'I' for Inactive)
REMARK    1  A    between atoms: C_1  and  C_2
REMARK    2  A    between atoms: C_1  and  C_8
REMARK    3  A    between atoms: C_1  and  N_30
REMARK    4  A    between atoms: C_13  and  C_29
REMARK    5  A    between atoms: C_14  and  C_15
REMARK    6  A    between atoms: C_21  and  O_22
REMARK    7  A    between atoms: O_22  and  C_23
REMARK    8  A    between atoms: C_23  and  C_24
REMARK    9  A    between atoms: C_28  and  C_33
REMARK   10  A    between atoms: C_28  and  C_38
REMARK   11  A    between atoms: C_28  and  C_40
REMARK   12  A    between atoms: C_29  and  C_36
REMARK   13  A    between atoms: C_29  and  C_41
REMARK   14  A    between atoms: C_31  and  C_40
REMARK                            x       y       z     vdW  Elec       q    Type
REMARK                         _______ _______ _______ _____ _____    ______ ____
ROOT
ATOM      1  N   UNL A   1     -25.276  -0.120  29.244  0.00  0.00    -0.269 NA
ATOM      2  C   UNL A   1     -26.545  -0.087  28.852  0.00  0.00    +0.073 C 
ATOM      3  C   UNL A   1     -25.452   0.886  28.721  0.00  0.00    +0.076 C 
ENDROOT
BRANCH   1   4
ATOM      4  C   UNL A   1     -24.855  -1.012  30.143  0.00  0.00    +0.096 C 
BRANCH   4   5
ATOM      5  C   UNL A   1     -24.973  -2.505  29.788  0.00  0.00    -0.006 C 
ATOM      6  C   UNL A   1     -23.906  -3.173  29.146  0.00  0.00    -0.003 C 
ATOM      7  C   UNL A   1     -23.989  -4.549  28.853  0.00  0.00    -0.000 C 
ATOM      8  C   UNL A   1     -25.137  -5.280  29.205  0.00  0.00    -0.000 C 
ATOM      9  C   UNL A   1     -26.232  -4.611  29.784  0.00  0.00    -0.000 C 
ATOM     10  C   UNL A   1     -26.155  -3.232  30.065  0.00  0.00    -0.003 C 
ENDBRANCH   4   5
BRANCH   4  11
ATOM     11  C   UNL A   1     -25.387  -0.679  31.571  0.00  0.00    +0.092 C 
ATOM     12  C   UNL A   1     -25.189   0.773  32.028  0.00  0.00    +0.021 C 
ATOM     13  C   UNL A   1     -25.336   0.684  33.544  0.00  0.00    +0.020 C 
ATOM     14  C   UNL A   1     -24.829  -0.715  33.905  0.00  0.00    +0.089 C 
ATOM     15  N   UNL A   1     -24.758  -1.481  32.646  0.00  0.00    -0.218 NA
ENDBRANCH   4  11
ENDBRANCH   1   4
BRANCH   3  16
ATOM     16  C   UNL A   1     -24.536   1.238  27.312  0.00  0.00    +0.041 C 
BRANCH  16  17
ATOM     17  C   UNL A   1     -25.688   1.614  26.461  0.00  0.00    +0.017 C 
ATOM     18  C   UNL A   1     -26.250   2.920  26.395  0.00  0.00    +0.073 C 
ATOM     19  C   UNL A   1     -27.438   3.091  25.645  0.00  0.00    +0.106 C 
ATOM     20  N   UNL A   1     -28.075   2.089  25.003  0.00  0.00    -0.208 NA
ATOM     21  C   UNL A   1     -27.543   0.849  25.079  0.00  0.00    +0.253 C 
ATOM     22  C   UNL A   1     -26.354   0.576  25.777  0.00  0.00    +0.189 C 
ATOM     23  F   UNL A   1     -25.860  -0.681  25.795  0.00  0.00    -0.200 F 
BRANCH  18  24
ATOM     24  C   UNL A   1     -25.642   4.093  27.123  0.00  0.00    +0.266 C 
ATOM     25  N   UNL A   1     -25.614   5.252  26.449  0.00  0.00    -0.200 NA
ATOM     26  C   UNL A   1     -25.026   6.479  26.963  0.00  0.00    +0.139 C 
ATOM     27  O   UNL A   1     -25.143   3.966  28.243  0.00  0.00    -0.268 OA
ENDBRANCH  18  24
BRANCH  21  28
ATOM     28  O   UNL A   1     -28.193  -0.208  24.477  0.00  0.00    -0.456 OA
BRANCH  28  29
ATOM     29  C   UNL A   1     -29.460   0.005  23.866  0.00  0.00    +0.243 C 
BRANCH  29  30
ATOM     30  C   UNL A   1     -30.065  -1.377  23.573  0.00  0.00    +0.229 C 
ATOM     31  O   UNL A   1     -30.729  -1.878  24.721  0.00  0.00    -0.216 OA
ENDBRANCH  29  30
ENDBRANCH  28  29
ENDBRANCH  21  28
ENDBRANCH  16  17
BRANCH  16  33
ATOM     32  C   UNL A   1     -22.389   0.270  28.628  0.00  0.00    +0.000 C 
ATOM     33  C   UNL A   1     -23.092   1.407  27.877  0.00  0.00    +0.005 C 
ATOM     34  C   UNL A   1     -22.168   1.853  26.778  0.00  0.00    +0.000 C 
ENDBRANCH  16  33
ENDBRANCH   3  16
BRANCH   2  35
ATOM     35  C   UNL A   1     -28.106  -0.555  28.840  0.00  0.00    +0.027 C 
BRANCH  35  36
ATOM     36  C   UNL A   1     -29.244   0.337  29.253  0.00  0.00    +0.084 C 
BRANCH  36  37
ATOM     37  C   UNL A   1     -29.105   1.618  30.121  0.00  0.00    +0.042 C 
ATOM     38  C   UNL A   1     -27.980   2.581  29.891  0.00  0.00    +0.153 C 
ATOM     39  C   UNL A   1     -29.485   3.046  29.620  0.00  0.00    +0.036 C 
ATOM     40  O   UNL A   1     -27.437   3.260  31.028  0.00  0.00    -0.223 OA
ENDBRANCH  36  37
BRANCH  36  43
ATOM     41  O   UNL A   1     -30.530  -0.709  27.678  0.00  0.00    -0.272 OA
ATOM     42  N   UNL A   1     -31.714   0.229  29.342  0.00  0.00    -0.088 NA
ATOM     43  C   UNL A   1     -30.532  -0.096  28.764  0.00  0.00    +0.260 C 
ENDBRANCH  36  43
ENDBRANCH  35  36
ENDBRANCH   2  35
TORSDOF 14
