REMARK  Name = outputs/IAG933/test6/raw/output_6308_IAG933_linker_design_.xyz
REMARK  9 active torsions:
REMARK  status: ('A' for Active; 'I' for Inactive)
REMARK    1  A    between atoms: C_1  and  C_2
REMARK    2  A    between atoms: C_1  and  C_8
REMARK    3  A    between atoms: C_1  and  N_31
REMARK    4  A    between atoms: C_13  and  C_32
REMARK    5  A    between atoms: C_14  and  C_15
REMARK    6  A    between atoms: C_21  and  O_22
REMARK    7  A    between atoms: O_22  and  C_23
REMARK    8  A    between atoms: C_23  and  C_24
REMARK    9  A    between atoms: C_29  and  N_31
REMARK                            x       y       z     vdW  Elec       q    Type
REMARK                         _______ _______ _______ _____ _____    ______ ____
ROOT
ATOM      1  C   UNL A   1     -24.427   0.508  28.480  0.00  0.00    +0.141 C 
ATOM      2  C   UNL A   1     -24.422   1.271  27.224  0.00  0.00    +0.069 C 
ATOM      3  C   UNL A   1     -23.153   0.279  29.074  0.00  0.00    +0.043 C 
ATOM      4  C   UNL A   1     -21.969   0.830  28.589  0.00  0.00    +0.035 C 
ATOM      5  F   UNL A   1     -20.889   2.275  27.100  0.00  0.00    -0.202 F 
ATOM      6  F   UNL A   1     -23.041   2.183  25.365  0.00  0.00    -0.202 F 
ATOM      7  C   UNL A   1     -23.158   1.717  26.654  0.00  0.00    +0.171 C 
ATOM      8  C   UNL A   1     -21.990   1.577  27.422  0.00  0.00    +0.168 C 
ENDROOT
BRANCH   1  11
ATOM      9  O   UNL A   1     -29.700   0.881  29.647  0.00  0.00    -0.348 OA
ATOM     10  C   UNL A   1     -29.513   2.291  29.757  0.00  0.00    +0.200 C 
ATOM     11  N   UNL A   1     -25.492  -0.078  29.182  0.00  0.00    -0.173 N 
ATOM     12  C   UNL A   1     -28.030   2.740  29.857  0.00  0.00    +0.295 C 
ATOM     13  C   UNL A   1     -27.941  -0.883  28.996  0.00  0.00    +0.149 C 
ATOM     14  C   UNL A   1     -29.230   0.134  28.698  0.00  0.00    +0.155 C 
ATOM     15  N   UNL A   1     -27.040   1.642  29.578  0.00  0.00    -0.066 NA
ATOM     16  C   UNL A   1     -26.741   0.152  29.127  0.00  0.00    +0.301 C 
BRANCH  11  17
ATOM     17  C   UNL A   1     -24.855  -1.012  30.143  0.00  0.00    +0.203 C 
BRANCH  17  18
ATOM     18  C   UNL A   1     -24.973  -2.505  29.788  0.00  0.00    +0.022 C 
ATOM     19  C   UNL A   1     -23.906  -3.173  29.146  0.00  0.00    -0.000 C 
ATOM     20  C   UNL A   1     -23.989  -4.549  28.853  0.00  0.00    -0.000 C 
ATOM     21  C   UNL A   1     -25.137  -5.280  29.205  0.00  0.00    -0.000 C 
ATOM     22  C   UNL A   1     -26.232  -4.611  29.784  0.00  0.00    -0.000 C 
ATOM     23  C   UNL A   1     -26.155  -3.232  30.065  0.00  0.00    -0.000 C 
ENDBRANCH  17  18
BRANCH  17  24
ATOM     24  C   UNL A   1     -25.387  -0.679  31.571  0.00  0.00    +0.120 C 
ATOM     25  C   UNL A   1     -25.189   0.773  32.028  0.00  0.00    +0.023 C 
ATOM     26  C   UNL A   1     -25.336   0.684  33.544  0.00  0.00    +0.020 C 
ATOM     27  C   UNL A   1     -24.829  -0.715  33.905  0.00  0.00    +0.089 C 
ATOM     28  N   UNL A   1     -24.758  -1.481  32.646  0.00  0.00    -0.215 NA
ENDBRANCH  17  24
ENDBRANCH  11  17
ENDBRANCH   1  11
BRANCH   2  29
ATOM     29  C   UNL A   1     -25.688   1.614  26.461  0.00  0.00    +0.044 C 
ATOM     30  C   UNL A   1     -26.250   2.920  26.395  0.00  0.00    +0.077 C 
ATOM     31  C   UNL A   1     -27.438   3.091  25.645  0.00  0.00    +0.107 C 
ATOM     32  N   UNL A   1     -28.075   2.089  25.003  0.00  0.00    -0.208 NA
ATOM     33  C   UNL A   1     -27.543   0.849  25.079  0.00  0.00    +0.253 C 
ATOM     34  C   UNL A   1     -26.354   0.576  25.777  0.00  0.00    +0.193 C 
ATOM     35  F   UNL A   1     -25.860  -0.681  25.795  0.00  0.00    -0.199 F 
BRANCH  30  36
ATOM     36  C   UNL A   1     -25.642   4.093  27.123  0.00  0.00    +0.266 C 
ATOM     37  N   UNL A   1     -25.614   5.252  26.449  0.00  0.00    -0.200 NA
ATOM     38  C   UNL A   1     -25.026   6.479  26.963  0.00  0.00    +0.139 C 
ATOM     39  O   UNL A   1     -25.143   3.966  28.243  0.00  0.00    -0.268 OA
ENDBRANCH  30  36
BRANCH  33  40
ATOM     40  O   UNL A   1     -28.193  -0.208  24.477  0.00  0.00    -0.456 OA
BRANCH  40  41
ATOM     41  C   UNL A   1     -29.460   0.005  23.866  0.00  0.00    +0.243 C 
BRANCH  41  42
ATOM     42  C   UNL A   1     -30.065  -1.377  23.573  0.00  0.00    +0.229 C 
ATOM     43  O   UNL A   1     -30.729  -1.878  24.721  0.00  0.00    -0.216 OA
ENDBRANCH  41  42
ENDBRANCH  40  41
ENDBRANCH  33  40
ENDBRANCH   2  29
TORSDOF 9
