REMARK  Name = outputs/IAG933/test6/raw/output_6309_IAG933_linker_design_.xyz
REMARK  14 active torsions:
REMARK  status: ('A' for Active; 'I' for Inactive)
REMARK    1  A    between atoms: C_1  and  C_2
REMARK    2  A    between atoms: C_1  and  C_8
REMARK    3  A    between atoms: C_1  and  C_43
REMARK    4  A    between atoms: C_13  and  C_33
REMARK    5  A    between atoms: C_14  and  C_15
REMARK    6  A    between atoms: C_21  and  O_22
REMARK    7  A    between atoms: O_22  and  C_23
REMARK    8  A    between atoms: C_23  and  C_24
REMARK    9  A    between atoms: N_28  and  C_38
REMARK   10  A    between atoms: C_33  and  C_36
REMARK   11  A    between atoms: C_33  and  C_44
REMARK   12  A    between atoms: N_34  and  C_42
REMARK   13  A    between atoms: C_38  and  C_45
REMARK   14  A    between atoms: C_42  and  C_45
REMARK                            x       y       z     vdW  Elec       q    Type
REMARK                         _______ _______ _______ _____ _____    ______ ____
ROOT
ATOM      1  N   UNL A   1     -26.415   0.128  28.788  0.00  0.00    -0.272 NA
ATOM      2  C   UNL A   1     -25.432   0.525  28.231  0.00  0.00    +0.075 C 
ATOM      3  C   UNL A   1     -24.989  -0.268  29.215  0.00  0.00    +0.078 C 
ENDROOT
BRANCH   3   4
ATOM      4  C   UNL A   1     -24.855  -1.012  30.143  0.00  0.00    +0.054 C 
BRANCH   4   5
ATOM      5  C   UNL A   1     -24.973  -2.505  29.788  0.00  0.00    -0.020 C 
ATOM      6  C   UNL A   1     -23.906  -3.173  29.146  0.00  0.00    -0.004 C 
ATOM      7  C   UNL A   1     -23.989  -4.549  28.853  0.00  0.00    -0.000 C 
ATOM      8  C   UNL A   1     -25.137  -5.280  29.205  0.00  0.00    -0.000 C 
ATOM      9  C   UNL A   1     -26.232  -4.611  29.784  0.00  0.00    -0.000 C 
ATOM     10  C   UNL A   1     -26.155  -3.232  30.065  0.00  0.00    -0.004 C 
ENDBRANCH   4   5
BRANCH   4  11
ATOM     11  C   UNL A   1     -25.387  -0.679  31.571  0.00  0.00    +0.078 C 
ATOM     12  C   UNL A   1     -25.189   0.773  32.028  0.00  0.00    +0.019 C 
ATOM     13  C   UNL A   1     -25.336   0.684  33.544  0.00  0.00    +0.020 C 
ATOM     14  C   UNL A   1     -24.829  -0.715  33.905  0.00  0.00    +0.089 C 
ATOM     15  N   UNL A   1     -24.758  -1.481  32.646  0.00  0.00    -0.219 NA
ENDBRANCH   4  11
ENDBRANCH   3   4
BRANCH   2  16
ATOM     16  C   UNL A   1     -24.938   1.403  27.283  0.00  0.00    +0.057 C 
BRANCH  16  17
ATOM     17  C   UNL A   1     -25.688   1.614  26.461  0.00  0.00    +0.074 C 
ATOM     18  C   UNL A   1     -26.250   2.920  26.395  0.00  0.00    +0.055 C 
ATOM     19  C   UNL A   1     -27.438   3.091  25.645  0.00  0.00    +0.102 C 
ATOM     20  N   UNL A   1     -28.075   2.089  25.003  0.00  0.00    -0.212 NA
ATOM     21  C   UNL A   1     -27.543   0.849  25.079  0.00  0.00    +0.234 C 
ATOM     22  C   UNL A   1     -26.354   0.576  25.777  0.00  0.00    +0.240 C 
ATOM     23  F   UNL A   1     -25.860  -0.681  25.795  0.00  0.00    -0.227 F 
BRANCH  18  24
ATOM     24  C   UNL A   1     -25.642   4.093  27.123  0.00  0.00    +0.262 C 
ATOM     25  N   UNL A   1     -25.614   5.252  26.449  0.00  0.00    -0.200 NA
ATOM     26  C   UNL A   1     -25.026   6.479  26.963  0.00  0.00    +0.139 C 
ATOM     27  O   UNL A   1     -25.143   3.966  28.243  0.00  0.00    -0.269 OA
ENDBRANCH  18  24
BRANCH  21  28
ATOM     28  O   UNL A   1     -28.193  -0.208  24.477  0.00  0.00    -0.459 OA
BRANCH  28  29
ATOM     29  C   UNL A   1     -29.460   0.005  23.866  0.00  0.00    +0.242 C 
BRANCH  29  30
ATOM     30  C   UNL A   1     -30.065  -1.377  23.573  0.00  0.00    +0.229 C 
ATOM     31  O   UNL A   1     -30.729  -1.878  24.721  0.00  0.00    -0.216 OA
ENDBRANCH  29  30
ENDBRANCH  28  29
ENDBRANCH  21  28
ENDBRANCH  16  17
BRANCH  16  36
ATOM     32  O   UNL A   1     -21.206   1.418  27.390  0.00  0.00    -0.189 OA
ATOM     33  C   UNL A   1     -22.432   1.599  28.156  0.00  0.00    +0.218 C 
ATOM     34  O   UNL A   1     -22.898   2.164  26.048  0.00  0.00    -0.191 OA
ATOM     35  O   UNL A   1     -21.510   1.804  26.115  0.00  0.00    -0.065 OA
ATOM     36  C   UNL A   1     -23.627   1.710  27.146  0.00  0.00    +0.190 C 
ENDBRANCH  16  36
ENDBRANCH   2  16
BRANCH   1  37
ATOM     37  C   UNL A   1     -27.807  -0.410  29.348  0.00  0.00    +0.074 C 
BRANCH  37  38
ATOM     38  C   UNL A   1     -28.967   0.564  29.543  0.00  0.00    +0.037 C 
BRANCH  38  39
ATOM     39  C   UNL A   1     -28.546   1.907  30.124  0.00  0.00    +0.103 C 
BRANCH  39  40
ATOM     40  N   UNL A   1     -29.204   2.221  31.421  0.00  0.00    -0.161 NA
ATOM     41  C   UNL A   1     -30.812   3.624  32.423  0.00  0.00    +0.165 C 
ATOM     42  O   UNL A   1     -30.678   2.685  33.418  0.00  0.00    -0.324 OA
ATOM     43  O   UNL A   1     -28.417   2.265  32.640  0.00  0.00    -0.249 OA
ATOM     44  C   UNL A   1     -29.849   3.556  31.277  0.00  0.00    +0.133 C 
ATOM     45  C   UNL A   1     -29.368   2.434  33.780  0.00  0.00    +0.313 C 
ENDBRANCH  39  40
ENDBRANCH  38  39
ENDBRANCH  37  38
ENDBRANCH   1  37
TORSDOF 14
