REMARK  Name = outputs/IAG933/test6/raw/output_6316_IAG933_linker_design_.xyz
REMARK  12 active torsions:
REMARK  status: ('A' for Active; 'I' for Inactive)
REMARK    1  A    between atoms: C_1  and  C_2
REMARK    2  A    between atoms: C_1  and  C_8
REMARK    3  A    between atoms: C_1  and  C_42
REMARK    4  A    between atoms: C_14  and  C_15
REMARK    5  A    between atoms: C_21  and  O_22
REMARK    6  A    between atoms: O_22  and  C_23
REMARK    7  A    between atoms: C_23  and  C_24
REMARK    8  A    between atoms: C_29  and  O_46
REMARK    9  A    between atoms: C_31  and  C_44
REMARK   10  A    between atoms: C_32  and  O_46
REMARK   11  A    between atoms: C_36  and  N_40
REMARK   12  A    between atoms: C_37  and  C_44
REMARK                            x       y       z     vdW  Elec       q    Type
REMARK                         _______ _______ _______ _____ _____    ______ ____
ROOT
ATOM      1  C   UNL A   1     -25.688   1.614  26.461  0.00  0.00    +0.084 C 
ATOM      2  C   UNL A   1     -26.250   2.920  26.395  0.00  0.00    +0.056 C 
ATOM      3  C   UNL A   1     -27.438   3.091  25.645  0.00  0.00    +0.102 C 
ATOM      4  N   UNL A   1     -28.075   2.089  25.003  0.00  0.00    -0.212 NA
ATOM      5  C   UNL A   1     -27.543   0.849  25.079  0.00  0.00    +0.234 C 
ATOM      6  C   UNL A   1     -26.354   0.576  25.777  0.00  0.00    +0.241 C 
ATOM      7  F   UNL A   1     -25.860  -0.681  25.795  0.00  0.00    -0.227 F 
ATOM      8  C   UNL A   1     -22.585   1.611  27.263  0.00  0.00    +0.034 C 
ATOM      9  O   UNL A   1     -22.855  -0.196  28.747  0.00  0.00    -0.354 OA
ATOM     10  C   UNL A   1     -24.939   0.965  28.146  0.00  0.00    +0.111 C 
ATOM     11  C   UNL A   1     -24.185  -0.037  29.134  0.00  0.00    +0.139 C 
ATOM     12  C   UNL A   1     -24.059   1.226  27.022  0.00  0.00    +0.032 C 
ATOM     13  C   UNL A   1     -21.994   0.818  28.542  0.00  0.00    +0.142 C 
ENDROOT
BRANCH   2  14
ATOM     14  C   UNL A   1     -25.642   4.093  27.123  0.00  0.00    +0.263 C 
ATOM     15  N   UNL A   1     -25.614   5.252  26.449  0.00  0.00    -0.200 NA
ATOM     16  C   UNL A   1     -25.026   6.479  26.963  0.00  0.00    +0.139 C 
ATOM     17  O   UNL A   1     -25.143   3.966  28.243  0.00  0.00    -0.269 OA
ENDBRANCH   2  14
BRANCH  10  20
ATOM     18  C   UNL A   1     -27.544   0.148  28.589  0.00  0.00    +0.246 C 
ATOM     19  O   UNL A   1     -27.546  -0.914  28.159  0.00  0.00    -0.273 OA
ATOM     20  N   UNL A   1     -26.300   0.904  28.852  0.00  0.00    -0.206 NA
BRANCH  18  21
ATOM     21  C   UNL A   1     -28.722   0.694  28.392  0.00  0.00    +0.113 C 
BRANCH  21  24
ATOM     22  C   UNL A   1     -29.541   2.585  31.496  0.00  0.00    +0.037 C 
ATOM     23  C   UNL A   1     -30.768   3.182  31.203  0.00  0.00    +0.139 C 
ATOM     24  C   UNL A   1     -29.441   1.604  29.298  0.00  0.00    -0.013 C 
ATOM     25  C   UNL A   1     -31.317   2.986  29.941  0.00  0.00    +0.037 C 
ATOM     26  C   UNL A   1     -30.660   2.219  28.990  0.00  0.00    -0.001 C 
ATOM     27  C   UNL A   1     -28.887   1.817  30.549  0.00  0.00    -0.001 C 
BRANCH  23  28
ATOM     28  O   UNL A   1     -31.469   3.920  32.131  0.00  0.00    -0.475 OA
BRANCH  28  29
ATOM     29  C   UNL A   1     -31.285   4.336  33.473  0.00  0.00    +0.205 C 
ATOM     30  C   UNL A   1     -32.011   5.679  33.662  0.00  0.00    +0.051 C 
ENDBRANCH  28  29
ENDBRANCH  23  28
ENDBRANCH  21  24
ENDBRANCH  18  21
ENDBRANCH  10  20
BRANCH  11  31
ATOM     31  C   UNL A   1     -24.855  -1.012  30.143  0.00  0.00    +0.067 C 
BRANCH  31  32
ATOM     32  C   UNL A   1     -24.973  -2.505  29.788  0.00  0.00    -0.019 C 
ATOM     33  C   UNL A   1     -23.906  -3.173  29.146  0.00  0.00    -0.004 C 
ATOM     34  C   UNL A   1     -23.989  -4.549  28.853  0.00  0.00    -0.000 C 
ATOM     35  C   UNL A   1     -25.137  -5.280  29.205  0.00  0.00    -0.000 C 
ATOM     36  C   UNL A   1     -26.232  -4.611  29.784  0.00  0.00    -0.000 C 
ATOM     37  C   UNL A   1     -26.155  -3.232  30.065  0.00  0.00    -0.004 C 
ENDBRANCH  31  32
BRANCH  31  38
ATOM     38  C   UNL A   1     -25.387  -0.679  31.571  0.00  0.00    +0.079 C 
ATOM     39  C   UNL A   1     -25.189   0.773  32.028  0.00  0.00    +0.019 C 
ATOM     40  C   UNL A   1     -25.336   0.684  33.544  0.00  0.00    +0.020 C 
ATOM     41  C   UNL A   1     -24.829  -0.715  33.905  0.00  0.00    +0.089 C 
ATOM     42  N   UNL A   1     -24.758  -1.481  32.646  0.00  0.00    -0.219 NA
ENDBRANCH  31  38
ENDBRANCH  11  31
BRANCH   5  43
ATOM     43  O   UNL A   1     -28.193  -0.208  24.477  0.00  0.00    -0.459 OA
BRANCH  43  44
ATOM     44  C   UNL A   1     -29.460   0.005  23.866  0.00  0.00    +0.242 C 
BRANCH  44  45
ATOM     45  C   UNL A   1     -30.065  -1.377  23.573  0.00  0.00    +0.229 C 
ATOM     46  O   UNL A   1     -30.729  -1.878  24.721  0.00  0.00    -0.216 OA
ENDBRANCH  44  45
ENDBRANCH  43  44
ENDBRANCH   5  43
TORSDOF 12
