REMARK  Name = outputs/IAG933/test6/raw/output_632_IAG933_linker_design_.xyz
REMARK  9 active torsions:
REMARK  status: ('A' for Active; 'I' for Inactive)
REMARK    1  A    between atoms: C_1  and  C_2
REMARK    2  A    between atoms: C_13  and  N_41
REMARK    3  A    between atoms: C_14  and  C_15
REMARK    4  A    between atoms: C_21  and  O_22
REMARK    5  A    between atoms: O_22  and  C_23
REMARK    6  A    between atoms: C_23  and  C_24
REMARK    7  A    between atoms: C_32  and  C_35
REMARK    8  A    between atoms: C_34  and  C_36
REMARK    9  A    between atoms: N_41  and  C_42
REMARK                            x       y       z     vdW  Elec       q    Type
REMARK                         _______ _______ _______ _____ _____    ______ ____
ROOT
ATOM      1  C   UNL A   1     -21.038   0.357  28.228  0.00  0.00    +0.099 C 
ATOM      2  C   UNL A   1     -22.609   1.367  26.695  0.00  0.00    +0.086 C 
ATOM      3  C   UNL A   1     -23.190   0.170  28.842  0.00  0.00    +0.077 C 
ATOM      4  N   UNL A   1     -22.002  -0.132  29.081  0.00  0.00    -0.247 NA
ATOM      5  C   UNL A   1     -21.292   0.990  27.017  0.00  0.00    +0.028 C 
ATOM      6  C   UNL A   1     -23.626   1.122  27.567  0.00  0.00    +0.089 C 
ENDROOT
BRANCH   3  15
ATOM      7  C   UNL A   1     -24.855  -1.012  30.143  0.00  0.00    +0.046 C 
ATOM      8  C   UNL A   1     -25.387  -0.679  31.571  0.00  0.00    +0.079 C 
ATOM      9  C   UNL A   1     -25.189   0.773  32.028  0.00  0.00    +0.038 C 
ATOM     10  C   UNL A   1     -25.336   0.684  33.544  0.00  0.00    +0.022 C 
ATOM     11  C   UNL A   1     -24.829  -0.715  33.905  0.00  0.00    +0.089 C 
ATOM     12  N   UNL A   1     -24.758  -1.481  32.646  0.00  0.00    -0.219 NA
ATOM     13  C   UNL A   1     -24.974   2.002  31.142  0.00  0.00    +0.124 C 
ATOM     14  N   UNL A   1     -25.789   3.203  31.053  0.00  0.00    -0.130 NA
ATOM     15  C   UNL A   1     -24.416   0.223  29.500  0.00  0.00    +0.079 C 
ATOM     16  C   UNL A   1     -25.230   1.394  29.689  0.00  0.00    +0.175 C 
ATOM     17  O   UNL A   1     -26.641   1.063  29.478  0.00  0.00    -0.221 OA
BRANCH   7  18
ATOM     18  C   UNL A   1     -24.973  -2.505  29.788  0.00  0.00    -0.021 C 
ATOM     19  C   UNL A   1     -23.906  -3.173  29.146  0.00  0.00    -0.004 C 
ATOM     20  C   UNL A   1     -23.989  -4.549  28.853  0.00  0.00    -0.000 C 
ATOM     21  C   UNL A   1     -25.137  -5.280  29.205  0.00  0.00    -0.000 C 
ATOM     22  C   UNL A   1     -26.232  -4.611  29.784  0.00  0.00    -0.000 C 
ATOM     23  C   UNL A   1     -26.155  -3.232  30.065  0.00  0.00    -0.004 C 
ENDBRANCH   7  18
ENDBRANCH   3  15
BRANCH   2  26
ATOM     24  F   UNL A   1     -23.707   1.302  24.605  0.00  0.00    -0.159 F 
ATOM     25  O   UNL A   1     -22.366   2.923  25.006  0.00  0.00    -0.254 OA
ATOM     26  C   UNL A   1     -22.901   1.947  25.458  0.00  0.00    +0.335 C 
ENDBRANCH   2  26
BRANCH   6  27
ATOM     27  N   UNL A   1     -24.818   1.241  27.314  0.00  0.00    -0.212 NA
BRANCH  27  28
ATOM     28  C   UNL A   1     -25.688   1.614  26.461  0.00  0.00    +0.092 C 
ATOM     29  C   UNL A   1     -26.250   2.920  26.395  0.00  0.00    +0.071 C 
ATOM     30  C   UNL A   1     -27.438   3.091  25.645  0.00  0.00    +0.160 C 
ATOM     31  N   UNL A   1     -28.075   2.089  25.003  0.00  0.00    -0.234 NA
ATOM     32  C   UNL A   1     -27.543   0.849  25.079  0.00  0.00    +0.235 C 
ATOM     33  C   UNL A   1     -26.354   0.576  25.777  0.00  0.00    +0.273 C 
ATOM     34  F   UNL A   1     -25.860  -0.681  25.795  0.00  0.00    -0.221 F 
BRANCH  29  35
ATOM     35  C   UNL A   1     -25.642   4.093  27.123  0.00  0.00    +0.264 C 
ATOM     36  N   UNL A   1     -25.614   5.252  26.449  0.00  0.00    -0.200 NA
ATOM     37  C   UNL A   1     -25.026   6.479  26.963  0.00  0.00    +0.139 C 
ATOM     38  O   UNL A   1     -25.143   3.966  28.243  0.00  0.00    -0.269 OA
ENDBRANCH  29  35
BRANCH  32  39
ATOM     39  O   UNL A   1     -28.193  -0.208  24.477  0.00  0.00    -0.459 OA
BRANCH  39  40
ATOM     40  C   UNL A   1     -29.460   0.005  23.866  0.00  0.00    +0.242 C 
BRANCH  40  41
ATOM     41  C   UNL A   1     -30.065  -1.377  23.573  0.00  0.00    +0.229 C 
ATOM     42  O   UNL A   1     -30.729  -1.878  24.721  0.00  0.00    -0.216 OA
ENDBRANCH  40  41
ENDBRANCH  39  40
ENDBRANCH  32  39
ENDBRANCH  27  28
ENDBRANCH   6  27
TORSDOF 9
