REMARK  Name = outputs/IAG933/test6/raw/output_6328_IAG933_linker_design_.xyz
REMARK  12 active torsions:
REMARK  status: ('A' for Active; 'I' for Inactive)
REMARK    1  A    between atoms: C_1  and  C_2
REMARK    2  A    between atoms: C_1  and  C_8
REMARK    3  A    between atoms: C_1  and  C_39
REMARK    4  A    between atoms: C_13  and  N_28
REMARK    5  A    between atoms: C_14  and  C_15
REMARK    6  A    between atoms: C_21  and  O_22
REMARK    7  A    between atoms: O_22  and  C_23
REMARK    8  A    between atoms: C_23  and  C_24
REMARK    9  A    between atoms: C_29  and  C_39
REMARK   10  A    between atoms: C_36  and  C_41
REMARK   11  A    between atoms: C_36  and  C_42
REMARK   12  A    between atoms: C_39  and  C_41
REMARK                            x       y       z     vdW  Elec       q    Type
REMARK                         _______ _______ _______ _____ _____    ______ ____
ROOT
ATOM      1  N   UNL A   1     -24.558   1.295  27.130  0.00  0.00    -0.251 N 
ATOM      2  C   UNL A   1     -24.587   0.644  28.366  0.00  0.00    +0.099 C 
ATOM      3  O   UNL A   1     -23.260   2.118  25.477  0.00  0.00    -0.270 OA
ATOM      4  C   UNL A   1     -22.139  -0.050  29.452  0.00  0.00    +0.027 C 
ATOM      5  C   UNL A   1     -23.112   0.354  28.622  0.00  0.00    -0.023 C 
ATOM      6  C   UNL A   1     -23.452   1.502  26.577  0.00  0.00    +0.251 C 
ATOM      7  C   UNL A   1     -20.847   0.096  28.775  0.00  0.00    +0.044 C 
ATOM      8  C   UNL A   1     -22.742   0.917  27.480  0.00  0.00    +0.057 C 
ATOM      9  F   UNL A   1     -20.550   1.686  26.773  0.00  0.00    -0.232 F 
ATOM     10  C   UNL A   1     -21.236   0.872  27.635  0.00  0.00    +0.187 C 
ENDROOT
BRANCH   1  11
ATOM     11  C   UNL A   1     -25.688   1.614  26.461  0.00  0.00    +0.092 C 
ATOM     12  C   UNL A   1     -26.250   2.920  26.395  0.00  0.00    +0.090 C 
ATOM     13  C   UNL A   1     -27.438   3.091  25.645  0.00  0.00    +0.108 C 
ATOM     14  N   UNL A   1     -28.075   2.089  25.003  0.00  0.00    -0.208 NA
ATOM     15  C   UNL A   1     -27.543   0.849  25.079  0.00  0.00    +0.255 C 
ATOM     16  C   UNL A   1     -26.354   0.576  25.777  0.00  0.00    +0.207 C 
ATOM     17  F   UNL A   1     -25.860  -0.681  25.795  0.00  0.00    -0.198 F 
BRANCH  12  18
ATOM     18  C   UNL A   1     -25.642   4.093  27.123  0.00  0.00    +0.268 C 
ATOM     19  N   UNL A   1     -25.614   5.252  26.449  0.00  0.00    -0.200 NA
ATOM     20  C   UNL A   1     -25.026   6.479  26.963  0.00  0.00    +0.139 C 
ATOM     21  O   UNL A   1     -25.143   3.966  28.243  0.00  0.00    -0.268 OA
ENDBRANCH  12  18
BRANCH  15  22
ATOM     22  O   UNL A   1     -28.193  -0.208  24.477  0.00  0.00    -0.456 OA
BRANCH  22  23
ATOM     23  C   UNL A   1     -29.460   0.005  23.866  0.00  0.00    +0.243 C 
BRANCH  23  24
ATOM     24  C   UNL A   1     -30.065  -1.377  23.573  0.00  0.00    +0.229 C 
ATOM     25  O   UNL A   1     -30.729  -1.878  24.721  0.00  0.00    -0.216 OA
ENDBRANCH  23  24
ENDBRANCH  22  23
ENDBRANCH  15  22
ENDBRANCH   1  11
BRANCH   2  26
ATOM     26  C   UNL A   1     -25.669  -0.159  29.119  0.00  0.00    +0.028 C 
BRANCH  26  27
ATOM     27  C   UNL A   1     -24.855  -1.012  30.143  0.00  0.00    +0.040 C 
BRANCH  27  28
ATOM     28  C   UNL A   1     -24.973  -2.505  29.788  0.00  0.00    -0.021 C 
ATOM     29  C   UNL A   1     -23.906  -3.173  29.146  0.00  0.00    -0.004 C 
ATOM     30  C   UNL A   1     -23.989  -4.549  28.853  0.00  0.00    -0.000 C 
ATOM     31  C   UNL A   1     -25.137  -5.280  29.205  0.00  0.00    -0.000 C 
ATOM     32  C   UNL A   1     -26.232  -4.611  29.784  0.00  0.00    -0.000 C 
ATOM     33  C   UNL A   1     -26.155  -3.232  30.065  0.00  0.00    -0.004 C 
ENDBRANCH  27  28
BRANCH  27  34
ATOM     34  C   UNL A   1     -25.387  -0.679  31.571  0.00  0.00    +0.077 C 
ATOM     35  C   UNL A   1     -25.189   0.773  32.028  0.00  0.00    +0.019 C 
ATOM     36  C   UNL A   1     -25.336   0.684  33.544  0.00  0.00    +0.020 C 
ATOM     37  C   UNL A   1     -24.829  -0.715  33.905  0.00  0.00    +0.089 C 
ATOM     38  N   UNL A   1     -24.758  -1.481  32.646  0.00  0.00    -0.219 NA
ENDBRANCH  27  34
ENDBRANCH  26  27
BRANCH  26  39
ATOM     39  C   UNL A   1     -27.050   0.314  29.695  0.00  0.00    +0.005 C 
BRANCH  39  40
ATOM     40  C   UNL A   1     -27.993   1.269  28.907  0.00  0.00    +0.036 C 
BRANCH  40  42
ATOM     41  O   UNL A   1     -29.202   2.456  30.803  0.00  0.00    -0.220 OA
ATOM     42  C   UNL A   1     -28.398   2.559  29.663  0.00  0.00    +0.182 C 
ENDBRANCH  40  42
ENDBRANCH  39  40
ENDBRANCH  26  39
ENDBRANCH   2  26
TORSDOF 12
