REMARK  Name = outputs/IAG933/test6/raw/output_6329_IAG933_linker_design_.xyz
REMARK  12 active torsions:
REMARK  status: ('A' for Active; 'I' for Inactive)
REMARK    1  A    between atoms: C_1  and  C_2
REMARK    2  A    between atoms: C_1  and  C_8
REMARK    3  A    between atoms: C_1  and  O_44
REMARK    4  A    between atoms: C_13  and  C_38
REMARK    5  A    between atoms: C_14  and  C_15
REMARK    6  A    between atoms: C_21  and  O_22
REMARK    7  A    between atoms: O_22  and  C_23
REMARK    8  A    between atoms: C_23  and  C_24
REMARK    9  A    between atoms: C_24  and  O_25
REMARK   10  A    between atoms: O_25  and  C_41
REMARK   11  A    between atoms: C_35  and  C_41
REMARK   12  A    between atoms: O_44  and  C_50
REMARK                            x       y       z     vdW  Elec       q    Type
REMARK                         _______ _______ _______ _____ _____    ______ ____
ROOT
ATOM      1  C   UNL A   1     -25.688   1.614  26.461  0.00  0.00    +0.018 C 
ATOM      2  C   UNL A   1     -26.250   2.920  26.395  0.00  0.00    +0.073 C 
ATOM      3  C   UNL A   1     -27.438   3.091  25.645  0.00  0.00    +0.106 C 
ATOM      4  N   UNL A   1     -28.075   2.089  25.003  0.00  0.00    -0.208 NA
ATOM      5  C   UNL A   1     -27.543   0.849  25.079  0.00  0.00    +0.253 C 
ATOM      6  C   UNL A   1     -26.354   0.576  25.777  0.00  0.00    +0.189 C 
ATOM      7  F   UNL A   1     -25.860  -0.681  25.795  0.00  0.00    -0.200 F 
ENDROOT
BRANCH   1  10
ATOM      8  N   UNL A   1     -22.618   0.121  29.940  0.00  0.00    -0.130 NA
ATOM      9  C   UNL A   1     -22.988   2.293  25.551  0.00  0.00    +0.001 C 
ATOM     10  C   UNL A   1     -24.645   1.360  27.268  0.00  0.00    +0.054 C 
ATOM     11  C   UNL A   1     -23.481   1.913  26.929  0.00  0.00    +0.008 C 
ATOM     12  C   UNL A   1     -20.992   1.461  27.457  0.00  0.00    +0.002 C 
ATOM     13  C   UNL A   1     -22.462   1.477  27.986  0.00  0.00    +0.020 C 
ATOM     14  C   UNL A   1     -23.023   0.114  28.566  0.00  0.00    +0.119 C 
ATOM     15  C   UNL A   1     -24.507   0.498  28.314  0.00  0.00    +0.137 C 
BRANCH  15  16
ATOM     16  O   UNL A   1     -25.388  -0.090  29.317  0.00  0.00    -0.351 OA
BRANCH  16  17
ATOM     17  C   UNL A   1     -24.855  -1.012  30.143  0.00  0.00    +0.153 C 
BRANCH  17  18
ATOM     18  C   UNL A   1     -24.973  -2.505  29.788  0.00  0.00    +0.006 C 
ATOM     19  C   UNL A   1     -23.906  -3.173  29.146  0.00  0.00    -0.002 C 
ATOM     20  C   UNL A   1     -23.989  -4.549  28.853  0.00  0.00    -0.000 C 
ATOM     21  C   UNL A   1     -25.137  -5.280  29.205  0.00  0.00    -0.000 C 
ATOM     22  C   UNL A   1     -26.232  -4.611  29.784  0.00  0.00    -0.000 C 
ATOM     23  C   UNL A   1     -26.155  -3.232  30.065  0.00  0.00    -0.002 C 
ENDBRANCH  17  18
BRANCH  17  24
ATOM     24  C   UNL A   1     -25.387  -0.679  31.571  0.00  0.00    +0.104 C 
ATOM     25  C   UNL A   1     -25.189   0.773  32.028  0.00  0.00    +0.022 C 
ATOM     26  C   UNL A   1     -25.336   0.684  33.544  0.00  0.00    +0.020 C 
ATOM     27  C   UNL A   1     -24.829  -0.715  33.905  0.00  0.00    +0.089 C 
ATOM     28  N   UNL A   1     -24.758  -1.481  32.646  0.00  0.00    -0.217 NA
ENDBRANCH  17  24
ENDBRANCH  16  17
ENDBRANCH  15  16
ENDBRANCH   1  10
BRANCH   2  29
ATOM     29  C   UNL A   1     -25.642   4.093  27.123  0.00  0.00    +0.266 C 
ATOM     30  N   UNL A   1     -25.614   5.252  26.449  0.00  0.00    -0.200 NA
ATOM     31  C   UNL A   1     -25.026   6.479  26.963  0.00  0.00    +0.139 C 
ATOM     32  O   UNL A   1     -25.143   3.966  28.243  0.00  0.00    -0.268 OA
ENDBRANCH   2  29
BRANCH   5  33
ATOM     33  O   UNL A   1     -28.193  -0.208  24.477  0.00  0.00    -0.456 OA
BRANCH  33  34
ATOM     34  C   UNL A   1     -29.460   0.005  23.866  0.00  0.00    +0.239 C 
BRANCH  34  35
ATOM     35  C   UNL A   1     -30.065  -1.377  23.573  0.00  0.00    +0.190 C 
BRANCH  35  36
ATOM     36  O   UNL A   1     -30.729  -1.878  24.721  0.00  0.00    -0.345 OA
BRANCH  36  37
ATOM     37  C   UNL A   1     -30.348  -1.848  25.862  0.00  0.00    +0.172 C 
BRANCH  37  44
ATOM     38  C   UNL A   1     -30.472  -1.719  29.440  0.00  0.00    +0.235 C 
ATOM     39  C   UNL A   1     -29.112  -0.733  31.190  0.00  0.00    +0.015 C 
ATOM     40  O   UNL A   1     -32.523  -1.807  28.008  0.00  0.00    -0.283 OA
ATOM     41  C   UNL A   1     -29.684  -3.092  31.256  0.00  0.00    +0.416 C 
ATOM     42  C   UNL A   1     -29.500  -0.004  27.583  0.00  0.00    +0.044 C 
ATOM     43  C   UNL A   1     -29.654  -0.705  29.866  0.00  0.00    +0.085 C 
ATOM     44  C   UNL A   1     -30.384  -1.046  27.238  0.00  0.00    +0.053 C 
ATOM     45  N   UNL A   1     -30.518  -2.926  30.125  0.00  0.00    -0.029 NA
ATOM     46  C   UNL A   1     -31.221  -1.570  28.155  0.00  0.00    +0.237 C 
ATOM     47  N   UNL A   1     -29.376  -4.385  31.699  0.00  0.00    +0.216 NA
ATOM     48  C   UNL A   1     -29.064  -1.979  31.833  0.00  0.00    +0.098 C 
ATOM     49  O   UNL A   1     -28.808   1.381  29.348  0.00  0.00    -0.286 OA
ATOM     50  C   UNL A   1     -29.269   0.257  28.920  0.00  0.00    +0.199 C 
ENDBRANCH  37  44
ENDBRANCH  36  37
ENDBRANCH  35  36
ENDBRANCH  34  35
ENDBRANCH  33  34
ENDBRANCH   5  33
TORSDOF 12
