MODEL 632
MODEL 1
REMARK VINA RESULT:    -4.614      0.000      0.000
REMARK INTER + INTRA:          -5.218
REMARK INTER:                  -5.154
REMARK INTRA:                  -0.065
REMARK UNBOUND:                -0.065
REMARK  Name = No_632-gen_results/8p0m/2024-11-27-11-27-31/
REMARK  2 active torsions:
REMARK  status: ('A' for Active; 'I' for Inactive)
REMARK    1  A    between atoms: C_2  and  C_3
REMARK    2  A    between atoms: C_4  and  C_5
REMARK                            x       y       z     vdW  Elec       q    Type
REMARK                         _______ _______ _______ _____ _____    ______ ____
ROOT
ATOM      1  C   UNL A   1      -9.474  -9.106  20.079  0.00  0.00    -0.002 C 
ATOM      2  C   UNL A   1     -10.425  -9.294  19.001  0.00  0.00    +0.009 C 
ENDROOT
BRANCH   1   4
ATOM      3  C   UNL A   1      -7.196  -9.333  19.899  0.00  0.00    -0.026 C 
ATOM      4  C   UNL A   1      -8.284  -9.832  20.070  0.00  0.00    -0.005 C 
ATOM      5  C   UNL A   1      -7.055  -7.914  19.762  0.00  0.00    +0.031 C 
ENDBRANCH   1   4
BRANCH   2   6
ATOM      6  C   UNL A   1     -10.036 -10.268  18.053  0.00  0.00    +0.208 C 
ATOM      7  O   UNL A   1     -10.907 -10.425  17.036  0.00  0.00    -0.215 OA
ENDBRANCH   2   6
TORSDOF 2
ENDMDL
ENDMDL
