REMARK  Name = No_633-gen_results/8p0m/2024-11-27-11-27-31/
REMARK  10 active torsions:
REMARK  status: ('A' for Active; 'I' for Inactive)
REMARK    1  A    between atoms: C_2  and  C_25
REMARK    2  A    between atoms: C_3  and  C_7
REMARK    3  A    between atoms: C_7  and  C_8
REMARK    4  A    between atoms: C_7  and  C_9
REMARK    5  A    between atoms: C_8  and  C_17
REMARK    6  A    between atoms: C_9  and  C_10
REMARK    7  A    between atoms: C_14  and  C_22
REMARK    8  A    between atoms: C_18  and  C_21
REMARK    9  A    between atoms: C_28  and  C_29
REMARK   10  A    between atoms: C_30  and  C_31
REMARK                            x       y       z     vdW  Elec       q    Type
REMARK                         _______ _______ _______ _____ _____    ______ ____
ROOT
ATOM      1  C   UNL A   1     -26.317   0.399  27.365  0.00  0.00    +0.030 C 
ENDROOT
BRANCH   1   4
ATOM      2  C   UNL A   1     -28.016  -0.814  28.878  0.00  0.00    +0.002 A 
ATOM      3  C   UNL A   1     -28.469  -0.785  29.829  0.00  0.00    +0.080 A 
ATOM      4  C   UNL A   1     -27.087   0.290  28.638  0.00  0.00    -0.022 A 
ATOM      5  C   UNL A   1     -26.832   1.249  29.587  0.00  0.00    -0.004 A 
ATOM      6  C   UNL A   1     -28.391   0.080  31.006  0.00  0.00    +0.007 A 
ATOM      7  C   UNL A   1     -27.494   1.152  30.784  0.00  0.00    -0.000 A 
BRANCH   3   8
ATOM      8  C   UNL A   1     -29.560  -1.927  30.265  0.00  0.00    +0.388 C 
ATOM      9  O   UNL A   1     -29.549  -2.900  29.838  0.00  0.00    -0.241 OA
ATOM     10  O   UNL A   1     -30.275  -1.652  31.395  0.00  0.00    -0.241 OA
ENDBRANCH   3   8
ENDBRANCH   1   4
BRANCH   1  11
ATOM     11  C   UNL A   1     -26.913   0.586  26.140  0.00  0.00    +0.027 C 
ATOM     12  C   UNL A   1     -26.099   0.133  25.078  0.00  0.00    +0.005 C 
BRANCH  11  13
ATOM     13  C   UNL A   1     -28.269   0.717  25.985  0.00  0.00    -0.022 A 
ATOM     14  C   UNL A   1     -28.766   0.732  24.686  0.00  0.00    -0.004 A 
ATOM     15  C   UNL A   1     -30.160   0.870  24.463  0.00  0.00    -0.000 A 
ATOM     16  C   UNL A   1     -30.994   0.958  25.541  0.00  0.00    +0.007 A 
ATOM     17  C   UNL A   1     -30.508   0.951  26.839  0.00  0.00    +0.080 A 
ATOM     18  C   UNL A   1     -29.200   0.871  27.078  0.00  0.00    +0.002 A 
BRANCH  17  19
ATOM     19  C   UNL A   1     -31.549   1.137  27.928  0.00  0.00    +0.388 C 
ATOM     20  O   UNL A   1     -31.997   0.075  28.418  0.00  0.00    -0.241 OA
ATOM     21  O   UNL A   1     -31.462   2.240  28.664  0.00  0.00    -0.241 OA
ENDBRANCH  17  19
ENDBRANCH  11  13
ENDBRANCH   1  11
BRANCH   1  22
ATOM     22  C   UNL A   1     -24.941   0.255  27.503  0.00  0.00    +0.026 C 
BRANCH  22  23
ATOM     23  C   UNL A   1     -24.101   1.296  27.232  0.00  0.00    -0.048 C 
ATOM     24  C   UNL A   1     -22.721   1.300  27.720  0.00  0.00    -0.030 C 
ATOM     25  C   UNL A   1     -21.852   2.374  27.380  0.00  0.00    +0.030 C 
ATOM     26  C   UNL A   1     -24.436   2.469  26.465  0.00  0.00    +0.026 C 
BRANCH  24  27
ATOM     27  C   UNL A   1     -22.262   0.186  28.550  0.00  0.00    -0.005 C 
ATOM     28  C   UNL A   1     -23.043  -0.389  29.575  0.00  0.00    -0.000 C 
BRANCH  28  29
ATOM     29  C   UNL A   1     -22.974   0.139  30.795  0.00  0.00    -0.000 C 
ATOM     30  C   UNL A   1     -23.719  -0.488  31.883  0.00  0.00    -0.000 C 
BRANCH  30  31
ATOM     31  C   UNL A   1     -24.648  -1.501  31.422  0.00  0.00    -0.000 C 
ATOM     32  C   UNL A   1     -24.665  -2.002  30.186  0.00  0.00    +0.000 C 
ENDBRANCH  30  31
ENDBRANCH  28  29
ENDBRANCH  24  27
ENDBRANCH  22  23
ENDBRANCH   1  22
TORSDOF 10
