REMARK  Name = outputs/IAG933/test6/raw/output_6330_IAG933_linker_design_.xyz
REMARK  11 active torsions:
REMARK  status: ('A' for Active; 'I' for Inactive)
REMARK    1  A    between atoms: C_1  and  C_2
REMARK    2  A    between atoms: C_1  and  C_8
REMARK    3  A    between atoms: C_1  and  N_37
REMARK    4  A    between atoms: C_13  and  N_31
REMARK    5  A    between atoms: C_14  and  C_15
REMARK    6  A    between atoms: C_21  and  O_22
REMARK    7  A    between atoms: O_22  and  C_23
REMARK    8  A    between atoms: C_23  and  C_24
REMARK    9  A    between atoms: C_28  and  N_37
REMARK   10  A    between atoms: N_31  and  C_39
REMARK   11  A    between atoms: C_36  and  C_42
REMARK                            x       y       z     vdW  Elec       q    Type
REMARK                         _______ _______ _______ _____ _____    ______ ____
ROOT
ATOM      1  C   UNL A   1     -23.689   0.630  29.064  0.00  0.00    +0.242 C 
ATOM      2  C   UNL A   1     -21.331   1.191  27.792  0.00  0.00    +0.188 C 
ATOM      3  C   UNL A   1     -22.447   0.012  29.505  0.00  0.00    +0.204 C 
ATOM      4  F   UNL A   1     -20.304   2.005  27.593  0.00  0.00    -0.233 F 
ATOM      5  C   UNL A   1     -22.370   1.391  27.192  0.00  0.00    +0.069 C 
ATOM      6  C   UNL A   1     -21.205   0.039  28.637  0.00  0.00    +0.077 C 
ATOM      7  C   UNL A   1     -23.625   1.206  27.685  0.00  0.00    +0.094 C 
ATOM      8  F   UNL A   1     -23.892   1.742  29.983  0.00  0.00    -0.215 F 
ATOM      9  O   UNL A   1     -22.291  -0.457  30.724  0.00  0.00    -0.218 OA
ENDROOT
BRANCH   5  12
ATOM     10  F   UNL A   1     -23.350   1.400  24.861  0.00  0.00    -0.194 F 
ATOM     11  F   UNL A   1     -21.525   2.469  25.197  0.00  0.00    -0.194 F 
ATOM     12  C   UNL A   1     -22.477   1.762  25.890  0.00  0.00    +0.341 C 
ENDBRANCH   5  12
BRANCH   1  14
ATOM     13  C   UNL A   1     -26.367  -0.378  28.598  0.00  0.00    +0.092 C 
ATOM     14  N   UNL A   1     -25.025   0.096  29.145  0.00  0.00    -0.238 NA
BRANCH  14  15
ATOM     15  C   UNL A   1     -24.855  -1.012  30.143  0.00  0.00    +0.099 C 
BRANCH  15  16
ATOM     16  C   UNL A   1     -24.973  -2.505  29.788  0.00  0.00    -0.006 C 
ATOM     17  C   UNL A   1     -23.906  -3.173  29.146  0.00  0.00    -0.003 C 
ATOM     18  C   UNL A   1     -23.989  -4.549  28.853  0.00  0.00    -0.000 C 
ATOM     19  C   UNL A   1     -25.137  -5.280  29.205  0.00  0.00    -0.000 C 
ATOM     20  C   UNL A   1     -26.232  -4.611  29.784  0.00  0.00    -0.000 C 
ATOM     21  C   UNL A   1     -26.155  -3.232  30.065  0.00  0.00    -0.003 C 
ENDBRANCH  15  16
BRANCH  15  22
ATOM     22  C   UNL A   1     -25.387  -0.679  31.571  0.00  0.00    +0.092 C 
ATOM     23  C   UNL A   1     -25.189   0.773  32.028  0.00  0.00    +0.021 C 
ATOM     24  C   UNL A   1     -25.336   0.684  33.544  0.00  0.00    +0.020 C 
ATOM     25  C   UNL A   1     -24.829  -0.715  33.905  0.00  0.00    +0.089 C 
ATOM     26  N   UNL A   1     -24.758  -1.481  32.646  0.00  0.00    -0.218 NA
ENDBRANCH  15  22
ENDBRANCH  14  15
ENDBRANCH   1  14
BRANCH   7  27
ATOM     27  N   UNL A   1     -24.695   1.407  27.201  0.00  0.00    -0.210 NA
BRANCH  27  28
ATOM     28  C   UNL A   1     -25.688   1.614  26.461  0.00  0.00    +0.108 C 
ATOM     29  C   UNL A   1     -26.250   2.920  26.395  0.00  0.00    +0.092 C 
ATOM     30  C   UNL A   1     -27.438   3.091  25.645  0.00  0.00    +0.108 C 
ATOM     31  N   UNL A   1     -28.075   2.089  25.003  0.00  0.00    -0.208 NA
ATOM     32  C   UNL A   1     -27.543   0.849  25.079  0.00  0.00    +0.255 C 
ATOM     33  C   UNL A   1     -26.354   0.576  25.777  0.00  0.00    +0.208 C 
ATOM     34  F   UNL A   1     -25.860  -0.681  25.795  0.00  0.00    -0.198 F 
BRANCH  29  35
ATOM     35  C   UNL A   1     -25.642   4.093  27.123  0.00  0.00    +0.268 C 
ATOM     36  N   UNL A   1     -25.614   5.252  26.449  0.00  0.00    -0.200 NA
ATOM     37  C   UNL A   1     -25.026   6.479  26.963  0.00  0.00    +0.139 C 
ATOM     38  O   UNL A   1     -25.143   3.966  28.243  0.00  0.00    -0.268 OA
ENDBRANCH  29  35
BRANCH  32  39
ATOM     39  O   UNL A   1     -28.193  -0.208  24.477  0.00  0.00    -0.456 OA
BRANCH  39  40
ATOM     40  C   UNL A   1     -29.460   0.005  23.866  0.00  0.00    +0.243 C 
BRANCH  40  41
ATOM     41  C   UNL A   1     -30.065  -1.377  23.573  0.00  0.00    +0.229 C 
ATOM     42  O   UNL A   1     -30.729  -1.878  24.721  0.00  0.00    -0.216 OA
ENDBRANCH  40  41
ENDBRANCH  39  40
ENDBRANCH  32  39
ENDBRANCH  27  28
ENDBRANCH   7  27
TORSDOF 11
