REMARK  Name = outputs/IAG933/test6/raw/output_6331_IAG933_linker_design_.xyz
REMARK  12 active torsions:
REMARK  status: ('A' for Active; 'I' for Inactive)
REMARK    1  A    between atoms: C_1  and  C_2
REMARK    2  A    between atoms: C_1  and  C_8
REMARK    3  A    between atoms: C_1  and  N_35
REMARK    4  A    between atoms: C_9  and  C_30
REMARK    5  A    between atoms: C_13  and  C_41
REMARK    6  A    between atoms: C_14  and  C_15
REMARK    7  A    between atoms: C_21  and  O_22
REMARK    8  A    between atoms: O_22  and  C_23
REMARK    9  A    between atoms: C_23  and  C_24
REMARK   10  A    between atoms: N_31  and  C_41
REMARK   11  A    between atoms: C_34  and  N_35
REMARK   12  A    between atoms: C_34  and  C_41
REMARK                            x       y       z     vdW  Elec       q    Type
REMARK                         _______ _______ _______ _____ _____    ______ ____
ROOT
ATOM      1  C   UNL A   1     -25.152   0.066  28.304  0.00  0.00    +0.115 C 
ENDROOT
BRANCH   1   2
ATOM      2  N   UNL A   1     -24.418  -0.011  29.529  0.00  0.00    -0.211 NA
BRANCH   2   3
ATOM      3  C   UNL A   1     -24.855  -1.012  30.143  0.00  0.00    +0.111 C 
BRANCH   3   4
ATOM      4  C   UNL A   1     -24.973  -2.505  29.788  0.00  0.00    -0.005 C 
ATOM      5  C   UNL A   1     -23.906  -3.173  29.146  0.00  0.00    -0.003 C 
ATOM      6  C   UNL A   1     -23.989  -4.549  28.853  0.00  0.00    -0.000 C 
ATOM      7  C   UNL A   1     -25.137  -5.280  29.205  0.00  0.00    -0.000 C 
ATOM      8  C   UNL A   1     -26.232  -4.611  29.784  0.00  0.00    -0.000 C 
ATOM      9  C   UNL A   1     -26.155  -3.232  30.065  0.00  0.00    -0.003 C 
ENDBRANCH   3   4
BRANCH   3  10
ATOM     10  C   UNL A   1     -25.387  -0.679  31.571  0.00  0.00    +0.101 C 
ATOM     11  C   UNL A   1     -25.189   0.773  32.028  0.00  0.00    +0.096 C 
ATOM     12  C   UNL A   1     -25.336   0.684  33.544  0.00  0.00    +0.029 C 
ATOM     13  C   UNL A   1     -24.829  -0.715  33.905  0.00  0.00    +0.089 C 
ATOM     14  N   UNL A   1     -24.758  -1.481  32.646  0.00  0.00    -0.217 NA
BRANCH  11  16
ATOM     15  C   UNL A   1     -27.335   2.820  32.056  0.00  0.00    +0.093 C 
ATOM     16  C   UNL A   1     -24.976   2.214  31.605  0.00  0.00    +0.227 C 
ATOM     17  N   UNL A   1     -25.897   3.120  31.893  0.00  0.00    -0.280 N 
ATOM     18  O   UNL A   1     -23.875   2.579  31.159  0.00  0.00    -0.275 OA
ATOM     19  C   UNL A   1     -28.028   4.197  32.271  0.00  0.00    +0.023 C 
ATOM     20  C   UNL A   1     -25.585   4.444  32.404  0.00  0.00    +0.093 C 
ATOM     21  C   UNL A   1     -26.909   5.085  32.835  0.00  0.00    +0.023 C 
ENDBRANCH  11  16
ENDBRANCH   3  10
ENDBRANCH   2   3
ENDBRANCH   1   2
BRANCH   1  22
ATOM     22  C   UNL A   1     -24.576   1.122  27.345  0.00  0.00    +0.139 C 
BRANCH  22  23
ATOM     23  C   UNL A   1     -25.688   1.614  26.461  0.00  0.00    +0.037 C 
ATOM     24  C   UNL A   1     -26.250   2.920  26.395  0.00  0.00    +0.074 C 
ATOM     25  C   UNL A   1     -27.438   3.091  25.645  0.00  0.00    +0.106 C 
ATOM     26  N   UNL A   1     -28.075   2.089  25.003  0.00  0.00    -0.208 NA
ATOM     27  C   UNL A   1     -27.543   0.849  25.079  0.00  0.00    +0.253 C 
ATOM     28  C   UNL A   1     -26.354   0.576  25.777  0.00  0.00    +0.191 C 
ATOM     29  F   UNL A   1     -25.860  -0.681  25.795  0.00  0.00    -0.200 F 
BRANCH  24  30
ATOM     30  C   UNL A   1     -25.642   4.093  27.123  0.00  0.00    +0.266 C 
ATOM     31  N   UNL A   1     -25.614   5.252  26.449  0.00  0.00    -0.200 NA
ATOM     32  C   UNL A   1     -25.026   6.479  26.963  0.00  0.00    +0.139 C 
ATOM     33  O   UNL A   1     -25.143   3.966  28.243  0.00  0.00    -0.268 OA
ENDBRANCH  24  30
BRANCH  27  34
ATOM     34  O   UNL A   1     -28.193  -0.208  24.477  0.00  0.00    -0.456 OA
BRANCH  34  35
ATOM     35  C   UNL A   1     -29.460   0.005  23.866  0.00  0.00    +0.243 C 
BRANCH  35  36
ATOM     36  C   UNL A   1     -30.065  -1.377  23.573  0.00  0.00    +0.229 C 
ATOM     37  O   UNL A   1     -30.729  -1.878  24.721  0.00  0.00    -0.216 OA
ENDBRANCH  35  36
ENDBRANCH  34  35
ENDBRANCH  27  34
ENDBRANCH  22  23
BRANCH  22  39
ATOM     38  O   UNL A   1     -21.887   2.303  26.359  0.00  0.00    -0.247 OA
ATOM     39  N   UNL A   1     -23.586   1.950  27.789  0.00  0.00    -0.182 NA
ATOM     40  C   UNL A   1     -22.295   1.799  27.404  0.00  0.00    +0.359 C 
ATOM     41  N   UNL A   1     -21.424   1.150  28.212  0.00  0.00    -0.068 NA
ENDBRANCH  22  39
ENDBRANCH   1  22
TORSDOF 12
