REMARK  Name = outputs/IAG933/test6/raw/output_6334_IAG933_linker_design_.xyz
REMARK  10 active torsions:
REMARK  status: ('A' for Active; 'I' for Inactive)
REMARK    1  A    between atoms: C_1  and  C_2
REMARK    2  A    between atoms: C_1  and  C_8
REMARK    3  A    between atoms: C_1  and  N_36
REMARK    4  A    between atoms: C_13  and  C_28
REMARK    5  A    between atoms: C_14  and  C_15
REMARK    6  A    between atoms: C_21  and  O_22
REMARK    7  A    between atoms: O_22  and  C_23
REMARK    8  A    between atoms: C_23  and  C_24
REMARK    9  A    between atoms: C_32  and  C_47
REMARK   10  A    between atoms: N_35  and  C_39
REMARK                            x       y       z     vdW  Elec       q    Type
REMARK                         _______ _______ _______ _____ _____    ______ ____
ROOT
ATOM      1  C   UNL A   1     -25.036   1.341  27.664  0.00  0.00    +0.001 A 
ATOM      2  O   UNL A   1     -21.181   1.768  27.506  0.00  0.00    -0.468 OA
ATOM      3  C   UNL A   1     -25.772   0.700  28.811  0.00  0.00    +0.054 A 
ATOM      4  N   UNL A   1     -24.710  -0.006  29.211  0.00  0.00    -0.324 N 
ATOM      5  C   UNL A   1     -23.347   0.309  28.668  0.00  0.00    +0.062 A 
ATOM      6  C   UNL A   1     -22.487   2.110  27.355  0.00  0.00    +0.233 C 
ATOM      7  C   UNL A   1     -23.578   1.301  27.797  0.00  0.00    +0.035 A 
ATOM      8  C   UNL A   1     -22.014  -0.133  28.854  0.00  0.00    +0.057 C 
ATOM      9  C   UNL A   1     -20.980   0.682  28.262  0.00  0.00    +0.174 C 
ENDROOT
BRANCH   3  19
ATOM     10  O   UNL A   1     -28.511  -1.165  29.519  0.00  0.00    -0.218 OA
ATOM     11  N   UNL A   1     -29.556   2.809  31.171  0.00  0.00    -0.144 NA
ATOM     12  C   UNL A   1     -30.062   1.147  29.583  0.00  0.00    +0.026 C 
ATOM     13  C   UNL A   1     -27.723   1.918  30.081  0.00  0.00    -0.010 C 
ATOM     14  N   UNL A   1     -28.514   3.627  31.263  0.00  0.00    -0.200 NA
ATOM     15  C   UNL A   1     -29.404   0.664  28.275  0.00  0.00    +0.039 C 
ATOM     16  C   UNL A   1     -28.133  -0.137  28.641  0.00  0.00    +0.175 C 
ATOM     17  C   UNL A   1     -29.140   1.999  30.327  0.00  0.00    +0.110 C 
ATOM     18  C   UNL A   1     -27.341   3.149  30.713  0.00  0.00    +0.113 C 
ATOM     19  C   UNL A   1     -27.139   0.818  29.268  0.00  0.00    +0.018 C 
BRANCH  14  21
ATOM     20  C   UNL A   1     -30.192   5.358  32.146  0.00  0.00    +0.020 C 
ATOM     21  C   UNL A   1     -28.704   4.982  31.912  0.00  0.00    +0.090 C 
ENDBRANCH  14  21
ENDBRANCH   3  19
BRANCH   1  22
ATOM     22  C   UNL A   1     -25.688   1.614  26.461  0.00  0.00    +0.094 C 
ATOM     23  C   UNL A   1     -26.250   2.920  26.395  0.00  0.00    +0.059 C 
ATOM     24  C   UNL A   1     -27.438   3.091  25.645  0.00  0.00    +0.102 C 
ATOM     25  N   UNL A   1     -28.075   2.089  25.003  0.00  0.00    -0.212 NA
ATOM     26  C   UNL A   1     -27.543   0.849  25.079  0.00  0.00    +0.234 C 
ATOM     27  C   UNL A   1     -26.354   0.576  25.777  0.00  0.00    +0.244 C 
ATOM     28  F   UNL A   1     -25.860  -0.681  25.795  0.00  0.00    -0.227 F 
BRANCH  23  29
ATOM     29  C   UNL A   1     -25.642   4.093  27.123  0.00  0.00    +0.263 C 
ATOM     30  N   UNL A   1     -25.614   5.252  26.449  0.00  0.00    -0.200 NA
ATOM     31  C   UNL A   1     -25.026   6.479  26.963  0.00  0.00    +0.139 C 
ATOM     32  O   UNL A   1     -25.143   3.966  28.243  0.00  0.00    -0.269 OA
ENDBRANCH  23  29
BRANCH  26  33
ATOM     33  O   UNL A   1     -28.193  -0.208  24.477  0.00  0.00    -0.459 OA
BRANCH  33  34
ATOM     34  C   UNL A   1     -29.460   0.005  23.866  0.00  0.00    +0.242 C 
BRANCH  34  35
ATOM     35  C   UNL A   1     -30.065  -1.377  23.573  0.00  0.00    +0.229 C 
ATOM     36  O   UNL A   1     -30.729  -1.878  24.721  0.00  0.00    -0.216 OA
ENDBRANCH  34  35
ENDBRANCH  33  34
ENDBRANCH  26  33
ENDBRANCH   1  22
BRANCH   4  37
ATOM     37  C   UNL A   1     -24.855  -1.012  30.143  0.00  0.00    +0.124 C 
BRANCH  37  38
ATOM     38  C   UNL A   1     -24.973  -2.505  29.788  0.00  0.00    -0.000 C 
ATOM     39  C   UNL A   1     -23.906  -3.173  29.146  0.00  0.00    -0.002 C 
ATOM     40  C   UNL A   1     -23.989  -4.549  28.853  0.00  0.00    -0.000 C 
ATOM     41  C   UNL A   1     -25.137  -5.280  29.205  0.00  0.00    -0.000 C 
ATOM     42  C   UNL A   1     -26.232  -4.611  29.784  0.00  0.00    -0.000 C 
ATOM     43  C   UNL A   1     -26.155  -3.232  30.065  0.00  0.00    -0.002 C 
ENDBRANCH  37  38
BRANCH  37  44
ATOM     44  C   UNL A   1     -25.387  -0.679  31.571  0.00  0.00    +0.098 C 
ATOM     45  C   UNL A   1     -25.189   0.773  32.028  0.00  0.00    +0.021 C 
ATOM     46  C   UNL A   1     -25.336   0.684  33.544  0.00  0.00    +0.020 C 
ATOM     47  C   UNL A   1     -24.829  -0.715  33.905  0.00  0.00    +0.089 C 
ATOM     48  N   UNL A   1     -24.758  -1.481  32.646  0.00  0.00    -0.217 NA
ENDBRANCH  37  44
ENDBRANCH   4  37
TORSDOF 10
