MODEL 633
MODEL 1
REMARK VINA RESULT:    -6.637      0.000      0.000
REMARK INTER + INTRA:         -15.017
REMARK INTER:                 -10.518
REMARK INTRA:                  -4.500
REMARK UNBOUND:                -4.500
REMARK  Name = No_633-gen_results/8p0m/2024-11-27-11-27-31/
REMARK  10 active torsions:
REMARK  status: ('A' for Active; 'I' for Inactive)
REMARK    1  A    between atoms: C_2  and  C_25
REMARK    2  A    between atoms: C_3  and  C_7
REMARK    3  A    between atoms: C_7  and  C_8
REMARK    4  A    between atoms: C_7  and  C_9
REMARK    5  A    between atoms: C_8  and  C_17
REMARK    6  A    between atoms: C_9  and  C_10
REMARK    7  A    between atoms: C_14  and  C_22
REMARK    8  A    between atoms: C_18  and  C_21
REMARK    9  A    between atoms: C_28  and  C_29
REMARK   10  A    between atoms: C_30  and  C_31
REMARK                            x       y       z     vdW  Elec       q    Type
REMARK                         _______ _______ _______ _____ _____    ______ ____
ROOT
ATOM      1  C   UNL A   1     -24.945  -0.215  30.351  0.00  0.00    +0.030 C 
ENDROOT
BRANCH   1   4
ATOM      2  C   UNL A   1     -24.770  -2.672  29.590  0.00  0.00    +0.002 A 
ATOM      3  C   UNL A   1     -25.310  -3.576  29.527  0.00  0.00    +0.080 A 
ATOM      4  C   UNL A   1     -25.548  -1.564  30.144  0.00  0.00    -0.022 A 
ATOM      5  C   UNL A   1     -26.850  -1.718  30.553  0.00  0.00    -0.004 A 
ATOM      6  C   UNL A   1     -26.658  -4.023  29.877  0.00  0.00    +0.007 A 
ATOM      7  C   UNL A   1     -27.419  -2.957  30.413  0.00  0.00    -0.000 A 
BRANCH   3   8
ATOM      8  C   UNL A   1     -24.609  -4.920  28.906  0.00  0.00    +0.388 C 
ATOM      9  O   UNL A   1     -25.071  -5.874  28.979  0.00  0.00    -0.241 OA
ATOM     10  O   UNL A   1     -23.567  -4.696  28.052  0.00  0.00    -0.241 OA
ENDBRANCH   3   8
ENDBRANCH   1   4
BRANCH   1  11
ATOM     11  C   UNL A   1     -23.789   0.195  29.729  0.00  0.00    +0.027 C 
ATOM     12  C   UNL A   1     -22.636  -0.336  30.347  0.00  0.00    +0.005 C 
BRANCH  11  13
ATOM     13  C   UNL A   1     -23.758   0.628  28.428  0.00  0.00    -0.022 A 
ATOM     14  C   UNL A   1     -22.738   1.503  28.070  0.00  0.00    -0.004 A 
ATOM     15  C   UNL A   1     -22.657   1.989  26.739  0.00  0.00    -0.000 A 
ATOM     16  C   UNL A   1     -23.577   1.561  25.825  0.00  0.00    +0.007 A 
ATOM     17  C   UNL A   1     -24.602   0.696  26.174  0.00  0.00    +0.080 A 
ATOM     18  C   UNL A   1     -24.731   0.261  27.426  0.00  0.00    +0.002 A 
BRANCH  17  19
ATOM     19  C   UNL A   1     -25.591   0.375  25.069  0.00  0.00    +0.388 C 
ATOM     20  O   UNL A   1     -25.377  -0.700  24.463  0.00  0.00    -0.241 OA
ATOM     21  O   UNL A   1     -26.829   0.837  25.214  0.00  0.00    -0.241 OA
ENDBRANCH  17  19
ENDBRANCH  11  13
ENDBRANCH   1  11
BRANCH   1  22
ATOM     22  C   UNL A   1     -25.621   0.591  31.259  0.00  0.00    +0.026 C 
BRANCH  22  23
ATOM     23  C   UNL A   1     -25.464   1.947  31.240  0.00  0.00    -0.048 C 
ATOM     24  C   UNL A   1     -26.369   2.801  30.470  0.00  0.00    -0.030 C 
ATOM     25  C   UNL A   1     -26.213   4.215  30.507  0.00  0.00    +0.030 C 
ATOM     26  C   UNL A   1     -24.444   2.685  31.940  0.00  0.00    +0.026 C 
BRANCH  24  27
ATOM     27  C   UNL A   1     -27.426   2.176  29.675  0.00  0.00    -0.005 C 
ATOM     28  C   UNL A   1     -27.489   2.257  28.268  0.00  0.00    -0.000 C 
BRANCH  28  29
ATOM     29  C   UNL A   1     -28.122   3.292  27.721  0.00  0.00    -0.000 C 
ATOM     30  C   UNL A   1     -27.395   4.166  26.805  0.00  0.00    -0.000 C 
BRANCH  30  31
ATOM     31  C   UNL A   1     -25.968   3.911  26.793  0.00  0.00    -0.000 C 
ATOM     32  C   UNL A   1     -25.032   4.856  26.902  0.00  0.00    +0.000 C 
ENDBRANCH  30  31
ENDBRANCH  28  29
ENDBRANCH  24  27
ENDBRANCH  22  23
ENDBRANCH   1  22
TORSDOF 10
ENDMDL
ENDMDL
