REMARK  Name = outputs/IAG933/test6/raw/output_6341_IAG933_linker_design_.xyz
REMARK  7 active torsions:
REMARK  status: ('A' for Active; 'I' for Inactive)
REMARK    1  A    between atoms: C_1  and  C_2
REMARK    2  A    between atoms: C_1  and  C_8
REMARK    3  A    between atoms: C_1  and  C_33
REMARK    4  A    between atoms: C_21  and  O_22
REMARK    5  A    between atoms: O_22  and  C_23
REMARK    6  A    between atoms: C_23  and  C_24
REMARK    7  A    between atoms: C_34  and  C_40
REMARK                            x       y       z     vdW  Elec       q    Type
REMARK                         _______ _______ _______ _____ _____    ______ ____
ROOT
ATOM      1  C   UNL A   1     -25.688   1.614  26.461  0.00  0.00    +0.018 C 
ATOM      2  C   UNL A   1     -26.250   2.920  26.395  0.00  0.00    +0.070 C 
ATOM      3  C   UNL A   1     -25.642   4.093  27.123  0.00  0.00    +0.222 C 
ATOM      4  N   UNL A   1     -25.614   5.252  26.449  0.00  0.00    -0.236 NA
ATOM      5  C   UNL A   1     -25.026   6.479  26.963  0.00  0.00    +0.155 C 
ATOM      6  O   UNL A   1     -25.143   3.966  28.243  0.00  0.00    -0.461 OA
ATOM      7  C   UNL A   1     -27.438   3.091  25.645  0.00  0.00    +0.106 C 
ATOM      8  N   UNL A   1     -28.075   2.089  25.003  0.00  0.00    -0.208 NA
ATOM      9  C   UNL A   1     -27.543   0.849  25.079  0.00  0.00    +0.253 C 
ATOM     10  C   UNL A   1     -26.354   0.576  25.777  0.00  0.00    +0.189 C 
ATOM     11  F   UNL A   1     -25.860  -0.681  25.795  0.00  0.00    -0.200 F 
ATOM     12  C   UNL A   1     -27.832  -0.839  28.676  0.00  0.00    -0.004 C 
ATOM     13  C   UNL A   1     -29.271  -0.625  28.714  0.00  0.00    -0.000 C 
ATOM     14  C   UNL A   1     -26.608   2.688  29.436  0.00  0.00    +0.214 C 
ATOM     15  C   UNL A   1     -26.944   0.250  28.965  0.00  0.00    -0.024 C 
ATOM     16  C   UNL A   1     -25.446   0.002  29.177  0.00  0.00    +0.031 C 
ATOM     17  C   UNL A   1     -25.141   2.853  29.118  0.00  0.00    +0.202 C 
ATOM     18  O   UNL A   1     -26.987   3.428  30.432  0.00  0.00    -0.214 OA
ATOM     19  C   UNL A   1     -28.844   1.904  28.674  0.00  0.00    -0.002 C 
ATOM     20  C   UNL A   1     -24.786   1.379  28.536  0.00  0.00    +0.054 C 
ATOM     21  C   UNL A   1     -24.014   1.465  27.199  0.00  0.00    +0.055 C 
ATOM     22  C   UNL A   1     -27.462   1.546  29.068  0.00  0.00    +0.007 C 
ATOM     23  C   UNL A   1     -29.817   0.759  28.647  0.00  0.00    -0.000 C 
ATOM     24  C   UNL A   1     -23.287   2.103  25.968  0.00  0.00    +0.007 C 
ENDROOT
BRANCH  21  26
ATOM     25  F   UNL A   1     -22.406   0.874  29.302  0.00  0.00    -0.237 F 
ATOM     26  C   UNL A   1     -22.749   0.843  27.908  0.00  0.00    +0.165 C 
ATOM     27  C   UNL A   1     -21.590   1.658  27.369  0.00  0.00    +0.038 C 
ENDBRANCH  21  26
BRANCH  16  28
ATOM     28  C   UNL A   1     -24.855  -1.012  30.143  0.00  0.00    +0.043 C 
BRANCH  28  29
ATOM     29  C   UNL A   1     -24.973  -2.505  29.788  0.00  0.00    -0.021 C 
ATOM     30  C   UNL A   1     -23.906  -3.173  29.146  0.00  0.00    -0.004 C 
ATOM     31  C   UNL A   1     -23.989  -4.549  28.853  0.00  0.00    -0.000 C 
ATOM     32  C   UNL A   1     -25.137  -5.280  29.205  0.00  0.00    -0.000 C 
ATOM     33  C   UNL A   1     -26.232  -4.611  29.784  0.00  0.00    -0.000 C 
ATOM     34  C   UNL A   1     -26.155  -3.232  30.065  0.00  0.00    -0.004 C 
ENDBRANCH  28  29
BRANCH  28  35
ATOM     35  C   UNL A   1     -25.387  -0.679  31.571  0.00  0.00    +0.077 C 
ATOM     36  C   UNL A   1     -25.189   0.773  32.028  0.00  0.00    +0.019 C 
ATOM     37  C   UNL A   1     -25.336   0.684  33.544  0.00  0.00    +0.020 C 
ATOM     38  C   UNL A   1     -24.829  -0.715  33.905  0.00  0.00    +0.089 C 
ATOM     39  N   UNL A   1     -24.758  -1.481  32.646  0.00  0.00    -0.219 NA
ENDBRANCH  28  35
ENDBRANCH  16  28
BRANCH   9  40
ATOM     40  O   UNL A   1     -28.193  -0.208  24.477  0.00  0.00    -0.456 OA
BRANCH  40  41
ATOM     41  C   UNL A   1     -29.460   0.005  23.866  0.00  0.00    +0.243 C 
BRANCH  41  42
ATOM     42  C   UNL A   1     -30.065  -1.377  23.573  0.00  0.00    +0.229 C 
ATOM     43  O   UNL A   1     -30.729  -1.878  24.721  0.00  0.00    -0.216 OA
ENDBRANCH  41  42
ENDBRANCH  40  41
ENDBRANCH   9  40
TORSDOF 7
