REMARK  Name = outputs/IAG933/test6/raw/output_6343_IAG933_linker_design_.xyz
REMARK  16 active torsions:
REMARK  status: ('A' for Active; 'I' for Inactive)
REMARK    1  A    between atoms: C_1  and  C_2
REMARK    2  A    between atoms: C_1  and  C_8
REMARK    3  A    between atoms: C_1  and  C_42
REMARK    4  A    between atoms: C_13  and  N_41
REMARK    5  A    between atoms: C_14  and  C_15
REMARK    6  A    between atoms: C_21  and  O_22
REMARK    7  A    between atoms: O_22  and  C_23
REMARK    8  A    between atoms: C_23  and  C_24
REMARK    9  A    between atoms: C_29  and  C_36
REMARK   10  A    between atoms: N_30  and  C_37
REMARK   11  A    between atoms: N_30  and  N_41
REMARK   12  A    between atoms: N_30  and  C_42
REMARK   13  A    between atoms: C_33  and  C_34
REMARK   14  A    between atoms: C_33  and  N_41
REMARK   15  A    between atoms: C_34  and  C_40
REMARK   16  A    between atoms: C_36  and  C_37
REMARK                            x       y       z     vdW  Elec       q    Type
REMARK                         _______ _______ _______ _____ _____    ______ ____
ROOT
ATOM      1  N   UNL A   1     -24.892   1.196  27.304  0.00  0.00    -0.209 NA
ENDROOT
BRANCH   1   2
ATOM      2  C   UNL A   1     -25.688   1.614  26.461  0.00  0.00    +0.143 C 
ATOM      3  C   UNL A   1     -26.250   2.920  26.395  0.00  0.00    +0.071 C 
ATOM      4  C   UNL A   1     -27.438   3.091  25.645  0.00  0.00    +0.103 C 
ATOM      5  N   UNL A   1     -28.075   2.089  25.003  0.00  0.00    -0.212 NA
ATOM      6  C   UNL A   1     -27.543   0.849  25.079  0.00  0.00    +0.236 C 
ATOM      7  C   UNL A   1     -26.354   0.576  25.777  0.00  0.00    +0.256 C 
ATOM      8  F   UNL A   1     -25.860  -0.681  25.795  0.00  0.00    -0.225 F 
BRANCH   3   9
ATOM      9  C   UNL A   1     -25.642   4.093  27.123  0.00  0.00    +0.264 C 
ATOM     10  N   UNL A   1     -25.614   5.252  26.449  0.00  0.00    -0.200 NA
ATOM     11  C   UNL A   1     -25.026   6.479  26.963  0.00  0.00    +0.139 C 
ATOM     12  O   UNL A   1     -25.143   3.966  28.243  0.00  0.00    -0.269 OA
ENDBRANCH   3   9
BRANCH   6  13
ATOM     13  O   UNL A   1     -28.193  -0.208  24.477  0.00  0.00    -0.459 OA
BRANCH  13  14
ATOM     14  C   UNL A   1     -29.460   0.005  23.866  0.00  0.00    +0.242 C 
BRANCH  14  15
ATOM     15  C   UNL A   1     -30.065  -1.377  23.573  0.00  0.00    +0.229 C 
ATOM     16  O   UNL A   1     -30.729  -1.878  24.721  0.00  0.00    -0.216 OA
ENDBRANCH  14  15
ENDBRANCH  13  14
ENDBRANCH   6  13
ENDBRANCH   1   2
BRANCH   1  17
ATOM     17  N   UNL A   1     -25.619   0.573  28.153  0.00  0.00    -0.217 NA
BRANCH  17  18
ATOM     18  C   UNL A   1     -26.198   1.175  28.866  0.00  0.00    +0.097 C 
BRANCH  18  19
ATOM     19  C   UNL A   1     -27.648   1.249  29.357  0.00  0.00    +0.083 C 
BRANCH  19  20
ATOM     20  C   UNL A   1     -28.345  -0.061  29.369  0.00  0.00    +0.152 C 
ATOM     21  O   UNL A   1     -28.084  -1.122  28.874  0.00  0.00    -0.296 OA
ATOM     22  C   UNL A   1     -29.636   0.168  30.147  0.00  0.00    +0.072 C 
ENDBRANCH  19  20
ENDBRANCH  18  19
ENDBRANCH  17  18
BRANCH  17  23
ATOM     23  C   UNL A   1     -25.348  -0.221  29.160  0.00  0.00    +0.094 C 
BRANCH  23  24
ATOM     24  C   UNL A   1     -24.855  -1.012  30.143  0.00  0.00    +0.056 C 
BRANCH  24  25
ATOM     25  C   UNL A   1     -24.973  -2.505  29.788  0.00  0.00    -0.020 C 
ATOM     26  C   UNL A   1     -23.906  -3.173  29.146  0.00  0.00    -0.004 C 
ATOM     27  C   UNL A   1     -23.989  -4.549  28.853  0.00  0.00    -0.000 C 
ATOM     28  C   UNL A   1     -25.137  -5.280  29.205  0.00  0.00    -0.000 C 
ATOM     29  C   UNL A   1     -26.232  -4.611  29.784  0.00  0.00    -0.000 C 
ATOM     30  C   UNL A   1     -26.155  -3.232  30.065  0.00  0.00    -0.004 C 
ENDBRANCH  24  25
BRANCH  24  31
ATOM     31  C   UNL A   1     -25.387  -0.679  31.571  0.00  0.00    +0.078 C 
ATOM     32  C   UNL A   1     -25.189   0.773  32.028  0.00  0.00    +0.019 C 
ATOM     33  C   UNL A   1     -25.336   0.684  33.544  0.00  0.00    +0.020 C 
ATOM     34  C   UNL A   1     -24.829  -0.715  33.905  0.00  0.00    +0.089 C 
ATOM     35  N   UNL A   1     -24.758  -1.481  32.646  0.00  0.00    -0.219 NA
ENDBRANCH  24  31
ENDBRANCH  23  24
ENDBRANCH  17  23
ENDBRANCH   1  17
BRANCH   1  36
ATOM     36  C   UNL A   1     -23.787   1.106  27.202  0.00  0.00    +0.130 C 
BRANCH  36  37
ATOM     37  C   UNL A   1     -22.539   1.583  26.965  0.00  0.00    +0.234 C 
ATOM     38  O   UNL A   1     -21.975   2.445  26.006  0.00  0.00    -0.213 OA
BRANCH  37  42
ATOM     39  O   UNL A   1     -22.551  -0.478  29.358  0.00  0.00    -0.280 OA
ATOM     40  C   UNL A   1     -22.571   0.571  28.408  0.00  0.00    +0.274 C 
ATOM     41  O   UNL A   1     -20.304   0.994  27.858  0.00  0.00    -0.285 OA
ATOM     42  C   UNL A   1     -21.678   1.029  27.829  0.00  0.00    +0.246 C 
ENDBRANCH  37  42
ENDBRANCH  36  37
ENDBRANCH   1  36
TORSDOF 16
