REMARK  Name = outputs/IAG933/test6/raw/output_6344_IAG933_linker_design_.xyz
REMARK  9 active torsions:
REMARK  status: ('A' for Active; 'I' for Inactive)
REMARK    1  A    between atoms: C_1  and  C_2
REMARK    2  A    between atoms: C_1  and  C_8
REMARK    3  A    between atoms: C_1  and  N_28
REMARK    4  A    between atoms: C_13  and  C_32
REMARK    5  A    between atoms: C_14  and  C_15
REMARK    6  A    between atoms: C_21  and  O_22
REMARK    7  A    between atoms: O_22  and  C_23
REMARK    8  A    between atoms: C_23  and  C_24
REMARK    9  A    between atoms: C_29  and  S_37
REMARK                            x       y       z     vdW  Elec       q    Type
REMARK                         _______ _______ _______ _____ _____    ______ ____
ROOT
ATOM      1  N   UNL A   1     -24.345   0.006  29.259  0.00  0.00    -0.152 N 
ATOM      2  C   UNL A   1     -25.409   0.579  28.444  0.00  0.00    +0.245 C 
ATOM      3  O   UNL A   1     -21.425   1.913  26.046  0.00  0.00    -0.467 OA
ATOM      4  C   UNL A   1     -22.760   2.083  25.896  0.00  0.00    +0.173 C 
ATOM      5  C   UNL A   1     -24.724   1.224  27.376  0.00  0.00    +0.061 C 
ATOM      6  C   UNL A   1     -21.234   1.437  27.354  0.00  0.00    +0.240 C 
ATOM      7  N   UNL A   1     -22.114  -0.274  30.007  0.00  0.00    +0.210 NA
ATOM      8  C   UNL A   1     -22.952   0.265  29.139  0.00  0.00    +0.369 C 
ATOM      9  C   UNL A   1     -23.410   1.474  27.024  0.00  0.00    +0.048 C 
ATOM     10  C   UNL A   1     -22.486   1.061  27.983  0.00  0.00    +0.109 C 
ENDROOT
BRANCH   5  11
ATOM     11  C   UNL A   1     -25.688   1.614  26.461  0.00  0.00    +0.043 C 
ATOM     12  C   UNL A   1     -26.250   2.920  26.395  0.00  0.00    +0.077 C 
ATOM     13  C   UNL A   1     -27.438   3.091  25.645  0.00  0.00    +0.107 C 
ATOM     14  N   UNL A   1     -28.075   2.089  25.003  0.00  0.00    -0.208 NA
ATOM     15  C   UNL A   1     -27.543   0.849  25.079  0.00  0.00    +0.253 C 
ATOM     16  C   UNL A   1     -26.354   0.576  25.777  0.00  0.00    +0.193 C 
ATOM     17  F   UNL A   1     -25.860  -0.681  25.795  0.00  0.00    -0.199 F 
BRANCH  12  18
ATOM     18  C   UNL A   1     -25.642   4.093  27.123  0.00  0.00    +0.266 C 
ATOM     19  N   UNL A   1     -25.614   5.252  26.449  0.00  0.00    -0.200 NA
ATOM     20  C   UNL A   1     -25.026   6.479  26.963  0.00  0.00    +0.139 C 
ATOM     21  O   UNL A   1     -25.143   3.966  28.243  0.00  0.00    -0.268 OA
ENDBRANCH  12  18
BRANCH  15  22
ATOM     22  O   UNL A   1     -28.193  -0.208  24.477  0.00  0.00    -0.456 OA
BRANCH  22  23
ATOM     23  C   UNL A   1     -29.460   0.005  23.866  0.00  0.00    +0.243 C 
BRANCH  23  24
ATOM     24  C   UNL A   1     -30.065  -1.377  23.573  0.00  0.00    +0.229 C 
ATOM     25  O   UNL A   1     -30.729  -1.878  24.721  0.00  0.00    -0.216 OA
ENDBRANCH  23  24
ENDBRANCH  22  23
ENDBRANCH  15  22
ENDBRANCH   5  11
BRANCH   2  28
ATOM     26  O   UNL A   1     -27.694  -0.619  28.798  0.00  0.00    -0.165 OA
ATOM     27  O   UNL A   1     -27.333   1.551  30.113  0.00  0.00    -0.165 OA
ATOM     28  S   UNL A   1     -27.327   0.854  28.892  0.00  0.00    +0.045 S 
ATOM     29  C   UNL A   1     -28.810   1.364  28.121  0.00  0.00    +0.186 C 
ENDBRANCH   2  28
BRANCH   1  30
ATOM     30  C   UNL A   1     -24.855  -1.012  30.143  0.00  0.00    +0.204 C 
BRANCH  30  31
ATOM     31  C   UNL A   1     -24.973  -2.505  29.788  0.00  0.00    +0.022 C 
ATOM     32  C   UNL A   1     -23.906  -3.173  29.146  0.00  0.00    -0.000 C 
ATOM     33  C   UNL A   1     -23.989  -4.549  28.853  0.00  0.00    -0.000 C 
ATOM     34  C   UNL A   1     -25.137  -5.280  29.205  0.00  0.00    -0.000 C 
ATOM     35  C   UNL A   1     -26.232  -4.611  29.784  0.00  0.00    -0.000 C 
ATOM     36  C   UNL A   1     -26.155  -3.232  30.065  0.00  0.00    -0.000 C 
ENDBRANCH  30  31
BRANCH  30  37
ATOM     37  C   UNL A   1     -25.387  -0.679  31.571  0.00  0.00    +0.120 C 
ATOM     38  C   UNL A   1     -25.189   0.773  32.028  0.00  0.00    +0.023 C 
ATOM     39  C   UNL A   1     -25.336   0.684  33.544  0.00  0.00    +0.020 C 
ATOM     40  C   UNL A   1     -24.829  -0.715  33.905  0.00  0.00    +0.089 C 
ATOM     41  N   UNL A   1     -24.758  -1.481  32.646  0.00  0.00    -0.215 NA
ENDBRANCH  30  37
ENDBRANCH   1  30
TORSDOF 9
