REMARK  Name = outputs/IAG933/test6/raw/output_6345_IAG933_linker_design_.xyz
REMARK  12 active torsions:
REMARK  status: ('A' for Active; 'I' for Inactive)
REMARK    1  A    between atoms: C_1  and  C_2
REMARK    2  A    between atoms: C_1  and  C_8
REMARK    3  A    between atoms: C_9  and  C_36
REMARK    4  A    between atoms: C_13  and  C_29
REMARK    5  A    between atoms: C_14  and  C_15
REMARK    6  A    between atoms: C_21  and  O_22
REMARK    7  A    between atoms: O_22  and  C_23
REMARK    8  A    between atoms: C_23  and  C_24
REMARK    9  A    between atoms: C_29  and  N_33
REMARK   10  A    between atoms: C_30  and  C_32
REMARK   11  A    between atoms: C_36  and  C_38
REMARK   12  A    between atoms: C_36  and  C_41
REMARK                            x       y       z     vdW  Elec       q    Type
REMARK                         _______ _______ _______ _____ _____    ______ ____
ROOT
ATOM      1  O   UNL A   1     -22.929   2.359  25.017  0.00  0.00    -0.226 OA
ATOM      2  C   UNL A   1     -22.529   1.435  28.425  0.00  0.00    +0.145 C 
ATOM      3  N   UNL A   1     -23.375   1.545  27.105  0.00  0.00    -0.236 N 
ATOM      4  C   UNL A   1     -22.546   1.846  26.042  0.00  0.00    +0.406 C 
ATOM      5  O   UNL A   1     -21.158   1.599  26.291  0.00  0.00    -0.432 OA
ATOM      6  C   UNL A   1     -21.136   1.471  27.763  0.00  0.00    +0.234 C 
ENDROOT
BRANCH   2   7
ATOM      7  C   UNL A   1     -22.937   1.495  29.867  0.00  0.00    -0.007 C 
ATOM      8  C   UNL A   1     -24.301   2.135  30.223  0.00  0.00    -0.029 C 
BRANCH   8   9
ATOM      9  C   UNL A   1     -25.107   2.140  31.301  0.00  0.00    +0.025 C 
BRANCH   9  13
ATOM     10  C   UNL A   1     -25.572   4.584  32.379  0.00  0.00    +0.142 C 
ATOM     11  O   UNL A   1     -26.784   5.319  32.679  0.00  0.00    -0.354 OA
ATOM     12  C   UNL A   1     -27.663   5.512  31.568  0.00  0.00    +0.142 C 
ATOM     13  C   UNL A   1     -25.954   3.220  31.681  0.00  0.00    +0.034 C 
ATOM     14  C   UNL A   1     -27.209   3.246  30.750  0.00  0.00    +0.005 C 
ATOM     15  C   UNL A   1     -27.538   4.657  30.271  0.00  0.00    +0.032 C 
ENDBRANCH   9  13
BRANCH   9  17
ATOM     16  C   UNL A   1     -25.387  -0.679  31.571  0.00  0.00    +0.077 C 
ATOM     17  C   UNL A   1     -25.189   0.773  32.028  0.00  0.00    +0.022 C 
ATOM     18  C   UNL A   1     -25.336   0.684  33.544  0.00  0.00    +0.021 C 
ATOM     19  C   UNL A   1     -24.829  -0.715  33.905  0.00  0.00    +0.089 C 
ATOM     20  N   UNL A   1     -24.758  -1.481  32.646  0.00  0.00    -0.219 NA
BRANCH  16  21
ATOM     21  C   UNL A   1     -24.855  -1.012  30.143  0.00  0.00    +0.044 C 
BRANCH  21  22
ATOM     22  C   UNL A   1     -24.973  -2.505  29.788  0.00  0.00    -0.021 C 
ATOM     23  C   UNL A   1     -23.906  -3.173  29.146  0.00  0.00    -0.004 C 
ATOM     24  C   UNL A   1     -23.989  -4.549  28.853  0.00  0.00    -0.000 C 
ATOM     25  C   UNL A   1     -25.137  -5.280  29.205  0.00  0.00    -0.000 C 
ATOM     26  C   UNL A   1     -26.232  -4.611  29.784  0.00  0.00    -0.000 C 
ATOM     27  C   UNL A   1     -26.155  -3.232  30.065  0.00  0.00    -0.004 C 
ENDBRANCH  21  22
ENDBRANCH  16  21
ENDBRANCH   9  17
ENDBRANCH   8   9
ENDBRANCH   2   7
BRANCH   3  28
ATOM     28  C   UNL A   1     -24.723   1.146  27.267  0.00  0.00    +0.126 C 
BRANCH  28  29
ATOM     29  C   UNL A   1     -25.688   1.614  26.461  0.00  0.00    +0.036 C 
ATOM     30  C   UNL A   1     -26.250   2.920  26.395  0.00  0.00    +0.074 C 
ATOM     31  C   UNL A   1     -27.438   3.091  25.645  0.00  0.00    +0.106 C 
ATOM     32  N   UNL A   1     -28.075   2.089  25.003  0.00  0.00    -0.208 NA
ATOM     33  C   UNL A   1     -27.543   0.849  25.079  0.00  0.00    +0.253 C 
ATOM     34  C   UNL A   1     -26.354   0.576  25.777  0.00  0.00    +0.191 C 
ATOM     35  F   UNL A   1     -25.860  -0.681  25.795  0.00  0.00    -0.200 F 
BRANCH  30  36
ATOM     36  C   UNL A   1     -25.642   4.093  27.123  0.00  0.00    +0.266 C 
ATOM     37  N   UNL A   1     -25.614   5.252  26.449  0.00  0.00    -0.200 NA
ATOM     38  C   UNL A   1     -25.026   6.479  26.963  0.00  0.00    +0.139 C 
ATOM     39  O   UNL A   1     -25.143   3.966  28.243  0.00  0.00    -0.268 OA
ENDBRANCH  30  36
BRANCH  33  40
ATOM     40  O   UNL A   1     -28.193  -0.208  24.477  0.00  0.00    -0.456 OA
BRANCH  40  41
ATOM     41  C   UNL A   1     -29.460   0.005  23.866  0.00  0.00    +0.243 C 
BRANCH  41  42
ATOM     42  C   UNL A   1     -30.065  -1.377  23.573  0.00  0.00    +0.229 C 
ATOM     43  O   UNL A   1     -30.729  -1.878  24.721  0.00  0.00    -0.216 OA
ENDBRANCH  41  42
ENDBRANCH  40  41
ENDBRANCH  33  40
ENDBRANCH  28  29
ENDBRANCH   3  28
TORSDOF 12
