REMARK  Name = outputs/IAG933/test6/raw/output_6347_IAG933_linker_design_.xyz
REMARK  18 active torsions:
REMARK  status: ('A' for Active; 'I' for Inactive)
REMARK    1  A    between atoms: C_1  and  C_2
REMARK    2  A    between atoms: C_1  and  C_8
REMARK    3  A    between atoms: C_1  and  C_35
REMARK    4  A    between atoms: C_13  and  C_29
REMARK    5  A    between atoms: C_14  and  C_15
REMARK    6  A    between atoms: C_21  and  O_22
REMARK    7  A    between atoms: O_22  and  C_23
REMARK    8  A    between atoms: C_23  and  C_24
REMARK    9  A    between atoms: C_28  and  C_33
REMARK   10  A    between atoms: C_28  and  C_42
REMARK   11  A    between atoms: C_29  and  N_31
REMARK   12  A    between atoms: C_29  and  C_35
REMARK   13  A    between atoms: C_30  and  CA_40
REMARK   14  A    between atoms: N_31  and  CA_40
REMARK   15  A    between atoms: N_32  and  C_35
REMARK   16  A    between atoms: N_32  and  C_42
REMARK   17  A    between atoms: C_33  and  C_34
REMARK   18  A    between atoms: CA_40  and  C_41
REMARK                            x       y       z     vdW  Elec       q    Type
REMARK                         _______ _______ _______ _____ _____    ______ ____
ROOT
ATOM      1  C   UNL A   1     -25.043   1.236  27.910  0.00  0.00    +0.097 C 
ENDROOT
BRANCH   1   2
ATOM      2  C   UNL A   1     -25.688   1.614  26.461  0.00  0.00    +0.087 C 
ATOM      3  C   UNL A   1     -26.250   2.920  26.395  0.00  0.00    +0.056 C 
ATOM      4  C   UNL A   1     -27.438   3.091  25.645  0.00  0.00    +0.102 C 
ATOM      5  N   UNL A   1     -28.075   2.089  25.003  0.00  0.00    -0.212 NA
ATOM      6  C   UNL A   1     -27.543   0.849  25.079  0.00  0.00    +0.234 C 
ATOM      7  C   UNL A   1     -26.354   0.576  25.777  0.00  0.00    +0.241 C 
ATOM      8  F   UNL A   1     -25.860  -0.681  25.795  0.00  0.00    -0.227 F 
BRANCH   3   9
ATOM      9  C   UNL A   1     -25.642   4.093  27.123  0.00  0.00    +0.263 C 
ATOM     10  N   UNL A   1     -25.614   5.252  26.449  0.00  0.00    -0.200 NA
ATOM     11  C   UNL A   1     -25.026   6.479  26.963  0.00  0.00    +0.139 C 
ATOM     12  O   UNL A   1     -25.143   3.966  28.243  0.00  0.00    -0.269 OA
ENDBRANCH   3   9
BRANCH   6  13
ATOM     13  O   UNL A   1     -28.193  -0.208  24.477  0.00  0.00    -0.459 OA
BRANCH  13  14
ATOM     14  C   UNL A   1     -29.460   0.005  23.866  0.00  0.00    +0.242 C 
BRANCH  14  15
ATOM     15  C   UNL A   1     -30.065  -1.377  23.573  0.00  0.00    +0.229 C 
ATOM     16  O   UNL A   1     -30.729  -1.878  24.721  0.00  0.00    -0.216 OA
ENDBRANCH  14  15
ENDBRANCH  13  14
ENDBRANCH   6  13
ENDBRANCH   1   2
BRANCH   1  17
ATOM     17  C   UNL A   1     -25.533  -0.098  28.929  0.00  0.00    +0.094 C 
BRANCH  17  18
ATOM     18  C   UNL A   1     -24.855  -1.012  30.143  0.00  0.00    +0.056 C 
BRANCH  18  19
ATOM     19  C   UNL A   1     -24.973  -2.505  29.788  0.00  0.00    -0.020 C 
ATOM     20  C   UNL A   1     -23.906  -3.173  29.146  0.00  0.00    -0.004 C 
ATOM     21  C   UNL A   1     -23.989  -4.549  28.853  0.00  0.00    -0.000 C 
ATOM     22  C   UNL A   1     -25.137  -5.280  29.205  0.00  0.00    -0.000 C 
ATOM     23  C   UNL A   1     -26.232  -4.611  29.784  0.00  0.00    -0.000 C 
ATOM     24  C   UNL A   1     -26.155  -3.232  30.065  0.00  0.00    -0.004 C 
ENDBRANCH  18  19
BRANCH  18  25
ATOM     25  C   UNL A   1     -25.387  -0.679  31.571  0.00  0.00    +0.078 C 
ATOM     26  C   UNL A   1     -25.189   0.773  32.028  0.00  0.00    +0.019 C 
ATOM     27  C   UNL A   1     -25.336   0.684  33.544  0.00  0.00    +0.020 C 
ATOM     28  C   UNL A   1     -24.829  -0.715  33.905  0.00  0.00    +0.089 C 
ATOM     29  N   UNL A   1     -24.758  -1.481  32.646  0.00  0.00    -0.219 NA
ENDBRANCH  18  25
ENDBRANCH  17  18
BRANCH  17  30
ATOM     30  N   UNL A   1     -26.872   0.434  29.262  0.00  0.00    -0.218 NA
BRANCH  30  31
ATOM     31  C   UNL A   1     -28.003  -0.244  28.567  0.00  0.00    +0.089 C 
BRANCH  31  32
ATOM     32  C   UNL A   1     -29.179  -0.682  29.489  0.00  0.00    +0.021 C 
BRANCH  32  33
ATOM     33  C   UNL A   1     -30.244   0.449  29.570  0.00  0.00    +0.032 C 
BRANCH  33  34
ATOM     34  C   UNL A   1     -31.420  -0.079  28.693  0.00  0.00    +0.127 C 
ATOM     35  C   UNL A   1     -31.873  -1.385  29.459  0.00  0.00    +0.033 C 
ATOM     36  O   UNL A   1     -31.053  -0.510  27.361  0.00  0.00    -0.226 OA
ATOM     37  C   UNL A   1     -32.655   0.864  28.545  0.00  0.00    +0.033 C 
ENDBRANCH  33  34
ENDBRANCH  32  33
ENDBRANCH  31  32
ENDBRANCH  30  31
ENDBRANCH  17  30
ENDBRANCH   1  17
BRANCH   1  38
ATOM     38  N   UNL A   1     -23.702   0.561  27.648  0.00  0.00    -0.215 NA
BRANCH  38  39
ATOM     39  CA  UNL A   1     -22.696   1.147  27.511  0.00  0.00    +0.122 C 
BRANCH  39  41
ATOM     40 CL   UNL A   1     -23.211   1.802  24.957  0.00  0.00    -0.112 Cl
ATOM     41  C   UNL A   1     -22.486   2.079  26.461  0.00  0.00    +0.115 C 
ENDBRANCH  39  41
BRANCH  39  42
ATOM     42  C   UNL A   1     -21.894   1.047  28.713  0.00  0.00    +0.201 C 
ATOM     43  O   UNL A   1     -22.366   0.008  29.512  0.00  0.00    -0.219 OA
ENDBRANCH  39  42
ENDBRANCH  38  39
ENDBRANCH   1  38
TORSDOF 18
