REMARK  Name = outputs/IAG933/test6/raw/output_6348_IAG933_linker_design_.xyz
REMARK  12 active torsions:
REMARK  status: ('A' for Active; 'I' for Inactive)
REMARK    1  A    between atoms: C_1  and  C_2
REMARK    2  A    between atoms: C_1  and  C_8
REMARK    3  A    between atoms: C_9  and  CA_32
REMARK    4  A    between atoms: C_13  and  C_36
REMARK    5  A    between atoms: C_14  and  C_15
REMARK    6  A    between atoms: C_21  and  O_22
REMARK    7  A    between atoms: O_22  and  C_23
REMARK    8  A    between atoms: C_23  and  C_24
REMARK    9  A    between atoms: C_28  and  C_39
REMARK   10  A    between atoms: CA_32  and  C_33
REMARK   11  A    between atoms: CA_32  and  N_37
REMARK   12  A    between atoms: N_37  and  C_39
REMARK                            x       y       z     vdW  Elec       q    Type
REMARK                         _______ _______ _______ _____ _____    ______ ____
ROOT
ATOM      1  C   UNL A   1     -24.180   0.857  28.299  0.00  0.00    +0.001 C 
ATOM      2 CL   UNL A   1     -22.975   2.712  24.848  0.00  0.00    -0.063 Cl
ATOM      3  C   UNL A   1     -23.000   1.898  26.269  0.00  0.00    +0.270 C 
ATOM      4  C   UNL A   1     -21.627   0.809  27.858  0.00  0.00    +0.284 C 
ATOM      5  F   UNL A   1     -20.419   0.314  28.173  0.00  0.00    -0.163 F 
ATOM      6  C   UNL A   1     -22.790   0.518  28.692  0.00  0.00    +0.066 C 
ATOM      7  C   UNL A   1     -24.267   1.501  26.977  0.00  0.00    +0.033 C 
ATOM      8  O   UNL A   1     -21.724   1.556  26.718  0.00  0.00    -0.437 OA
ENDROOT
BRANCH   7   9
ATOM      9  C   UNL A   1     -25.688   1.614  26.461  0.00  0.00    +0.038 C 
ATOM     10  C   UNL A   1     -26.250   2.920  26.395  0.00  0.00    +0.076 C 
ATOM     11  C   UNL A   1     -27.438   3.091  25.645  0.00  0.00    +0.107 C 
ATOM     12  N   UNL A   1     -28.075   2.089  25.003  0.00  0.00    -0.208 NA
ATOM     13  C   UNL A   1     -27.543   0.849  25.079  0.00  0.00    +0.253 C 
ATOM     14  C   UNL A   1     -26.354   0.576  25.777  0.00  0.00    +0.193 C 
ATOM     15  F   UNL A   1     -25.860  -0.681  25.795  0.00  0.00    -0.199 F 
BRANCH  10  16
ATOM     16  C   UNL A   1     -25.642   4.093  27.123  0.00  0.00    +0.266 C 
ATOM     17  N   UNL A   1     -25.614   5.252  26.449  0.00  0.00    -0.200 NA
ATOM     18  C   UNL A   1     -25.026   6.479  26.963  0.00  0.00    +0.139 C 
ATOM     19  O   UNL A   1     -25.143   3.966  28.243  0.00  0.00    -0.268 OA
ENDBRANCH  10  16
BRANCH  13  20
ATOM     20  O   UNL A   1     -28.193  -0.208  24.477  0.00  0.00    -0.456 OA
BRANCH  20  21
ATOM     21  C   UNL A   1     -29.460   0.005  23.866  0.00  0.00    +0.243 C 
BRANCH  21  22
ATOM     22  C   UNL A   1     -30.065  -1.377  23.573  0.00  0.00    +0.229 C 
ATOM     23  O   UNL A   1     -30.729  -1.878  24.721  0.00  0.00    -0.216 OA
ENDBRANCH  21  22
ENDBRANCH  20  21
ENDBRANCH  13  20
ENDBRANCH   7   9
BRANCH   1  24
ATOM     24  C   UNL A   1     -25.578   0.649  28.990  0.00  0.00    +0.116 C 
BRANCH  24  25
ATOM     25  N   UNL A   1     -25.952   1.783  29.862  0.00  0.00    -0.203 NA
BRANCH  25  26
ATOM     26  CA  UNL A   1     -26.096   1.861  31.351  0.00  0.00    +0.177 C 
BRANCH  26  28
ATOM     27  C   UNL A   1     -25.387  -0.679  31.571  0.00  0.00    +0.079 C 
ATOM     28  C   UNL A   1     -25.189   0.773  32.028  0.00  0.00    +0.045 C 
ATOM     29  C   UNL A   1     -25.336   0.684  33.544  0.00  0.00    +0.022 C 
ATOM     30  C   UNL A   1     -24.829  -0.715  33.905  0.00  0.00    +0.089 C 
ATOM     31  N   UNL A   1     -24.758  -1.481  32.646  0.00  0.00    -0.219 NA
BRANCH  27  32
ATOM     32  C   UNL A   1     -24.855  -1.012  30.143  0.00  0.00    +0.044 C 
BRANCH  32  33
ATOM     33  C   UNL A   1     -24.973  -2.505  29.788  0.00  0.00    -0.021 C 
ATOM     34  C   UNL A   1     -23.906  -3.173  29.146  0.00  0.00    -0.004 C 
ATOM     35  C   UNL A   1     -23.989  -4.549  28.853  0.00  0.00    -0.000 C 
ATOM     36  C   UNL A   1     -25.137  -5.280  29.205  0.00  0.00    -0.000 C 
ATOM     37  C   UNL A   1     -26.232  -4.611  29.784  0.00  0.00    -0.000 C 
ATOM     38  C   UNL A   1     -26.155  -3.232  30.065  0.00  0.00    -0.004 C 
ENDBRANCH  32  33
ENDBRANCH  27  32
ENDBRANCH  26  28
BRANCH  26  39
ATOM     39  C   UNL A   1     -25.475   3.270  31.760  0.00  0.00    +0.380 C 
ATOM     40  O   UNL A   1     -26.276   4.239  31.783  0.00  0.00    -0.244 OA
ATOM     41  OXT UNL A   1     -24.338   3.332  32.152  0.00  0.00    -0.244 OA
ENDBRANCH  26  39
ENDBRANCH  25  26
ENDBRANCH  24  25
ENDBRANCH   1  24
TORSDOF 12
