MODEL 634
MODEL 1
REMARK VINA RESULT:    -5.977      0.000      0.000
REMARK INTER + INTRA:          -7.372
REMARK INTER:                  -6.676
REMARK INTRA:                  -0.696
REMARK UNBOUND:                -0.696
REMARK  Name = No_634-gen_results/8p0m/2024-11-27-11-27-31/
REMARK  2 active torsions:
REMARK  status: ('A' for Active; 'I' for Inactive)
REMARK    1  A    between atoms: C_3  and  C_7
REMARK    2  A    between atoms: C_8  and  C_9
REMARK                            x       y       z     vdW  Elec       q    Type
REMARK                         _______ _______ _______ _____ _____    ______ ____
ROOT
ATOM      1  C   UNL A   1     -24.558  -0.062  29.770  0.00  0.00    +0.000 C 
ATOM      2  C   UNL A   1     -24.838  -0.857  28.866  0.00  0.00    +0.000 C 
ENDROOT
BRANCH   1   5
ATOM      3  C   UNL A   1     -23.124  -1.080  31.634  0.00  0.00    +0.000 A 
ATOM      4  C   UNL A   1     -23.043  -1.318  32.658  0.00  0.00    +0.000 A 
ATOM      5  C   UNL A   1     -24.320  -0.473  31.192  0.00  0.00    +0.000 A 
ATOM      6  C   UNL A   1     -25.366  -0.205  32.053  0.00  0.00    +0.000 A 
ATOM      7  C   UNL A   1     -25.173  -0.544  33.382  0.00  0.00    +0.000 A 
ATOM      8  C   UNL A   1     -23.974  -1.101  33.775  0.00  0.00    +0.000 A 
ENDBRANCH   1   5
BRANCH   2   9
ATOM      9  C   UNL A   1     -25.008  -2.243  29.142  0.00  0.00    +0.000 A 
ATOM     10  C   UNL A   1     -24.011  -3.154  28.592  0.00  0.00    +0.000 A 
ATOM     11  C   UNL A   1     -24.152  -4.514  28.812  0.00  0.00    +0.000 A 
ATOM     12  C   UNL A   1     -25.336  -5.039  29.335  0.00  0.00    +0.000 A 
ATOM     13  C   UNL A   1     -26.310  -4.144  29.741  0.00  0.00    +0.000 A 
ATOM     14  C   UNL A   1     -26.187  -2.836  29.619  0.00  0.00    +0.000 A 
ENDBRANCH   2   9
TORSDOF 2
ENDMDL
ENDMDL
