REMARK  Name = outputs/IAG933/test6/raw/output_6350_IAG933_linker_design_.xyz
REMARK  7 active torsions:
REMARK  status: ('A' for Active; 'I' for Inactive)
REMARK    1  A    between atoms: C_1  and  C_2
REMARK    2  A    between atoms: C_13  and  C_37
REMARK    3  A    between atoms: C_14  and  C_15
REMARK    4  A    between atoms: C_21  and  O_22
REMARK    5  A    between atoms: O_22  and  C_23
REMARK    6  A    between atoms: C_23  and  C_24
REMARK    7  A    between atoms: C_38  and  C_41
REMARK                            x       y       z     vdW  Elec       q    Type
REMARK                         _______ _______ _______ _____ _____    ______ ____
ROOT
ATOM      1  C   UNL A   1     -24.855  -1.012  30.143  0.00  0.00    +0.030 C 
ATOM      2  C   UNL A   1     -25.387  -0.679  31.571  0.00  0.00    +0.110 C 
ATOM      3  C   UNL A   1     -25.189   0.773  32.028  0.00  0.00    +0.090 C 
ATOM      4  C   UNL A   1     -25.336   0.684  33.544  0.00  0.00    +0.029 C 
ATOM      5  C   UNL A   1     -24.829  -0.715  33.905  0.00  0.00    +0.090 C 
ATOM      6  N   UNL A   1     -24.758  -1.481  32.646  0.00  0.00    -0.214 NA
ATOM      7  C   UNL A   1     -24.652  -0.309  29.126  0.00  0.00    -0.084 C 
ATOM      8  C   UNL A   1     -23.173   1.824  26.360  0.00  0.00    +0.004 C 
ATOM      9  C   UNL A   1     -22.015   1.284  28.412  0.00  0.00    +0.118 C 
ATOM     10  O   UNL A   1     -25.443   5.122  33.115  0.00  0.00    -0.281 OA
ATOM     11  O   UNL A   1     -23.969   1.842  30.073  0.00  0.00    -0.367 OA
ATOM     12  C   UNL A   1     -25.064   3.150  31.778  0.00  0.00    -0.028 C 
ATOM     13  C   UNL A   1     -21.997   1.700  27.090  0.00  0.00    +0.022 C 
ATOM     14  C   UNL A   1     -24.280   0.851  28.252  0.00  0.00    +0.132 C 
ATOM     15  C   UNL A   1     -24.394   1.372  27.018  0.00  0.00    +0.029 C 
ATOM     16  C   UNL A   1     -25.886   4.287  32.206  0.00  0.00    +0.229 C 
ATOM     17  C   UNL A   1     -24.419   1.947  31.357  0.00  0.00    +0.189 C 
ATOM     18  N   UNL A   1     -23.386   0.962  29.055  0.00  0.00    -0.165 N 
ENDROOT
BRANCH  15  19
ATOM     19  C   UNL A   1     -25.688   1.614  26.461  0.00  0.00    +0.040 C 
ATOM     20  C   UNL A   1     -26.250   2.920  26.395  0.00  0.00    +0.077 C 
ATOM     21  C   UNL A   1     -27.438   3.091  25.645  0.00  0.00    +0.107 C 
ATOM     22  N   UNL A   1     -28.075   2.089  25.003  0.00  0.00    -0.208 NA
ATOM     23  C   UNL A   1     -27.543   0.849  25.079  0.00  0.00    +0.253 C 
ATOM     24  C   UNL A   1     -26.354   0.576  25.777  0.00  0.00    +0.193 C 
ATOM     25  F   UNL A   1     -25.860  -0.681  25.795  0.00  0.00    -0.199 F 
BRANCH  20  26
ATOM     26  C   UNL A   1     -25.642   4.093  27.123  0.00  0.00    +0.266 C 
ATOM     27  N   UNL A   1     -25.614   5.252  26.449  0.00  0.00    -0.200 NA
ATOM     28  C   UNL A   1     -25.026   6.479  26.963  0.00  0.00    +0.139 C 
ATOM     29  O   UNL A   1     -25.143   3.966  28.243  0.00  0.00    -0.268 OA
ENDBRANCH  20  26
BRANCH  23  30
ATOM     30  O   UNL A   1     -28.193  -0.208  24.477  0.00  0.00    -0.456 OA
BRANCH  30  31
ATOM     31  C   UNL A   1     -29.460   0.005  23.866  0.00  0.00    +0.243 C 
BRANCH  31  32
ATOM     32  C   UNL A   1     -30.065  -1.377  23.573  0.00  0.00    +0.229 C 
ATOM     33  O   UNL A   1     -30.729  -1.878  24.721  0.00  0.00    -0.216 OA
ENDBRANCH  31  32
ENDBRANCH  30  31
ENDBRANCH  23  30
ENDBRANCH  15  19
BRANCH   1  34
ATOM     34  C   UNL A   1     -24.973  -2.505  29.788  0.00  0.00    +0.004 C 
ATOM     35  C   UNL A   1     -23.906  -3.173  29.146  0.00  0.00    +0.000 C 
ATOM     36  C   UNL A   1     -23.989  -4.549  28.853  0.00  0.00    +0.000 C 
ATOM     37  C   UNL A   1     -25.137  -5.280  29.205  0.00  0.00    +0.000 C 
ATOM     38  C   UNL A   1     -26.232  -4.611  29.784  0.00  0.00    +0.000 C 
ATOM     39  C   UNL A   1     -26.155  -3.232  30.065  0.00  0.00    +0.000 C 
ENDBRANCH   1  34
BRANCH  16  41
ATOM     40  N   UNL A   1     -27.531   3.767  30.765  0.00  0.00    -0.122 NA
ATOM     41  C   UNL A   1     -27.212   4.512  31.764  0.00  0.00    +0.186 C 
ENDBRANCH  16  41
TORSDOF 7
