REMARK  Name = outputs/IAG933/test6/raw/output_6351_IAG933_linker_design_.xyz
REMARK  13 active torsions:
REMARK  status: ('A' for Active; 'I' for Inactive)
REMARK    1  A    between atoms: C_1  and  C_2
REMARK    2  A    between atoms: C_1  and  C_8
REMARK    3  A    between atoms: C_1  and  C_30
REMARK    4  A    between atoms: C_13  and  C_31
REMARK    5  A    between atoms: C_14  and  C_15
REMARK    6  A    between atoms: C_21  and  O_22
REMARK    7  A    between atoms: O_22  and  C_23
REMARK    8  A    between atoms: C_23  and  C_24
REMARK    9  A    between atoms: C_28  and  C_30
REMARK   10  A    between atoms: C_29  and  C_39
REMARK   11  A    between atoms: C_30  and  N_36
REMARK   12  A    between atoms: C_31  and  C_41
REMARK   13  A    between atoms: C_34  and  C_39
REMARK                            x       y       z     vdW  Elec       q    Type
REMARK                         _______ _______ _______ _____ _____    ______ ____
ROOT
ATOM      1  C   UNL A   1     -23.430   0.290  28.469  0.00  0.00    +0.037 C 
ATOM      2  F   UNL A   1     -21.299   1.956  26.252  0.00  0.00    -0.163 F 
ATOM      3  C   UNL A   1     -21.906   1.318  27.274  0.00  0.00    +0.283 C 
ATOM      4  C   UNL A   1     -22.172   0.064  29.073  0.00  0.00    +0.179 C 
ATOM      5  O   UNL A   1     -21.263   0.699  28.180  0.00  0.00    -0.427 OA
ATOM      6  C   UNL A   1     -23.268   1.068  27.417  0.00  0.00    +0.043 C 
ENDROOT
BRANCH   1   7
ATOM      7  C   UNL A   1     -24.652  -0.052  28.943  0.00  0.00    +0.126 C 
BRANCH   7   9
ATOM      8  C   UNL A   1     -27.024   0.333  28.839  0.00  0.00    +0.244 C 
ATOM      9  N   UNL A   1     -25.801   0.139  28.157  0.00  0.00    -0.202 NA
ATOM     10  O   UNL A   1     -27.902  -0.696  28.631  0.00  0.00    -0.273 OA
BRANCH   8  11
ATOM     11  C   UNL A   1     -27.381   1.671  29.472  0.00  0.00    +0.122 C 
BRANCH  11  12
ATOM     12  C   UNL A   1     -28.483   1.629  30.432  0.00  0.00    +0.192 C 
ATOM     13  O   UNL A   1     -29.543   0.796  29.981  0.00  0.00    -0.220 OA
ENDBRANCH  11  12
ENDBRANCH   8  11
ENDBRANCH   7   9
BRANCH   7  14
ATOM     14  C   UNL A   1     -24.855  -1.012  30.143  0.00  0.00    +0.063 C 
BRANCH  14  15
ATOM     15  C   UNL A   1     -24.973  -2.505  29.788  0.00  0.00    -0.019 C 
ATOM     16  C   UNL A   1     -23.906  -3.173  29.146  0.00  0.00    -0.004 C 
ATOM     17  C   UNL A   1     -23.989  -4.549  28.853  0.00  0.00    -0.000 C 
ATOM     18  C   UNL A   1     -25.137  -5.280  29.205  0.00  0.00    -0.000 C 
ATOM     19  C   UNL A   1     -26.232  -4.611  29.784  0.00  0.00    -0.000 C 
ATOM     20  C   UNL A   1     -26.155  -3.232  30.065  0.00  0.00    -0.004 C 
ENDBRANCH  14  15
BRANCH  14  21
ATOM     21  C   UNL A   1     -25.387  -0.679  31.571  0.00  0.00    +0.079 C 
ATOM     22  C   UNL A   1     -25.189   0.773  32.028  0.00  0.00    +0.019 C 
ATOM     23  C   UNL A   1     -25.336   0.684  33.544  0.00  0.00    +0.020 C 
ATOM     24  C   UNL A   1     -24.829  -0.715  33.905  0.00  0.00    +0.089 C 
ATOM     25  N   UNL A   1     -24.758  -1.481  32.646  0.00  0.00    -0.219 NA
ENDBRANCH  14  21
ENDBRANCH   7  14
ENDBRANCH   1   7
BRANCH   6  26
ATOM     26  C   UNL A   1     -24.345   1.535  26.457  0.00  0.00    +0.040 C 
BRANCH  26  27
ATOM     27  C   UNL A   1     -25.688   1.614  26.461  0.00  0.00    +0.075 C 
ATOM     28  C   UNL A   1     -26.250   2.920  26.395  0.00  0.00    +0.055 C 
ATOM     29  C   UNL A   1     -27.438   3.091  25.645  0.00  0.00    +0.102 C 
ATOM     30  N   UNL A   1     -28.075   2.089  25.003  0.00  0.00    -0.212 NA
ATOM     31  C   UNL A   1     -27.543   0.849  25.079  0.00  0.00    +0.234 C 
ATOM     32  C   UNL A   1     -26.354   0.576  25.777  0.00  0.00    +0.240 C 
ATOM     33  F   UNL A   1     -25.860  -0.681  25.795  0.00  0.00    -0.227 F 
BRANCH  28  34
ATOM     34  C   UNL A   1     -25.642   4.093  27.123  0.00  0.00    +0.262 C 
ATOM     35  N   UNL A   1     -25.614   5.252  26.449  0.00  0.00    -0.200 NA
ATOM     36  C   UNL A   1     -25.026   6.479  26.963  0.00  0.00    +0.139 C 
ATOM     37  O   UNL A   1     -25.143   3.966  28.243  0.00  0.00    -0.269 OA
ENDBRANCH  28  34
BRANCH  31  38
ATOM     38  O   UNL A   1     -28.193  -0.208  24.477  0.00  0.00    -0.459 OA
BRANCH  38  39
ATOM     39  C   UNL A   1     -29.460   0.005  23.866  0.00  0.00    +0.242 C 
BRANCH  39  40
ATOM     40  C   UNL A   1     -30.065  -1.377  23.573  0.00  0.00    +0.229 C 
ATOM     41  O   UNL A   1     -30.729  -1.878  24.721  0.00  0.00    -0.216 OA
ENDBRANCH  39  40
ENDBRANCH  38  39
ENDBRANCH  31  38
ENDBRANCH  26  27
ENDBRANCH   6  26
TORSDOF 13
