REMARK  Name = outputs/IAG933/test6/raw/output_6354_IAG933_linker_design_.xyz
REMARK  8 active torsions:
REMARK  status: ('A' for Active; 'I' for Inactive)
REMARK    1  A    between atoms: C_1  and  C_2
REMARK    2  A    between atoms: C_1  and  C_8
REMARK    3  A    between atoms: C_1  and  N_41
REMARK    4  A    between atoms: C_13  and  N_38
REMARK    5  A    between atoms: C_14  and  C_15
REMARK    6  A    between atoms: C_21  and  O_22
REMARK    7  A    between atoms: O_22  and  C_23
REMARK    8  A    between atoms: C_23  and  C_24
REMARK                            x       y       z     vdW  Elec       q    Type
REMARK                         _______ _______ _______ _____ _____    ______ ____
ROOT
ATOM      1  C   UNL A   1     -22.782   0.236  29.215  0.00  0.00    +0.331 C 
ATOM      2  N   UNL A   1     -23.233   2.270  26.040  0.00  0.00    +0.006 NA
ATOM      3  C   UNL A   1     -24.713  -0.199  27.937  0.00  0.00    +0.407 C 
ATOM      4  C   UNL A   1     -20.629  -0.135  29.033  0.00  0.00    +0.300 C 
ATOM      5  C   UNL A   1     -21.267   1.256  27.571  0.00  0.00    +0.328 C 
ATOM      6  O   UNL A   1     -21.758  -0.763  29.043  0.00  0.00    -0.283 OA
ATOM      7  F   UNL A   1     -22.359   0.723  30.437  0.00  0.00    -0.183 F 
ATOM      8  O   UNL A   1     -20.226   0.683  28.131  0.00  0.00    -0.288 OA
ATOM      9  C   UNL A   1     -22.614   1.105  27.982  0.00  0.00    +0.183 C 
ATOM     10  O   UNL A   1     -20.985   1.990  26.429  0.00  0.00    -0.409 OA
ATOM     11  N   UNL A   1     -24.754   1.005  27.172  0.00  0.00    -0.101 N 
ATOM     12  O   UNL A   1     -24.947  -1.267  27.555  0.00  0.00    -0.223 OA
ATOM     13  C   UNL A   1     -21.998   2.440  25.660  0.00  0.00    +0.423 C 
ATOM     14  N   UNL A   1     -24.027  -0.296  29.126  0.00  0.00    -0.191 N 
ATOM     15  C   UNL A   1     -23.485   1.409  27.053  0.00  0.00    +0.344 C 
ENDROOT
BRANCH  11  16
ATOM     16  C   UNL A   1     -25.688   1.614  26.461  0.00  0.00    +0.185 C 
ATOM     17  C   UNL A   1     -26.250   2.920  26.395  0.00  0.00    +0.114 C 
ATOM     18  C   UNL A   1     -27.438   3.091  25.645  0.00  0.00    +0.110 C 
ATOM     19  N   UNL A   1     -28.075   2.089  25.003  0.00  0.00    -0.208 NA
ATOM     20  C   UNL A   1     -27.543   0.849  25.079  0.00  0.00    +0.257 C 
ATOM     21  C   UNL A   1     -26.354   0.576  25.777  0.00  0.00    +0.230 C 
ATOM     22  F   UNL A   1     -25.860  -0.681  25.795  0.00  0.00    -0.196 F 
BRANCH  17  23
ATOM     23  C   UNL A   1     -25.642   4.093  27.123  0.00  0.00    +0.270 C 
ATOM     24  N   UNL A   1     -25.614   5.252  26.449  0.00  0.00    -0.200 NA
ATOM     25  C   UNL A   1     -25.026   6.479  26.963  0.00  0.00    +0.139 C 
ATOM     26  O   UNL A   1     -25.143   3.966  28.243  0.00  0.00    -0.268 OA
ENDBRANCH  17  23
BRANCH  20  27
ATOM     27  O   UNL A   1     -28.193  -0.208  24.477  0.00  0.00    -0.456 OA
BRANCH  27  28
ATOM     28  C   UNL A   1     -29.460   0.005  23.866  0.00  0.00    +0.243 C 
BRANCH  28  29
ATOM     29  C   UNL A   1     -30.065  -1.377  23.573  0.00  0.00    +0.229 C 
ATOM     30  O   UNL A   1     -30.729  -1.878  24.721  0.00  0.00    -0.216 OA
ENDBRANCH  28  29
ENDBRANCH  27  28
ENDBRANCH  20  27
ENDBRANCH  11  16
BRANCH  14  31
ATOM     31  C   UNL A   1     -24.855  -1.012  30.143  0.00  0.00    +0.122 C 
BRANCH  31  32
ATOM     32  C   UNL A   1     -24.973  -2.505  29.788  0.00  0.00    -0.003 C 
ATOM     33  C   UNL A   1     -23.906  -3.173  29.146  0.00  0.00    -0.003 C 
ATOM     34  C   UNL A   1     -23.989  -4.549  28.853  0.00  0.00    -0.000 C 
ATOM     35  C   UNL A   1     -25.137  -5.280  29.205  0.00  0.00    -0.000 C 
ATOM     36  C   UNL A   1     -26.232  -4.611  29.784  0.00  0.00    -0.000 C 
ATOM     37  C   UNL A   1     -26.155  -3.232  30.065  0.00  0.00    -0.003 C 
ENDBRANCH  31  32
BRANCH  31  38
ATOM     38  C   UNL A   1     -25.387  -0.679  31.571  0.00  0.00    +0.095 C 
ATOM     39  C   UNL A   1     -25.189   0.773  32.028  0.00  0.00    +0.021 C 
ATOM     40  C   UNL A   1     -25.336   0.684  33.544  0.00  0.00    +0.020 C 
ATOM     41  C   UNL A   1     -24.829  -0.715  33.905  0.00  0.00    +0.089 C 
ATOM     42  N   UNL A   1     -24.758  -1.481  32.646  0.00  0.00    -0.217 NA
ENDBRANCH  31  38
ENDBRANCH  14  31
TORSDOF 8
