REMARK  Name = outputs/IAG933/test6/raw/output_6355_IAG933_linker_design_.xyz
REMARK  8 active torsions:
REMARK  status: ('A' for Active; 'I' for Inactive)
REMARK    1  A    between atoms: C_1  and  C_2
REMARK    2  A    between atoms: C_1  and  C_8
REMARK    3  A    between atoms: C_1  and  N_39
REMARK    4  A    between atoms: C_13  and  C_40
REMARK    5  A    between atoms: C_14  and  C_15
REMARK    6  A    between atoms: C_21  and  O_22
REMARK    7  A    between atoms: O_22  and  C_23
REMARK    8  A    between atoms: C_23  and  C_24
REMARK                            x       y       z     vdW  Elec       q    Type
REMARK                         _______ _______ _______ _____ _____    ______ ____
ROOT
ATOM      1  O   UNL A   1     -21.585   1.974  25.430  0.00  0.00    -0.300 OA
ATOM      2  C   UNL A   1     -21.816  -0.117  29.157  0.00  0.00    +0.218 C 
ATOM      3  C   UNL A   1     -22.019   1.524  27.534  0.00  0.00    +0.357 C 
ATOM      4  O   UNL A   1     -21.024   1.679  26.654  0.00  0.00    -0.123 OA
ATOM      5  F   UNL A   1     -23.799   2.192  24.644  0.00  0.00    -0.160 F 
ATOM      6  C   UNL A   1     -20.527  -0.326  28.622  0.00  0.00    +0.096 C 
ATOM      7  N   UNL A   1     -22.796  -0.571  29.953  0.00  0.00    -0.142 NA
ATOM      8  C   UNL A   1     -25.074   0.835  28.734  0.00  0.00    +0.253 C 
ATOM      9  O   UNL A   1     -21.916   1.289  28.901  0.00  0.00    -0.433 OA
ATOM     10  C   UNL A   1     -22.934   1.936  25.601  0.00  0.00    +0.320 C 
ATOM     11  C   UNL A   1     -23.305   1.545  26.937  0.00  0.00    +0.107 C 
ATOM     12  N   UNL A   1     -24.100   0.025  29.377  0.00  0.00    -0.174 N 
ATOM     13  C   UNL A   1     -24.639   1.320  27.442  0.00  0.00    +0.133 C 
ATOM     14  O   UNL A   1     -26.245   1.097  29.351  0.00  0.00    -0.272 OA
ENDROOT
BRANCH  13  15
ATOM     15  C   UNL A   1     -25.688   1.614  26.461  0.00  0.00    +0.029 C 
ATOM     16  C   UNL A   1     -26.250   2.920  26.395  0.00  0.00    +0.073 C 
ATOM     17  C   UNL A   1     -27.438   3.091  25.645  0.00  0.00    +0.106 C 
ATOM     18  N   UNL A   1     -28.075   2.089  25.003  0.00  0.00    -0.208 NA
ATOM     19  C   UNL A   1     -27.543   0.849  25.079  0.00  0.00    +0.253 C 
ATOM     20  C   UNL A   1     -26.354   0.576  25.777  0.00  0.00    +0.190 C 
ATOM     21  F   UNL A   1     -25.860  -0.681  25.795  0.00  0.00    -0.200 F 
BRANCH  16  22
ATOM     22  C   UNL A   1     -25.642   4.093  27.123  0.00  0.00    +0.266 C 
ATOM     23  N   UNL A   1     -25.614   5.252  26.449  0.00  0.00    -0.200 NA
ATOM     24  C   UNL A   1     -25.026   6.479  26.963  0.00  0.00    +0.139 C 
ATOM     25  O   UNL A   1     -25.143   3.966  28.243  0.00  0.00    -0.268 OA
ENDBRANCH  16  22
BRANCH  19  26
ATOM     26  O   UNL A   1     -28.193  -0.208  24.477  0.00  0.00    -0.456 OA
BRANCH  26  27
ATOM     27  C   UNL A   1     -29.460   0.005  23.866  0.00  0.00    +0.243 C 
BRANCH  27  28
ATOM     28  C   UNL A   1     -30.065  -1.377  23.573  0.00  0.00    +0.229 C 
ATOM     29  O   UNL A   1     -30.729  -1.878  24.721  0.00  0.00    -0.216 OA
ENDBRANCH  27  28
ENDBRANCH  26  27
ENDBRANCH  19  26
ENDBRANCH  13  15
BRANCH  12  30
ATOM     30  C   UNL A   1     -24.855  -1.012  30.143  0.00  0.00    +0.137 C 
BRANCH  30  31
ATOM     31  C   UNL A   1     -24.973  -2.505  29.788  0.00  0.00    -0.001 C 
ATOM     32  C   UNL A   1     -23.906  -3.173  29.146  0.00  0.00    -0.003 C 
ATOM     33  C   UNL A   1     -23.989  -4.549  28.853  0.00  0.00    -0.000 C 
ATOM     34  C   UNL A   1     -25.137  -5.280  29.205  0.00  0.00    -0.000 C 
ATOM     35  C   UNL A   1     -26.232  -4.611  29.784  0.00  0.00    -0.000 C 
ATOM     36  C   UNL A   1     -26.155  -3.232  30.065  0.00  0.00    -0.003 C 
ENDBRANCH  30  31
BRANCH  30  37
ATOM     37  C   UNL A   1     -25.387  -0.679  31.571  0.00  0.00    +0.097 C 
ATOM     38  C   UNL A   1     -25.189   0.773  32.028  0.00  0.00    +0.021 C 
ATOM     39  C   UNL A   1     -25.336   0.684  33.544  0.00  0.00    +0.020 C 
ATOM     40  C   UNL A   1     -24.829  -0.715  33.905  0.00  0.00    +0.089 C 
ATOM     41  N   UNL A   1     -24.758  -1.481  32.646  0.00  0.00    -0.217 NA
ENDBRANCH  30  37
ENDBRANCH  12  30
TORSDOF 8
