REMARK  Name = outputs/IAG933/test6/raw/output_6357_IAG933_linker_design_.xyz
REMARK  12 active torsions:
REMARK  status: ('A' for Active; 'I' for Inactive)
REMARK    1  A    between atoms: C_1  and  C_2
REMARK    2  A    between atoms: C_1  and  C_8
REMARK    3  A    between atoms: C_1  and  N_42
REMARK    4  A    between atoms: C_9  and  C_30
REMARK    5  A    between atoms: C_13  and  C_40
REMARK    6  A    between atoms: C_14  and  C_15
REMARK    7  A    between atoms: C_21  and  O_22
REMARK    8  A    between atoms: O_22  and  C_23
REMARK    9  A    between atoms: C_23  and  C_24
REMARK   10  A    between atoms: C_30  and  C_33
REMARK   11  A    between atoms: C_33  and  N_34
REMARK   12  A    between atoms: C_33  and  O_45
REMARK                            x       y       z     vdW  Elec       q    Type
REMARK                         _______ _______ _______ _____ _____    ______ ____
ROOT
ATOM      1  C   UNL A   1     -24.719   0.237  28.212  0.00  0.00    +0.067 C 
ATOM      2  C   UNL A   1     -23.243   1.666  26.570  0.00  0.00    +0.086 C 
ATOM      3  C   UNL A   1     -21.933   0.763  28.495  0.00  0.00    +0.047 C 
ATOM      4  C   UNL A   1     -22.038   1.527  27.314  0.00  0.00    +0.152 C 
ATOM      5  F   UNL A   1     -20.921   2.119  26.831  0.00  0.00    -0.203 F 
ATOM      6 CL   UNL A   1     -23.110   2.211  24.995  0.00  0.00    -0.080 Cl
ATOM      7  C   UNL A   1     -24.470   1.233  27.130  0.00  0.00    +0.030 C 
ATOM      8  C   UNL A   1     -22.789   0.190  29.422  0.00  0.00    +0.068 C 
ATOM      9  N   UNL A   1     -24.105  -0.160  29.224  0.00  0.00    -0.281 N 
ENDROOT
BRANCH   7  10
ATOM     10  C   UNL A   1     -25.688   1.614  26.461  0.00  0.00    +0.040 C 
ATOM     11  C   UNL A   1     -26.250   2.920  26.395  0.00  0.00    +0.077 C 
ATOM     12  C   UNL A   1     -27.438   3.091  25.645  0.00  0.00    +0.107 C 
ATOM     13  N   UNL A   1     -28.075   2.089  25.003  0.00  0.00    -0.208 NA
ATOM     14  C   UNL A   1     -27.543   0.849  25.079  0.00  0.00    +0.253 C 
ATOM     15  C   UNL A   1     -26.354   0.576  25.777  0.00  0.00    +0.193 C 
ATOM     16  F   UNL A   1     -25.860  -0.681  25.795  0.00  0.00    -0.199 F 
BRANCH  11  17
ATOM     17  C   UNL A   1     -25.642   4.093  27.123  0.00  0.00    +0.266 C 
ATOM     18  N   UNL A   1     -25.614   5.252  26.449  0.00  0.00    -0.200 NA
ATOM     19  C   UNL A   1     -25.026   6.479  26.963  0.00  0.00    +0.139 C 
ATOM     20  O   UNL A   1     -25.143   3.966  28.243  0.00  0.00    -0.268 OA
ENDBRANCH  11  17
BRANCH  14  21
ATOM     21  O   UNL A   1     -28.193  -0.208  24.477  0.00  0.00    -0.456 OA
BRANCH  21  22
ATOM     22  C   UNL A   1     -29.460   0.005  23.866  0.00  0.00    +0.243 C 
BRANCH  22  23
ATOM     23  C   UNL A   1     -30.065  -1.377  23.573  0.00  0.00    +0.229 C 
ATOM     24  O   UNL A   1     -30.729  -1.878  24.721  0.00  0.00    -0.216 OA
ENDBRANCH  22  23
ENDBRANCH  21  22
ENDBRANCH  14  21
ENDBRANCH   7  10
BRANCH   9  25
ATOM     25  C   UNL A   1     -24.855  -1.012  30.143  0.00  0.00    +0.116 C 
BRANCH  25  26
ATOM     26  C   UNL A   1     -24.973  -2.505  29.788  0.00  0.00    -0.003 C 
ATOM     27  C   UNL A   1     -23.906  -3.173  29.146  0.00  0.00    -0.003 C 
ATOM     28  C   UNL A   1     -23.989  -4.549  28.853  0.00  0.00    -0.000 C 
ATOM     29  C   UNL A   1     -25.137  -5.280  29.205  0.00  0.00    -0.000 C 
ATOM     30  C   UNL A   1     -26.232  -4.611  29.784  0.00  0.00    -0.000 C 
ATOM     31  C   UNL A   1     -26.155  -3.232  30.065  0.00  0.00    -0.003 C 
ENDBRANCH  25  26
BRANCH  25  32
ATOM     32  C   UNL A   1     -25.387  -0.679  31.571  0.00  0.00    +0.095 C 
ATOM     33  C   UNL A   1     -25.189   0.773  32.028  0.00  0.00    +0.023 C 
ATOM     34  C   UNL A   1     -25.336   0.684  33.544  0.00  0.00    +0.020 C 
ATOM     35  C   UNL A   1     -24.829  -0.715  33.905  0.00  0.00    +0.089 C 
ATOM     36  N   UNL A   1     -24.758  -1.481  32.646  0.00  0.00    -0.217 NA
BRANCH  33  37
ATOM     37  C   UNL A   1     -24.787   1.901  31.093  0.00  0.00    +0.048 C 
BRANCH  37  38
ATOM     38  C   UNL A   1     -25.418   3.208  31.569  0.00  0.00    +0.176 C 
BRANCH  38  40
ATOM     39  C   UNL A   1     -28.458   4.877  30.118  0.00  0.00    +0.019 C 
ATOM     40  N   UNL A   1     -26.293   3.809  30.540  0.00  0.00    -0.251 NA
ATOM     41  C   UNL A   1     -27.168   5.014  30.925  0.00  0.00    +0.074 C 
ATOM     42  C   UNL A   1     -27.261   2.785  30.072  0.00  0.00    +0.074 C 
ATOM     43  C   UNL A   1     -28.345   3.571  29.375  0.00  0.00    +0.019 C 
ENDBRANCH  38  40
BRANCH  38  45
ATOM     44  C   UNL A   1     -25.158   4.987  33.393  0.00  0.00    +0.176 C 
ATOM     45  O   UNL A   1     -25.276   3.676  32.815  0.00  0.00    -0.338 OA
ENDBRANCH  38  45
ENDBRANCH  37  38
ENDBRANCH  33  37
ENDBRANCH  25  32
ENDBRANCH   9  25
TORSDOF 12
