REMARK  Name = outputs/IAG933/test6/raw/output_6359_IAG933_linker_design_.xyz
REMARK  10 active torsions:
REMARK  status: ('A' for Active; 'I' for Inactive)
REMARK    1  A    between atoms: C_1  and  C_2
REMARK    2  A    between atoms: C_1  and  C_8
REMARK    3  A    between atoms: C_1  and  C_31
REMARK    4  A    between atoms: C_13  and  N_37
REMARK    5  A    between atoms: C_14  and  C_15
REMARK    6  A    between atoms: C_21  and  O_22
REMARK    7  A    between atoms: O_22  and  C_23
REMARK    8  A    between atoms: C_23  and  C_24
REMARK    9  A    between atoms: C_31  and  C_32
REMARK   10  A    between atoms: C_31  and  C_38
REMARK                            x       y       z     vdW  Elec       q    Type
REMARK                         _______ _______ _______ _____ _____    ______ ____
ROOT
ATOM      1  C   UNL A   1     -21.880   1.618  27.003  0.00  0.00    +0.217 C 
ATOM      2  O   UNL A   1     -23.297   2.465  25.424  0.00  0.00    -0.267 OA
ATOM      3  C   UNL A   1     -22.957   0.004  29.101  0.00  0.00    -0.008 C 
ATOM      4  C   UNL A   1     -21.078   0.929  27.952  0.00  0.00    +0.154 C 
ATOM      5  C   UNL A   1     -23.272   1.725  26.517  0.00  0.00    +0.286 C 
ATOM      6  F   UNL A   1     -19.824   1.097  28.016  0.00  0.00    -0.206 F 
ATOM      7  F   UNL A   1     -21.071   2.354  26.321  0.00  0.00    -0.197 F 
ATOM      8  N   UNL A   1     -24.460   1.301  27.153  0.00  0.00    -0.233 N 
ATOM      9  C   UNL A   1     -24.129   0.460  28.401  0.00  0.00    +0.041 C 
ATOM     10  C   UNL A   1     -21.596  -0.077  28.884  0.00  0.00    +0.086 C 
ENDROOT
BRANCH   8  11
ATOM     11  C   UNL A   1     -25.688   1.614  26.461  0.00  0.00    +0.096 C 
ATOM     12  C   UNL A   1     -26.250   2.920  26.395  0.00  0.00    +0.091 C 
ATOM     13  C   UNL A   1     -27.438   3.091  25.645  0.00  0.00    +0.108 C 
ATOM     14  N   UNL A   1     -28.075   2.089  25.003  0.00  0.00    -0.208 NA
ATOM     15  C   UNL A   1     -27.543   0.849  25.079  0.00  0.00    +0.255 C 
ATOM     16  C   UNL A   1     -26.354   0.576  25.777  0.00  0.00    +0.207 C 
ATOM     17  F   UNL A   1     -25.860  -0.681  25.795  0.00  0.00    -0.198 F 
BRANCH  12  18
ATOM     18  C   UNL A   1     -25.642   4.093  27.123  0.00  0.00    +0.268 C 
ATOM     19  N   UNL A   1     -25.614   5.252  26.449  0.00  0.00    -0.200 NA
ATOM     20  C   UNL A   1     -25.026   6.479  26.963  0.00  0.00    +0.139 C 
ATOM     21  O   UNL A   1     -25.143   3.966  28.243  0.00  0.00    -0.268 OA
ENDBRANCH  12  18
BRANCH  15  22
ATOM     22  O   UNL A   1     -28.193  -0.208  24.477  0.00  0.00    -0.456 OA
BRANCH  22  23
ATOM     23  C   UNL A   1     -29.460   0.005  23.866  0.00  0.00    +0.243 C 
BRANCH  23  24
ATOM     24  C   UNL A   1     -30.065  -1.377  23.573  0.00  0.00    +0.229 C 
ATOM     25  O   UNL A   1     -30.729  -1.878  24.721  0.00  0.00    -0.216 OA
ENDBRANCH  23  24
ENDBRANCH  22  23
ENDBRANCH  15  22
ENDBRANCH   8  11
BRANCH   9  26
ATOM     26  C   UNL A   1     -25.256  -0.116  29.035  0.00  0.00    +0.121 C 
BRANCH  26  27
ATOM     27  C   UNL A   1     -26.788  -0.093  28.777  0.00  0.00    +0.266 C 
ATOM     28  N   UNL A   1     -27.468   0.951  29.092  0.00  0.00    -0.087 NA
ATOM     29  O   UNL A   1     -27.423  -1.064  28.312  0.00  0.00    -0.271 OA
ENDBRANCH  26  27
BRANCH  26  30
ATOM     30  C   UNL A   1     -24.855  -1.012  30.143  0.00  0.00    +0.052 C 
BRANCH  30  31
ATOM     31  C   UNL A   1     -24.973  -2.505  29.788  0.00  0.00    -0.020 C 
ATOM     32  C   UNL A   1     -23.906  -3.173  29.146  0.00  0.00    -0.004 C 
ATOM     33  C   UNL A   1     -23.989  -4.549  28.853  0.00  0.00    -0.000 C 
ATOM     34  C   UNL A   1     -25.137  -5.280  29.205  0.00  0.00    -0.000 C 
ATOM     35  C   UNL A   1     -26.232  -4.611  29.784  0.00  0.00    -0.000 C 
ATOM     36  C   UNL A   1     -26.155  -3.232  30.065  0.00  0.00    -0.004 C 
ENDBRANCH  30  31
BRANCH  30  37
ATOM     37  C   UNL A   1     -25.387  -0.679  31.571  0.00  0.00    +0.078 C 
ATOM     38  C   UNL A   1     -25.189   0.773  32.028  0.00  0.00    +0.019 C 
ATOM     39  C   UNL A   1     -25.336   0.684  33.544  0.00  0.00    +0.020 C 
ATOM     40  C   UNL A   1     -24.829  -0.715  33.905  0.00  0.00    +0.089 C 
ATOM     41  N   UNL A   1     -24.758  -1.481  32.646  0.00  0.00    -0.219 NA
ENDBRANCH  30  37
ENDBRANCH  26  30
ENDBRANCH   9  26
TORSDOF 10
