REMARK  Name = outputs/IAG933/test6/raw/output_6361_IAG933_linker_design_.xyz
REMARK  11 active torsions:
REMARK  status: ('A' for Active; 'I' for Inactive)
REMARK    1  A    between atoms: C_1  and  C_2
REMARK    2  A    between atoms: C_1  and  C_8
REMARK    3  A    between atoms: C_1  and  C_31
REMARK    4  A    between atoms: C_13  and  C_43
REMARK    5  A    between atoms: C_14  and  C_15
REMARK    6  A    between atoms: C_21  and  O_22
REMARK    7  A    between atoms: O_22  and  C_23
REMARK    8  A    between atoms: C_23  and  C_24
REMARK    9  A    between atoms: C_30  and  C_37
REMARK   10  A    between atoms: C_31  and  C_33
REMARK   11  A    between atoms: C_42  and  C_43
REMARK                            x       y       z     vdW  Elec       q    Type
REMARK                         _______ _______ _______ _____ _____    ______ ____
ROOT
ATOM      1  C   UNL A   1     -25.277   0.004  28.917  0.00  0.00    -0.002 C 
ATOM      2  C   UNL A   1     -24.972   1.065  27.561  0.00  0.00    +0.002 C 
ENDROOT
BRANCH   2   3
ATOM      3  C   UNL A   1     -25.688   1.614  26.461  0.00  0.00    +0.093 C 
ATOM      4  C   UNL A   1     -26.250   2.920  26.395  0.00  0.00    +0.059 C 
ATOM      5  C   UNL A   1     -27.438   3.091  25.645  0.00  0.00    +0.102 C 
ATOM      6  N   UNL A   1     -28.075   2.089  25.003  0.00  0.00    -0.212 NA
ATOM      7  C   UNL A   1     -27.543   0.849  25.079  0.00  0.00    +0.234 C 
ATOM      8  C   UNL A   1     -26.354   0.576  25.777  0.00  0.00    +0.244 C 
ATOM      9  F   UNL A   1     -25.860  -0.681  25.795  0.00  0.00    -0.227 F 
BRANCH   4  10
ATOM     10  C   UNL A   1     -25.642   4.093  27.123  0.00  0.00    +0.263 C 
ATOM     11  N   UNL A   1     -25.614   5.252  26.449  0.00  0.00    -0.200 NA
ATOM     12  C   UNL A   1     -25.026   6.479  26.963  0.00  0.00    +0.139 C 
ATOM     13  O   UNL A   1     -25.143   3.966  28.243  0.00  0.00    -0.269 OA
ENDBRANCH   4  10
BRANCH   7  14
ATOM     14  O   UNL A   1     -28.193  -0.208  24.477  0.00  0.00    -0.459 OA
BRANCH  14  15
ATOM     15  C   UNL A   1     -29.460   0.005  23.866  0.00  0.00    +0.242 C 
BRANCH  15  16
ATOM     16  C   UNL A   1     -30.065  -1.377  23.573  0.00  0.00    +0.229 C 
ATOM     17  O   UNL A   1     -30.729  -1.878  24.721  0.00  0.00    -0.216 OA
ENDBRANCH  15  16
ENDBRANCH  14  15
ENDBRANCH   7  14
ENDBRANCH   2   3
BRANCH   1  19
ATOM     18  C   UNL A   1     -29.227   0.517  28.167  0.00  0.00    +0.003 C 
ATOM     19  C   UNL A   1     -26.877  -0.041  28.853  0.00  0.00    +0.078 C 
ATOM     20  C   UNL A   1     -27.836   0.727  28.115  0.00  0.00    +0.019 C 
ATOM     21  C   UNL A   1     -29.698  -0.317  29.166  0.00  0.00    +0.027 C 
ATOM     22  C   UNL A   1     -28.748  -1.004  29.919  0.00  0.00    +0.173 C 
ATOM     23  N   UNL A   1     -27.445  -0.892  29.693  0.00  0.00    -0.238 NA
BRANCH  22  24
ATOM     24  C   UNL A   1     -29.174  -2.018  30.876  0.00  0.00    +0.454 C 
ATOM     25  N   UNL A   1     -29.553  -3.144  30.373  0.00  0.00    +0.107 NA
ATOM     26  N   UNL A   1     -29.590  -4.268  31.162  0.00  0.00    +0.151 NA
ATOM     27  N   UNL A   1     -29.129  -1.936  32.248  0.00  0.00    +0.201 NA
ENDBRANCH  22  24
ENDBRANCH   1  19
BRANCH   2  32
ATOM     28  C   UNL A   1     -23.163   1.787  26.023  0.00  0.00    +0.246 C 
ATOM     29  O   UNL A   1     -21.247   1.495  27.209  0.00  0.00    -0.217 OA
ATOM     30  O   UNL A   1     -21.777   1.921  25.965  0.00  0.00    -0.142 OA
ATOM     31  N   UNL A   1     -22.386   1.141  27.991  0.00  0.00    -0.045 NA
ATOM     32  C   UNL A   1     -23.448   1.291  27.229  0.00  0.00    +0.131 C 
ENDBRANCH   2  32
BRANCH   1  33
ATOM     33  C   UNL A   1     -24.855  -1.012  30.143  0.00  0.00    +0.062 C 
BRANCH  33  34
ATOM     34  C   UNL A   1     -24.973  -2.505  29.788  0.00  0.00    -0.017 C 
ATOM     35  C   UNL A   1     -23.906  -3.173  29.146  0.00  0.00    -0.004 C 
ATOM     36  C   UNL A   1     -23.989  -4.549  28.853  0.00  0.00    -0.000 C 
ATOM     37  C   UNL A   1     -25.137  -5.280  29.205  0.00  0.00    -0.000 C 
ATOM     38  C   UNL A   1     -26.232  -4.611  29.784  0.00  0.00    -0.000 C 
ATOM     39  C   UNL A   1     -26.155  -3.232  30.065  0.00  0.00    -0.004 C 
ENDBRANCH  33  34
BRANCH  33  40
ATOM     40  C   UNL A   1     -25.387  -0.679  31.571  0.00  0.00    +0.081 C 
ATOM     41  C   UNL A   1     -25.189   0.773  32.028  0.00  0.00    +0.019 C 
ATOM     42  C   UNL A   1     -25.336   0.684  33.544  0.00  0.00    +0.020 C 
ATOM     43  C   UNL A   1     -24.829  -0.715  33.905  0.00  0.00    +0.089 C 
ATOM     44  N   UNL A   1     -24.758  -1.481  32.646  0.00  0.00    -0.219 NA
ENDBRANCH  33  40
ENDBRANCH   1  33
TORSDOF 11
