REMARK  Name = outputs/IAG933/test6/raw/output_6363_IAG933_linker_design_.xyz
REMARK  11 active torsions:
REMARK  status: ('A' for Active; 'I' for Inactive)
REMARK    1  A    between atoms: C_1  and  C_2
REMARK    2  A    between atoms: C_1  and  C_8
REMARK    3  A    between atoms: C_1  and  N_37
REMARK    4  A    between atoms: C_13  and  C_36
REMARK    5  A    between atoms: C_14  and  C_15
REMARK    6  A    between atoms: C_21  and  O_22
REMARK    7  A    between atoms: O_22  and  C_23
REMARK    8  A    between atoms: C_23  and  C_24
REMARK    9  A    between atoms: C_28  and  N_40
REMARK   10  A    between atoms: C_32  and  N_37
REMARK   11  A    between atoms: C_39  and  CA_41
REMARK                            x       y       z     vdW  Elec       q    Type
REMARK                         _______ _______ _______ _____ _____    ______ ____
ROOT
ATOM      1  C   UNK     1     -23.475   2.015  26.128  0.00  0.00    +0.004 C 
ATOM      2  C   UNK     1     -21.932   1.325  27.726  0.00  0.00    +0.141 C 
ATOM      3  C   UNK     1     -22.193   1.964  26.527  0.00  0.00    +0.030 C 
ATOM      4  C   UNK     1     -24.215   0.803  28.231  0.00  0.00    +0.058 C 
ATOM      5  C   UNK     1     -22.877   0.745  28.567  0.00  0.00    +0.045 C 
ATOM      6  C   UNK     1     -24.462   1.453  26.961  0.00  0.00    +0.016 C 
ATOM      7  F   UNK     1     -20.650   1.343  28.039  0.00  0.00    -0.204 F 
ENDROOT
BRANCH   6   8
ATOM      8  C   UNK     1     -25.688   1.614  26.461  0.00  0.00    +0.039 C 
ATOM      9  C   UNK     1     -26.250   2.920  26.395  0.00  0.00    +0.077 C 
ATOM     10  C   UNK     1     -27.438   3.091  25.645  0.00  0.00    +0.107 C 
ATOM     11  N   UNK     1     -28.075   2.089  25.003  0.00  0.00    -0.208 NA
ATOM     12  C   UNK     1     -27.543   0.849  25.079  0.00  0.00    +0.253 C 
ATOM     13  C   UNK     1     -26.354   0.576  25.777  0.00  0.00    +0.193 C 
ATOM     14  F   UNK     1     -25.860  -0.681  25.795  0.00  0.00    -0.199 F 
BRANCH   9  15
ATOM     15  C   UNK     1     -25.642   4.093  27.123  0.00  0.00    +0.266 C 
ATOM     16  N   UNK     1     -25.614   5.252  26.449  0.00  0.00    -0.200 NA
ATOM     17  C   UNK     1     -25.026   6.479  26.963  0.00  0.00    +0.139 C 
ATOM     18  O   UNK     1     -25.143   3.966  28.243  0.00  0.00    -0.268 OA
ENDBRANCH   9  15
BRANCH  12  19
ATOM     19  O   UNK     1     -28.193  -0.208  24.477  0.00  0.00    -0.456 OA
BRANCH  19  20
ATOM     20  C   UNK     1     -29.460   0.005  23.866  0.00  0.00    +0.243 C 
BRANCH  20  21
ATOM     21  C   UNK     1     -30.065  -1.377  23.573  0.00  0.00    +0.229 C 
ATOM     22  O   UNK     1     -30.729  -1.878  24.721  0.00  0.00    -0.216 OA
ENDBRANCH  20  21
ENDBRANCH  19  20
ENDBRANCH  12  19
ENDBRANCH   6   8
BRANCH   4  25
ATOM     23  C   UNK     1     -26.679   0.739  29.143  0.00  0.00    +0.331 C 
ATOM     24  O   UNK     1     -27.548   0.095  28.616  0.00  0.00    -0.250 OA
ATOM     25  N   UNK     1     -25.278   0.146  29.123  0.00  0.00    -0.238 N 
BRANCH  23  27
ATOM     26  CB  ALA A   1     -27.118   4.214  30.484  0.00  0.00    +0.047 C 
ATOM     27  N   ALA A   1     -26.953   1.969  29.595  0.00  0.00    -0.168 NA
ATOM     28  CA  ALA A   1     -27.657   3.094  29.595  0.00  0.00    +0.064 C 
BRANCH  28  29
ATOM     29  C   ALA A   1     -28.804   3.399  28.777  0.00  0.00    +0.221 C 
ATOM     30  O   ALA A   1     -29.361   4.698  28.576  0.00  0.00    -0.214 OA
ENDBRANCH  28  29
ENDBRANCH  23  27
BRANCH  25  31
ATOM     31  C   UNK     1     -24.855  -1.012  30.143  0.00  0.00    +0.120 C 
BRANCH  31  32
ATOM     32  C   UNK     1     -24.973  -2.505  29.788  0.00  0.00    -0.003 C 
ATOM     33  C   UNK     1     -23.906  -3.173  29.146  0.00  0.00    -0.003 C 
ATOM     34  C   UNK     1     -23.989  -4.549  28.853  0.00  0.00    -0.000 C 
ATOM     35  C   UNK     1     -25.137  -5.280  29.205  0.00  0.00    -0.000 C 
ATOM     36  C   UNK     1     -26.232  -4.611  29.784  0.00  0.00    -0.000 C 
ATOM     37  C   UNK     1     -26.155  -3.232  30.065  0.00  0.00    -0.003 C 
ENDBRANCH  31  32
BRANCH  31  38
ATOM     38  C   UNK     1     -25.387  -0.679  31.571  0.00  0.00    +0.096 C 
ATOM     39  C   UNK     1     -25.189   0.773  32.028  0.00  0.00    +0.021 C 
ATOM     40  C   UNK     1     -25.336   0.684  33.544  0.00  0.00    +0.020 C 
ATOM     41  C   UNK     1     -24.829  -0.715  33.905  0.00  0.00    +0.089 C 
ATOM     42  N   UNK     1     -24.758  -1.481  32.646  0.00  0.00    -0.217 NA
ENDBRANCH  31  38
ENDBRANCH  25  31
ENDBRANCH   4  25
TORSDOF 11
