REMARK  Name = outputs/IAG933/test6/raw/output_6368_IAG933_linker_design_.xyz
REMARK  11 active torsions:
REMARK  status: ('A' for Active; 'I' for Inactive)
REMARK    1  A    between atoms: C_1  and  C_2
REMARK    2  A    between atoms: C_1  and  C_8
REMARK    3  A    between atoms: C_1  and  C_36
REMARK    4  A    between atoms: C_13  and  C_37
REMARK    5  A    between atoms: C_14  and  C_15
REMARK    6  A    between atoms: C_21  and  O_22
REMARK    7  A    between atoms: O_22  and  C_23
REMARK    8  A    between atoms: C_23  and  C_24
REMARK    9  A    between atoms: O_29  and  C_36
REMARK   10  A    between atoms: O_29  and  C_38
REMARK   11  A    between atoms: C_30  and  C_36
REMARK                            x       y       z     vdW  Elec       q    Type
REMARK                         _______ _______ _______ _____ _____    ______ ____
ROOT
ATOM      1  S   UNL A   1     -22.058   1.596  27.579  0.00  0.00    -0.091 S 
ATOM      2  C   UNL A   1     -24.343   0.611  28.177  0.00  0.00    +0.012 C 
ATOM      3  C   UNL A   1     -23.086   0.803  28.627  0.00  0.00    +0.033 C 
ATOM      4  C   UNL A   1     -22.991   2.283  25.052  0.00  0.00    +0.038 C 
ATOM      5  C   UNL A   1     -24.463   1.289  26.924  0.00  0.00    +0.003 C 
ATOM      6  C   UNL A   1     -23.274   1.717  26.425  0.00  0.00    +0.007 C 
ENDROOT
BRANCH   5   7
ATOM      7  C   UNL A   1     -25.688   1.614  26.461  0.00  0.00    +0.038 C 
ATOM      8  C   UNL A   1     -26.250   2.920  26.395  0.00  0.00    +0.076 C 
ATOM      9  C   UNL A   1     -27.438   3.091  25.645  0.00  0.00    +0.107 C 
ATOM     10  N   UNL A   1     -28.075   2.089  25.003  0.00  0.00    -0.208 NA
ATOM     11  C   UNL A   1     -27.543   0.849  25.079  0.00  0.00    +0.253 C 
ATOM     12  C   UNL A   1     -26.354   0.576  25.777  0.00  0.00    +0.193 C 
ATOM     13  F   UNL A   1     -25.860  -0.681  25.795  0.00  0.00    -0.199 F 
BRANCH   8  14
ATOM     14  C   UNL A   1     -25.642   4.093  27.123  0.00  0.00    +0.266 C 
ATOM     15  N   UNL A   1     -25.614   5.252  26.449  0.00  0.00    -0.200 NA
ATOM     16  C   UNL A   1     -25.026   6.479  26.963  0.00  0.00    +0.139 C 
ATOM     17  O   UNL A   1     -25.143   3.966  28.243  0.00  0.00    -0.268 OA
ENDBRANCH   8  14
BRANCH  11  18
ATOM     18  O   UNL A   1     -28.193  -0.208  24.477  0.00  0.00    -0.456 OA
BRANCH  18  19
ATOM     19  C   UNL A   1     -29.460   0.005  23.866  0.00  0.00    +0.243 C 
BRANCH  19  20
ATOM     20  C   UNL A   1     -30.065  -1.377  23.573  0.00  0.00    +0.229 C 
ATOM     21  O   UNL A   1     -30.729  -1.878  24.721  0.00  0.00    -0.216 OA
ENDBRANCH  19  20
ENDBRANCH  18  19
ENDBRANCH  11  18
ENDBRANCH   5   7
BRANCH   2  22
ATOM     22  C   UNL A   1     -25.482  -0.051  29.008  0.00  0.00    +0.143 C 
BRANCH  22  23
ATOM     23  C   UNL A   1     -24.855  -1.012  30.143  0.00  0.00    +0.070 C 
BRANCH  23  24
ATOM     24  C   UNL A   1     -24.973  -2.505  29.788  0.00  0.00    -0.018 C 
ATOM     25  C   UNL A   1     -23.906  -3.173  29.146  0.00  0.00    -0.004 C 
ATOM     26  C   UNL A   1     -23.989  -4.549  28.853  0.00  0.00    -0.000 C 
ATOM     27  C   UNL A   1     -25.137  -5.280  29.205  0.00  0.00    -0.000 C 
ATOM     28  C   UNL A   1     -26.232  -4.611  29.784  0.00  0.00    -0.000 C 
ATOM     29  C   UNL A   1     -26.155  -3.232  30.065  0.00  0.00    -0.004 C 
ENDBRANCH  23  24
BRANCH  23  30
ATOM     30  C   UNL A   1     -25.387  -0.679  31.571  0.00  0.00    +0.080 C 
ATOM     31  C   UNL A   1     -25.189   0.773  32.028  0.00  0.00    +0.019 C 
ATOM     32  C   UNL A   1     -25.336   0.684  33.544  0.00  0.00    +0.020 C 
ATOM     33  C   UNL A   1     -24.829  -0.715  33.905  0.00  0.00    +0.089 C 
ATOM     34  N   UNL A   1     -24.758  -1.481  32.646  0.00  0.00    -0.219 NA
ENDBRANCH  23  30
ENDBRANCH  22  23
BRANCH  22  35
ATOM     35  O   UNL A   1     -26.422   1.006  29.304  0.00  0.00    -0.352 OA
BRANCH  35  39
ATOM     36  C   UNL A   1     -30.015   1.676  29.491  0.00  0.00    +0.022 C 
ATOM     37  C   UNL A   1     -29.801   0.409  28.606  0.00  0.00    +0.004 C 
ATOM     38  C   UNL A   1     -28.617   2.095  30.082  0.00  0.00    +0.119 C 
ATOM     39  C   UNL A   1     -27.742   0.820  29.953  0.00  0.00    +0.133 C 
ATOM     40  C   UNL A   1     -28.516  -0.212  29.119  0.00  0.00    +0.031 C 
ATOM     41  N   UNL A   1     -28.875   2.626  31.548  0.00  0.00    -0.130 NA
ENDBRANCH  35  39
ENDBRANCH  22  35
ENDBRANCH   2  22
TORSDOF 11
