MODEL 636
MODEL 1
REMARK VINA RESULT:    -5.324      0.000      0.000
REMARK INTER + INTRA:          -5.781
REMARK INTER:                  -5.636
REMARK INTRA:                  -0.146
REMARK UNBOUND:                -0.146
REMARK  Name = No_636-gen_results/8p0m/2024-11-27-11-27-31/
REMARK  1 active torsions:
REMARK  status: ('A' for Active; 'I' for Inactive)
REMARK    1  A    between atoms: C_4  and  C_6
REMARK                            x       y       z     vdW  Elec       q    Type
REMARK                         _______ _______ _______ _____ _____    ______ ____
ROOT
ATOM      1  C   UNL A   1     -24.711  -5.309  28.958  0.00  0.00    -0.000 A 
ATOM      2  C   UNL A   1     -25.681  -5.173  29.347  0.00  0.00    -0.000 A 
ATOM      3  C   UNL A   1     -23.954  -4.039  28.640  0.00  0.00    -0.000 A 
ATOM      4  C   UNL A   1     -24.509  -2.794  29.004  0.00  0.00    -0.000 A 
ATOM      5  C   UNL A   1     -26.465  -4.018  29.840  0.00  0.00    -0.000 A 
ATOM      6  C   UNL A   1     -25.775  -2.807  29.585  0.00  0.00    -0.000 A 
ENDROOT
BRANCH   4   7
ATOM      7  C   UNL A   1     -23.854  -1.568  28.748  0.00  0.00    -0.005 C 
ATOM      8  C   UNL A   1     -22.750  -1.230  29.291  0.00  0.00    -0.026 C 
ATOM      9  C   UNL A   1     -21.988  -0.031  28.898  0.00  0.00    +0.031 C 
ENDBRANCH   4   7
TORSDOF 1
ENDMDL
ENDMDL
