REMARK  Name = outputs/IAG933/test6/raw/output_6372_IAG933_linker_design_.xyz
REMARK  13 active torsions:
REMARK  status: ('A' for Active; 'I' for Inactive)
REMARK    1  A    between atoms: C_1  and  C_2
REMARK    2  A    between atoms: C_1  and  C_8
REMARK    3  A    between atoms: C_1  and  N_38
REMARK    4  A    between atoms: C_13  and  C_31
REMARK    5  A    between atoms: C_14  and  C_15
REMARK    6  A    between atoms: C_21  and  O_22
REMARK    7  A    between atoms: O_22  and  C_23
REMARK    8  A    between atoms: C_23  and  C_24
REMARK    9  A    between atoms: C_33  and  C_37
REMARK   10  A    between atoms: C_34  and  C_42
REMARK   11  A    between atoms: C_34  and  O_43
REMARK   12  A    between atoms: N_38  and  C_39
REMARK   13  A    between atoms: N_38  and  C_42
REMARK                            x       y       z     vdW  Elec       q    Type
REMARK                         _______ _______ _______ _____ _____    ______ ____
ROOT
ATOM      1  C   UNL A   1     -22.391   1.024  27.792  0.00  0.00    +0.161 C 
ATOM      2  C   UNL A   1     -24.554   1.215  27.227  0.00  0.00    +0.022 C 
ATOM      3  C   UNL A   1     -23.284   1.499  26.855  0.00  0.00    +0.095 C 
ATOM      4  F   UNL A   1     -22.454  -0.298  29.752  0.00  0.00    -0.224 F 
ATOM      5  F   UNL A   1     -21.034   1.179  27.702  0.00  0.00    -0.205 F 
ATOM      6  C   UNL A   1     -24.462   0.452  28.421  0.00  0.00    +0.065 C 
ATOM      7  C   UNL A   1     -23.081   0.362  28.768  0.00  0.00    +0.246 C 
ENDROOT
BRANCH   2   8
ATOM      8  C   UNL A   1     -25.688   1.614  26.461  0.00  0.00    +0.039 C 
ATOM      9  C   UNL A   1     -26.250   2.920  26.395  0.00  0.00    +0.077 C 
ATOM     10  C   UNL A   1     -27.438   3.091  25.645  0.00  0.00    +0.107 C 
ATOM     11  N   UNL A   1     -28.075   2.089  25.003  0.00  0.00    -0.208 NA
ATOM     12  C   UNL A   1     -27.543   0.849  25.079  0.00  0.00    +0.253 C 
ATOM     13  C   UNL A   1     -26.354   0.576  25.777  0.00  0.00    +0.193 C 
ATOM     14  F   UNL A   1     -25.860  -0.681  25.795  0.00  0.00    -0.199 F 
BRANCH   9  15
ATOM     15  C   UNL A   1     -25.642   4.093  27.123  0.00  0.00    +0.266 C 
ATOM     16  N   UNL A   1     -25.614   5.252  26.449  0.00  0.00    -0.200 NA
ATOM     17  C   UNL A   1     -25.026   6.479  26.963  0.00  0.00    +0.139 C 
ATOM     18  O   UNL A   1     -25.143   3.966  28.243  0.00  0.00    -0.268 OA
ENDBRANCH   9  15
BRANCH  12  19
ATOM     19  O   UNL A   1     -28.193  -0.208  24.477  0.00  0.00    -0.456 OA
BRANCH  19  20
ATOM     20  C   UNL A   1     -29.460   0.005  23.866  0.00  0.00    +0.243 C 
BRANCH  20  21
ATOM     21  C   UNL A   1     -30.065  -1.377  23.573  0.00  0.00    +0.229 C 
ATOM     22  O   UNL A   1     -30.729  -1.878  24.721  0.00  0.00    -0.216 OA
ENDBRANCH  20  21
ENDBRANCH  19  20
ENDBRANCH  12  19
ENDBRANCH   2   8
BRANCH   3  25
ATOM     23  O   UNL A   1     -23.597   3.100  25.283  0.00  0.00    -0.254 OA
ATOM     24  F   UNL A   1     -21.630   2.142  25.224  0.00  0.00    -0.159 F 
ATOM     25  C   UNL A   1     -22.842   2.273  25.737  0.00  0.00    +0.335 C 
ENDBRANCH   3  25
BRANCH   6  26
ATOM     26  N   UNL A   1     -25.531  -0.042  29.152  0.00  0.00    -0.296 N 
BRANCH  26  27
ATOM     27  C   UNL A   1     -24.855  -1.012  30.143  0.00  0.00    +0.112 C 
BRANCH  27  28
ATOM     28  C   UNL A   1     -24.973  -2.505  29.788  0.00  0.00    -0.003 C 
ATOM     29  C   UNL A   1     -23.906  -3.173  29.146  0.00  0.00    -0.003 C 
ATOM     30  C   UNL A   1     -23.989  -4.549  28.853  0.00  0.00    -0.000 C 
ATOM     31  C   UNL A   1     -25.137  -5.280  29.205  0.00  0.00    -0.000 C 
ATOM     32  C   UNL A   1     -26.232  -4.611  29.784  0.00  0.00    -0.000 C 
ATOM     33  C   UNL A   1     -26.155  -3.232  30.065  0.00  0.00    -0.003 C 
ENDBRANCH  27  28
BRANCH  27  34
ATOM     34  C   UNL A   1     -25.387  -0.679  31.571  0.00  0.00    +0.095 C 
ATOM     35  C   UNL A   1     -25.189   0.773  32.028  0.00  0.00    +0.021 C 
ATOM     36  C   UNL A   1     -25.336   0.684  33.544  0.00  0.00    +0.020 C 
ATOM     37  C   UNL A   1     -24.829  -0.715  33.905  0.00  0.00    +0.089 C 
ATOM     38  N   UNL A   1     -24.758  -1.481  32.646  0.00  0.00    -0.217 NA
ENDBRANCH  27  34
ENDBRANCH  26  27
BRANCH  26  39
ATOM     39  C   UNL A   1     -26.426   1.174  29.419  0.00  0.00    +0.202 C 
BRANCH  39  41
ATOM     40  O   UNL A   1     -28.078  -0.396  29.155  0.00  0.00    -0.248 OA
ATOM     41  C   UNL A   1     -27.722   0.746  29.526  0.00  0.00    +0.338 C 
BRANCH  41  43
ATOM     42  C   UNL A   1     -28.256   3.244  30.359  0.00  0.00    +0.256 C 
ATOM     43  O   UNL A   1     -28.571   1.788  30.020  0.00  0.00    -0.443 OA
ENDBRANCH  41  43
ENDBRANCH  39  41
ENDBRANCH  26  39
ENDBRANCH   6  26
TORSDOF 13
