MODEL 637
MODEL 1
REMARK VINA RESULT:    -8.376      0.000      0.000
REMARK INTER + INTRA:         -12.817
REMARK INTER:                 -10.824
REMARK INTRA:                  -1.992
REMARK UNBOUND:                -1.992
REMARK  Name = No_637-gen_results/8p0m/2024-11-27-11-27-31/
REMARK  5 active torsions:
REMARK  status: ('A' for Active; 'I' for Inactive)
REMARK    1  A    between atoms: C_2  and  C_26
REMARK    2  A    between atoms: C_3  and  C_7
REMARK    3  A    between atoms: C_9  and  C_13
REMARK    4  A    between atoms: C_17  and  C_19
REMARK    5  A    between atoms: C_19  and  C_20
REMARK                            x       y       z     vdW  Elec       q    Type
REMARK                         _______ _______ _______ _____ _____    ______ ____
ROOT
ATOM      1  C   UNL A   1     -26.532   2.291  25.954  0.00  0.00    +0.000 A 
ATOM      2  C   UNL A   1     -27.480   2.616  24.991  0.00  0.00    +0.000 A 
ATOM      3  C   UNL A   1     -25.855   1.095  25.939  0.00  0.00    -0.000 A 
ATOM      4  C   UNL A   1     -25.946   0.277  24.841  0.00  0.00    -0.000 A 
ATOM      5  C   UNL A   1     -27.917   1.583  24.079  0.00  0.00    +0.000 A 
ATOM      6  C   UNL A   1     -27.066   0.432  23.982  0.00  0.00    -0.000 A 
ENDROOT
BRANCH   1   9
ATOM      7  C   UNL A   1     -25.586   4.595  26.620  0.00  0.00    +0.007 A 
ATOM      8  C   UNL A   1     -25.505   5.273  27.423  0.00  0.00    +0.080 A 
ATOM      9  C   UNL A   1     -26.282   3.357  26.968  0.00  0.00    +0.000 A 
ATOM     10  C   UNL A   1     -26.790   3.132  28.224  0.00  0.00    +0.000 A 
ATOM     11  C   UNL A   1     -25.937   5.307  28.820  0.00  0.00    +0.007 A 
ATOM     12  C   UNL A   1     -26.612   4.112  29.167  0.00  0.00    +0.000 A 
BRANCH   8  13
ATOM     13  C   UNL A   1     -24.721   6.675  27.383  0.00  0.00    +0.388 C 
ATOM     14  O   UNL A   1     -24.278   7.109  26.390  0.00  0.00    -0.241 OA
ATOM     15  O   UNL A   1     -24.748   7.235  28.520  0.00  0.00    -0.241 OA
ENDBRANCH   8  13
ENDBRANCH   1   9
BRANCH   3  16
ATOM     16  C   UNL A   1     -24.691   0.903  26.805  0.00  0.00    -0.000 A 
ATOM     17  C   UNL A   1     -23.558   1.634  26.601  0.00  0.00    -0.000 A 
ATOM     18  C   UNL A   1     -22.479   1.298  27.345  0.00  0.00    -0.000 A 
ATOM     19  C   UNL A   1     -22.444   0.370  28.308  0.00  0.00    -0.004 A 
ATOM     20  C   UNL A   1     -23.587  -0.439  28.483  0.00  0.00    -0.018 A 
ATOM     21  C   UNL A   1     -24.670  -0.231  27.684  0.00  0.00    -0.004 A 
BRANCH  20  22
ATOM     22  C   UNL A   1     -23.487  -1.579  29.477  0.00  0.00    +0.053 C 
BRANCH  22  23
ATOM     23  C   UNL A   1     -24.304  -2.605  29.457  0.00  0.00    -0.018 A 
ATOM     24  C   UNL A   1     -23.888  -3.813  28.844  0.00  0.00    -0.004 A 
ATOM     25  C   UNL A   1     -24.665  -4.970  28.858  0.00  0.00    -0.000 A 
ATOM     26  C   UNL A   1     -25.934  -4.843  29.392  0.00  0.00    -0.000 A 
ATOM     27  C   UNL A   1     -26.385  -3.689  29.986  0.00  0.00    -0.000 A 
ATOM     28  C   UNL A   1     -25.588  -2.637  30.078  0.00  0.00    -0.004 A 
ENDBRANCH  22  23
ENDBRANCH  20  22
ENDBRANCH   3  16
TORSDOF 5
ENDMDL
ENDMDL
