MODEL 638
MODEL 1
REMARK VINA RESULT:    -7.116      0.000      0.000
REMARK INTER + INTRA:         -10.922
REMARK INTER:                 -10.029
REMARK INTRA:                  -0.894
REMARK UNBOUND:                -0.894
REMARK  Name = No_638-gen_results/8p0m/2024-11-27-11-27-31/
REMARK  7 active torsions:
REMARK  status: ('A' for Active; 'I' for Inactive)
REMARK    1  A    between atoms: C_3  and  C_8
REMARK    2  A    between atoms: C_6  and  O_7
REMARK    3  A    between atoms: O_7  and  C_14
REMARK    4  A    between atoms: C_14  and  C_15
REMARK    5  A    between atoms: N_17  and  C_18
REMARK    6  A    between atoms: C_19  and  C_20
REMARK    7  A    between atoms: C_21  and  C_22
REMARK                            x       y       z     vdW  Elec       q    Type
REMARK                         _______ _______ _______ _____ _____    ______ ____
ROOT
ATOM      1  C   UNL A   1     -24.454   0.683  25.206  0.00  0.00    +0.037 A 
ATOM      2  C   UNL A   1     -25.417   0.057  24.827  0.00  0.00    +0.003 A 
ATOM      3  C   UNL A   1     -26.704   0.562  24.972  0.00  0.00    +0.000 A 
ATOM      4  C   UNL A   1     -26.935   1.827  25.621  0.00  0.00    +0.003 A 
ATOM      5  C   UNL A   1     -25.769   2.472  26.051  0.00  0.00    +0.037 A 
ATOM      6  C   UNL A   1     -24.575   1.944  25.904  0.00  0.00    +0.139 A 
ENDROOT
BRANCH   3   7
ATOM      7  C   UNL A   1     -28.078   0.089  24.536  0.00  0.00    +0.000 A 
ATOM      8  C   UNL A   1     -28.146  -1.123  23.851  0.00  0.00    +0.000 A 
ATOM      9  C   UNL A   1     -29.433  -1.568  23.400  0.00  0.00    +0.000 A 
ATOM     10  C   UNL A   1     -30.599  -0.755  23.545  0.00  0.00    +0.000 A 
ATOM     11  C   UNL A   1     -29.271   0.843  24.622  0.00  0.00    +0.000 A 
ATOM     12  C   UNL A   1     -30.514   0.380  24.160  0.00  0.00    +0.000 A 
ENDBRANCH   3   7
BRANCH   6  13
ATOM     13  O   UNL A   1     -23.495   2.620  26.385  0.00  0.00    -0.466 OA
BRANCH  13  14
ATOM     14  C   UNL A   1     -22.401   1.971  26.830  0.00  0.00    +0.291 C 
BRANCH  14  15
ATOM     15  C   UNL A   1     -22.603   1.395  27.982  0.00  0.00    +0.290 C 
ATOM     16  O   UNL A   1     -23.226   1.884  28.836  0.00  0.00    -0.269 OA
ATOM     17  N   UNL A   1     -22.092   0.087  28.249  0.00  0.00    -0.175 NA
BRANCH  17  18
ATOM     18  C   UNL A   1     -22.411  -0.673  29.384  0.00  0.00    +0.089 C 
ATOM     19  C   UNL A   1     -23.190  -1.674  29.139  0.00  0.00    +0.018 C 
BRANCH  19  20
ATOM     20  C   UNL A   1     -24.074  -2.158  29.989  0.00  0.00    +0.001 C 
ATOM     21  C   UNL A   1     -24.724  -3.076  29.801  0.00  0.00    +0.000 C 
BRANCH  21  22
ATOM     22  C   UNL A   1     -24.236  -4.051  28.728  0.00  0.00    +0.000 C 
ATOM     23  C   UNL A   1     -24.601  -5.281  28.851  0.00  0.00    +0.000 C 
ENDBRANCH  21  22
ENDBRANCH  19  20
ENDBRANCH  17  18
ENDBRANCH  14  15
ENDBRANCH  13  14
ENDBRANCH   6  13
TORSDOF 7
ENDMDL
ENDMDL
