REMARK  Name = No_639-gen_results/8p0m/2024-11-27-11-27-31/
REMARK  3 active torsions:
REMARK  status: ('A' for Active; 'I' for Inactive)
REMARK    1  A    between atoms: C_4  and  C_7
REMARK    2  A    between atoms: C_7  and  C_8
REMARK    3  A    between atoms: C_8  and  C_9
REMARK                            x       y       z     vdW  Elec       q    Type
REMARK                         _______ _______ _______ _____ _____    ______ ____
ROOT
ATOM      1  C   UNL A   1     -24.355  -1.112  30.035  0.00  0.00    +0.012 C 
ENDROOT
BRANCH   1   5
ATOM      2  C   UNL A   1     -28.016  -0.814  28.878  0.00  0.00    +0.065 C 
ATOM      3  C   UNL A   1     -28.469  -0.785  29.829  0.00  0.00    +0.008 C 
ATOM      4  C   UNL A   1     -26.546  -0.876  28.850  0.00  0.00    +0.150 C 
ATOM      5  C   UNL A   1     -25.804  -1.032  30.057  0.00  0.00    +0.058 C 
ATOM      6  C   UNL A   1     -26.537  -1.039  31.217  0.00  0.00    +0.007 C 
ATOM      7  C   UNL A   1     -27.884  -0.953  31.186  0.00  0.00    +0.001 C 
ATOM      8  O   UNL A   1     -25.834  -0.890  27.696  0.00  0.00    -0.296 OA
ENDBRANCH   1   5
BRANCH   1   9
ATOM      9  C   UNL A   1     -23.661   0.103  29.845  0.00  0.00    +0.027 C 
BRANCH   9  10
ATOM     10  C   UNL A   1     -23.272   0.556  28.695  0.00  0.00    -0.022 A 
ATOM     11  C   UNL A   1     -22.161   0.741  28.481  0.00  0.00    -0.004 A 
ATOM     12  C   UNL A   1     -21.805   1.342  27.166  0.00  0.00    -0.000 A 
ATOM     13  C   UNL A   1     -22.825   1.939  26.443  0.00  0.00    -0.000 A 
ATOM     14  C   UNL A   1     -24.158   1.359  27.802  0.00  0.00    -0.004 A 
ATOM     15  C   UNL A   1     -23.933   1.991  26.795  0.00  0.00    -0.000 A 
ENDBRANCH   9  10
ENDBRANCH   1   9
TORSDOF 3
