REMARK  Name = outputs/IAG933/test6/raw/output_6394_IAG933_linker_design_.xyz
REMARK  10 active torsions:
REMARK  status: ('A' for Active; 'I' for Inactive)
REMARK    1  A    between atoms: C_1  and  C_2
REMARK    2  A    between atoms: C_13  and  N_32
REMARK    3  A    between atoms: C_14  and  C_15
REMARK    4  A    between atoms: C_21  and  O_22
REMARK    5  A    between atoms: O_22  and  C_23
REMARK    6  A    between atoms: C_23  and  C_24
REMARK    7  A    between atoms: C_29  and  O_30
REMARK    8  A    between atoms: O_30  and  N_32
REMARK    9  A    between atoms: C_31  and  C_39
REMARK   10  A    between atoms: C_33  and  C_40
REMARK                            x       y       z     vdW  Elec       q    Type
REMARK                         _______ _______ _______ _____ _____    ______ ____
ROOT
ATOM      1  N   UNL A   1     -24.619   1.135  27.229  0.00  0.00    -0.092 N 
ATOM      2  O   UNL A   1     -23.060   2.339  26.021  0.00  0.00    -0.265 OA
ATOM      3  C   UNL A   1     -23.377   1.543  27.175  0.00  0.00    +0.299 C 
ENDROOT
BRANCH   1   4
ATOM      4  C   UNL A   1     -25.688   1.614  26.461  0.00  0.00    +0.131 C 
ATOM      5  C   UNL A   1     -26.250   2.920  26.395  0.00  0.00    +0.093 C 
ATOM      6  C   UNL A   1     -27.438   3.091  25.645  0.00  0.00    +0.108 C 
ATOM      7  N   UNL A   1     -28.075   2.089  25.003  0.00  0.00    -0.208 NA
ATOM      8  C   UNL A   1     -27.543   0.849  25.079  0.00  0.00    +0.255 C 
ATOM      9  C   UNL A   1     -26.354   0.576  25.777  0.00  0.00    +0.210 C 
ATOM     10  F   UNL A   1     -25.860  -0.681  25.795  0.00  0.00    -0.198 F 
BRANCH   5  11
ATOM     11  C   UNL A   1     -25.642   4.093  27.123  0.00  0.00    +0.268 C 
ATOM     12  N   UNL A   1     -25.614   5.252  26.449  0.00  0.00    -0.200 NA
ATOM     13  C   UNL A   1     -25.026   6.479  26.963  0.00  0.00    +0.139 C 
ATOM     14  O   UNL A   1     -25.143   3.966  28.243  0.00  0.00    -0.268 OA
ENDBRANCH   5  11
BRANCH   8  15
ATOM     15  O   UNL A   1     -28.193  -0.208  24.477  0.00  0.00    -0.456 OA
BRANCH  15  16
ATOM     16  C   UNL A   1     -29.460   0.005  23.866  0.00  0.00    +0.243 C 
BRANCH  16  17
ATOM     17  C   UNL A   1     -30.065  -1.377  23.573  0.00  0.00    +0.229 C 
ATOM     18  O   UNL A   1     -30.729  -1.878  24.721  0.00  0.00    -0.216 OA
ENDBRANCH  16  17
ENDBRANCH  15  16
ENDBRANCH   8  15
ENDBRANCH   1   4
BRANCH   3  20
ATOM     19  C   UNL A   1     -22.263   0.642  29.280  0.00  0.00    +0.059 C 
ATOM     20  C   UNL A   1     -22.138   1.410  27.927  0.00  0.00    +0.137 C 
ATOM     21  N   UNL A   1     -20.901   1.754  27.589  0.00  0.00    -0.148 NA
ENDBRANCH   3  20
BRANCH   1  22
ATOM     22  O   UNL A   1     -24.948  -0.115  27.889  0.00  0.00    -0.361 OA
BRANCH  22  29
ATOM     23  C   UNL A   1     -24.855  -1.012  30.143  0.00  0.00    +0.117 C 
ATOM     24  C   UNL A   1     -25.387  -0.679  31.571  0.00  0.00    +0.088 C 
ATOM     25  C   UNL A   1     -25.189   0.773  32.028  0.00  0.00    +0.045 C 
ATOM     26  C   UNL A   1     -25.336   0.684  33.544  0.00  0.00    +0.022 C 
ATOM     27  C   UNL A   1     -24.829  -0.715  33.905  0.00  0.00    +0.089 C 
ATOM     28  N   UNL A   1     -24.758  -1.481  32.646  0.00  0.00    -0.219 NA
ATOM     29  C   UNL A   1     -25.178   0.144  29.218  0.00  0.00    +0.231 C 
ATOM     30  C   UNL A   1     -25.526   2.060  31.220  0.00  0.00    +0.152 C 
ATOM     31  N   UNL A   1     -25.698   1.388  29.785  0.00  0.00    -0.237 NA
BRANCH  23  32
ATOM     32  C   UNL A   1     -24.973  -2.505  29.788  0.00  0.00    -0.012 C 
ATOM     33  C   UNL A   1     -23.906  -3.173  29.146  0.00  0.00    -0.004 C 
ATOM     34  C   UNL A   1     -23.989  -4.549  28.853  0.00  0.00    -0.000 C 
ATOM     35  C   UNL A   1     -25.137  -5.280  29.205  0.00  0.00    -0.000 C 
ATOM     36  C   UNL A   1     -26.232  -4.611  29.784  0.00  0.00    -0.000 C 
ATOM     37  C   UNL A   1     -26.155  -3.232  30.065  0.00  0.00    -0.004 C 
ENDBRANCH  23  32
BRANCH  30  41
ATOM     38  N   UNL A   1     -26.531   3.459  33.187  0.00  0.00    -0.099 NA
ATOM     39  C   UNL A   1     -28.030   2.350  31.535  0.00  0.00    +0.055 C 
ATOM     40  O   UNL A   1     -26.642   4.351  30.991  0.00  0.00    -0.204 OA
ATOM     41  C   UNL A   1     -26.676   3.101  31.755  0.00  0.00    +0.222 C 
ENDBRANCH  30  41
ENDBRANCH  22  29
ENDBRANCH   1  22
TORSDOF 10
