REMARK  Name = outputs/IAG933/test6/raw/output_6399_IAG933_linker_design_.xyz
REMARK  11 active torsions:
REMARK  status: ('A' for Active; 'I' for Inactive)
REMARK    1  A    between atoms: C_1  and  C_2
REMARK    2  A    between atoms: C_1  and  C_8
REMARK    3  A    between atoms: C_1  and  C_39
REMARK    4  A    between atoms: C_13  and  C_30
REMARK    5  A    between atoms: C_14  and  C_15
REMARK    6  A    between atoms: C_21  and  O_22
REMARK    7  A    between atoms: O_22  and  C_23
REMARK    8  A    between atoms: C_23  and  C_24
REMARK    9  A    between atoms: C_35  and  C_41
REMARK   10  A    between atoms: C_37  and  C_39
REMARK   11  A    between atoms: C_39  and  N_43
REMARK                            x       y       z     vdW  Elec       q    Type
REMARK                         _______ _______ _______ _____ _____    ______ ____
ROOT
ATOM      1  O   UNL A   1     -21.756   2.328  25.893  0.00  0.00    -0.447 OA
ATOM      2  C   UNL A   1     -24.306   1.633  26.320  0.00  0.00    -0.009 C 
ATOM      3  C   UNL A   1     -22.528   0.270  29.310  0.00  0.00    +0.177 C 
ATOM      4  C   UNL A   1     -23.398   1.274  27.344  0.00  0.00    +0.035 C 
ATOM      5  C   UNL A   1     -23.912   2.090  25.085  0.00  0.00    +0.037 C 
ATOM      6  C   UNL A   1     -22.642   2.562  24.920  0.00  0.00    +0.179 C 
ATOM      7  O   UNL A   1     -21.333   0.633  28.943  0.00  0.00    -0.444 OA
ATOM      8  C   UNL A   1     -23.574   0.575  28.584  0.00  0.00    +0.038 C 
ATOM      9  C   UNL A   1     -21.096   1.449  27.928  0.00  0.00    +0.217 C 
ATOM     10  C   UNL A   1     -22.087   1.697  27.043  0.00  0.00    +0.182 C 
ENDROOT
BRANCH   2  11
ATOM     11  C   UNL A   1     -25.688   1.614  26.461  0.00  0.00    +0.092 C 
ATOM     12  C   UNL A   1     -26.250   2.920  26.395  0.00  0.00    +0.059 C 
ATOM     13  C   UNL A   1     -27.438   3.091  25.645  0.00  0.00    +0.102 C 
ATOM     14  N   UNL A   1     -28.075   2.089  25.003  0.00  0.00    -0.212 NA
ATOM     15  C   UNL A   1     -27.543   0.849  25.079  0.00  0.00    +0.234 C 
ATOM     16  C   UNL A   1     -26.354   0.576  25.777  0.00  0.00    +0.244 C 
ATOM     17  F   UNL A   1     -25.860  -0.681  25.795  0.00  0.00    -0.227 F 
BRANCH  12  18
ATOM     18  C   UNL A   1     -25.642   4.093  27.123  0.00  0.00    +0.263 C 
ATOM     19  N   UNL A   1     -25.614   5.252  26.449  0.00  0.00    -0.200 NA
ATOM     20  C   UNL A   1     -25.026   6.479  26.963  0.00  0.00    +0.139 C 
ATOM     21  O   UNL A   1     -25.143   3.966  28.243  0.00  0.00    -0.269 OA
ENDBRANCH  12  18
BRANCH  15  22
ATOM     22  O   UNL A   1     -28.193  -0.208  24.477  0.00  0.00    -0.459 OA
BRANCH  22  23
ATOM     23  C   UNL A   1     -29.460   0.005  23.866  0.00  0.00    +0.242 C 
BRANCH  23  24
ATOM     24  C   UNL A   1     -30.065  -1.377  23.573  0.00  0.00    +0.229 C 
ATOM     25  O   UNL A   1     -30.729  -1.878  24.721  0.00  0.00    -0.216 OA
ENDBRANCH  23  24
ENDBRANCH  22  23
ENDBRANCH  15  22
ENDBRANCH   2  11
BRANCH   8  26
ATOM     26  C   UNL A   1     -24.819   0.050  29.016  0.00  0.00    +0.126 C 
BRANCH  26  29
ATOM     27  O   UNL A   1     -27.439  -0.846  28.368  0.00  0.00    -0.268 OA
ATOM     28  C   UNL A   1     -27.146   0.355  28.610  0.00  0.00    +0.265 C 
ATOM     29  N   UNL A   1     -25.971   0.917  28.854  0.00  0.00    -0.198 NA
BRANCH  28  30
ATOM     30  C   UNL A   1     -28.165   1.429  28.540  0.00  0.00    +0.059 C 
ATOM     31  C   UNL A   1     -29.403   1.405  29.010  0.00  0.00    +0.005 C 
ENDBRANCH  28  30
ENDBRANCH  26  29
BRANCH  26  32
ATOM     32  C   UNL A   1     -24.855  -1.012  30.143  0.00  0.00    +0.063 C 
BRANCH  32  33
ATOM     33  C   UNL A   1     -24.973  -2.505  29.788  0.00  0.00    -0.019 C 
ATOM     34  C   UNL A   1     -23.906  -3.173  29.146  0.00  0.00    -0.004 C 
ATOM     35  C   UNL A   1     -23.989  -4.549  28.853  0.00  0.00    -0.000 C 
ATOM     36  C   UNL A   1     -25.137  -5.280  29.205  0.00  0.00    -0.000 C 
ATOM     37  C   UNL A   1     -26.232  -4.611  29.784  0.00  0.00    -0.000 C 
ATOM     38  C   UNL A   1     -26.155  -3.232  30.065  0.00  0.00    -0.004 C 
ENDBRANCH  32  33
BRANCH  32  39
ATOM     39  C   UNL A   1     -25.387  -0.679  31.571  0.00  0.00    +0.079 C 
ATOM     40  C   UNL A   1     -25.189   0.773  32.028  0.00  0.00    +0.019 C 
ATOM     41  C   UNL A   1     -25.336   0.684  33.544  0.00  0.00    +0.020 C 
ATOM     42  C   UNL A   1     -24.829  -0.715  33.905  0.00  0.00    +0.089 C 
ATOM     43  N   UNL A   1     -24.758  -1.481  32.646  0.00  0.00    -0.219 NA
ENDBRANCH  32  39
ENDBRANCH  26  32
ENDBRANCH   8  26
TORSDOF 11
