MODEL 639
MODEL 1
REMARK VINA RESULT:    -7.112      0.000      0.000
REMARK INTER + INTRA:          -8.910
REMARK INTER:                  -8.359
REMARK INTRA:                  -0.551
REMARK UNBOUND:                -0.551
REMARK  Name = No_639-gen_results/8p0m/2024-11-27-11-27-31/
REMARK  3 active torsions:
REMARK  status: ('A' for Active; 'I' for Inactive)
REMARK    1  A    between atoms: C_4  and  C_7
REMARK    2  A    between atoms: C_7  and  C_8
REMARK    3  A    between atoms: C_8  and  C_9
REMARK                            x       y       z     vdW  Elec       q    Type
REMARK                         _______ _______ _______ _____ _____    ______ ____
ROOT
ATOM      1  C   UNL A   1     -24.927  -0.734  27.872  0.00  0.00    +0.012 C 
ENDROOT
BRANCH   1   5
ATOM      2  C   UNL A   1     -23.502   1.998  25.563  0.00  0.00    +0.065 C 
ATOM      3  C   UNL A   1     -22.609   2.185  26.090  0.00  0.00    +0.008 C 
ATOM      4  C   UNL A   1     -24.369   0.934  26.093  0.00  0.00    +0.150 C 
ATOM      5  C   UNL A   1     -24.066   0.303  27.335  0.00  0.00    +0.058 C 
ATOM      6  C   UNL A   1     -22.899   0.695  27.939  0.00  0.00    +0.007 C 
ATOM      7  C   UNL A   1     -22.126   1.660  27.395  0.00  0.00    +0.001 C 
ATOM      8  O   UNL A   1     -25.532   0.570  25.497  0.00  0.00    -0.296 OA
ENDBRANCH   1   5
BRANCH   1   9
ATOM      9  C   UNL A   1     -24.416  -1.475  28.960  0.00  0.00    +0.027 C 
BRANCH   9  10
ATOM     10  C   UNL A   1     -24.532  -2.758  29.096  0.00  0.00    -0.022 A 
ATOM     11  C   UNL A   1     -23.904  -3.476  28.461  0.00  0.00    -0.004 A 
ATOM     12  C   UNL A   1     -24.158  -4.935  28.618  0.00  0.00    -0.000 A 
ATOM     13  C   UNL A   1     -25.334  -5.311  29.247  0.00  0.00    -0.000 A 
ATOM     14  C   UNL A   1     -25.772  -3.405  29.617  0.00  0.00    -0.004 A 
ATOM     15  C   UNL A   1     -26.123  -4.563  29.661  0.00  0.00    -0.000 A 
ENDBRANCH   9  10
ENDBRANCH   1   9
TORSDOF 3
ENDMDL
ENDMDL
