MODEL 63
MODEL 1
REMARK VINA RESULT:    -7.336      0.000      0.000
REMARK INTER + INTRA:          -8.142
REMARK INTER:                  -7.765
REMARK INTRA:                  -0.377
REMARK UNBOUND:                -0.377
REMARK  Name = No_63-gen_results/8p0m/2024-11-27-11-27-31/
REMARK  1 active torsions:
REMARK  status: ('A' for Active; 'I' for Inactive)
REMARK    1  A    between atoms: C_3  and  C_7
REMARK                            x       y       z     vdW  Elec       q    Type
REMARK                         _______ _______ _______ _____ _____    ______ ____
ROOT
ATOM      1  C   UNL A   1     -29.461  -9.874  32.063  0.00  0.00    +0.071 A 
ATOM      2  C   UNL A   1     -29.836 -10.052  30.927  0.00  0.00    +0.016 A 
ATOM      3  C   UNL A   1     -29.390 -11.101  30.123  0.00  0.00    +0.001 A 
ATOM      4  C   UNL A   1     -28.379 -12.005  30.638  0.00  0.00    +0.000 A 
ATOM      5  C   UNL A   1     -27.984 -11.729  31.967  0.00  0.00    +0.006 A 
ATOM      6  C   UNL A   1     -28.456 -10.713  32.643  0.00  0.00    +0.069 A 
ATOM      7  C   UNL A   1     -27.908 -10.463  34.006  0.00  0.00    +0.251 C 
ATOM      8  N   UNL A   1     -27.933  -9.307  34.517  0.00  0.00    -0.260 N 
ATOM      9  O   UNL A   1     -27.351 -11.417  34.639  0.00  0.00    -0.270 OA
ATOM     10  C   UNL A   1     -27.443  -9.007  35.867  0.00  0.00    +0.095 C 
ATOM     11  C   UNL A   1     -28.112  -8.109  36.477  0.00  0.00    +0.022 C 
ATOM     12  C   UNL A   1     -28.917  -7.505  35.844  0.00  0.00    +0.005 C 
ATOM     13  C   UNL A   1     -29.389  -7.541  34.561  0.00  0.00    +0.042 C 
ATOM     14  C   UNL A   1     -28.919  -8.498  33.988  0.00  0.00    +0.169 C 
ATOM     15  N   UNL A   1     -29.480  -8.866  32.784  0.00  0.00    -0.219 NA
ENDROOT
BRANCH   3  16
ATOM     16  C   UNL A   1     -29.813 -11.388  28.727  0.00  0.00    +0.000 A 
ATOM     17  C   UNL A   1     -30.584 -10.599  28.018  0.00  0.00    +0.000 A 
ATOM     18  C   UNL A   1     -30.924 -10.898  26.673  0.00  0.00    +0.000 A 
ATOM     19  C   UNL A   1     -30.134 -11.871  25.991  0.00  0.00    +0.000 A 
ATOM     20  C   UNL A   1     -29.105 -12.376  27.964  0.00  0.00    +0.000 A 
ATOM     21  C   UNL A   1     -29.316 -12.620  26.668  0.00  0.00    +0.000 A 
ENDBRANCH   3  16
TORSDOF 1
ENDMDL
ENDMDL
