REMARK  Name = outputs/IAG933/test6/raw/output_6401_IAG933_linker_design_.xyz
REMARK  13 active torsions:
REMARK  status: ('A' for Active; 'I' for Inactive)
REMARK    1  A    between atoms: C_1  and  C_2
REMARK    2  A    between atoms: C_1  and  C_8
REMARK    3  A    between atoms: C_1  and  C_33
REMARK    4  A    between atoms: C_13  and  C_28
REMARK    5  A    between atoms: C_14  and  C_15
REMARK    6  A    between atoms: C_21  and  O_22
REMARK    7  A    between atoms: O_22  and  C_23
REMARK    8  A    between atoms: C_23  and  C_24
REMARK    9  A    between atoms: C_28  and  C_33
REMARK   10  A    between atoms: C_28  and  C_35
REMARK   11  A    between atoms: O_34  and  C_42
REMARK   12  A    between atoms: O_34  and  C_43
REMARK   13  A    between atoms: C_36  and  C_43
REMARK                            x       y       z     vdW  Elec       q    Type
REMARK                         _______ _______ _______ _____ _____    ______ ____
ROOT
ATOM      1  C   UNL A   1     -25.059   0.947  27.678  0.00  0.00    +0.054 C 
ENDROOT
BRANCH   1   5
ATOM      2  C   UNL A   1     -21.195   1.885  26.724  0.00  0.00    +0.235 C 
ATOM      3  C   UNL A   1     -22.698   0.988  28.248  0.00  0.00    +0.089 C 
ATOM      4  N   UNL A   1     -23.861   0.941  24.723  0.00  0.00    -0.088 NA
ATOM      5  C   UNL A   1     -23.657   1.051  27.219  0.00  0.00    +0.050 C 
ATOM      6  N   UNL A   1     -22.904   0.496  29.485  0.00  0.00    -0.128 NA
ATOM      7  O   UNL A   1     -22.015   1.689  25.752  0.00  0.00    -0.456 OA
ATOM      8  C   UNL A   1     -23.197   1.184  25.888  0.00  0.00    +0.228 C 
ATOM      9  C   UNL A   1     -21.490   1.532  27.991  0.00  0.00    +0.039 C 
ENDBRANCH   1   5
BRANCH   1  10
ATOM     10  C   UNL A   1     -25.688   1.614  26.461  0.00  0.00    +0.078 C 
ATOM     11  C   UNL A   1     -26.250   2.920  26.395  0.00  0.00    +0.055 C 
ATOM     12  C   UNL A   1     -27.438   3.091  25.645  0.00  0.00    +0.102 C 
ATOM     13  N   UNL A   1     -28.075   2.089  25.003  0.00  0.00    -0.212 NA
ATOM     14  C   UNL A   1     -27.543   0.849  25.079  0.00  0.00    +0.234 C 
ATOM     15  C   UNL A   1     -26.354   0.576  25.777  0.00  0.00    +0.241 C 
ATOM     16  F   UNL A   1     -25.860  -0.681  25.795  0.00  0.00    -0.227 F 
BRANCH  11  17
ATOM     17  C   UNL A   1     -25.642   4.093  27.123  0.00  0.00    +0.263 C 
ATOM     18  N   UNL A   1     -25.614   5.252  26.449  0.00  0.00    -0.200 NA
ATOM     19  C   UNL A   1     -25.026   6.479  26.963  0.00  0.00    +0.139 C 
ATOM     20  O   UNL A   1     -25.143   3.966  28.243  0.00  0.00    -0.269 OA
ENDBRANCH  11  17
BRANCH  14  21
ATOM     21  O   UNL A   1     -28.193  -0.208  24.477  0.00  0.00    -0.459 OA
BRANCH  21  22
ATOM     22  C   UNL A   1     -29.460   0.005  23.866  0.00  0.00    +0.242 C 
BRANCH  22  23
ATOM     23  C   UNL A   1     -30.065  -1.377  23.573  0.00  0.00    +0.229 C 
ATOM     24  O   UNL A   1     -30.729  -1.878  24.721  0.00  0.00    -0.216 OA
ENDBRANCH  22  23
ENDBRANCH  21  22
ENDBRANCH  14  21
ENDBRANCH   1  10
BRANCH   1  25
ATOM     25  C   UNL A   1     -25.516  -0.002  29.005  0.00  0.00    -0.035 C 
ATOM     26  C   UNL A   1     -27.102   0.239  29.271  0.00  0.00    +0.013 C 
BRANCH  25  27
ATOM     27  C   UNL A   1     -24.855  -1.012  30.143  0.00  0.00    +0.057 C 
BRANCH  27  28
ATOM     28  C   UNL A   1     -24.973  -2.505  29.788  0.00  0.00    -0.017 C 
ATOM     29  C   UNL A   1     -23.906  -3.173  29.146  0.00  0.00    -0.004 C 
ATOM     30  C   UNL A   1     -23.989  -4.549  28.853  0.00  0.00    -0.000 C 
ATOM     31  C   UNL A   1     -25.137  -5.280  29.205  0.00  0.00    -0.000 C 
ATOM     32  C   UNL A   1     -26.232  -4.611  29.784  0.00  0.00    -0.000 C 
ATOM     33  C   UNL A   1     -26.155  -3.232  30.065  0.00  0.00    -0.004 C 
ENDBRANCH  27  28
BRANCH  27  34
ATOM     34  C   UNL A   1     -25.387  -0.679  31.571  0.00  0.00    +0.081 C 
ATOM     35  C   UNL A   1     -25.189   0.773  32.028  0.00  0.00    +0.019 C 
ATOM     36  C   UNL A   1     -25.336   0.684  33.544  0.00  0.00    +0.020 C 
ATOM     37  C   UNL A   1     -24.829  -0.715  33.905  0.00  0.00    +0.089 C 
ATOM     38  N   UNL A   1     -24.758  -1.481  32.646  0.00  0.00    -0.219 NA
ENDBRANCH  27  34
ENDBRANCH  25  27
BRANCH  26  39
ATOM     39  C   UNL A   1     -28.367   0.908  28.532  0.00  0.00    +0.234 C 
BRANCH  39  40
ATOM     40  O   UNL A   1     -29.561   0.071  28.387  0.00  0.00    -0.444 OA
BRANCH  40  43
ATOM     41  C   UNL A   1     -31.763  -0.481  29.223  0.00  0.00    +0.121 C 
ATOM     42  O   UNL A   1     -29.759  -0.517  30.580  0.00  0.00    -0.250 OA
ATOM     43  C   UNL A   1     -30.292  -0.300  29.456  0.00  0.00    +0.318 C 
ENDBRANCH  40  43
ENDBRANCH  39  40
ENDBRANCH  26  39
ENDBRANCH   1  25
TORSDOF 13
