REMARK  Name = outputs/IAG933/test6/raw/output_6404_IAG933_linker_design_.xyz
REMARK  15 active torsions:
REMARK  status: ('A' for Active; 'I' for Inactive)
REMARK    1  A    between atoms: C_1  and  C_2
REMARK    2  A    between atoms: C_1  and  C_8
REMARK    3  A    between atoms: C_1  and  C_29
REMARK    4  A    between atoms: C_13  and  C_31
REMARK    5  A    between atoms: C_14  and  C_15
REMARK    6  A    between atoms: C_21  and  O_22
REMARK    7  A    between atoms: O_22  and  C_23
REMARK    8  A    between atoms: C_23  and  C_24
REMARK    9  A    between atoms: C_28  and  C_39
REMARK   10  A    between atoms: C_29  and  O_42
REMARK   11  A    between atoms: C_29  and  C_50
REMARK   12  A    between atoms: C_32  and  N_46
REMARK   13  A    between atoms: C_34  and  C_39
REMARK   14  A    between atoms: C_36  and  O_42
REMARK   15  A    between atoms: C_37  and  C_47
REMARK                            x       y       z     vdW  Elec       q    Type
REMARK                         _______ _______ _______ _____ _____    ______ ____
ROOT
ATOM      1  C   UNL A   1     -26.049  -0.294  29.378  0.00  0.00    +0.194 C 
ENDROOT
BRANCH   1   7
ATOM      2  C   UNL A   1     -30.272  -0.933  30.356  0.00  0.00    +0.081 C 
ATOM      3  C   UNL A   1     -29.397  -0.729  31.442  0.00  0.00    +0.017 C 
ATOM      4  C   UNL A   1     -28.477  -0.182  28.852  0.00  0.00    +0.009 C 
ATOM      5  C   UNL A   1     -28.091  -0.359  31.208  0.00  0.00    +0.001 C 
ATOM      6  C   UNL A   1     -29.822  -0.641  29.068  0.00  0.00    +0.058 C 
ATOM      7  C   UNL A   1     -27.575  -0.196  29.857  0.00  0.00    +0.018 C 
BRANCH   2  10
ATOM      8  C   UNL A   1     -32.388  -1.854  29.815  0.00  0.00    +0.246 C 
ATOM      9  O   UNL A   1     -33.198  -1.171  29.321  0.00  0.00    -0.273 OA
ATOM     10  N   UNL A   1     -31.440  -1.540  30.590  0.00  0.00    -0.179 NA
BRANCH   8  11
ATOM     11  C   UNL A   1     -32.473  -3.544  29.316  0.00  0.00    +0.087 C 
BRANCH  11  12
ATOM     12  C   UNL A   1     -31.621  -4.297  28.045  0.00  0.00    +0.010 C 
ATOM     13  C   UNL A   1     -31.252  -5.726  28.460  0.00  0.00    +0.001 C 
ENDBRANCH  11  12
ENDBRANCH   8  11
ENDBRANCH   2  10
BRANCH   6  14
ATOM     14  C   UNL A   1     -30.519  -0.826  27.910  0.00  0.00    -0.050 C 
ATOM     15  C   UNL A   1     -31.188  -0.914  26.908  0.00  0.00    -0.009 C 
ENDBRANCH   6  14
ENDBRANCH   1   7
BRANCH   1  16
ATOM     16  C   UNL A   1     -24.855  -1.012  30.143  0.00  0.00    +0.083 C 
BRANCH  16  17
ATOM     17  C   UNL A   1     -24.973  -2.505  29.788  0.00  0.00    -0.017 C 
ATOM     18  C   UNL A   1     -23.906  -3.173  29.146  0.00  0.00    -0.004 C 
ATOM     19  C   UNL A   1     -23.989  -4.549  28.853  0.00  0.00    -0.000 C 
ATOM     20  C   UNL A   1     -25.137  -5.280  29.205  0.00  0.00    -0.000 C 
ATOM     21  C   UNL A   1     -26.232  -4.611  29.784  0.00  0.00    -0.000 C 
ATOM     22  C   UNL A   1     -26.155  -3.232  30.065  0.00  0.00    -0.004 C 
ENDBRANCH  16  17
BRANCH  16  23
ATOM     23  C   UNL A   1     -25.387  -0.679  31.571  0.00  0.00    +0.081 C 
ATOM     24  C   UNL A   1     -25.189   0.773  32.028  0.00  0.00    +0.019 C 
ATOM     25  C   UNL A   1     -25.336   0.684  33.544  0.00  0.00    +0.020 C 
ATOM     26  C   UNL A   1     -24.829  -0.715  33.905  0.00  0.00    +0.089 C 
ATOM     27  N   UNL A   1     -24.758  -1.481  32.646  0.00  0.00    -0.219 NA
ENDBRANCH  16  23
ENDBRANCH   1  16
BRANCH   1  28
ATOM     28  O   UNL A   1     -25.304   0.860  28.870  0.00  0.00    -0.472 OA
BRANCH  28  31
ATOM     29  C   UNL A   1     -23.102   1.923  26.277  0.00  0.00    -0.001 C 
ATOM     30  C   UNL A   1     -24.282   1.483  26.937  0.00  0.00    +0.021 C 
ATOM     31  C   UNL A   1     -24.144   0.885  28.178  0.00  0.00    +0.163 C 
ATOM     32  C   UNL A   1     -21.673   1.017  28.017  0.00  0.00    +0.033 C 
ATOM     33  F   UNL A   1     -22.528  -0.085  29.773  0.00  0.00    -0.201 F 
ATOM     34  C   UNL A   1     -21.831   1.741  26.823  0.00  0.00    +0.002 C 
ATOM     35  C   UNL A   1     -22.833   0.564  28.665  0.00  0.00    +0.173 C 
BRANCH  30  36
ATOM     36  C   UNL A   1     -25.688   1.614  26.461  0.00  0.00    +0.095 C 
ATOM     37  C   UNL A   1     -26.250   2.920  26.395  0.00  0.00    +0.059 C 
ATOM     38  C   UNL A   1     -27.438   3.091  25.645  0.00  0.00    +0.102 C 
ATOM     39  N   UNL A   1     -28.075   2.089  25.003  0.00  0.00    -0.212 NA
ATOM     40  C   UNL A   1     -27.543   0.849  25.079  0.00  0.00    +0.234 C 
ATOM     41  C   UNL A   1     -26.354   0.576  25.777  0.00  0.00    +0.244 C 
ATOM     42  F   UNL A   1     -25.860  -0.681  25.795  0.00  0.00    -0.227 F 
BRANCH  37  43
ATOM     43  C   UNL A   1     -25.642   4.093  27.123  0.00  0.00    +0.263 C 
ATOM     44  N   UNL A   1     -25.614   5.252  26.449  0.00  0.00    -0.200 NA
ATOM     45  C   UNL A   1     -25.026   6.479  26.963  0.00  0.00    +0.139 C 
ATOM     46  O   UNL A   1     -25.143   3.966  28.243  0.00  0.00    -0.269 OA
ENDBRANCH  37  43
BRANCH  40  47
ATOM     47  O   UNL A   1     -28.193  -0.208  24.477  0.00  0.00    -0.459 OA
BRANCH  47  48
ATOM     48  C   UNL A   1     -29.460   0.005  23.866  0.00  0.00    +0.242 C 
BRANCH  48  49
ATOM     49  C   UNL A   1     -30.065  -1.377  23.573  0.00  0.00    +0.229 C 
ATOM     50  O   UNL A   1     -30.729  -1.878  24.721  0.00  0.00    -0.216 OA
ENDBRANCH  48  49
ENDBRANCH  47  48
ENDBRANCH  40  47
ENDBRANCH  30  36
ENDBRANCH  28  31
ENDBRANCH   1  28
TORSDOF 15
