MODEL 640
MODEL 1
REMARK VINA RESULT:    -4.906      0.000      0.000
REMARK INTER + INTRA:          -5.294
REMARK INTER:                  -5.193
REMARK INTRA:                  -0.101
REMARK UNBOUND:                -0.101
REMARK  Name = No_640-gen_results/8p0m/2024-11-27-11-27-31/
REMARK  1 active torsions:
REMARK  status: ('A' for Active; 'I' for Inactive)
REMARK    1  A    between atoms: C_2  and  C_7
REMARK                            x       y       z     vdW  Elec       q    Type
REMARK                         _______ _______ _______ _____ _____    ______ ____
ROOT
ATOM      1  C   UNL A   1     -23.898  -3.726  28.799  0.00  0.00    +0.001 A 
ATOM      2  C   UNL A   1     -24.356  -2.838  29.136  0.00  0.00    +0.044 A 
ATOM      3  C   UNL A   1     -24.642  -4.976  29.021  0.00  0.00    -0.000 A 
ATOM      4  C   UNL A   1     -25.971  -4.947  29.536  0.00  0.00    -0.000 A 
ATOM      5  C   UNL A   1     -25.723  -2.532  29.639  0.00  0.00    +0.001 A 
ATOM      6  C   UNL A   1     -26.440  -3.669  29.867  0.00  0.00    -0.000 A 
ENDROOT
BRANCH   2   7
ATOM      7  C   UNL A   1     -23.591  -1.460  28.896  0.00  0.00    +0.341 C 
ATOM      8  F   UNL A   1     -22.285  -1.604  28.989  0.00  0.00    -0.193 F 
ATOM      9  F   UNL A   1     -24.038  -0.781  27.991  0.00  0.00    -0.193 F 
ENDBRANCH   2   7
TORSDOF 1
ENDMDL
ENDMDL
