REMARK  Name = outputs/IAG933/test6/raw/output_6410_IAG933_linker_design_.xyz
REMARK  14 active torsions:
REMARK  status: ('A' for Active; 'I' for Inactive)
REMARK    1  A    between atoms: C_1  and  C_2
REMARK    2  A    between atoms: C_1  and  C_8
REMARK    3  A    between atoms: C_1  and  C_37
REMARK    4  A    between atoms: C_13  and  C_45
REMARK    5  A    between atoms: C_14  and  C_15
REMARK    6  A    between atoms: C_21  and  O_22
REMARK    7  A    between atoms: O_22  and  C_23
REMARK    8  A    between atoms: C_23  and  C_24
REMARK    9  A    between atoms: C_30  and  C_38
REMARK   10  A    between atoms: C_34  and  C_37
REMARK   11  A    between atoms: C_35  and  N_40
REMARK   12  A    between atoms: C_37  and  N_39
REMARK   13  A    between atoms: N_39  and  C_42
REMARK   14  A    between atoms: C_42  and  C_45
REMARK                            x       y       z     vdW  Elec       q    Type
REMARK                         _______ _______ _______ _____ _____    ______ ____
ROOT
ATOM      1  C   UNL A   1     -24.912   0.218  29.206  0.00  0.00    +0.105 C 
ENDROOT
BRANCH   1   3
ATOM      2  O   UNL A   1     -27.124  -0.302  28.678  0.00  0.00    -0.355 OA
ATOM      3  C   UNL A   1     -26.394   0.705  29.085  0.00  0.00    +0.132 C 
ATOM      4  C   UNL A   1     -28.594   1.540  29.156  0.00  0.00    +0.079 C 
ATOM      5  C   UNL A   1     -28.427   0.259  28.553  0.00  0.00    +0.146 C 
ATOM      6  C   UNL A   1     -27.102   1.948  29.382  0.00  0.00    +0.038 C 
BRANCH   4   8
ATOM      7  O   UNL A   1     -30.379   1.463  28.069  0.00  0.00    -0.338 OA
ATOM      8  C   UNL A   1     -29.474   2.463  28.283  0.00  0.00    +0.195 C 
ATOM      9  C   UNL A   1     -32.178   2.591  29.637  0.00  0.00    +0.054 C 
ATOM     10  N   UNL A   1     -30.121   3.687  28.896  0.00  0.00    -0.286 N 
ATOM     11  C   UNL A   1     -31.041   3.514  30.026  0.00  0.00    +0.096 C 
ATOM     12  C   UNL A   1     -31.629   1.531  28.676  0.00  0.00    +0.146 C 
BRANCH  10  15
ATOM     13  C   UNL A   1     -30.985   5.577  27.744  0.00  0.00    +0.015 C 
ATOM     14  C   UNL A   1     -29.312   6.863  26.618  0.00  0.00    +0.000 C 
ATOM     15  C   UNL A   1     -29.976   4.925  28.439  0.00  0.00    +0.050 C 
ATOM     16  C   UNL A   1     -30.624   6.460  26.743  0.00  0.00    +0.001 C 
ATOM     17  C   UNL A   1     -28.747   5.448  28.478  0.00  0.00    +0.015 C 
ATOM     18  C   UNL A   1     -28.376   6.303  27.462  0.00  0.00    +0.001 C 
ENDBRANCH  10  15
ENDBRANCH   4   8
ENDBRANCH   1   3
BRANCH   1  19
ATOM     19  C   UNL A   1     -24.855  -1.012  30.143  0.00  0.00    +0.057 C 
BRANCH  19  20
ATOM     20  C   UNL A   1     -24.973  -2.505  29.788  0.00  0.00    -0.020 C 
ATOM     21  C   UNL A   1     -23.906  -3.173  29.146  0.00  0.00    -0.004 C 
ATOM     22  C   UNL A   1     -23.989  -4.549  28.853  0.00  0.00    -0.000 C 
ATOM     23  C   UNL A   1     -25.137  -5.280  29.205  0.00  0.00    -0.000 C 
ATOM     24  C   UNL A   1     -26.232  -4.611  29.784  0.00  0.00    -0.000 C 
ATOM     25  C   UNL A   1     -26.155  -3.232  30.065  0.00  0.00    -0.004 C 
ENDBRANCH  19  20
BRANCH  19  26
ATOM     26  C   UNL A   1     -25.387  -0.679  31.571  0.00  0.00    +0.078 C 
ATOM     27  C   UNL A   1     -25.189   0.773  32.028  0.00  0.00    +0.019 C 
ATOM     28  C   UNL A   1     -25.336   0.684  33.544  0.00  0.00    +0.020 C 
ATOM     29  C   UNL A   1     -24.829  -0.715  33.905  0.00  0.00    +0.089 C 
ATOM     30  N   UNL A   1     -24.758  -1.481  32.646  0.00  0.00    -0.219 NA
ENDBRANCH  19  26
ENDBRANCH   1  19
BRANCH   1  31
ATOM     31  N   UNL A   1     -23.379   0.090  28.449  0.00  0.00    -0.218 NA
BRANCH  31  33
ATOM     32  C   UNL A   1     -21.754   1.631  27.587  0.00  0.00    +0.019 C 
ATOM     33  C   UNL A   1     -23.215   1.187  27.496  0.00  0.00    +0.073 C 
BRANCH  33  34
ATOM     34  C   UNL A   1     -24.281   1.423  26.664  0.00  0.00    +0.025 C 
BRANCH  34  35
ATOM     35  C   UNL A   1     -25.688   1.614  26.461  0.00  0.00    +0.071 C 
ATOM     36  C   UNL A   1     -26.250   2.920  26.395  0.00  0.00    +0.055 C 
ATOM     37  C   UNL A   1     -27.438   3.091  25.645  0.00  0.00    +0.102 C 
ATOM     38  N   UNL A   1     -28.075   2.089  25.003  0.00  0.00    -0.212 NA
ATOM     39  C   UNL A   1     -27.543   0.849  25.079  0.00  0.00    +0.234 C 
ATOM     40  C   UNL A   1     -26.354   0.576  25.777  0.00  0.00    +0.240 C 
ATOM     41  F   UNL A   1     -25.860  -0.681  25.795  0.00  0.00    -0.227 F 
BRANCH  36  42
ATOM     42  C   UNL A   1     -25.642   4.093  27.123  0.00  0.00    +0.262 C 
ATOM     43  N   UNL A   1     -25.614   5.252  26.449  0.00  0.00    -0.200 NA
ATOM     44  C   UNL A   1     -25.026   6.479  26.963  0.00  0.00    +0.139 C 
ATOM     45  O   UNL A   1     -25.143   3.966  28.243  0.00  0.00    -0.269 OA
ENDBRANCH  36  42
BRANCH  39  46
ATOM     46  O   UNL A   1     -28.193  -0.208  24.477  0.00  0.00    -0.459 OA
BRANCH  46  47
ATOM     47  C   UNL A   1     -29.460   0.005  23.866  0.00  0.00    +0.242 C 
BRANCH  47  48
ATOM     48  C   UNL A   1     -30.065  -1.377  23.573  0.00  0.00    +0.229 C 
ATOM     49  O   UNL A   1     -30.729  -1.878  24.721  0.00  0.00    -0.216 OA
ENDBRANCH  47  48
ENDBRANCH  46  47
ENDBRANCH  39  46
ENDBRANCH  34  35
ENDBRANCH  33  34
ENDBRANCH  31  33
ENDBRANCH   1  31
TORSDOF 14
