REMARK  Name = outputs/IAG933/test6/raw/output_6414_IAG933_linker_design_.xyz
REMARK  15 active torsions:
REMARK  status: ('A' for Active; 'I' for Inactive)
REMARK    1  A    between atoms: C_1  and  C_2
REMARK    2  A    between atoms: C_1  and  C_8
REMARK    3  A    between atoms: C_1  and  N_38
REMARK    4  A    between atoms: C_13  and  C_30
REMARK    5  A    between atoms: C_14  and  C_15
REMARK    6  A    between atoms: C_21  and  O_22
REMARK    7  A    between atoms: O_22  and  C_23
REMARK    8  A    between atoms: C_23  and  C_24
REMARK    9  A    between atoms: C_32  and  C_42
REMARK   10  A    between atoms: C_32  and  O_44
REMARK   11  A    between atoms: C_34  and  C_40
REMARK   12  A    between atoms: C_34  and  C_42
REMARK   13  A    between atoms: C_36  and  N_38
REMARK   14  A    between atoms: C_36  and  O_44
REMARK   15  A    between atoms: C_37  and  C_40
REMARK                            x       y       z     vdW  Elec       q    Type
REMARK                         _______ _______ _______ _____ _____    ______ ____
ROOT
ATOM      1  C   UNL A   1     -22.066   0.696  28.710  0.00  0.00    +0.267 C 
ATOM      2  C   UNL A   1     -24.465   1.221  27.218  0.00  0.00    +0.115 C 
ATOM      3  N   UNL A   1     -23.278   0.103  29.062  0.00  0.00    -0.034 NA
ATOM      4  C   UNL A   1     -23.210   1.655  26.791  0.00  0.00    +0.178 C 
ATOM      5  C   UNL A   1     -24.466   0.416  28.431  0.00  0.00    +0.328 C 
ATOM      6  N   UNL A   1     -25.543  -0.176  29.074  0.00  0.00    -0.163 N 
ATOM      7  F   UNL A   1     -23.052   2.190  25.544  0.00  0.00    -0.201 F 
ATOM      8  C   UNL A   1     -22.109   1.510  27.628  0.00  0.00    +0.214 C 
ATOM      9  F   UNL A   1     -20.938   2.187  27.346  0.00  0.00    -0.198 F 
ENDROOT
BRANCH   2  10
ATOM     10  C   UNL A   1     -25.688   1.614  26.461  0.00  0.00    +0.048 C 
ATOM     11  C   UNL A   1     -26.250   2.920  26.395  0.00  0.00    +0.077 C 
ATOM     12  C   UNL A   1     -27.438   3.091  25.645  0.00  0.00    +0.107 C 
ATOM     13  N   UNL A   1     -28.075   2.089  25.003  0.00  0.00    -0.208 NA
ATOM     14  C   UNL A   1     -27.543   0.849  25.079  0.00  0.00    +0.253 C 
ATOM     15  C   UNL A   1     -26.354   0.576  25.777  0.00  0.00    +0.193 C 
ATOM     16  F   UNL A   1     -25.860  -0.681  25.795  0.00  0.00    -0.199 F 
BRANCH  11  17
ATOM     17  C   UNL A   1     -25.642   4.093  27.123  0.00  0.00    +0.266 C 
ATOM     18  N   UNL A   1     -25.614   5.252  26.449  0.00  0.00    -0.200 NA
ATOM     19  C   UNL A   1     -25.026   6.479  26.963  0.00  0.00    +0.139 C 
ATOM     20  O   UNL A   1     -25.143   3.966  28.243  0.00  0.00    -0.268 OA
ENDBRANCH  11  17
BRANCH  14  21
ATOM     21  O   UNL A   1     -28.193  -0.208  24.477  0.00  0.00    -0.456 OA
BRANCH  21  22
ATOM     22  C   UNL A   1     -29.460   0.005  23.866  0.00  0.00    +0.243 C 
BRANCH  22  23
ATOM     23  C   UNL A   1     -30.065  -1.377  23.573  0.00  0.00    +0.229 C 
ATOM     24  O   UNL A   1     -30.729  -1.878  24.721  0.00  0.00    -0.216 OA
ENDBRANCH  22  23
ENDBRANCH  21  22
ENDBRANCH  14  21
ENDBRANCH   2  10
BRANCH   6  25
ATOM     25  C   UNL A   1     -24.855  -1.012  30.143  0.00  0.00    +0.201 C 
BRANCH  25  26
ATOM     26  C   UNL A   1     -24.973  -2.505  29.788  0.00  0.00    +0.021 C 
ATOM     27  C   UNL A   1     -23.906  -3.173  29.146  0.00  0.00    -0.000 C 
ATOM     28  C   UNL A   1     -23.989  -4.549  28.853  0.00  0.00    -0.000 C 
ATOM     29  C   UNL A   1     -25.137  -5.280  29.205  0.00  0.00    -0.000 C 
ATOM     30  C   UNL A   1     -26.232  -4.611  29.784  0.00  0.00    -0.000 C 
ATOM     31  C   UNL A   1     -26.155  -3.232  30.065  0.00  0.00    -0.000 C 
ENDBRANCH  25  26
BRANCH  25  32
ATOM     32  C   UNL A   1     -25.387  -0.679  31.571  0.00  0.00    +0.120 C 
ATOM     33  C   UNL A   1     -25.189   0.773  32.028  0.00  0.00    +0.023 C 
ATOM     34  C   UNL A   1     -25.336   0.684  33.544  0.00  0.00    +0.020 C 
ATOM     35  C   UNL A   1     -24.829  -0.715  33.905  0.00  0.00    +0.089 C 
ATOM     36  N   UNL A   1     -24.758  -1.481  32.646  0.00  0.00    -0.215 NA
ENDBRANCH  25  32
ENDBRANCH   6  25
BRANCH   6  37
ATOM     37  C   UNL A   1     -26.842   0.577  29.103  0.00  0.00    +0.359 C 
BRANCH  37  38
ATOM     38  O   UNL A   1     -28.032  -0.224  29.238  0.00  0.00    -0.313 OA
BRANCH  38  39
ATOM     39  C   UNL A   1     -29.200   0.380  28.684  0.00  0.00    +0.146 C 
BRANCH  39  40
ATOM     40  C   UNL A   1     -30.519  -0.311  29.088  0.00  0.00    +0.032 C 
BRANCH  40  41
ATOM     41  C   UNL A   1     -30.331  -1.699  29.657  0.00  0.00    +0.005 C 
BRANCH  41  42
ATOM     42  C   UNL A   1     -31.546  -2.602  29.967  0.00  0.00    +0.036 C 
BRANCH  42  44
ATOM     43  O   UNL A   1     -30.294  -4.527  29.181  0.00  0.00    -0.220 OA
ATOM     44  C   UNL A   1     -31.116  -4.052  30.195  0.00  0.00    +0.182 C 
ENDBRANCH  42  44
ENDBRANCH  41  42
ENDBRANCH  40  41
ENDBRANCH  39  40
ENDBRANCH  38  39
ENDBRANCH  37  38
ENDBRANCH   6  37
TORSDOF 15
