REMARK  Name = outputs/IAG933/test6/raw/output_6417_IAG933_linker_design_.xyz
REMARK  13 active torsions:
REMARK  status: ('A' for Active; 'I' for Inactive)
REMARK    1  A    between atoms: C_1  and  C_2
REMARK    2  A    between atoms: C_1  and  C_8
REMARK    3  A    between atoms: C_1  and  O_42
REMARK    4  A    between atoms: C_13  and  C_43
REMARK    5  A    between atoms: C_14  and  C_15
REMARK    6  A    between atoms: C_21  and  O_22
REMARK    7  A    between atoms: O_22  and  C_23
REMARK    8  A    between atoms: C_23  and  C_24
REMARK    9  A    between atoms: C_24  and  O_25
REMARK   10  A    between atoms: O_25  and  C_31
REMARK   11  A    between atoms: C_31  and  C_35
REMARK   12  A    between atoms: N_34  and  C_35
REMARK   13  A    between atoms: O_42  and  C_44
REMARK                            x       y       z     vdW  Elec       q    Type
REMARK                         _______ _______ _______ _____ _____    ______ ____
ROOT
ATOM      1  C   UNL A   1     -25.688   1.614  26.461  0.00  0.00    +0.043 C 
ATOM      2  C   UNL A   1     -26.250   2.920  26.395  0.00  0.00    +0.077 C 
ATOM      3  C   UNL A   1     -27.438   3.091  25.645  0.00  0.00    +0.107 C 
ATOM      4  N   UNL A   1     -28.075   2.089  25.003  0.00  0.00    -0.208 NA
ATOM      5  C   UNL A   1     -27.543   0.849  25.079  0.00  0.00    +0.253 C 
ATOM      6  C   UNL A   1     -26.354   0.576  25.777  0.00  0.00    +0.193 C 
ATOM      7  F   UNL A   1     -25.860  -0.681  25.795  0.00  0.00    -0.199 F 
ENDROOT
BRANCH   1  12
ATOM      8  N   UNL A   1     -22.867   0.225  28.785  0.00  0.00    -0.210 NA
ATOM      9  C   UNL A   1     -23.122   2.032  26.584  0.00  0.00    +0.006 C 
ATOM     10  C   UNL A   1     -21.823   1.801  27.163  0.00  0.00    +0.021 C 
ATOM     11  C   UNL A   1     -21.725   0.889  28.282  0.00  0.00    +0.102 C 
ATOM     12  C   UNL A   1     -24.316   1.374  27.137  0.00  0.00    +0.056 C 
ATOM     13  C   UNL A   1     -24.178   0.485  28.339  0.00  0.00    +0.225 C 
BRANCH  13  14
ATOM     14  O   UNL A   1     -25.230  -0.063  29.115  0.00  0.00    -0.458 OA
BRANCH  14  15
ATOM     15  C   UNL A   1     -24.855  -1.012  30.143  0.00  0.00    +0.206 C 
BRANCH  15  16
ATOM     16  C   UNL A   1     -24.973  -2.505  29.788  0.00  0.00    +0.019 C 
ATOM     17  C   UNL A   1     -23.906  -3.173  29.146  0.00  0.00    -0.001 C 
ATOM     18  C   UNL A   1     -23.989  -4.549  28.853  0.00  0.00    -0.000 C 
ATOM     19  C   UNL A   1     -25.137  -5.280  29.205  0.00  0.00    -0.000 C 
ATOM     20  C   UNL A   1     -26.232  -4.611  29.784  0.00  0.00    -0.000 C 
ATOM     21  C   UNL A   1     -26.155  -3.232  30.065  0.00  0.00    -0.001 C 
ENDBRANCH  15  16
BRANCH  15  22
ATOM     22  C   UNL A   1     -25.387  -0.679  31.571  0.00  0.00    +0.117 C 
ATOM     23  C   UNL A   1     -25.189   0.773  32.028  0.00  0.00    +0.023 C 
ATOM     24  C   UNL A   1     -25.336   0.684  33.544  0.00  0.00    +0.020 C 
ATOM     25  C   UNL A   1     -24.829  -0.715  33.905  0.00  0.00    +0.089 C 
ATOM     26  N   UNL A   1     -24.758  -1.481  32.646  0.00  0.00    -0.215 NA
ENDBRANCH  15  22
ENDBRANCH  14  15
ENDBRANCH  13  14
ENDBRANCH   1  12
BRANCH   2  27
ATOM     27  C   UNL A   1     -25.642   4.093  27.123  0.00  0.00    +0.266 C 
ATOM     28  N   UNL A   1     -25.614   5.252  26.449  0.00  0.00    -0.200 NA
ATOM     29  C   UNL A   1     -25.026   6.479  26.963  0.00  0.00    +0.139 C 
ATOM     30  O   UNL A   1     -25.143   3.966  28.243  0.00  0.00    -0.268 OA
ENDBRANCH   2  27
BRANCH   5  31
ATOM     31  O   UNL A   1     -28.193  -0.208  24.477  0.00  0.00    -0.456 OA
BRANCH  31  32
ATOM     32  C   UNL A   1     -29.460   0.005  23.866  0.00  0.00    +0.239 C 
BRANCH  32  33
ATOM     33  C   UNL A   1     -30.065  -1.377  23.573  0.00  0.00    +0.189 C 
BRANCH  33  34
ATOM     34  O   UNL A   1     -30.729  -1.878  24.721  0.00  0.00    -0.348 OA
BRANCH  34  35
ATOM     35  C   UNL A   1     -31.520  -1.371  25.755  0.00  0.00    +0.160 C 
BRANCH  35  36
ATOM     36  C   UNL A   1     -31.693  -0.147  26.630  0.00  0.00    +0.106 C 
BRANCH  36  40
ATOM     37  C   UNL A   1     -30.282   1.678  29.801  0.00  0.00    +0.019 C 
ATOM     38  C   UNL A   1     -28.908   1.123  29.270  0.00  0.00    +0.038 C 
ATOM     39  C   UNL A   1     -28.913  -0.351  28.815  0.00  0.00    +0.198 C 
ATOM     40  N   UNL A   1     -30.940   0.349  27.917  0.00  0.00    -0.244 NA
ATOM     41  O   UNL A   1     -28.338  -1.273  29.815  0.00  0.00    -0.219 OA
ATOM     42  C   UNL A   1     -30.079   3.227  29.539  0.00  0.00    +0.002 C 
ATOM     43  O   UNL A   1     -31.075  -1.560  29.286  0.00  0.00    -0.202 OA
ATOM     44  C   UNL A   1     -31.459   1.119  28.908  0.00  0.00    +0.074 C 
ATOM     45  C   UNL A   1     -30.229  -0.971  28.321  0.00  0.00    +0.243 C 
ENDBRANCH  36  40
ENDBRANCH  35  36
ENDBRANCH  34  35
ENDBRANCH  33  34
ENDBRANCH  32  33
ENDBRANCH  31  32
ENDBRANCH   5  31
TORSDOF 13
