MODEL 641
MODEL 1
REMARK VINA RESULT:    -6.521      0.000      0.000
REMARK INTER + INTRA:          -7.254
REMARK INTER:                  -6.902
REMARK INTRA:                  -0.352
REMARK UNBOUND:                -0.352
REMARK  Name = No_641-gen_results/8p0m/2024-11-27-11-27-31/
REMARK  1 active torsions:
REMARK  status: ('A' for Active; 'I' for Inactive)
REMARK    1  A    between atoms: C_2  and  C_7
REMARK                            x       y       z     vdW  Elec       q    Type
REMARK                         _______ _______ _______ _____ _____    ______ ____
ROOT
ATOM      1  C   UNL A   1     -24.071  -3.774  28.879  0.00  0.00    +0.000 A 
ATOM      2  C   UNL A   1     -24.415  -2.638  29.111  0.00  0.00    +0.000 A 
ATOM      3  C   UNL A   1     -25.661  -2.364  29.665  0.00  0.00    +0.000 A 
ATOM      4  C   UNL A   1     -26.600  -3.422  29.936  0.00  0.00    +0.000 A 
ATOM      5  C   UNL A   1     -26.130  -4.702  29.615  0.00  0.00    +0.000 A 
ATOM      6  C   UNL A   1     -24.949  -4.906  29.077  0.00  0.00    +0.000 A 
ENDROOT
BRANCH   2   7
ATOM      7  C   UNL A   1     -23.588  -1.425  28.871  0.00  0.00    +0.000 A 
ATOM      8  C   UNL A   1     -22.448  -1.170  29.224  0.00  0.00    +0.000 A 
ATOM      9  C   UNL A   1     -21.676   0.014  28.826  0.00  0.00    +0.000 A 
ATOM     10  C   UNL A   1     -22.329   0.944  27.990  0.00  0.00    +0.000 A 
ATOM     11  C   UNL A   1     -24.192  -0.422  27.961  0.00  0.00    +0.000 A 
ATOM     12  C   UNL A   1     -23.568   0.676  27.583  0.00  0.00    +0.000 A 
ENDBRANCH   2   7
TORSDOF 1
ENDMDL
ENDMDL
