REMARK  Name = outputs/IAG933/test6/raw/output_6423_IAG933_linker_design_.xyz
REMARK  17 active torsions:
REMARK  status: ('A' for Active; 'I' for Inactive)
REMARK    1  A    between atoms: C_1  and  C_2
REMARK    2  A    between atoms: C_1  and  C_8
REMARK    3  A    between atoms: C_1  and  N_42
REMARK    4  A    between atoms: C_13  and  C_28
REMARK    5  A    between atoms: C_14  and  C_15
REMARK    6  A    between atoms: C_21  and  O_22
REMARK    7  A    between atoms: O_22  and  C_23
REMARK    8  A    between atoms: C_23  and  C_24
REMARK    9  A    between atoms: C_28  and  C_30
REMARK   10  A    between atoms: C_28  and  C_36
REMARK   11  A    between atoms: O_31  and  C_36
REMARK   12  A    between atoms: C_32  and  C_38
REMARK   13  A    between atoms: C_34  and  C_38
REMARK   14  A    between atoms: C_34  and  C_41
REMARK   15  A    between atoms: C_36  and  N_42
REMARK   16  A    between atoms: C_37  and  C_41
REMARK   17  A    between atoms: C_37  and  N_42
REMARK                            x       y       z     vdW  Elec       q    Type
REMARK                         _______ _______ _______ _____ _____    ______ ____
ROOT
ATOM      1  C   UNL A   1     -24.004   0.823  28.160  0.00  0.00    +0.181 C 
ENDROOT
BRANCH   1   2
ATOM      2  O   UNL A   1     -22.971   0.521  28.470  0.00  0.00    -0.338 OA
ATOM      3  C   UNL A   1     -22.366   0.096  29.687  0.00  0.00    +0.176 C 
ENDBRANCH   1   2
BRANCH   1   4
ATOM      4  C   UNL A   1     -24.240   1.267  26.928  0.00  0.00    +0.068 C 
BRANCH   4   5
ATOM      5  C   UNL A   1     -25.688   1.614  26.461  0.00  0.00    +0.019 C 
ATOM      6  C   UNL A   1     -26.250   2.920  26.395  0.00  0.00    +0.073 C 
ATOM      7  C   UNL A   1     -27.438   3.091  25.645  0.00  0.00    +0.106 C 
ATOM      8  N   UNL A   1     -28.075   2.089  25.003  0.00  0.00    -0.208 NA
ATOM      9  C   UNL A   1     -27.543   0.849  25.079  0.00  0.00    +0.253 C 
ATOM     10  C   UNL A   1     -26.354   0.576  25.777  0.00  0.00    +0.189 C 
ATOM     11  F   UNL A   1     -25.860  -0.681  25.795  0.00  0.00    -0.200 F 
BRANCH   6  12
ATOM     12  C   UNL A   1     -25.642   4.093  27.123  0.00  0.00    +0.266 C 
ATOM     13  N   UNL A   1     -25.614   5.252  26.449  0.00  0.00    -0.200 NA
ATOM     14  C   UNL A   1     -25.026   6.479  26.963  0.00  0.00    +0.139 C 
ATOM     15  O   UNL A   1     -25.143   3.966  28.243  0.00  0.00    -0.268 OA
ENDBRANCH   6  12
BRANCH   9  16
ATOM     16  O   UNL A   1     -28.193  -0.208  24.477  0.00  0.00    -0.456 OA
BRANCH  16  17
ATOM     17  C   UNL A   1     -29.460   0.005  23.866  0.00  0.00    +0.243 C 
BRANCH  17  18
ATOM     18  C   UNL A   1     -30.065  -1.377  23.573  0.00  0.00    +0.229 C 
ATOM     19  O   UNL A   1     -30.729  -1.878  24.721  0.00  0.00    -0.216 OA
ENDBRANCH  17  18
ENDBRANCH  16  17
ENDBRANCH   9  16
ENDBRANCH   4   5
BRANCH   4  21
ATOM     20  C   UNL A   1     -22.112   1.947  26.053  0.00  0.00    +0.001 C 
ATOM     21  C   UNL A   1     -23.448   2.287  26.103  0.00  0.00    +0.008 C 
ENDBRANCH   4  21
ENDBRANCH   1   4
BRANCH   1  22
ATOM     22  N   UNL A   1     -25.168  -0.007  28.942  0.00  0.00    -0.244 NA
BRANCH  22  23
ATOM     23  C   UNL A   1     -24.855  -1.012  30.143  0.00  0.00    +0.098 C 
BRANCH  23  24
ATOM     24  C   UNL A   1     -24.973  -2.505  29.788  0.00  0.00    -0.006 C 
ATOM     25  C   UNL A   1     -23.906  -3.173  29.146  0.00  0.00    -0.003 C 
ATOM     26  C   UNL A   1     -23.989  -4.549  28.853  0.00  0.00    -0.000 C 
ATOM     27  C   UNL A   1     -25.137  -5.280  29.205  0.00  0.00    -0.000 C 
ATOM     28  C   UNL A   1     -26.232  -4.611  29.784  0.00  0.00    -0.000 C 
ATOM     29  C   UNL A   1     -26.155  -3.232  30.065  0.00  0.00    -0.003 C 
ENDBRANCH  23  24
BRANCH  23  30
ATOM     30  C   UNL A   1     -25.387  -0.679  31.571  0.00  0.00    +0.092 C 
ATOM     31  C   UNL A   1     -25.189   0.773  32.028  0.00  0.00    +0.021 C 
ATOM     32  C   UNL A   1     -25.336   0.684  33.544  0.00  0.00    +0.020 C 
ATOM     33  C   UNL A   1     -24.829  -0.715  33.905  0.00  0.00    +0.089 C 
ATOM     34  N   UNL A   1     -24.758  -1.481  32.646  0.00  0.00    -0.218 NA
ENDBRANCH  23  30
ENDBRANCH  22  23
BRANCH  22  35
ATOM     35  C   UNL A   1     -26.504   0.822  28.880  0.00  0.00    +0.107 C 
BRANCH  35  37
ATOM     36  O   UNL A   1     -27.944  -1.066  29.512  0.00  0.00    -0.222 OA
ATOM     37  C   UNL A   1     -27.907   0.177  28.804  0.00  0.00    +0.168 C 
BRANCH  37  38
ATOM     38  C   UNL A   1     -28.839   1.103  29.538  0.00  0.00    +0.040 C 
BRANCH  38  39
ATOM     39  C   UNL A   1     -30.114   1.015  30.051  0.00  0.00    +0.040 C 
BRANCH  39  40
ATOM     40  C   UNL A   1     -30.841   0.261  29.142  0.00  0.00    +0.059 C 
ATOM     41  O   UNL A   1     -29.835  -0.613  27.150  0.00  0.00    -0.231 OA
ATOM     42  C   UNL A   1     -30.242  -0.105  28.218  0.00  0.00    +0.129 C 
ENDBRANCH  39  40
ENDBRANCH  38  39
ENDBRANCH  37  38
ENDBRANCH  35  37
ENDBRANCH  22  35
ENDBRANCH   1  22
TORSDOF 17
