REMARK  Name = outputs/IAG933/test6/raw/output_6427_IAG933_linker_design_.xyz
REMARK  12 active torsions:
REMARK  status: ('A' for Active; 'I' for Inactive)
REMARK    1  A    between atoms: C_1  and  C_2
REMARK    2  A    between atoms: C_1  and  C_8
REMARK    3  A    between atoms: C_9  and  CA_36
REMARK    4  A    between atoms: C_13  and  O_38
REMARK    5  A    between atoms: C_14  and  C_15
REMARK    6  A    between atoms: C_21  and  O_22
REMARK    7  A    between atoms: O_22  and  C_23
REMARK    8  A    between atoms: C_23  and  C_24
REMARK    9  A    between atoms: C_29  and  CA_36
REMARK   10  A    between atoms: C_30  and  O_38
REMARK   11  A    between atoms: C_33  and  N_37
REMARK   12  A    between atoms: CA_36  and  N_37
REMARK                            x       y       z     vdW  Elec       q    Type
REMARK                         _______ _______ _______ _____ _____    ______ ____
ROOT
ATOM      1  C   UNL A   1     -21.199   1.009  27.933  0.00  0.00    +0.047 C 
ATOM      2  C   UNL A   1     -23.608   1.610  27.113  0.00  0.00    +0.195 C 
ATOM      3  C   UNL A   1     -22.346   0.641  28.648  0.00  0.00    +0.214 C 
ATOM      4  O   UNL A   1     -22.752   2.872  25.211  0.00  0.00    -0.283 OA
ATOM      5  C   UNL A   1     -23.567   1.289  28.426  0.00  0.00    +0.141 C 
ATOM      6  C   UNL A   1     -22.515   2.111  26.265  0.00  0.00    +0.231 C 
ATOM      7  C   UNL A   1     -21.271   1.720  26.717  0.00  0.00    +0.049 C 
ATOM      8  O   UNL A   1     -22.438  -0.436  29.344  0.00  0.00    -0.285 OA
ENDROOT
BRANCH   5   9
ATOM      9  N   UNL A   1     -24.597   1.533  29.396  0.00  0.00    -0.231 NA
BRANCH   9  10
ATOM     10  CA  UNL A   1     -24.437   1.657  30.904  0.00  0.00    +0.127 C 
BRANCH  10  12
ATOM     11  C   UNL A   1     -25.387  -0.679  31.571  0.00  0.00    +0.079 C 
ATOM     12  C   UNL A   1     -25.189   0.773  32.028  0.00  0.00    +0.040 C 
ATOM     13  C   UNL A   1     -25.336   0.684  33.544  0.00  0.00    +0.022 C 
ATOM     14  C   UNL A   1     -24.829  -0.715  33.905  0.00  0.00    +0.089 C 
ATOM     15  N   UNL A   1     -24.758  -1.481  32.646  0.00  0.00    -0.219 NA
BRANCH  11  16
ATOM     16  C   UNL A   1     -24.855  -1.012  30.143  0.00  0.00    +0.044 C 
BRANCH  16  17
ATOM     17  C   UNL A   1     -24.973  -2.505  29.788  0.00  0.00    -0.021 C 
ATOM     18  C   UNL A   1     -23.906  -3.173  29.146  0.00  0.00    -0.004 C 
ATOM     19  C   UNL A   1     -23.989  -4.549  28.853  0.00  0.00    -0.000 C 
ATOM     20  C   UNL A   1     -25.137  -5.280  29.205  0.00  0.00    -0.000 C 
ATOM     21  C   UNL A   1     -26.232  -4.611  29.784  0.00  0.00    -0.000 C 
ATOM     22  C   UNL A   1     -26.155  -3.232  30.065  0.00  0.00    -0.004 C 
ENDBRANCH  16  17
ENDBRANCH  11  16
ENDBRANCH  10  12
BRANCH  10  23
ATOM     23  C   UNL A   1     -24.773   2.949  31.448  0.00  0.00    +0.203 C 
ATOM     24  O   UNL A   1     -25.071   3.804  32.082  0.00  0.00    -0.218 OA
ENDBRANCH  10  23
ENDBRANCH   9  10
ENDBRANCH   5   9
BRANCH   2  25
ATOM     25  O   UNL A   1     -24.479   1.376  26.656  0.00  0.00    -0.467 OA
BRANCH  25  26
ATOM     26  C   UNL A   1     -25.688   1.614  26.461  0.00  0.00    +0.236 C 
ATOM     27  C   UNL A   1     -26.250   2.920  26.395  0.00  0.00    +0.095 C 
ATOM     28  C   UNL A   1     -27.438   3.091  25.645  0.00  0.00    +0.106 C 
ATOM     29  N   UNL A   1     -28.075   2.089  25.003  0.00  0.00    -0.212 NA
ATOM     30  C   UNL A   1     -27.543   0.849  25.079  0.00  0.00    +0.238 C 
ATOM     31  C   UNL A   1     -26.354   0.576  25.777  0.00  0.00    +0.280 C 
ATOM     32  F   UNL A   1     -25.860  -0.681  25.795  0.00  0.00    -0.223 F 
BRANCH  27  33
ATOM     33  C   UNL A   1     -25.642   4.093  27.123  0.00  0.00    +0.266 C 
ATOM     34  N   UNL A   1     -25.614   5.252  26.449  0.00  0.00    -0.200 NA
ATOM     35  C   UNL A   1     -25.026   6.479  26.963  0.00  0.00    +0.139 C 
ATOM     36  O   UNL A   1     -25.143   3.966  28.243  0.00  0.00    -0.269 OA
ENDBRANCH  27  33
BRANCH  30  37
ATOM     37  O   UNL A   1     -28.193  -0.208  24.477  0.00  0.00    -0.458 OA
BRANCH  37  38
ATOM     38  C   UNL A   1     -29.460   0.005  23.866  0.00  0.00    +0.242 C 
BRANCH  38  39
ATOM     39  C   UNL A   1     -30.065  -1.377  23.573  0.00  0.00    +0.229 C 
ATOM     40  O   UNL A   1     -30.729  -1.878  24.721  0.00  0.00    -0.216 OA
ENDBRANCH  38  39
ENDBRANCH  37  38
ENDBRANCH  30  37
ENDBRANCH  25  26
ENDBRANCH   2  25
TORSDOF 12
