MODEL 642
MODEL 1
REMARK VINA RESULT:    -4.937      0.000      0.000
REMARK INTER + INTRA:          -5.565
REMARK INTER:                  -5.514
REMARK INTRA:                  -0.051
REMARK UNBOUND:                -0.051
REMARK  Name = No_642-gen_results/8p0m/2024-11-27-11-27-31/
REMARK  2 active torsions:
REMARK  status: ('A' for Active; 'I' for Inactive)
REMARK    1  A    between atoms: C_1  and  C_8
REMARK    2  A    between atoms: C_5  and  C_10
REMARK                            x       y       z     vdW  Elec       q    Type
REMARK                         _______ _______ _______ _____ _____    ______ ____
ROOT
ATOM      1  C   UNL A   1     -24.294  -3.128  29.501  0.00  0.00    +0.001 C 
ATOM      2  C   UNL A   1     -23.921  -2.083  29.021  0.00  0.00    -0.046 C 
ATOM      3  C   UNL A   1     -24.725  -1.272  28.220  0.00  0.00    +0.022 C 
ATOM      4  C   UNL A   1     -24.351   0.007  27.586  0.00  0.00    +0.010 C 
ATOM      5  C   UNL A   1     -23.104   0.566  28.003  0.00  0.00    +0.044 C 
ATOM      6  C   UNL A   1     -22.285  -0.194  28.844  0.00  0.00    +0.010 C 
ATOM      7  C   UNL A   1     -22.644  -1.403  29.333  0.00  0.00    +0.022 C 
ENDROOT
BRANCH   1   8
ATOM      8  C   UNL A   1     -24.149  -4.284  28.532  0.00  0.00    +0.208 C 
ATOM      9  O   UNL A   1     -24.672  -5.457  28.888  0.00  0.00    -0.215 OA
ENDBRANCH   1   8
BRANCH   5  10
ATOM     10  C   UNL A   1     -22.758   1.854  27.422  0.00  0.00    +0.095 C 
ATOM     11  N   UNL A   1     -23.592   2.880  27.497  0.00  0.00    -0.151 NA
ENDBRANCH   5  10
TORSDOF 2
ENDMDL
ENDMDL
