REMARK  Name = outputs/IAG933/test6/raw/output_643_IAG933_linker_design_.xyz
REMARK  9 active torsions:
REMARK  status: ('A' for Active; 'I' for Inactive)
REMARK    1  A    between atoms: C_1  and  C_2
REMARK    2  A    between atoms: C_1  and  C_8
REMARK    3  A    between atoms: C_1  and  C_36
REMARK    4  A    between atoms: C_13  and  C_30
REMARK    5  A    between atoms: C_14  and  C_15
REMARK    6  A    between atoms: C_21  and  O_22
REMARK    7  A    between atoms: O_22  and  C_23
REMARK    8  A    between atoms: C_23  and  C_24
REMARK    9  A    between atoms: C_33  and  N_35
REMARK                            x       y       z     vdW  Elec       q    Type
REMARK                         _______ _______ _______ _____ _____    ______ ____
ROOT
ATOM      1  C   UNL A   1     -23.070   1.779  26.040  0.00  0.00    +0.055 C 
ATOM      2  C   UNL A   1     -24.239   1.396  26.806  0.00  0.00    +0.009 C 
ATOM      3 CL   UNL A   1     -23.280   2.463  24.505  0.00  0.00    -0.083 Cl
ATOM      4  C   UNL A   1     -24.027   0.953  28.084  0.00  0.00    +0.045 C 
ATOM      5  C   UNL A   1     -21.784   1.674  26.533  0.00  0.00    +0.011 C 
ATOM      6  C   UNL A   1     -21.610   1.128  27.831  0.00  0.00    +0.002 C 
ATOM      7  C   UNL A   1     -22.721   0.726  28.594  0.00  0.00    +0.014 C 
ENDROOT
BRANCH   4  11
ATOM      8  C   UNL A   1     -28.406   3.099  29.514  0.00  0.00    +0.023 C 
ATOM      9  N   UNL A   1     -27.607   0.863  30.021  0.00  0.00    -0.276 N 
ATOM     10  C   UNL A   1     -26.021   2.081  29.314  0.00  0.00    +0.111 C 
ATOM     11  N   UNL A   1     -25.176   1.014  28.866  0.00  0.00    -0.300 N 
ATOM     12  C   UNL A   1     -25.716  -0.303  29.111  0.00  0.00    +0.155 C 
ATOM     13  C   UNL A   1     -27.331   1.925  29.592  0.00  0.00    +0.095 C 
ATOM     14  C   UNL A   1     -28.073   1.224  31.373  0.00  0.00    +0.115 C 
ATOM     15  C   UNL A   1     -27.166  -0.196  29.193  0.00  0.00    +0.244 C 
ATOM     16  O   UNL A   1     -27.869  -0.779  28.471  0.00  0.00    -0.273 OA
BRANCH  12  17
ATOM     17  C   UNL A   1     -24.855  -1.012  30.143  0.00  0.00    +0.065 C 
BRANCH  17  18
ATOM     18  C   UNL A   1     -24.973  -2.505  29.788  0.00  0.00    -0.019 C 
ATOM     19  C   UNL A   1     -23.906  -3.173  29.146  0.00  0.00    -0.004 C 
ATOM     20  C   UNL A   1     -23.989  -4.549  28.853  0.00  0.00    -0.000 C 
ATOM     21  C   UNL A   1     -25.137  -5.280  29.205  0.00  0.00    -0.000 C 
ATOM     22  C   UNL A   1     -26.232  -4.611  29.784  0.00  0.00    -0.000 C 
ATOM     23  C   UNL A   1     -26.155  -3.232  30.065  0.00  0.00    -0.004 C 
ENDBRANCH  17  18
BRANCH  17  24
ATOM     24  C   UNL A   1     -25.387  -0.679  31.571  0.00  0.00    +0.079 C 
ATOM     25  C   UNL A   1     -25.189   0.773  32.028  0.00  0.00    +0.019 C 
ATOM     26  C   UNL A   1     -25.336   0.684  33.544  0.00  0.00    +0.020 C 
ATOM     27  C   UNL A   1     -24.829  -0.715  33.905  0.00  0.00    +0.089 C 
ATOM     28  N   UNL A   1     -24.758  -1.481  32.646  0.00  0.00    -0.219 NA
ENDBRANCH  17  24
ENDBRANCH  12  17
ENDBRANCH   4  11
BRANCH   2  29
ATOM     29  C   UNL A   1     -25.688   1.614  26.461  0.00  0.00    +0.094 C 
ATOM     30  C   UNL A   1     -26.250   2.920  26.395  0.00  0.00    +0.059 C 
ATOM     31  C   UNL A   1     -27.438   3.091  25.645  0.00  0.00    +0.102 C 
ATOM     32  N   UNL A   1     -28.075   2.089  25.003  0.00  0.00    -0.212 NA
ATOM     33  C   UNL A   1     -27.543   0.849  25.079  0.00  0.00    +0.234 C 
ATOM     34  C   UNL A   1     -26.354   0.576  25.777  0.00  0.00    +0.244 C 
ATOM     35  F   UNL A   1     -25.860  -0.681  25.795  0.00  0.00    -0.227 F 
BRANCH  30  36
ATOM     36  C   UNL A   1     -25.642   4.093  27.123  0.00  0.00    +0.263 C 
ATOM     37  N   UNL A   1     -25.614   5.252  26.449  0.00  0.00    -0.200 NA
ATOM     38  C   UNL A   1     -25.026   6.479  26.963  0.00  0.00    +0.139 C 
ATOM     39  O   UNL A   1     -25.143   3.966  28.243  0.00  0.00    -0.269 OA
ENDBRANCH  30  36
BRANCH  33  40
ATOM     40  O   UNL A   1     -28.193  -0.208  24.477  0.00  0.00    -0.459 OA
BRANCH  40  41
ATOM     41  C   UNL A   1     -29.460   0.005  23.866  0.00  0.00    +0.242 C 
BRANCH  41  42
ATOM     42  C   UNL A   1     -30.065  -1.377  23.573  0.00  0.00    +0.229 C 
ATOM     43  O   UNL A   1     -30.729  -1.878  24.721  0.00  0.00    -0.216 OA
ENDBRANCH  41  42
ENDBRANCH  40  41
ENDBRANCH  33  40
ENDBRANCH   2  29
TORSDOF 9
