REMARK  Name = outputs/IAG933/test6/raw/output_6431_IAG933_linker_design_.xyz
REMARK  15 active torsions:
REMARK  status: ('A' for Active; 'I' for Inactive)
REMARK    1  A    between atoms: C_1  and  C_2
REMARK    2  A    between atoms: C_1  and  C_8
REMARK    3  A    between atoms: C_1  and  N_36
REMARK    4  A    between atoms: C_14  and  C_15
REMARK    5  A    between atoms: C_15  and  O_18
REMARK    6  A    between atoms: O_18  and  C_34
REMARK    7  A    between atoms: C_21  and  O_22
REMARK    8  A    between atoms: O_22  and  C_23
REMARK    9  A    between atoms: C_23  and  C_24
REMARK   10  A    between atoms: O_28  and  C_38
REMARK   11  A    between atoms: C_29  and  C_34
REMARK   12  A    between atoms: C_29  and  C_35
REMARK   13  A    between atoms: C_34  and  C_38
REMARK   14  A    between atoms: C_35  and  N_36
REMARK   15  A    between atoms: N_36  and  C_40
REMARK                            x       y       z     vdW  Elec       q    Type
REMARK                         _______ _______ _______ _____ _____    ______ ____
ROOT
ATOM      1  C   UNL A   1     -25.788   1.164  29.884  0.00  0.00    +0.095 C 
ENDROOT
BRANCH   1   2
ATOM      2  C   UNL A   1     -26.506   2.258  29.759  0.00  0.00    +0.068 C 
BRANCH   2   3
ATOM      3  C   UNL A   1     -25.893   3.506  29.283  0.00  0.00    +0.201 C 
BRANCH   3   4
ATOM      4  O   UNL A   1     -25.143   3.966  28.243  0.00  0.00    -0.461 OA
BRANCH   4   5
ATOM      5  C   UNL A   1     -25.642   4.093  27.123  0.00  0.00    +0.222 C 
ATOM      6  N   UNL A   1     -25.614   5.252  26.449  0.00  0.00    -0.236 NA
ATOM      7  C   UNL A   1     -25.026   6.479  26.963  0.00  0.00    +0.155 C 
BRANCH   5   9
ATOM      8  C   UNL A   1     -25.688   1.614  26.461  0.00  0.00    +0.041 C 
ATOM      9  C   UNL A   1     -26.250   2.920  26.395  0.00  0.00    +0.074 C 
ATOM     10  C   UNL A   1     -27.438   3.091  25.645  0.00  0.00    +0.107 C 
ATOM     11  N   UNL A   1     -28.075   2.089  25.003  0.00  0.00    -0.208 NA
ATOM     12  C   UNL A   1     -27.543   0.849  25.079  0.00  0.00    +0.253 C 
ATOM     13  C   UNL A   1     -26.354   0.576  25.777  0.00  0.00    +0.193 C 
ATOM     14  F   UNL A   1     -25.860  -0.681  25.795  0.00  0.00    -0.199 F 
BRANCH  12  15
ATOM     15  O   UNL A   1     -28.193  -0.208  24.477  0.00  0.00    -0.456 OA
BRANCH  15  16
ATOM     16  C   UNL A   1     -29.460   0.005  23.866  0.00  0.00    +0.243 C 
BRANCH  16  17
ATOM     17  C   UNL A   1     -30.065  -1.377  23.573  0.00  0.00    +0.229 C 
ATOM     18  O   UNL A   1     -30.729  -1.878  24.721  0.00  0.00    -0.216 OA
ENDBRANCH  16  17
ENDBRANCH  15  16
ENDBRANCH  12  15
ENDBRANCH   5   9
ENDBRANCH   4   5
ENDBRANCH   3   4
BRANCH   3  19
ATOM     19  C   UNL A   1     -26.640   4.606  30.015  0.00  0.00    +0.213 C 
BRANCH  19  20
ATOM     20  O   UNL A   1     -26.703   4.331  31.448  0.00  0.00    -0.245 OA
ATOM     21  N   UNL A   1     -26.254   3.326  32.264  0.00  0.00    +0.042 NA
ENDBRANCH  19  20
ENDBRANCH   3  19
ENDBRANCH   2   3
ENDBRANCH   1   2
BRANCH   1  22
ATOM     22  N   UNL A   1     -24.483   0.120  29.507  0.00  0.00    -0.303 N 
BRANCH  22  28
ATOM     23  C   UNL A   1     -21.373   0.873  27.911  0.00  0.00    +0.031 C 
ATOM     24  C   UNL A   1     -22.227   0.394  28.931  0.00  0.00    +0.103 C 
ATOM     25 CL   UNL A   1     -21.489   2.138  25.383  0.00  0.00    -0.082 Cl
ATOM     26  C   UNL A   1     -23.085   2.463  27.290  0.00  0.00    +0.013 C 
ATOM     27  C   UNL A   1     -23.793   2.025  28.313  0.00  0.00    +0.017 C 
ATOM     28  C   UNL A   1     -23.549   0.861  28.952  0.00  0.00    +0.065 C 
ATOM     29  N   UNL A   1     -21.906  -0.372  29.939  0.00  0.00    -0.127 NA
ATOM     30  C   UNL A   1     -21.953   1.779  26.991  0.00  0.00    +0.059 C 
ENDBRANCH  22  28
BRANCH  22  31
ATOM     31  C   UNL A   1     -24.855  -1.012  30.143  0.00  0.00    +0.111 C 
BRANCH  31  32
ATOM     32  C   UNL A   1     -24.973  -2.505  29.788  0.00  0.00    -0.003 C 
ATOM     33  C   UNL A   1     -23.906  -3.173  29.146  0.00  0.00    -0.003 C 
ATOM     34  C   UNL A   1     -23.989  -4.549  28.853  0.00  0.00    -0.000 C 
ATOM     35  C   UNL A   1     -25.137  -5.280  29.205  0.00  0.00    -0.000 C 
ATOM     36  C   UNL A   1     -26.232  -4.611  29.784  0.00  0.00    -0.000 C 
ATOM     37  C   UNL A   1     -26.155  -3.232  30.065  0.00  0.00    -0.003 C 
ENDBRANCH  31  32
BRANCH  31  38
ATOM     38  C   UNL A   1     -25.387  -0.679  31.571  0.00  0.00    +0.095 C 
ATOM     39  C   UNL A   1     -25.189   0.773  32.028  0.00  0.00    +0.021 C 
ATOM     40  C   UNL A   1     -25.336   0.684  33.544  0.00  0.00    +0.020 C 
ATOM     41  C   UNL A   1     -24.829  -0.715  33.905  0.00  0.00    +0.089 C 
ATOM     42  N   UNL A   1     -24.758  -1.481  32.646  0.00  0.00    -0.217 NA
ENDBRANCH  31  38
ENDBRANCH  22  31
ENDBRANCH   1  22
TORSDOF 15
