REMARK  Name = outputs/IAG933/test6/raw/output_6434_IAG933_linker_design_.xyz
REMARK  13 active torsions:
REMARK  status: ('A' for Active; 'I' for Inactive)
REMARK    1  A    between atoms: C_1  and  C_2
REMARK    2  A    between atoms: C_1  and  C_8
REMARK    3  A    between atoms: C_1  and  C_34
REMARK    4  A    between atoms: C_13  and  C_35
REMARK    5  A    between atoms: C_14  and  C_15
REMARK    6  A    between atoms: C_21  and  O_22
REMARK    7  A    between atoms: O_22  and  C_23
REMARK    8  A    between atoms: C_23  and  C_24
REMARK    9  A    between atoms: C_24  and  O_25
REMARK   10  A    between atoms: O_25  and  C_37
REMARK   11  A    between atoms: C_31  and  C_42
REMARK   12  A    between atoms: C_31  and  C_44
REMARK   13  A    between atoms: C_36  and  C_42
REMARK                            x       y       z     vdW  Elec       q    Type
REMARK                         _______ _______ _______ _____ _____    ______ ____
ROOT
ATOM      1  O   UNL A   1     -32.057  -1.340  30.806  0.00  0.00    -0.275 OA
ATOM      2  C   UNL A   1     -31.097  -0.934  30.169  0.00  0.00    +0.225 C 
ATOM      3  C   UNL A   1     -30.889  -1.276  26.045  0.00  0.00    +0.135 C 
ATOM      4  N   UNL A   1     -31.067  -0.632  28.824  0.00  0.00    -0.277 N 
ATOM      5  C   UNL A   1     -31.288   1.149  27.146  0.00  0.00    +0.024 C 
ATOM      6  C   UNL A   1     -31.017  -1.677  27.609  0.00  0.00    +0.123 C 
ATOM      7  C   UNL A   1     -31.482   0.140  25.994  0.00  0.00    +0.033 C 
ATOM      8  C   UNL A   1     -31.729   0.638  28.516  0.00  0.00    +0.094 C 
ENDROOT
BRANCH   2  11
ATOM      9  C   UNL A   1     -29.141  -2.550  30.733  0.00  0.00    +0.009 C 
ATOM     10  C   UNL A   1     -30.072  -0.828  32.436  0.00  0.00    +0.009 C 
ATOM     11  C   UNL A   1     -29.746  -0.987  31.046  0.00  0.00    +0.074 C 
BRANCH  11  12
ATOM     12  C   UNL A   1     -28.918   0.100  30.466  0.00  0.00    +0.043 C 
BRANCH  12  15
ATOM     13  C   UNL A   1     -26.733   0.247  29.244  0.00  0.00    -0.110 C 
ATOM     14  C   UNL A   1     -25.630  -0.399  29.210  0.00  0.00    +0.020 C 
ATOM     15  C   UNL A   1     -27.813   0.560  29.606  0.00  0.00    +0.015 C 
BRANCH  14  16
ATOM     16  C   UNL A   1     -24.855  -1.012  30.143  0.00  0.00    +0.068 C 
BRANCH  16  17
ATOM     17  C   UNL A   1     -24.973  -2.505  29.788  0.00  0.00    -0.017 C 
ATOM     18  C   UNL A   1     -23.906  -3.173  29.146  0.00  0.00    -0.004 C 
ATOM     19  C   UNL A   1     -23.989  -4.549  28.853  0.00  0.00    -0.000 C 
ATOM     20  C   UNL A   1     -25.137  -5.280  29.205  0.00  0.00    -0.000 C 
ATOM     21  C   UNL A   1     -26.232  -4.611  29.784  0.00  0.00    -0.000 C 
ATOM     22  C   UNL A   1     -26.155  -3.232  30.065  0.00  0.00    -0.004 C 
ENDBRANCH  16  17
BRANCH  16  23
ATOM     23  C   UNL A   1     -25.387  -0.679  31.571  0.00  0.00    +0.082 C 
ATOM     24  C   UNL A   1     -25.189   0.773  32.028  0.00  0.00    +0.019 C 
ATOM     25  C   UNL A   1     -25.336   0.684  33.544  0.00  0.00    +0.020 C 
ATOM     26  C   UNL A   1     -24.829  -0.715  33.905  0.00  0.00    +0.089 C 
ATOM     27  N   UNL A   1     -24.758  -1.481  32.646  0.00  0.00    -0.219 NA
ENDBRANCH  16  23
ENDBRANCH  14  16
ENDBRANCH  12  15
ENDBRANCH  11  12
ENDBRANCH   2  11
BRANCH   3  28
ATOM     28  O   UNL A   1     -30.729  -1.878  24.721  0.00  0.00    -0.350 OA
BRANCH  28  29
ATOM     29  C   UNL A   1     -30.065  -1.377  23.573  0.00  0.00    +0.189 C 
BRANCH  29  30
ATOM     30  C   UNL A   1     -29.460   0.005  23.866  0.00  0.00    +0.239 C 
BRANCH  30  31
ATOM     31  O   UNL A   1     -28.193  -0.208  24.477  0.00  0.00    -0.456 OA
BRANCH  31  36
ATOM     32  C   UNL A   1     -25.688   1.614  26.461  0.00  0.00    +0.038 C 
ATOM     33  C   UNL A   1     -26.250   2.920  26.395  0.00  0.00    +0.076 C 
ATOM     34  C   UNL A   1     -27.438   3.091  25.645  0.00  0.00    +0.107 C 
ATOM     35  N   UNL A   1     -28.075   2.089  25.003  0.00  0.00    -0.208 NA
ATOM     36  C   UNL A   1     -27.543   0.849  25.079  0.00  0.00    +0.253 C 
ATOM     37  C   UNL A   1     -26.354   0.576  25.777  0.00  0.00    +0.193 C 
ATOM     38  F   UNL A   1     -25.860  -0.681  25.795  0.00  0.00    -0.199 F 
BRANCH  32  41
ATOM     39  C   UNL A   1     -23.259   0.718  28.451  0.00  0.00    +0.000 C 
ATOM     40  C   UNL A   1     -21.884   1.027  28.241  0.00  0.00    +0.002 C 
ATOM     41  C   UNL A   1     -24.238   1.391  27.616  0.00  0.00    +0.005 C 
ATOM     42  C   UNL A   1     -23.760   2.107  26.517  0.00  0.00    +0.030 C 
ATOM     43  C   UNL A   1     -22.517   2.036  26.100  0.00  0.00    +0.140 C 
ATOM     44  C   UNL A   1     -21.495   1.639  27.070  0.00  0.00    +0.030 C 
ATOM     45  F   UNL A   1     -22.206   2.232  24.794  0.00  0.00    -0.204 F 
ENDBRANCH  32  41
BRANCH  33  46
ATOM     46  C   UNL A   1     -25.642   4.093  27.123  0.00  0.00    +0.266 C 
ATOM     47  N   UNL A   1     -25.614   5.252  26.449  0.00  0.00    -0.200 NA
ATOM     48  C   UNL A   1     -25.026   6.479  26.963  0.00  0.00    +0.139 C 
ATOM     49  O   UNL A   1     -25.143   3.966  28.243  0.00  0.00    -0.268 OA
ENDBRANCH  33  46
ENDBRANCH  31  36
ENDBRANCH  30  31
ENDBRANCH  29  30
ENDBRANCH  28  29
ENDBRANCH   3  28
TORSDOF 13
