REMARK  Name = outputs/IAG933/test6/raw/output_6435_IAG933_linker_design_.xyz
REMARK  12 active torsions:
REMARK  status: ('A' for Active; 'I' for Inactive)
REMARK    1  A    between atoms: C_1  and  C_2
REMARK    2  A    between atoms: C_1  and  C_8
REMARK    3  A    between atoms: C_1  and  C_32
REMARK    4  A    between atoms: C_13  and  N_37
REMARK    5  A    between atoms: C_14  and  C_15
REMARK    6  A    between atoms: C_21  and  O_22
REMARK    7  A    between atoms: O_22  and  C_23
REMARK    8  A    between atoms: C_23  and  C_24
REMARK    9  A    between atoms: C_29  and  C_41
REMARK   10  A    between atoms: C_32  and  C_41
REMARK   11  A    between atoms: C_32  and  N_45
REMARK   12  A    between atoms: C_34  and  N_45
REMARK                            x       y       z     vdW  Elec       q    Type
REMARK                         _______ _______ _______ _____ _____    ______ ____
ROOT
ATOM      1  C   UNL A   1     -24.851   1.085  28.591  0.00  0.00    +0.081 C 
ENDROOT
BRANCH   1   3
ATOM      2  O   UNL A   1     -20.547   1.030  28.251  0.00  0.00    -0.247 OA
ATOM      3  C   UNL A   1     -23.997   0.889  27.808  0.00  0.00    +0.255 C 
ATOM      4  C   UNL A   1     -22.002   1.636  26.399  0.00  0.00    +0.275 C 
ATOM      5  O   UNL A   1     -23.296   1.501  25.946  0.00  0.00    -0.267 OA
ATOM      6  O   UNL A   1     -22.869   0.425  28.457  0.00  0.00    -0.432 OA
ATOM      7  N   UNL A   1     -24.264   1.444  26.652  0.00  0.00    -0.122 NA
ATOM      8  C   UNL A   1     -21.803   1.001  27.636  0.00  0.00    +0.351 C 
BRANCH   7   9
ATOM      9  C   UNL A   1     -25.688   1.614  26.461  0.00  0.00    +0.157 C 
ATOM     10  C   UNL A   1     -26.250   2.920  26.395  0.00  0.00    +0.072 C 
ATOM     11  C   UNL A   1     -27.438   3.091  25.645  0.00  0.00    +0.103 C 
ATOM     12  N   UNL A   1     -28.075   2.089  25.003  0.00  0.00    -0.212 NA
ATOM     13  C   UNL A   1     -27.543   0.849  25.079  0.00  0.00    +0.236 C 
ATOM     14  C   UNL A   1     -26.354   0.576  25.777  0.00  0.00    +0.257 C 
ATOM     15  F   UNL A   1     -25.860  -0.681  25.795  0.00  0.00    -0.225 F 
BRANCH  10  16
ATOM     16  C   UNL A   1     -25.642   4.093  27.123  0.00  0.00    +0.264 C 
ATOM     17  N   UNL A   1     -25.614   5.252  26.449  0.00  0.00    -0.200 NA
ATOM     18  C   UNL A   1     -25.026   6.479  26.963  0.00  0.00    +0.139 C 
ATOM     19  O   UNL A   1     -25.143   3.966  28.243  0.00  0.00    -0.269 OA
ENDBRANCH  10  16
BRANCH  13  20
ATOM     20  O   UNL A   1     -28.193  -0.208  24.477  0.00  0.00    -0.459 OA
BRANCH  20  21
ATOM     21  C   UNL A   1     -29.460   0.005  23.866  0.00  0.00    +0.242 C 
BRANCH  21  22
ATOM     22  C   UNL A   1     -30.065  -1.377  23.573  0.00  0.00    +0.229 C 
ATOM     23  O   UNL A   1     -30.729  -1.878  24.721  0.00  0.00    -0.216 OA
ENDBRANCH  21  22
ENDBRANCH  20  21
ENDBRANCH  13  20
ENDBRANCH   7   9
ENDBRANCH   1   3
BRANCH   1  24
ATOM     24  C   UNL A   1     -25.506  -0.139  29.195  0.00  0.00    +0.086 C 
BRANCH  24  25
ATOM     25  C   UNL A   1     -24.855  -1.012  30.143  0.00  0.00    +0.055 C 
BRANCH  25  26
ATOM     26  C   UNL A   1     -24.973  -2.505  29.788  0.00  0.00    -0.020 C 
ATOM     27  C   UNL A   1     -23.906  -3.173  29.146  0.00  0.00    -0.004 C 
ATOM     28  C   UNL A   1     -23.989  -4.549  28.853  0.00  0.00    -0.000 C 
ATOM     29  C   UNL A   1     -25.137  -5.280  29.205  0.00  0.00    -0.000 C 
ATOM     30  C   UNL A   1     -26.232  -4.611  29.784  0.00  0.00    -0.000 C 
ATOM     31  C   UNL A   1     -26.155  -3.232  30.065  0.00  0.00    -0.004 C 
ENDBRANCH  25  26
BRANCH  25  32
ATOM     32  C   UNL A   1     -25.387  -0.679  31.571  0.00  0.00    +0.078 C 
ATOM     33  C   UNL A   1     -25.189   0.773  32.028  0.00  0.00    +0.019 C 
ATOM     34  C   UNL A   1     -25.336   0.684  33.544  0.00  0.00    +0.020 C 
ATOM     35  C   UNL A   1     -24.829  -0.715  33.905  0.00  0.00    +0.089 C 
ATOM     36  N   UNL A   1     -24.758  -1.481  32.646  0.00  0.00    -0.219 NA
ENDBRANCH  25  32
ENDBRANCH  24  25
BRANCH  24  37
ATOM     37  N   UNL A   1     -26.757   0.370  29.421  0.00  0.00    -0.186 NA
BRANCH  37  39
ATOM     38  C   UNL A   1     -29.957   0.973  29.825  0.00  0.00    +0.064 C 
ATOM     39  C   UNL A   1     -27.908  -0.062  29.549  0.00  0.00    +0.248 C 
ATOM     40  C   UNL A   1     -31.174   0.427  30.554  0.00  0.00    +0.008 C 
ATOM     41  O   UNL A   1     -28.579   0.581  31.775  0.00  0.00    -0.292 OA
ATOM     42  O   UNL A   1     -28.254  -1.004  28.626  0.00  0.00    -0.334 OA
ATOM     43  C   UNL A   1     -29.005  -0.222  27.688  0.00  0.00    +0.145 C 
ATOM     44  C   UNL A   1     -30.119   0.586  28.325  0.00  0.00    +0.040 C 
ATOM     45  C   UNL A   1     -28.800   0.567  30.529  0.00  0.00    +0.194 C 
ENDBRANCH  37  39
ENDBRANCH  24  37
ENDBRANCH   1  24
TORSDOF 12
