REMARK  Name = outputs/IAG933/test6/raw/output_6439_IAG933_linker_design_.xyz
REMARK  14 active torsions:
REMARK  status: ('A' for Active; 'I' for Inactive)
REMARK    1  A    between atoms: C_1  and  C_2
REMARK    2  A    between atoms: C_1  and  C_8
REMARK    3  A    between atoms: C_1  and  O_32
REMARK    4  A    between atoms: C_13  and  N_39
REMARK    5  A    between atoms: C_14  and  C_15
REMARK    6  A    between atoms: C_21  and  O_22
REMARK    7  A    between atoms: O_22  and  C_23
REMARK    8  A    between atoms: C_23  and  C_24
REMARK    9  A    between atoms: C_28  and  C_35
REMARK   10  A    between atoms: N_30  and  C_36
REMARK   11  A    between atoms: N_30  and  C_40
REMARK   12  A    between atoms: C_31  and  N_39
REMARK   13  A    between atoms: O_32  and  C_33
REMARK   14  A    between atoms: C_33  and  C_35
REMARK                            x       y       z     vdW  Elec       q    Type
REMARK                         _______ _______ _______ _____ _____    ______ ____
ROOT
ATOM      1  C   UNL A   1     -22.737   1.010  28.299  0.00  0.00    +0.046 C 
ATOM      2  C   UNL A   1     -23.477   1.440  27.121  0.00  0.00    +0.112 C 
ATOM      3  C   UNL A   1     -21.660   1.465  28.096  0.00  0.00    +0.232 C 
ATOM      4  O   UNL A   1     -21.737   2.228  26.021  0.00  0.00    -0.282 OA
ATOM      5  O   UNL A   1     -21.053   2.027  27.130  0.00  0.00    -0.283 OA
ATOM      6  C   UNL A   1     -22.978   1.914  26.080  0.00  0.00    +0.250 C 
ENDROOT
BRANCH   1   7
ATOM      7  C   UNL A   1     -22.802   0.272  29.633  0.00  0.00    +0.096 C 
BRANCH   7   8
ATOM      8  C   UNL A   1     -23.980   1.190  30.036  0.00  0.00    +0.137 C 
ATOM      9  C   UNL A   1     -23.847   2.562  31.117  0.00  0.00    +0.118 C 
BRANCH   9  10
ATOM     10  N   UNL A   1     -25.048   3.187  31.678  0.00  0.00    -0.180 NA
BRANCH  10  12
ATOM     11  C   UNL A   1     -25.909   5.487  30.868  0.00  0.00    +0.094 C 
ATOM     12  C   UNL A   1     -25.341   4.450  32.038  0.00  0.00    +0.336 C 
ATOM     13  O   UNL A   1     -24.191   5.193  32.429  0.00  0.00    -0.168 OA
ATOM     14  F   UNL A   1     -26.348   4.777  33.150  0.00  0.00    -0.184 F 
ENDBRANCH  10  12
ENDBRANCH   9  10
BRANCH   8  15
ATOM     15  O   UNL A   1     -25.090   0.191  29.486  0.00  0.00    -0.476 OA
BRANCH  15  16
ATOM     16  C   UNL A   1     -24.855  -1.012  30.143  0.00  0.00    +0.203 C 
BRANCH  16  17
ATOM     17  C   UNL A   1     -24.973  -2.505  29.788  0.00  0.00    +0.019 C 
ATOM     18  C   UNL A   1     -23.906  -3.173  29.146  0.00  0.00    -0.001 C 
ATOM     19  C   UNL A   1     -23.989  -4.549  28.853  0.00  0.00    -0.000 C 
ATOM     20  C   UNL A   1     -25.137  -5.280  29.205  0.00  0.00    -0.000 C 
ATOM     21  C   UNL A   1     -26.232  -4.611  29.784  0.00  0.00    -0.000 C 
ATOM     22  C   UNL A   1     -26.155  -3.232  30.065  0.00  0.00    -0.001 C 
ENDBRANCH  16  17
BRANCH  16  23
ATOM     23  C   UNL A   1     -25.387  -0.679  31.571  0.00  0.00    +0.117 C 
ATOM     24  C   UNL A   1     -25.189   0.773  32.028  0.00  0.00    +0.023 C 
ATOM     25  C   UNL A   1     -25.336   0.684  33.544  0.00  0.00    +0.020 C 
ATOM     26  C   UNL A   1     -24.829  -0.715  33.905  0.00  0.00    +0.089 C 
ATOM     27  N   UNL A   1     -24.758  -1.481  32.646  0.00  0.00    -0.215 NA
ENDBRANCH  16  23
ENDBRANCH  15  16
ENDBRANCH   8  15
ENDBRANCH   7   8
ENDBRANCH   1   7
BRANCH   2  28
ATOM     28  N   UNL A   1     -24.790   1.209  27.255  0.00  0.00    -0.207 NA
BRANCH  28  29
ATOM     29  C   UNL A   1     -25.688   1.614  26.461  0.00  0.00    +0.108 C 
ATOM     30  C   UNL A   1     -26.250   2.920  26.395  0.00  0.00    +0.092 C 
ATOM     31  C   UNL A   1     -27.438   3.091  25.645  0.00  0.00    +0.108 C 
ATOM     32  N   UNL A   1     -28.075   2.089  25.003  0.00  0.00    -0.208 NA
ATOM     33  C   UNL A   1     -27.543   0.849  25.079  0.00  0.00    +0.255 C 
ATOM     34  C   UNL A   1     -26.354   0.576  25.777  0.00  0.00    +0.208 C 
ATOM     35  F   UNL A   1     -25.860  -0.681  25.795  0.00  0.00    -0.198 F 
BRANCH  30  36
ATOM     36  C   UNL A   1     -25.642   4.093  27.123  0.00  0.00    +0.268 C 
ATOM     37  N   UNL A   1     -25.614   5.252  26.449  0.00  0.00    -0.200 NA
ATOM     38  C   UNL A   1     -25.026   6.479  26.963  0.00  0.00    +0.139 C 
ATOM     39  O   UNL A   1     -25.143   3.966  28.243  0.00  0.00    -0.268 OA
ENDBRANCH  30  36
BRANCH  33  40
ATOM     40  O   UNL A   1     -28.193  -0.208  24.477  0.00  0.00    -0.456 OA
BRANCH  40  41
ATOM     41  C   UNL A   1     -29.460   0.005  23.866  0.00  0.00    +0.243 C 
BRANCH  41  42
ATOM     42  C   UNL A   1     -30.065  -1.377  23.573  0.00  0.00    +0.229 C 
ATOM     43  O   UNL A   1     -30.729  -1.878  24.721  0.00  0.00    -0.216 OA
ENDBRANCH  41  42
ENDBRANCH  40  41
ENDBRANCH  33  40
ENDBRANCH  28  29
ENDBRANCH   2  28
TORSDOF 14
