MODEL 643
MODEL 1
REMARK VINA RESULT:    -6.882      0.000      0.000
REMARK INTER + INTRA:          -9.542
REMARK INTER:                  -8.894
REMARK INTRA:                  -0.648
REMARK UNBOUND:                -0.648
REMARK  Name = No_643-gen_results/8p0m/2024-11-27-11-27-31/
REMARK  5 active torsions:
REMARK  status: ('A' for Active; 'I' for Inactive)
REMARK    1  A    between atoms: C_1  and  C_2
REMARK    2  A    between atoms: C_1  and  C_8
REMARK    3  A    between atoms: C_5  and  C_15
REMARK    4  A    between atoms: C_7  and  C_18
REMARK    5  A    between atoms: C_18  and  N_19
REMARK                            x       y       z     vdW  Elec       q    Type
REMARK                         _______ _______ _______ _____ _____    ______ ____
ROOT
ATOM      1  C   UNL A   1     -23.522  -1.092  29.574  0.00  0.00    +0.070 A 
ATOM      2  N   UNL A   1     -23.264  -2.225  28.905  0.00  0.00    -0.222 NA
ATOM      3  C   UNL A   1     -24.139  -3.354  28.757  0.00  0.00    +0.228 A 
ATOM      4  C   UNL A   1     -25.196  -3.449  29.608  0.00  0.00    +0.126 A 
ATOM      5  C   UNL A   1     -25.466  -2.307  30.408  0.00  0.00    +0.016 A 
ATOM      6  C   UNL A   1     -24.655  -1.223  30.427  0.00  0.00    +0.070 A 
ATOM      7  F   UNL A   1     -23.727  -4.313  28.039  0.00  0.00    -0.183 F 
ENDROOT
BRANCH   4   8
ATOM      8  C   UNL A   1     -25.748  -4.812  29.579  0.00  0.00    +0.392 C 
ATOM      9  O   UNL A   1     -27.034  -4.927  29.767  0.00  0.00    -0.240 OA
ATOM     10  O   UNL A   1     -25.122  -5.988  29.600  0.00  0.00    -0.240 OA
ENDBRANCH   4   8
BRANCH   6  11
ATOM     11  C   UNL A   1     -25.066  -0.071  31.255  0.00  0.00    +0.270 C 
ATOM     12  O   UNL A   1     -25.780   0.823  30.785  0.00  0.00    -0.268 OA
BRANCH  11  13
ATOM     13  N   UNL A   1     -24.678  -0.044  32.447  0.00  0.00    -0.179 NA
ATOM     14  C   UNL A   1     -24.782  -0.504  33.395  0.00  0.00    +0.063 C 
ATOM     15  C   UNL A   1     -24.499  -0.753  34.331  0.00  0.00    +0.050 C 
ENDBRANCH  11  13
ENDBRANCH   6  11
BRANCH   1  16
ATOM     16  C   UNL A   1     -22.749  -0.167  29.668  0.00  0.00    +0.072 C 
BRANCH  16  17
ATOM     17  C   UNL A   1     -22.785   0.693  28.395  0.00  0.00    -0.016 A 
ATOM     18  C   UNL A   1     -21.531   1.085  27.823  0.00  0.00    -0.004 A 
ATOM     19  C   UNL A   1     -21.475   1.876  26.714  0.00  0.00    -0.000 A 
ATOM     20  C   UNL A   1     -22.727   2.249  26.108  0.00  0.00    -0.000 A 
ATOM     21  C   UNL A   1     -23.913   1.813  26.635  0.00  0.00    -0.000 A 
ATOM     22  C   UNL A   1     -23.942   1.036  27.753  0.00  0.00    -0.004 A 
ENDBRANCH  16  17
ENDBRANCH   1  16
TORSDOF 5
ENDMDL
ENDMDL
