REMARK  Name = outputs/IAG933/test6/raw/output_6440_IAG933_linker_design_.xyz
REMARK  8 active torsions:
REMARK  status: ('A' for Active; 'I' for Inactive)
REMARK    1  A    between atoms: C_1  and  C_2
REMARK    2  A    between atoms: C_13  and  C_35
REMARK    3  A    between atoms: C_14  and  C_15
REMARK    4  A    between atoms: C_21  and  O_22
REMARK    5  A    between atoms: O_22  and  C_23
REMARK    6  A    between atoms: C_23  and  C_24
REMARK    7  A    between atoms: C_29  and  C_32
REMARK    8  A    between atoms: C_33  and  C_37
REMARK                            x       y       z     vdW  Elec       q    Type
REMARK                         _______ _______ _______ _____ _____    ______ ____
ROOT
ATOM      1  C   UNL A   1     -23.435   1.808  26.050  0.00  0.00    +0.372 C 
ATOM      2  C   UNL A   1     -23.834   0.757  28.295  0.00  0.00    -0.019 C 
ATOM      3  F   UNL A   1     -20.406   2.192  27.917  0.00  0.00    -0.237 F 
ATOM      4  C   UNL A   1     -24.369   1.306  27.117  0.00  0.00    +0.057 C 
ATOM      5  C   UNL A   1     -21.962   1.640  26.321  0.00  0.00    +0.132 C 
ATOM      6  C   UNL A   1     -22.433   0.794  28.452  0.00  0.00    +0.053 C 
ATOM      7  O   UNL A   1     -23.692   1.010  24.832  0.00  0.00    -0.271 OA
ATOM      8  C   UNL A   1     -21.607   1.625  27.567  0.00  0.00    +0.173 C 
ATOM      9  O   UNL A   1     -23.741   3.096  25.475  0.00  0.00    -0.271 OA
ENDROOT
BRANCH   2  16
ATOM     10  C   UNL A   1     -24.855  -1.012  30.143  0.00  0.00    +0.063 C 
ATOM     11  C   UNL A   1     -25.387  -0.679  31.571  0.00  0.00    +0.087 C 
ATOM     12  C   UNL A   1     -25.189   0.773  32.028  0.00  0.00    +0.096 C 
ATOM     13  C   UNL A   1     -25.336   0.684  33.544  0.00  0.00    +0.029 C 
ATOM     14  C   UNL A   1     -24.829  -0.715  33.905  0.00  0.00    +0.089 C 
ATOM     15  N   UNL A   1     -24.758  -1.481  32.646  0.00  0.00    -0.219 NA
ATOM     16  C   UNL A   1     -24.599   0.311  29.564  0.00  0.00    +0.119 C 
ATOM     17  N   UNL A   1     -24.483   1.684  30.127  0.00  0.00    -0.203 NA
ATOM     18  C   UNL A   1     -25.175   1.873  31.206  0.00  0.00    +0.243 C 
ATOM     19  O   UNL A   1     -25.547   3.058  31.528  0.00  0.00    -0.273 OA
BRANCH  10  20
ATOM     20  C   UNL A   1     -24.973  -2.505  29.788  0.00  0.00    -0.019 C 
ATOM     21  C   UNL A   1     -23.906  -3.173  29.146  0.00  0.00    -0.004 C 
ATOM     22  C   UNL A   1     -23.989  -4.549  28.853  0.00  0.00    -0.000 C 
ATOM     23  C   UNL A   1     -25.137  -5.280  29.205  0.00  0.00    -0.000 C 
ATOM     24  C   UNL A   1     -26.232  -4.611  29.784  0.00  0.00    -0.000 C 
ATOM     25  C   UNL A   1     -26.155  -3.232  30.065  0.00  0.00    -0.004 C 
ENDBRANCH  10  20
ENDBRANCH   2  16
BRANCH   4  26
ATOM     26  C   UNL A   1     -25.688   1.614  26.461  0.00  0.00    +0.041 C 
ATOM     27  C   UNL A   1     -26.250   2.920  26.395  0.00  0.00    +0.076 C 
ATOM     28  C   UNL A   1     -27.438   3.091  25.645  0.00  0.00    +0.107 C 
ATOM     29  N   UNL A   1     -28.075   2.089  25.003  0.00  0.00    -0.208 NA
ATOM     30  C   UNL A   1     -27.543   0.849  25.079  0.00  0.00    +0.253 C 
ATOM     31  C   UNL A   1     -26.354   0.576  25.777  0.00  0.00    +0.193 C 
ATOM     32  F   UNL A   1     -25.860  -0.681  25.795  0.00  0.00    -0.199 F 
BRANCH  27  33
ATOM     33  C   UNL A   1     -25.642   4.093  27.123  0.00  0.00    +0.266 C 
ATOM     34  N   UNL A   1     -25.614   5.252  26.449  0.00  0.00    -0.200 NA
ATOM     35  C   UNL A   1     -25.026   6.479  26.963  0.00  0.00    +0.139 C 
ATOM     36  O   UNL A   1     -25.143   3.966  28.243  0.00  0.00    -0.268 OA
ENDBRANCH  27  33
BRANCH  30  37
ATOM     37  O   UNL A   1     -28.193  -0.208  24.477  0.00  0.00    -0.456 OA
BRANCH  37  38
ATOM     38  C   UNL A   1     -29.460   0.005  23.866  0.00  0.00    +0.243 C 
BRANCH  38  39
ATOM     39  C   UNL A   1     -30.065  -1.377  23.573  0.00  0.00    +0.229 C 
ATOM     40  O   UNL A   1     -30.729  -1.878  24.721  0.00  0.00    -0.216 OA
ENDBRANCH  38  39
ENDBRANCH  37  38
ENDBRANCH  30  37
ENDBRANCH   4  26
BRANCH   6  42
ATOM     41  C   UNL A   1     -20.421  -0.129  28.754  0.00  0.00    +0.000 C 
ATOM     42  C   UNL A   1     -21.628   0.089  29.247  0.00  0.00    +0.007 C 
ENDBRANCH   6  42
TORSDOF 8
