REMARK  Name = outputs/IAG933/test6/raw/output_6445_IAG933_linker_design_.xyz
REMARK  12 active torsions:
REMARK  status: ('A' for Active; 'I' for Inactive)
REMARK    1  A    between atoms: C_1  and  C_2
REMARK    2  A    between atoms: C_1  and  C_8
REMARK    3  A    between atoms: C_1  and  N_37
REMARK    4  A    between atoms: C_13  and  C_35
REMARK    5  A    between atoms: C_14  and  C_15
REMARK    6  A    between atoms: C_21  and  O_22
REMARK    7  A    between atoms: O_22  and  C_23
REMARK    8  A    between atoms: C_23  and  C_24
REMARK    9  A    between atoms: C_29  and  N_37
REMARK   10  A    between atoms: C_33  and  O_42
REMARK   11  A    between atoms: C_38  and  C_40
REMARK   12  A    between atoms: C_40  and  C_41
REMARK                            x       y       z     vdW  Elec       q    Type
REMARK                         _______ _______ _______ _____ _____    ______ ____
ROOT
ATOM      1  C   UNL A   1     -24.461   0.512  28.296  0.00  0.00    +0.319 C 
ATOM      2  C   UNL A   1     -22.213   0.211  28.915  0.00  0.00    +0.219 C 
ATOM      3  N   UNL A   1     -23.428   0.243  28.711  0.00  0.00    -0.008 NA
ATOM      4  C   UNL A   1     -23.059   1.608  26.536  0.00  0.00    +0.149 C 
ATOM      5  C   UNL A   1     -21.756   1.709  27.129  0.00  0.00    +0.064 C 
ATOM      6  C   UNL A   1     -24.378   1.219  27.165  0.00  0.00    +0.088 C 
ATOM      7  C   UNL A   1     -21.283   0.879  28.168  0.00  0.00    +0.025 C 
ENDROOT
BRANCH   6   8
ATOM      8  C   UNL A   1     -25.688   1.614  26.461  0.00  0.00    +0.043 C 
ATOM      9  C   UNL A   1     -26.250   2.920  26.395  0.00  0.00    +0.076 C 
ATOM     10  C   UNL A   1     -27.438   3.091  25.645  0.00  0.00    +0.107 C 
ATOM     11  N   UNL A   1     -28.075   2.089  25.003  0.00  0.00    -0.208 NA
ATOM     12  C   UNL A   1     -27.543   0.849  25.079  0.00  0.00    +0.253 C 
ATOM     13  C   UNL A   1     -26.354   0.576  25.777  0.00  0.00    +0.193 C 
ATOM     14  F   UNL A   1     -25.860  -0.681  25.795  0.00  0.00    -0.199 F 
BRANCH   9  15
ATOM     15  C   UNL A   1     -25.642   4.093  27.123  0.00  0.00    +0.266 C 
ATOM     16  N   UNL A   1     -25.614   5.252  26.449  0.00  0.00    -0.200 NA
ATOM     17  C   UNL A   1     -25.026   6.479  26.963  0.00  0.00    +0.139 C 
ATOM     18  O   UNL A   1     -25.143   3.966  28.243  0.00  0.00    -0.268 OA
ENDBRANCH   9  15
BRANCH  12  19
ATOM     19  O   UNL A   1     -28.193  -0.208  24.477  0.00  0.00    -0.456 OA
BRANCH  19  20
ATOM     20  C   UNL A   1     -29.460   0.005  23.866  0.00  0.00    +0.243 C 
BRANCH  20  21
ATOM     21  C   UNL A   1     -30.065  -1.377  23.573  0.00  0.00    +0.229 C 
ATOM     22  O   UNL A   1     -30.729  -1.878  24.721  0.00  0.00    -0.216 OA
ENDBRANCH  20  21
ENDBRANCH  19  20
ENDBRANCH  12  19
ENDBRANCH   6   8
BRANCH   1  24
ATOM     23  O   UNL A   1     -27.562  -0.717  28.780  0.00  0.00    -0.247 OA
ATOM     24  N   UNL A   1     -25.392  -0.070  29.159  0.00  0.00    -0.141 N 
ATOM     25  C   UNL A   1     -26.781   0.183  28.996  0.00  0.00    +0.313 C 
BRANCH  24  26
ATOM     26  C   UNL A   1     -24.855  -1.012  30.143  0.00  0.00    +0.206 C 
BRANCH  26  27
ATOM     27  C   UNL A   1     -24.973  -2.505  29.788  0.00  0.00    +0.022 C 
ATOM     28  C   UNL A   1     -23.906  -3.173  29.146  0.00  0.00    -0.000 C 
ATOM     29  C   UNL A   1     -23.989  -4.549  28.853  0.00  0.00    -0.000 C 
ATOM     30  C   UNL A   1     -25.137  -5.280  29.205  0.00  0.00    -0.000 C 
ATOM     31  C   UNL A   1     -26.232  -4.611  29.784  0.00  0.00    -0.000 C 
ATOM     32  C   UNL A   1     -26.155  -3.232  30.065  0.00  0.00    -0.000 C 
ENDBRANCH  26  27
BRANCH  26  33
ATOM     33  C   UNL A   1     -25.387  -0.679  31.571  0.00  0.00    +0.120 C 
ATOM     34  C   UNL A   1     -25.189   0.773  32.028  0.00  0.00    +0.023 C 
ATOM     35  C   UNL A   1     -25.336   0.684  33.544  0.00  0.00    +0.020 C 
ATOM     36  C   UNL A   1     -24.829  -0.715  33.905  0.00  0.00    +0.089 C 
ATOM     37  N   UNL A   1     -24.758  -1.481  32.646  0.00  0.00    -0.215 NA
ENDBRANCH  26  33
ENDBRANCH  24  26
BRANCH  25  38
ATOM     38  C   UNL A   1     -27.339   1.570  29.141  0.00  0.00    +0.113 C 
BRANCH  38  40
ATOM     39  C   UNL A   1     -29.578   2.201  30.002  0.00  0.00    +0.001 C 
ATOM     40  C   UNL A   1     -28.132   2.369  29.814  0.00  0.00    +0.012 C 
ENDBRANCH  38  40
ENDBRANCH  25  38
ENDBRANCH   1  24
BRANCH   4  42
ATOM     41  C   UNL A   1     -23.046   3.117  24.814  0.00  0.00    +0.174 C 
ATOM     42  O   UNL A   1     -22.814   1.708  25.186  0.00  0.00    -0.349 OA
ENDBRANCH   4  42
TORSDOF 12
