REMARK  Name = outputs/IAG933/test6/raw/output_6446_IAG933_linker_design_.xyz
REMARK  13 active torsions:
REMARK  status: ('A' for Active; 'I' for Inactive)
REMARK    1  A    between atoms: C_1  and  C_2
REMARK    2  A    between atoms: C_1  and  C_8
REMARK    3  A    between atoms: C_1  and  N_43
REMARK    4  A    between atoms: C_13  and  N_41
REMARK    5  A    between atoms: C_14  and  C_15
REMARK    6  A    between atoms: C_21  and  O_22
REMARK    7  A    between atoms: O_22  and  C_23
REMARK    8  A    between atoms: C_23  and  C_24
REMARK    9  A    between atoms: C_30  and  C_34
REMARK   10  A    between atoms: C_32  and  C_34
REMARK   11  A    between atoms: C_33  and  C_40
REMARK   12  A    between atoms: C_39  and  N_43
REMARK   13  A    between atoms: C_39  and  C_45
REMARK                            x       y       z     vdW  Elec       q    Type
REMARK                         _______ _______ _______ _____ _____    ______ ____
ROOT
ATOM      1  C   UNL A   1     -23.252   0.306  28.969  0.00  0.00    +0.253 C 
ATOM      2  O   UNL A   1     -22.534  -0.241  29.828  0.00  0.00    -0.273 OA
ATOM      3  N   UNL A   1     -24.755   0.081  28.992  0.00  0.00    -0.270 N 
ENDROOT
BRANCH   1   4
ATOM      4  C   UNL A   1     -22.447   1.199  28.013  0.00  0.00    +0.245 C 
ATOM      5  N   UNL A   1     -21.001   1.474  27.845  0.00  0.00    -0.113 NA
BRANCH   4   6
ATOM      6  C   UNL A   1     -23.206   1.613  26.739  0.00  0.00    +0.268 C 
ATOM      7  N   UNL A   1     -24.514   1.444  26.797  0.00  0.00    -0.198 NA
ATOM      8  O   UNL A   1     -22.609   2.008  25.730  0.00  0.00    -0.271 OA
BRANCH   7   9
ATOM      9  C   UNL A   1     -25.688   1.614  26.461  0.00  0.00    +0.165 C 
ATOM     10  C   UNL A   1     -26.250   2.920  26.395  0.00  0.00    +0.075 C 
ATOM     11  C   UNL A   1     -27.438   3.091  25.645  0.00  0.00    +0.104 C 
ATOM     12  N   UNL A   1     -28.075   2.089  25.003  0.00  0.00    -0.212 NA
ATOM     13  C   UNL A   1     -27.543   0.849  25.079  0.00  0.00    +0.236 C 
ATOM     14  C   UNL A   1     -26.354   0.576  25.777  0.00  0.00    +0.260 C 
ATOM     15  F   UNL A   1     -25.860  -0.681  25.795  0.00  0.00    -0.225 F 
BRANCH  10  16
ATOM     16  C   UNL A   1     -25.642   4.093  27.123  0.00  0.00    +0.264 C 
ATOM     17  N   UNL A   1     -25.614   5.252  26.449  0.00  0.00    -0.200 NA
ATOM     18  C   UNL A   1     -25.026   6.479  26.963  0.00  0.00    +0.139 C 
ATOM     19  O   UNL A   1     -25.143   3.966  28.243  0.00  0.00    -0.269 OA
ENDBRANCH  10  16
BRANCH  13  20
ATOM     20  O   UNL A   1     -28.193  -0.208  24.477  0.00  0.00    -0.459 OA
BRANCH  20  21
ATOM     21  C   UNL A   1     -29.460   0.005  23.866  0.00  0.00    +0.242 C 
BRANCH  21  22
ATOM     22  C   UNL A   1     -30.065  -1.377  23.573  0.00  0.00    +0.229 C 
ATOM     23  O   UNL A   1     -30.729  -1.878  24.721  0.00  0.00    -0.216 OA
ENDBRANCH  21  22
ENDBRANCH  20  21
ENDBRANCH  13  20
ENDBRANCH   7   9
ENDBRANCH   4   6
ENDBRANCH   1   4
BRANCH   3  24
ATOM     24  C   UNL A   1     -24.855  -1.012  30.143  0.00  0.00    +0.114 C 
BRANCH  24  25
ATOM     25  C   UNL A   1     -24.973  -2.505  29.788  0.00  0.00    -0.003 C 
ATOM     26  C   UNL A   1     -23.906  -3.173  29.146  0.00  0.00    -0.003 C 
ATOM     27  C   UNL A   1     -23.989  -4.549  28.853  0.00  0.00    -0.000 C 
ATOM     28  C   UNL A   1     -25.137  -5.280  29.205  0.00  0.00    -0.000 C 
ATOM     29  C   UNL A   1     -26.232  -4.611  29.784  0.00  0.00    -0.000 C 
ATOM     30  C   UNL A   1     -26.155  -3.232  30.065  0.00  0.00    -0.003 C 
ENDBRANCH  24  25
BRANCH  24  31
ATOM     31  C   UNL A   1     -25.387  -0.679  31.571  0.00  0.00    +0.095 C 
ATOM     32  C   UNL A   1     -25.189   0.773  32.028  0.00  0.00    +0.021 C 
ATOM     33  C   UNL A   1     -25.336   0.684  33.544  0.00  0.00    +0.020 C 
ATOM     34  C   UNL A   1     -24.829  -0.715  33.905  0.00  0.00    +0.089 C 
ATOM     35  N   UNL A   1     -24.758  -1.481  32.646  0.00  0.00    -0.217 NA
ENDBRANCH  24  31
ENDBRANCH   3  24
BRANCH   3  36
ATOM     36  C   UNL A   1     -26.104  -0.126  28.346  0.00  0.00    +0.120 C 
BRANCH  36  38
ATOM     37  C   UNL A   1     -27.722   1.989  28.717  0.00  0.00    -0.028 C 
ATOM     38  C   UNL A   1     -27.381   0.533  28.757  0.00  0.00    -0.009 C 
BRANCH  37  45
ATOM     39  N   UNL A   1     -30.435   4.386  28.139  0.00  0.00    -0.279 N 
ATOM     40  C   UNL A   1     -29.206   5.013  28.444  0.00  0.00    +0.094 C 
ATOM     41  C   UNL A   1     -31.112   6.280  26.834  0.00  0.00    +0.095 C 
ATOM     42  C   UNL A   1     -31.398   4.924  27.428  0.00  0.00    +0.226 C 
ATOM     43  C   UNL A   1     -30.325   2.891  28.311  0.00  0.00    +0.098 C 
ATOM     44  C   UNL A   1     -28.759   4.222  29.463  0.00  0.00    +0.028 C 
ATOM     45  C   UNL A   1     -28.974   2.645  29.084  0.00  0.00    +0.043 C 
ATOM     46  O   UNL A   1     -32.433   4.309  27.210  0.00  0.00    -0.275 OA
ENDBRANCH  37  45
ENDBRANCH  36  38
ENDBRANCH   3  36
TORSDOF 13
