REMARK  Name = outputs/IAG933/test6/raw/output_6449_IAG933_linker_design_.xyz
REMARK  12 active torsions:
REMARK  status: ('A' for Active; 'I' for Inactive)
REMARK    1  A    between atoms: C_1  and  C_2
REMARK    2  A    between atoms: C_1  and  C_8
REMARK    3  A    between atoms: C_9  and  C_36
REMARK    4  A    between atoms: C_13  and  C_28
REMARK    5  A    between atoms: C_14  and  C_15
REMARK    6  A    between atoms: C_21  and  O_22
REMARK    7  A    between atoms: O_22  and  C_23
REMARK    8  A    between atoms: C_23  and  C_24
REMARK    9  A    between atoms: C_29  and  N_45
REMARK   10  A    between atoms: C_31  and  C_39
REMARK   11  A    between atoms: C_36  and  C_37
REMARK   12  A    between atoms: C_36  and  N_45
REMARK                            x       y       z     vdW  Elec       q    Type
REMARK                         _______ _______ _______ _____ _____    ______ ____
ROOT
ATOM      1  C   UNL A   1     -25.566   1.877  31.156  0.00  0.00    +0.116 C 
ENDROOT
BRANCH   1   4
ATOM      2  C   UNL A   1     -26.586   5.427  32.099  0.00  0.00    -0.000 C 
ATOM      3  C   UNL A   1     -27.441   2.773  32.540  0.00  0.00    +0.001 C 
ATOM      4  C   UNL A   1     -26.273   3.013  31.802  0.00  0.00    -0.003 C 
ATOM      5  C   UNL A   1     -25.827   4.340  31.632  0.00  0.00    -0.003 C 
ATOM      6  C   UNL A   1     -28.136   3.847  33.104  0.00  0.00    +0.071 C 
ATOM      7  C   UNL A   1     -27.775   5.178  32.816  0.00  0.00    +0.004 C 
BRANCH   6   8
ATOM      8  C   UNL A   1     -29.172   3.541  34.141  0.00  0.00    +0.419 C 
ATOM      9  F   UNL A   1     -29.784   2.438  33.779  0.00  0.00    -0.166 F 
ATOM     10  F   UNL A   1     -29.994   4.550  34.268  0.00  0.00    -0.166 F 
ATOM     11  F   UNL A   1     -28.524   3.240  35.275  0.00  0.00    -0.166 F 
ENDBRANCH   6   8
ENDBRANCH   1   4
BRANCH   1  13
ATOM     12  C   UNL A   1     -25.387  -0.679  31.571  0.00  0.00    +0.079 C 
ATOM     13  C   UNL A   1     -25.189   0.773  32.028  0.00  0.00    +0.042 C 
ATOM     14  C   UNL A   1     -25.336   0.684  33.544  0.00  0.00    +0.022 C 
ATOM     15  C   UNL A   1     -24.829  -0.715  33.905  0.00  0.00    +0.089 C 
ATOM     16  N   UNL A   1     -24.758  -1.481  32.646  0.00  0.00    -0.219 NA
BRANCH  12  17
ATOM     17  C   UNL A   1     -24.855  -1.012  30.143  0.00  0.00    +0.044 C 
BRANCH  17  18
ATOM     18  C   UNL A   1     -24.973  -2.505  29.788  0.00  0.00    -0.021 C 
ATOM     19  C   UNL A   1     -23.906  -3.173  29.146  0.00  0.00    -0.004 C 
ATOM     20  C   UNL A   1     -23.989  -4.549  28.853  0.00  0.00    -0.000 C 
ATOM     21  C   UNL A   1     -25.137  -5.280  29.205  0.00  0.00    -0.000 C 
ATOM     22  C   UNL A   1     -26.232  -4.611  29.784  0.00  0.00    -0.000 C 
ATOM     23  C   UNL A   1     -26.155  -3.232  30.065  0.00  0.00    -0.004 C 
ENDBRANCH  17  18
ENDBRANCH  12  17
ENDBRANCH   1  13
BRANCH   1  24
ATOM     24  N   UNL A   1     -25.333   1.874  29.735  0.00  0.00    -0.235 NA
BRANCH  24  26
ATOM     25  C   UNL A   1     -24.439   1.635  27.258  0.00  0.00    +0.036 C 
ATOM     26  C   UNL A   1     -24.351   1.558  28.721  0.00  0.00    +0.069 C 
ATOM     27  C   UNL A   1     -23.250   1.830  26.474  0.00  0.00    +0.100 C 
ATOM     28  C   UNL A   1     -23.119   1.224  29.210  0.00  0.00    +0.037 C 
ATOM     29  N   UNL A   1     -22.064   1.637  27.091  0.00  0.00    -0.242 NA
ATOM     30  C   UNL A   1     -21.985   1.264  28.372  0.00  0.00    +0.100 C 
BRANCH  25  31
ATOM     31  C   UNL A   1     -25.688   1.614  26.461  0.00  0.00    +0.041 C 
ATOM     32  C   UNL A   1     -26.250   2.920  26.395  0.00  0.00    +0.077 C 
ATOM     33  C   UNL A   1     -27.438   3.091  25.645  0.00  0.00    +0.107 C 
ATOM     34  N   UNL A   1     -28.075   2.089  25.003  0.00  0.00    -0.208 NA
ATOM     35  C   UNL A   1     -27.543   0.849  25.079  0.00  0.00    +0.253 C 
ATOM     36  C   UNL A   1     -26.354   0.576  25.777  0.00  0.00    +0.193 C 
ATOM     37  F   UNL A   1     -25.860  -0.681  25.795  0.00  0.00    -0.199 F 
BRANCH  32  38
ATOM     38  C   UNL A   1     -25.642   4.093  27.123  0.00  0.00    +0.266 C 
ATOM     39  N   UNL A   1     -25.614   5.252  26.449  0.00  0.00    -0.200 NA
ATOM     40  C   UNL A   1     -25.026   6.479  26.963  0.00  0.00    +0.139 C 
ATOM     41  O   UNL A   1     -25.143   3.966  28.243  0.00  0.00    -0.268 OA
ENDBRANCH  32  38
BRANCH  35  42
ATOM     42  O   UNL A   1     -28.193  -0.208  24.477  0.00  0.00    -0.456 OA
BRANCH  42  43
ATOM     43  C   UNL A   1     -29.460   0.005  23.866  0.00  0.00    +0.243 C 
BRANCH  43  44
ATOM     44  C   UNL A   1     -30.065  -1.377  23.573  0.00  0.00    +0.229 C 
ATOM     45  O   UNL A   1     -30.729  -1.878  24.721  0.00  0.00    -0.216 OA
ENDBRANCH  43  44
ENDBRANCH  42  43
ENDBRANCH  35  42
ENDBRANCH  25  31
ENDBRANCH  24  26
ENDBRANCH   1  24
TORSDOF 12
