MODEL 644
MODEL 1
REMARK VINA RESULT:    -6.015      0.000      0.000
REMARK INTER + INTRA:          -7.003
REMARK INTER:                  -6.718
REMARK INTRA:                  -0.284
REMARK UNBOUND:                -0.284
REMARK  Name = No_644-gen_results/8p0m/2024-11-27-11-27-31/
REMARK  2 active torsions:
REMARK  status: ('A' for Active; 'I' for Inactive)
REMARK    1  A    between atoms: C_2  and  C_11
REMARK    2  A    between atoms: C_3  and  C_7
REMARK                            x       y       z     vdW  Elec       q    Type
REMARK                         _______ _______ _______ _____ _____    ______ ____
ROOT
ATOM      1  C   UNL A   1     -28.325 -11.927  31.154  0.00  0.00    +0.010 A 
ATOM      2  C   UNL A   1     -28.207 -11.631  32.158  0.00  0.00    +0.080 A 
ATOM      3  C   UNL A   1     -29.211 -11.180  30.346  0.00  0.00    +0.072 A 
ATOM      4  C   UNL A   1     -29.917 -10.102  30.840  0.00  0.00    +0.004 A 
ATOM      5  C   UNL A   1     -28.829 -10.532  32.923  0.00  0.00    +0.007 A 
ATOM      6  C   UNL A   1     -29.686  -9.792  32.187  0.00  0.00    +0.000 A 
ENDROOT
BRANCH   3   7
ATOM      7  C   UNL A   1     -29.441 -11.475  28.892  0.00  0.00    +0.419 C 
ATOM      8  F   UNL A   1     -28.466 -11.714  28.359  0.00  0.00    -0.166 F 
ATOM      9  F   UNL A   1     -30.064 -10.430  28.220  0.00  0.00    -0.166 F 
ATOM     10  F   UNL A   1     -30.403 -12.488  28.764  0.00  0.00    -0.166 F 
ENDBRANCH   3   7
BRANCH   2  11
ATOM     11  C   UNL A   1     -27.134 -12.367  33.106  0.00  0.00    +0.388 C 
ATOM     12  O   UNL A   1     -26.351 -12.924  32.586  0.00  0.00    -0.241 OA
ATOM     13  O   UNL A   1     -27.211 -12.215  34.422  0.00  0.00    -0.241 OA
ENDBRANCH   2  11
TORSDOF 2
ENDMDL
ENDMDL
