REMARK  Name = outputs/IAG933/test6/raw/output_6451_IAG933_linker_design_.xyz
REMARK  16 active torsions:
REMARK  status: ('A' for Active; 'I' for Inactive)
REMARK    1  A    between atoms: C_1  and  C_2
REMARK    2  A    between atoms: C_1  and  C_8
REMARK    3  A    between atoms: C_9  and  N_36
REMARK    4  A    between atoms: C_13  and  N_31
REMARK    5  A    between atoms: C_14  and  C_15
REMARK    6  A    between atoms: C_21  and  O_22
REMARK    7  A    between atoms: O_22  and  C_23
REMARK    8  A    between atoms: C_23  and  C_24
REMARK    9  A    between atoms: C_29  and  C_34
REMARK   10  A    between atoms: C_29  and  C_35
REMARK   11  A    between atoms: O_30  and  C_35
REMARK   12  A    between atoms: O_30  and  N_36
REMARK   13  A    between atoms: N_31  and  C_37
REMARK   14  A    between atoms: C_32  and  N_36
REMARK   15  A    between atoms: C_37  and  C_38
REMARK   16  A    between atoms: C_38  and  C_39
REMARK                            x       y       z     vdW  Elec       q    Type
REMARK                         _______ _______ _______ _____ _____    ______ ____
ROOT
ATOM      1  C   UNL A   1     -23.840   1.795  30.208  0.00  0.00    +0.036 C 
ATOM      2  C   UNL A   1     -23.115   1.832  29.086  0.00  0.00    -0.066 C 
ENDROOT
BRANCH   2   4
ATOM      3  C   UNL A   1     -21.101   1.615  27.457  0.00  0.00    +0.016 C 
ATOM      4  C   UNL A   1     -22.510   1.928  27.870  0.00  0.00    +0.087 C 
BRANCH   4   5
ATOM      5  C   UNL A   1     -23.352   1.636  26.594  0.00  0.00    +0.125 C 
BRANCH   5   6
ATOM      6  N   UNL A   1     -24.571   1.300  27.169  0.00  0.00    -0.234 NA
BRANCH   6   7
ATOM      7  C   UNL A   1     -25.688   1.614  26.461  0.00  0.00    +0.103 C 
ATOM      8  C   UNL A   1     -26.250   2.920  26.395  0.00  0.00    +0.091 C 
ATOM      9  C   UNL A   1     -27.438   3.091  25.645  0.00  0.00    +0.108 C 
ATOM     10  N   UNL A   1     -28.075   2.089  25.003  0.00  0.00    -0.208 NA
ATOM     11  C   UNL A   1     -27.543   0.849  25.079  0.00  0.00    +0.255 C 
ATOM     12  C   UNL A   1     -26.354   0.576  25.777  0.00  0.00    +0.208 C 
ATOM     13  F   UNL A   1     -25.860  -0.681  25.795  0.00  0.00    -0.198 F 
BRANCH   8  14
ATOM     14  C   UNL A   1     -25.642   4.093  27.123  0.00  0.00    +0.268 C 
ATOM     15  N   UNL A   1     -25.614   5.252  26.449  0.00  0.00    -0.200 NA
ATOM     16  C   UNL A   1     -25.026   6.479  26.963  0.00  0.00    +0.139 C 
ATOM     17  O   UNL A   1     -25.143   3.966  28.243  0.00  0.00    -0.268 OA
ENDBRANCH   8  14
BRANCH  11  18
ATOM     18  O   UNL A   1     -28.193  -0.208  24.477  0.00  0.00    -0.456 OA
BRANCH  18  19
ATOM     19  C   UNL A   1     -29.460   0.005  23.866  0.00  0.00    +0.243 C 
BRANCH  19  20
ATOM     20  C   UNL A   1     -30.065  -1.377  23.573  0.00  0.00    +0.229 C 
ATOM     21  O   UNL A   1     -30.729  -1.878  24.721  0.00  0.00    -0.216 OA
ENDBRANCH  19  20
ENDBRANCH  18  19
ENDBRANCH  11  18
ENDBRANCH   6   7
ENDBRANCH   5   6
ENDBRANCH   4   5
ENDBRANCH   2   4
BRANCH   1  22
ATOM     22  N   UNL A   1     -24.544   1.862  31.322  0.00  0.00    -0.197 N 
BRANCH  22  24
ATOM     23  C   UNL A   1     -25.387  -0.679  31.571  0.00  0.00    +0.101 C 
ATOM     24  C   UNL A   1     -25.189   0.773  32.028  0.00  0.00    +0.136 C 
ATOM     25  C   UNL A   1     -25.336   0.684  33.544  0.00  0.00    +0.046 C 
ATOM     26  C   UNL A   1     -24.829  -0.715  33.905  0.00  0.00    +0.091 C 
ATOM     27  N   UNL A   1     -24.758  -1.481  32.646  0.00  0.00    -0.217 NA
BRANCH  23  28
ATOM     28  C   UNL A   1     -24.855  -1.012  30.143  0.00  0.00    +0.046 C 
BRANCH  28  29
ATOM     29  C   UNL A   1     -24.973  -2.505  29.788  0.00  0.00    -0.021 C 
ATOM     30  C   UNL A   1     -23.906  -3.173  29.146  0.00  0.00    -0.004 C 
ATOM     31  C   UNL A   1     -23.989  -4.549  28.853  0.00  0.00    -0.000 C 
ATOM     32  C   UNL A   1     -25.137  -5.280  29.205  0.00  0.00    -0.000 C 
ATOM     33  C   UNL A   1     -26.232  -4.611  29.784  0.00  0.00    -0.000 C 
ATOM     34  C   UNL A   1     -26.155  -3.232  30.065  0.00  0.00    -0.004 C 
ENDBRANCH  28  29
ENDBRANCH  23  28
ENDBRANCH  22  24
BRANCH  22  35
ATOM     35  O   UNL A   1     -24.837   3.107  31.812  0.00  0.00    -0.250 OA
BRANCH  35  36
ATOM     36  C   UNL A   1     -24.623   3.872  32.853  0.00  0.00    +0.176 C 
BRANCH  36  37
ATOM     37  C   UNL A   1     -25.281   5.064  33.231  0.00  0.00    +0.055 C 
BRANCH  37  39
ATOM     38  N   UNL A   1     -26.899   4.571  35.065  0.00  0.00    -0.131 NA
ATOM     39  C   UNL A   1     -25.686   5.238  34.627  0.00  0.00    +0.112 C 
ENDBRANCH  37  39
ENDBRANCH  36  37
ENDBRANCH  35  36
ENDBRANCH  22  35
ENDBRANCH   1  22
TORSDOF 16
