MODEL 645
MODEL 1
REMARK VINA RESULT:    -7.261      0.000      0.000
REMARK INTER + INTRA:          -9.627
REMARK INTER:                  -8.535
REMARK INTRA:                  -1.092
REMARK UNBOUND:                -1.092
REMARK  Name = No_645-gen_results/8p0m/2024-11-27-11-27-31/
REMARK  3 active torsions:
REMARK  status: ('A' for Active; 'I' for Inactive)
REMARK    1  A    between atoms: C_3  and  C_13
REMARK    2  A    between atoms: C_5  and  N_7
REMARK    3  A    between atoms: C_13  and  C_14
REMARK                            x       y       z     vdW  Elec       q    Type
REMARK                         _______ _______ _______ _____ _____    ______ ____
ROOT
ATOM      1  C   UNL A   1     -23.237   1.803  26.991  0.00  0.00    +0.001 A 
ATOM      2  C   UNL A   1     -23.186   0.874  27.763  0.00  0.00    -0.004 A 
ATOM      3  C   UNL A   1     -24.135  -0.129  27.868  0.00  0.00    -0.017 A 
ATOM      4  C   UNL A   1     -25.243  -0.070  26.972  0.00  0.00    +0.011 A 
ATOM      5  C   UNL A   1     -25.191   0.892  26.027  0.00  0.00    +0.048 A 
ATOM      6  C   UNL A   1     -24.179   1.759  25.961  0.00  0.00    +0.015 A 
ENDROOT
BRANCH   5   7
ATOM      7  N   UNL A   1     -26.254   0.894  25.133  0.00  0.00    -0.307 N 
ATOM      8  C   UNL A   1     -26.979   1.917  25.038  0.00  0.00    +0.091 C 
ATOM      9  C   UNL A   1     -28.357   1.797  25.042  0.00  0.00    +0.021 C 
ATOM     10  C   UNL A   1     -26.681  -0.293  24.523  0.00  0.00    +0.091 C 
ATOM     11  C   UNL A   1     -28.068  -0.492  24.243  0.00  0.00    +0.021 C 
ATOM     12  C   UNL A   1     -28.875   0.674  24.384  0.00  0.00    +0.004 C 
ENDBRANCH   5   7
BRANCH   3  13
ATOM     13  C   UNL A   1     -24.103  -1.145  29.002  0.00  0.00    +0.045 C 
ATOM     14  C   UNL A   1     -23.093  -0.881  29.999  0.00  0.00    +0.009 C 
BRANCH  13  15
ATOM     15  C   UNL A   1     -24.756  -2.301  28.829  0.00  0.00    -0.018 A 
ATOM     16  C   UNL A   1     -23.891  -3.478  28.476  0.00  0.00    -0.004 A 
ATOM     17  C   UNL A   1     -24.257  -4.816  28.701  0.00  0.00    -0.000 A 
ATOM     18  C   UNL A   1     -25.523  -5.037  29.302  0.00  0.00    -0.000 A 
ATOM     19  C   UNL A   1     -26.345  -3.917  29.686  0.00  0.00    -0.000 A 
ATOM     20  C   UNL A   1     -25.918  -2.642  29.560  0.00  0.00    -0.004 A 
ENDBRANCH  13  15
ENDBRANCH   3  13
TORSDOF 3
ENDMDL
ENDMDL
