REMARK  Name = outputs/IAG933/test6/raw/output_6464_IAG933_linker_design_.xyz
REMARK  12 active torsions:
REMARK  status: ('A' for Active; 'I' for Inactive)
REMARK    1  A    between atoms: C_1  and  C_2
REMARK    2  A    between atoms: C_1  and  C_8
REMARK    3  A    between atoms: C_1  and  N_39
REMARK    4  A    between atoms: C_13  and  C_46
REMARK    5  A    between atoms: C_14  and  C_15
REMARK    6  A    between atoms: C_21  and  O_22
REMARK    7  A    between atoms: O_22  and  C_23
REMARK    8  A    between atoms: C_23  and  C_24
REMARK    9  A    between atoms: C_30  and  C_36
REMARK   10  A    between atoms: C_31  and  C_41
REMARK   11  A    between atoms: C_31  and  C_43
REMARK   12  A    between atoms: C_38  and  N_39
REMARK                            x       y       z     vdW  Elec       q    Type
REMARK                         _______ _______ _______ _____ _____    ______ ____
ROOT
ATOM      1  O   UNL A   1     -28.106  -0.430  30.326  0.00  0.00    -0.274 OA
ATOM      2  N   UNL A   1     -25.874  -0.314  29.049  0.00  0.00    -0.227 N 
ATOM      3  C   UNL A   1     -27.765  -0.262  29.188  0.00  0.00    +0.232 C 
ENDROOT
BRANCH   2   5
ATOM      4  C   UNL A   1     -22.260   1.647  27.483  0.00  0.00    +0.052 C 
ATOM      5  C   UNL A   1     -24.649   0.167  28.195  0.00  0.00    +0.195 C 
ATOM      6  C   UNL A   1     -23.332   1.793  26.532  0.00  0.00    +0.035 C 
ATOM      7  C   UNL A   1     -22.586   1.014  28.874  0.00  0.00    +0.207 C 
ATOM      8  C   UNL A   1     -24.607   1.084  27.127  0.00  0.00    +0.030 C 
ATOM      9  O   UNL A   1     -23.381  -0.042  28.594  0.00  0.00    -0.463 OA
BRANCH   8  10
ATOM     10  C   UNL A   1     -25.688   1.614  26.461  0.00  0.00    +0.038 C 
ATOM     11  C   UNL A   1     -26.250   2.920  26.395  0.00  0.00    +0.076 C 
ATOM     12  C   UNL A   1     -27.438   3.091  25.645  0.00  0.00    +0.107 C 
ATOM     13  N   UNL A   1     -28.075   2.089  25.003  0.00  0.00    -0.208 NA
ATOM     14  C   UNL A   1     -27.543   0.849  25.079  0.00  0.00    +0.253 C 
ATOM     15  C   UNL A   1     -26.354   0.576  25.777  0.00  0.00    +0.193 C 
ATOM     16  F   UNL A   1     -25.860  -0.681  25.795  0.00  0.00    -0.199 F 
BRANCH  11  17
ATOM     17  C   UNL A   1     -25.642   4.093  27.123  0.00  0.00    +0.266 C 
ATOM     18  N   UNL A   1     -25.614   5.252  26.449  0.00  0.00    -0.200 NA
ATOM     19  C   UNL A   1     -25.026   6.479  26.963  0.00  0.00    +0.139 C 
ATOM     20  O   UNL A   1     -25.143   3.966  28.243  0.00  0.00    -0.268 OA
ENDBRANCH  11  17
BRANCH  14  21
ATOM     21  O   UNL A   1     -28.193  -0.208  24.477  0.00  0.00    -0.456 OA
BRANCH  21  22
ATOM     22  C   UNL A   1     -29.460   0.005  23.866  0.00  0.00    +0.243 C 
BRANCH  22  23
ATOM     23  C   UNL A   1     -30.065  -1.377  23.573  0.00  0.00    +0.229 C 
ATOM     24  O   UNL A   1     -30.729  -1.878  24.721  0.00  0.00    -0.216 OA
ENDBRANCH  22  23
ENDBRANCH  21  22
ENDBRANCH  14  21
ENDBRANCH   8  10
ENDBRANCH   2   5
BRANCH   2  25
ATOM     25  C   UNL A   1     -24.855  -1.012  30.143  0.00  0.00    +0.121 C 
BRANCH  25  26
ATOM     26  C   UNL A   1     -24.973  -2.505  29.788  0.00  0.00    -0.003 C 
ATOM     27  C   UNL A   1     -23.906  -3.173  29.146  0.00  0.00    -0.003 C 
ATOM     28  C   UNL A   1     -23.989  -4.549  28.853  0.00  0.00    -0.000 C 
ATOM     29  C   UNL A   1     -25.137  -5.280  29.205  0.00  0.00    -0.000 C 
ATOM     30  C   UNL A   1     -26.232  -4.611  29.784  0.00  0.00    -0.000 C 
ATOM     31  C   UNL A   1     -26.155  -3.232  30.065  0.00  0.00    -0.003 C 
ENDBRANCH  25  26
BRANCH  25  32
ATOM     32  C   UNL A   1     -25.387  -0.679  31.571  0.00  0.00    +0.096 C 
ATOM     33  C   UNL A   1     -25.189   0.773  32.028  0.00  0.00    +0.021 C 
ATOM     34  C   UNL A   1     -25.336   0.684  33.544  0.00  0.00    +0.020 C 
ATOM     35  C   UNL A   1     -24.829  -0.715  33.905  0.00  0.00    +0.089 C 
ATOM     36  N   UNL A   1     -24.758  -1.481  32.646  0.00  0.00    -0.217 NA
ENDBRANCH  25  32
ENDBRANCH   2  25
BRANCH   3  37
ATOM     37  C   UNL A   1     -28.779  -0.208  27.981  0.00  0.00    +0.095 C 
BRANCH  37  45
ATOM     38  N   UNL A   1     -31.922  -1.851  29.563  0.00  0.00    -0.174 NA
ATOM     39  C   UNL A   1     -33.626   0.268  29.370  0.00  0.00    +0.117 C 
ATOM     40  C   UNL A   1     -31.340  -1.556  28.397  0.00  0.00    +0.243 C 
ATOM     41  O   UNL A   1     -34.100  -1.058  29.156  0.00  0.00    -0.336 OA
ATOM     42  C   UNL A   1     -32.268   0.834  29.645  0.00  0.00    +0.030 C 
ATOM     43  O   UNL A   1     -31.445  -2.000  27.269  0.00  0.00    -0.273 OA
ATOM     44  C   UNL A   1     -31.025   1.085  28.854  0.00  0.00    +0.012 C 
ATOM     45  C   UNL A   1     -30.332  -0.226  28.426  0.00  0.00    +0.087 C 
ATOM     46  C   UNL A   1     -33.489  -2.296  29.073  0.00  0.00    +0.260 C 
BRANCH  39  47
ATOM     47  C   UNL A   1     -34.650   1.260  28.864  0.00  0.00    +0.030 C 
ATOM     48  C   UNL A   1     -35.155   1.380  27.519  0.00  0.00    +0.003 C 
ENDBRANCH  39  47
ENDBRANCH  37  45
ENDBRANCH   3  37
TORSDOF 12
