REMARK  Name = outputs/IAG933/test6/raw/output_6467_IAG933_linker_design_.xyz
REMARK  13 active torsions:
REMARK  status: ('A' for Active; 'I' for Inactive)
REMARK    1  A    between atoms: C_1  and  C_2
REMARK    2  A    between atoms: C_1  and  C_8
REMARK    3  A    between atoms: C_1  and  C_34
REMARK    4  A    between atoms: C_13  and  C_42
REMARK    5  A    between atoms: C_14  and  C_15
REMARK    6  A    between atoms: C_21  and  O_22
REMARK    7  A    between atoms: O_22  and  C_23
REMARK    8  A    between atoms: C_23  and  C_24
REMARK    9  A    between atoms: C_33  and  C_39
REMARK   10  A    between atoms: C_33  and  C_44
REMARK   11  A    between atoms: C_34  and  N_46
REMARK   12  A    between atoms: N_41  and  C_42
REMARK   13  A    between atoms: C_42  and  N_46
REMARK                            x       y       z     vdW  Elec       q    Type
REMARK                         _______ _______ _______ _____ _____    ______ ____
ROOT
ATOM      1  C   UNL A   1     -26.927   0.892  29.463  0.00  0.00    +0.250 C 
ATOM      2  N   UNL A   1     -25.714   0.861  28.971  0.00  0.00    -0.263 N 
ATOM      3  O   UNL A   1     -27.717   0.026  29.081  0.00  0.00    -0.273 OA
ENDROOT
BRANCH   1   5
ATOM      4  N   UNL A   1     -28.710   2.278  29.759  0.00  0.00    -0.117 NA
ATOM      5  C   UNL A   1     -27.456   1.998  30.553  0.00  0.00    +0.228 C 
BRANCH   5  12
ATOM      6  O   UNL A   1     -25.210   7.084  32.832  0.00  0.00    -0.220 OA
ATOM      7  C   UNL A   1     -25.261   5.825  32.114  0.00  0.00    +0.188 C 
ATOM      8  C   UNL A   1     -24.507   4.939  33.023  0.00  0.00    +0.068 C 
ATOM      9  O   UNL A   1     -28.903   3.390  32.007  0.00  0.00    -0.186 OA
ATOM     10  O   UNL A   1     -26.623   3.849  33.707  0.00  0.00    -0.280 OA
ATOM     11  C   UNL A   1     -25.404   4.895  35.512  0.00  0.00    +0.034 C 
ATOM     12  C   UNL A   1     -27.733   3.408  31.548  0.00  0.00    +0.284 C 
ATOM     13  N   UNL A   1     -26.965   4.128  32.413  0.00  0.00    -0.108 NA
ATOM     14  N   UNL A   1     -27.373   4.606  30.572  0.00  0.00    -0.156 NA
ATOM     15  C   UNL A   1     -26.608   5.316  31.632  0.00  0.00    +0.194 C 
ATOM     16  C   UNL A   1     -25.366   4.393  34.111  0.00  0.00    +0.141 C 
ENDBRANCH   5  12
ENDBRANCH   1   5
BRANCH   2  17
ATOM     17  C   UNL A   1     -25.215  -0.666  28.740  0.00  0.00    +0.101 C 
BRANCH  17  18
ATOM     18  C   UNL A   1     -24.855  -1.012  30.143  0.00  0.00    +0.058 C 
BRANCH  18  19
ATOM     19  C   UNL A   1     -24.973  -2.505  29.788  0.00  0.00    -0.019 C 
ATOM     20  C   UNL A   1     -23.906  -3.173  29.146  0.00  0.00    -0.004 C 
ATOM     21  C   UNL A   1     -23.989  -4.549  28.853  0.00  0.00    -0.000 C 
ATOM     22  C   UNL A   1     -25.137  -5.280  29.205  0.00  0.00    -0.000 C 
ATOM     23  C   UNL A   1     -26.232  -4.611  29.784  0.00  0.00    -0.000 C 
ATOM     24  C   UNL A   1     -26.155  -3.232  30.065  0.00  0.00    -0.004 C 
ENDBRANCH  18  19
BRANCH  18  25
ATOM     25  C   UNL A   1     -25.387  -0.679  31.571  0.00  0.00    +0.079 C 
ATOM     26  C   UNL A   1     -25.189   0.773  32.028  0.00  0.00    +0.019 C 
ATOM     27  C   UNL A   1     -25.336   0.684  33.544  0.00  0.00    +0.020 C 
ATOM     28  C   UNL A   1     -24.829  -0.715  33.905  0.00  0.00    +0.089 C 
ATOM     29  N   UNL A   1     -24.758  -1.481  32.646  0.00  0.00    -0.219 NA
ENDBRANCH  18  25
ENDBRANCH  17  18
ENDBRANCH   2  17
BRANCH   2  30
ATOM     30  C   UNL A   1     -24.941   1.254  27.894  0.00  0.00    +0.162 C 
BRANCH  30  31
ATOM     31  C   UNL A   1     -25.688   1.614  26.461  0.00  0.00    +0.108 C 
ATOM     32  C   UNL A   1     -26.250   2.920  26.395  0.00  0.00    +0.058 C 
ATOM     33  C   UNL A   1     -27.438   3.091  25.645  0.00  0.00    +0.102 C 
ATOM     34  N   UNL A   1     -28.075   2.089  25.003  0.00  0.00    -0.212 NA
ATOM     35  C   UNL A   1     -27.543   0.849  25.079  0.00  0.00    +0.234 C 
ATOM     36  C   UNL A   1     -26.354   0.576  25.777  0.00  0.00    +0.243 C 
ATOM     37  F   UNL A   1     -25.860  -0.681  25.795  0.00  0.00    -0.227 F 
BRANCH  32  38
ATOM     38  C   UNL A   1     -25.642   4.093  27.123  0.00  0.00    +0.263 C 
ATOM     39  N   UNL A   1     -25.614   5.252  26.449  0.00  0.00    -0.200 NA
ATOM     40  C   UNL A   1     -25.026   6.479  26.963  0.00  0.00    +0.139 C 
ATOM     41  O   UNL A   1     -25.143   3.966  28.243  0.00  0.00    -0.269 OA
ENDBRANCH  32  38
BRANCH  35  42
ATOM     42  O   UNL A   1     -28.193  -0.208  24.477  0.00  0.00    -0.459 OA
BRANCH  42  43
ATOM     43  C   UNL A   1     -29.460   0.005  23.866  0.00  0.00    +0.242 C 
BRANCH  43  44
ATOM     44  C   UNL A   1     -30.065  -1.377  23.573  0.00  0.00    +0.229 C 
ATOM     45  O   UNL A   1     -30.729  -1.878  24.721  0.00  0.00    -0.216 OA
ENDBRANCH  43  44
ENDBRANCH  42  43
ENDBRANCH  35  42
ENDBRANCH  30  31
BRANCH  30  49
ATOM     46  C   UNL A   1     -22.979   1.679  26.340  0.00  0.00    +0.106 C 
ATOM     47  C   UNL A   1     -21.800   2.006  26.640  0.00  0.00    +0.190 C 
ATOM     48  O   UNL A   1     -21.538   2.114  27.983  0.00  0.00    -0.451 OA
ATOM     49  N   UNL A   1     -23.613   1.523  27.681  0.00  0.00    -0.252 N 
ATOM     50  C   UNL A   1     -22.716   1.869  28.501  0.00  0.00    +0.307 C 
ENDBRANCH  30  49
ENDBRANCH   2  30
TORSDOF 13
