MODEL 646
MODEL 1
REMARK VINA RESULT:    -4.411      0.000      0.000
REMARK INTER + INTRA:          -4.411
REMARK INTER:                  -4.411
REMARK INTRA:                   0.000
REMARK UNBOUND:                 0.000
REMARK  Name = No_646-gen_results/8p0m/2024-11-27-11-27-31/
REMARK  0 active torsions:
REMARK  status: ('A' for Active; 'I' for Inactive)
REMARK                            x       y       z     vdW  Elec       q    Type
REMARK                         _______ _______ _______ _____ _____    ______ ____
ROOT
ATOM      1  C   UNL A   1      -9.225  -9.226  20.194  0.00  0.00    +0.011 A 
ATOM      2  C   UNL A   1      -8.216  -9.813  19.880  0.00  0.00    +0.058 A 
ATOM      3  C   UNL A   1      -8.003 -10.520  18.807  0.00  0.00    +0.011 A 
ATOM      4  C   UNL A   1      -9.071 -10.653  17.868  0.00  0.00    +0.001 A 
ATOM      5  C   UNL A   1     -10.315  -9.219  19.237  0.00  0.00    +0.001 A 
ATOM      6  C   UNL A   1     -10.187  -9.934  18.119  0.00  0.00    +0.000 A 
ATOM      7 CL   UNL A   1      -6.812  -9.747  20.961  0.00  0.00    -0.082 Cl
ENDROOT
TORSDOF 0
ENDMDL
ENDMDL
