REMARK  Name = outputs/IAG933/test6/raw/output_647_IAG933_linker_design_.xyz
REMARK  15 active torsions:
REMARK  status: ('A' for Active; 'I' for Inactive)
REMARK    1  A    between atoms: C_1  and  C_2
REMARK    2  A    between atoms: C_1  and  C_8
REMARK    3  A    between atoms: C_1  and  N_43
REMARK    4  A    between atoms: C_13  and  N_39
REMARK    5  A    between atoms: C_14  and  C_15
REMARK    6  A    between atoms: C_21  and  O_22
REMARK    7  A    between atoms: O_22  and  C_23
REMARK    8  A    between atoms: C_23  and  C_24
REMARK    9  A    between atoms: CA_29  and  C_33
REMARK   10  A    between atoms: CA_29  and  C_42
REMARK   11  A    between atoms: C_30  and  S_45
REMARK   12  A    between atoms: C_34  and  N_43
REMARK   13  A    between atoms: C_41  and  C_42
REMARK   14  A    between atoms: C_41  and  S_45
REMARK   15  A    between atoms: N_43  and  S_45
REMARK                            x       y       z     vdW  Elec       q    Type
REMARK                         _______ _______ _______ _____ _____    ______ ____
ROOT
ATOM      1  N   UNL A   1     -25.503  -0.168  29.223  0.00  0.00    -0.200 NA
ENDROOT
BRANCH   1   4
ATOM      2  O   UNL A   1     -22.814   2.421  25.874  0.00  0.00    -0.275 OA
ATOM      3  C   UNL A   1     -21.157   1.712  27.931  0.00  0.00    +0.010 C 
ATOM      4  C   UNL A   1     -24.625   0.456  28.419  0.00  0.00    +0.151 C 
ATOM      5  C   UNL A   1     -23.197   0.291  28.759  0.00  0.00    +0.047 C 
ATOM      6  N   UNL A   1     -24.609   1.345  27.310  0.00  0.00    -0.243 N 
ATOM      7  C   UNL A   1     -23.343   1.900  27.025  0.00  0.00    +0.230 C 
ATOM      8  C   UNL A   1     -22.629   1.657  28.311  0.00  0.00    +0.080 C 
BRANCH   6   9
ATOM      9  C   UNL A   1     -25.688   1.614  26.461  0.00  0.00    +0.093 C 
ATOM     10  C   UNL A   1     -26.250   2.920  26.395  0.00  0.00    +0.090 C 
ATOM     11  C   UNL A   1     -27.438   3.091  25.645  0.00  0.00    +0.108 C 
ATOM     12  N   UNL A   1     -28.075   2.089  25.003  0.00  0.00    -0.208 NA
ATOM     13  C   UNL A   1     -27.543   0.849  25.079  0.00  0.00    +0.255 C 
ATOM     14  C   UNL A   1     -26.354   0.576  25.777  0.00  0.00    +0.207 C 
ATOM     15  F   UNL A   1     -25.860  -0.681  25.795  0.00  0.00    -0.198 F 
BRANCH  10  16
ATOM     16  C   UNL A   1     -25.642   4.093  27.123  0.00  0.00    +0.268 C 
ATOM     17  N   UNL A   1     -25.614   5.252  26.449  0.00  0.00    -0.200 NA
ATOM     18  C   UNL A   1     -25.026   6.479  26.963  0.00  0.00    +0.139 C 
ATOM     19  O   UNL A   1     -25.143   3.966  28.243  0.00  0.00    -0.268 OA
ENDBRANCH  10  16
BRANCH  13  20
ATOM     20  O   UNL A   1     -28.193  -0.208  24.477  0.00  0.00    -0.456 OA
BRANCH  20  21
ATOM     21  C   UNL A   1     -29.460   0.005  23.866  0.00  0.00    +0.243 C 
BRANCH  21  22
ATOM     22  C   UNL A   1     -30.065  -1.377  23.573  0.00  0.00    +0.229 C 
ATOM     23  O   UNL A   1     -30.729  -1.878  24.721  0.00  0.00    -0.216 OA
ENDBRANCH  21  22
ENDBRANCH  20  21
ENDBRANCH  13  20
ENDBRANCH   6   9
ENDBRANCH   1   4
BRANCH   1  25
ATOM     24  O   UNL A   1     -27.058   1.758  29.262  0.00  0.00    -0.154 OA
ATOM     25  S   UNL A   1     -27.232   0.270  29.099  0.00  0.00    +0.011 S 
BRANCH  25  26
ATOM     26  C   UNL A   1     -28.357  -0.349  30.262  0.00  0.00    +0.263 C 
ATOM     27  O   UNL A   1     -28.946  -1.343  29.657  0.00  0.00    -0.205 OA
ENDBRANCH  25  26
BRANCH  25  28
ATOM     28  C   UNL A   1     -28.356  -0.030  27.709  0.00  0.00    +0.086 C 
BRANCH  28  29
ATOM     29  C   UNL A   1     -29.714   0.632  27.549  0.00  0.00    +0.035 C 
BRANCH  29  30
ATOM     30  CA  UNL A   1     -30.894   1.001  28.412  0.00  0.00    +0.126 C 
ATOM     31  N   UNL A   1     -31.355   0.542  29.772  0.00  0.00    -0.130 NA
BRANCH  30  32
ATOM     32  C   UNL A   1     -32.056   0.846  27.429  0.00  0.00    +0.201 C 
ATOM     33  O   UNL A   1     -32.383  -0.543  27.240  0.00  0.00    -0.219 OA
ENDBRANCH  30  32
ENDBRANCH  29  30
ENDBRANCH  28  29
ENDBRANCH  25  28
ENDBRANCH   1  25
BRANCH   1  34
ATOM     34  C   UNL A   1     -24.855  -1.012  30.143  0.00  0.00    +0.108 C 
BRANCH  34  35
ATOM     35  C   UNL A   1     -24.973  -2.505  29.788  0.00  0.00    -0.005 C 
ATOM     36  C   UNL A   1     -23.906  -3.173  29.146  0.00  0.00    -0.003 C 
ATOM     37  C   UNL A   1     -23.989  -4.549  28.853  0.00  0.00    -0.000 C 
ATOM     38  C   UNL A   1     -25.137  -5.280  29.205  0.00  0.00    -0.000 C 
ATOM     39  C   UNL A   1     -26.232  -4.611  29.784  0.00  0.00    -0.000 C 
ATOM     40  C   UNL A   1     -26.155  -3.232  30.065  0.00  0.00    -0.003 C 
ENDBRANCH  34  35
BRANCH  34  41
ATOM     41  C   UNL A   1     -25.387  -0.679  31.571  0.00  0.00    +0.092 C 
ATOM     42  C   UNL A   1     -25.189   0.773  32.028  0.00  0.00    +0.021 C 
ATOM     43  C   UNL A   1     -25.336   0.684  33.544  0.00  0.00    +0.020 C 
ATOM     44  C   UNL A   1     -24.829  -0.715  33.905  0.00  0.00    +0.089 C 
ATOM     45  N   UNL A   1     -24.758  -1.481  32.646  0.00  0.00    -0.218 NA
ENDBRANCH  34  41
ENDBRANCH   1  34
TORSDOF 15
