REMARK  Name = outputs/IAG933/test6/raw/output_6478_IAG933_linker_design_.xyz
REMARK  13 active torsions:
REMARK  status: ('A' for Active; 'I' for Inactive)
REMARK    1  A    between atoms: C_1  and  C_2
REMARK    2  A    between atoms: C_1  and  C_8
REMARK    3  A    between atoms: C_1  and  N_43
REMARK    4  A    between atoms: C_13  and  C_30
REMARK    5  A    between atoms: C_14  and  C_15
REMARK    6  A    between atoms: C_21  and  O_22
REMARK    7  A    between atoms: O_22  and  C_23
REMARK    8  A    between atoms: C_23  and  C_24
REMARK    9  A    between atoms: C_33  and  N_43
REMARK   10  A    between atoms: C_34  and  C_38
REMARK   11  A    between atoms: O_37  and  C_41
REMARK   12  A    between atoms: C_38  and  C_40
REMARK   13  A    between atoms: C_40  and  N_43
REMARK                            x       y       z     vdW  Elec       q    Type
REMARK                         _______ _______ _______ _____ _____    ______ ____
ROOT
ATOM      1  N   UNL A   1     -25.292  -0.247  28.977  0.00  0.00    -0.307 N 
ENDROOT
BRANCH   1   5
ATOM      2  C   UNL A   1     -22.277   1.208  27.604  0.00  0.00    +0.134 C 
ATOM      3  C   UNL A   1     -24.455   1.228  27.155  0.00  0.00    +0.025 C 
ATOM      4 CL   UNL A   1     -22.825   2.232  25.148  0.00  0.00    -0.080 Cl
ATOM      5  C   UNL A   1     -24.322   0.403  28.287  0.00  0.00    +0.033 C 
ATOM      6  C   UNL A   1     -23.201   1.624  26.710  0.00  0.00    +0.082 C 
ATOM      7  C   UNL A   1     -22.934   0.414  28.571  0.00  0.00    +0.098 C 
ATOM      8  F   UNL A   1     -20.957   1.584  27.526  0.00  0.00    -0.208 F 
BRANCH   3   9
ATOM      9  C   UNL A   1     -25.688   1.614  26.461  0.00  0.00    +0.040 C 
ATOM     10  C   UNL A   1     -26.250   2.920  26.395  0.00  0.00    +0.077 C 
ATOM     11  C   UNL A   1     -27.438   3.091  25.645  0.00  0.00    +0.107 C 
ATOM     12  N   UNL A   1     -28.075   2.089  25.003  0.00  0.00    -0.208 NA
ATOM     13  C   UNL A   1     -27.543   0.849  25.079  0.00  0.00    +0.253 C 
ATOM     14  C   UNL A   1     -26.354   0.576  25.777  0.00  0.00    +0.193 C 
ATOM     15  F   UNL A   1     -25.860  -0.681  25.795  0.00  0.00    -0.199 F 
BRANCH  10  16
ATOM     16  C   UNL A   1     -25.642   4.093  27.123  0.00  0.00    +0.266 C 
ATOM     17  N   UNL A   1     -25.614   5.252  26.449  0.00  0.00    -0.200 NA
ATOM     18  C   UNL A   1     -25.026   6.479  26.963  0.00  0.00    +0.139 C 
ATOM     19  O   UNL A   1     -25.143   3.966  28.243  0.00  0.00    -0.268 OA
ENDBRANCH  10  16
BRANCH  13  20
ATOM     20  O   UNL A   1     -28.193  -0.208  24.477  0.00  0.00    -0.456 OA
BRANCH  20  21
ATOM     21  C   UNL A   1     -29.460   0.005  23.866  0.00  0.00    +0.243 C 
BRANCH  21  22
ATOM     22  C   UNL A   1     -30.065  -1.377  23.573  0.00  0.00    +0.229 C 
ATOM     23  O   UNL A   1     -30.729  -1.878  24.721  0.00  0.00    -0.216 OA
ENDBRANCH  21  22
ENDBRANCH  20  21
ENDBRANCH  13  20
ENDBRANCH   3   9
ENDBRANCH   1   5
BRANCH   1  24
ATOM     24  C   UNL A   1     -24.855  -1.012  30.143  0.00  0.00    +0.111 C 
BRANCH  24  25
ATOM     25  C   UNL A   1     -24.973  -2.505  29.788  0.00  0.00    -0.003 C 
ATOM     26  C   UNL A   1     -23.906  -3.173  29.146  0.00  0.00    -0.003 C 
ATOM     27  C   UNL A   1     -23.989  -4.549  28.853  0.00  0.00    -0.000 C 
ATOM     28  C   UNL A   1     -25.137  -5.280  29.205  0.00  0.00    -0.000 C 
ATOM     29  C   UNL A   1     -26.232  -4.611  29.784  0.00  0.00    -0.000 C 
ATOM     30  C   UNL A   1     -26.155  -3.232  30.065  0.00  0.00    -0.003 C 
ENDBRANCH  24  25
BRANCH  24  31
ATOM     31  C   UNL A   1     -25.387  -0.679  31.571  0.00  0.00    +0.095 C 
ATOM     32  C   UNL A   1     -25.189   0.773  32.028  0.00  0.00    +0.021 C 
ATOM     33  C   UNL A   1     -25.336   0.684  33.544  0.00  0.00    +0.020 C 
ATOM     34  C   UNL A   1     -24.829  -0.715  33.905  0.00  0.00    +0.089 C 
ATOM     35  N   UNL A   1     -24.758  -1.481  32.646  0.00  0.00    -0.217 NA
ENDBRANCH  24  31
ENDBRANCH   1  24
BRANCH   1  36
ATOM     36  C   UNL A   1     -26.727  -0.417  28.663  0.00  0.00    +0.096 C 
BRANCH  36  37
ATOM     37  C   UNL A   1     -27.037   1.046  29.109  0.00  0.00    +0.051 C 
BRANCH  37  40
ATOM     38  C   UNL A   1     -30.340   0.707  27.880  0.00  0.00    -0.004 C 
ATOM     39  C   UNL A   1     -31.747   2.552  27.092  0.00  0.00    +0.031 C 
ATOM     40  C   UNL A   1     -28.228   1.327  28.873  0.00  0.00    +0.017 C 
ATOM     41  C   UNL A   1     -29.900   2.960  28.661  0.00  0.00    +0.036 C 
ATOM     42  C   UNL A   1     -28.687   2.620  29.202  0.00  0.00    +0.182 C 
ATOM     43  C   UNL A   1     -30.615   2.061  27.933  0.00  0.00    -0.019 C 
ATOM     44  C   UNL A   1     -29.093   0.347  28.283  0.00  0.00    -0.001 C 
BRANCH  42  45
ATOM     45  O   UNL A   1     -28.009   3.442  30.000  0.00  0.00    -0.303 OA
ATOM     46  O   UNL A   1     -26.722   3.268  30.411  0.00  0.00    +0.028 OA
ENDBRANCH  42  45
ENDBRANCH  37  40
ENDBRANCH  36  37
ENDBRANCH   1  36
TORSDOF 13
