REMARK  Name = outputs/IAG933/test6/raw/output_6484_IAG933_linker_design_.xyz
REMARK  11 active torsions:
REMARK  status: ('A' for Active; 'I' for Inactive)
REMARK    1  A    between atoms: C_1  and  C_2
REMARK    2  A    between atoms: C_1  and  C_8
REMARK    3  A    between atoms: C_1  and  C_34
REMARK    4  A    between atoms: C_13  and  C_39
REMARK    5  A    between atoms: C_14  and  C_15
REMARK    6  A    between atoms: C_21  and  O_22
REMARK    7  A    between atoms: O_22  and  C_23
REMARK    8  A    between atoms: C_23  and  C_24
REMARK    9  A    between atoms: C_31  and  C_38
REMARK   10  A    between atoms: O_33  and  C_36
REMARK   11  A    between atoms: C_38  and  C_46
REMARK                            x       y       z     vdW  Elec       q    Type
REMARK                         _______ _______ _______ _____ _____    ______ ____
ROOT
ATOM      1  C   UNL A   1     -23.333   1.669  27.054  0.00  0.00    +0.035 C 
ATOM      2  C   UNL A   1     -25.279   0.843  28.691  0.00  0.00    +0.009 C 
ATOM      3 CL   UNL A   1     -23.084   2.728  25.555  0.00  0.00    -0.087 Cl
ATOM      4  C   UNL A   1     -24.150  -0.079  29.186  0.00  0.00    +0.006 C 
ATOM      5  C   UNL A   1     -21.701   0.409  28.483  0.00  0.00    +0.023 C 
ATOM      6  C   UNL A   1     -24.610   1.250  27.312  0.00  0.00    +0.058 C 
ATOM      7  C   UNL A   1     -22.646  -0.111  29.346  0.00  0.00    +0.005 C 
ATOM      8  C   UNL A   1     -22.057   1.325  27.521  0.00  0.00    -0.019 C 
ATOM      9  C   UNL A   1     -20.316  -0.019  28.605  0.00  0.00    +0.005 C 
ENDROOT
BRANCH   6  10
ATOM     10  C   UNL A   1     -25.688   1.614  26.461  0.00  0.00    +0.021 C 
ATOM     11  C   UNL A   1     -26.250   2.920  26.395  0.00  0.00    +0.073 C 
ATOM     12  C   UNL A   1     -27.438   3.091  25.645  0.00  0.00    +0.106 C 
ATOM     13  N   UNL A   1     -28.075   2.089  25.003  0.00  0.00    -0.208 NA
ATOM     14  C   UNL A   1     -27.543   0.849  25.079  0.00  0.00    +0.253 C 
ATOM     15  C   UNL A   1     -26.354   0.576  25.777  0.00  0.00    +0.189 C 
ATOM     16  F   UNL A   1     -25.860  -0.681  25.795  0.00  0.00    -0.200 F 
BRANCH  11  17
ATOM     17  C   UNL A   1     -25.642   4.093  27.123  0.00  0.00    +0.266 C 
ATOM     18  N   UNL A   1     -25.614   5.252  26.449  0.00  0.00    -0.200 NA
ATOM     19  C   UNL A   1     -25.026   6.479  26.963  0.00  0.00    +0.139 C 
ATOM     20  O   UNL A   1     -25.143   3.966  28.243  0.00  0.00    -0.268 OA
ENDBRANCH  11  17
BRANCH  14  21
ATOM     21  O   UNL A   1     -28.193  -0.208  24.477  0.00  0.00    -0.456 OA
BRANCH  21  22
ATOM     22  C   UNL A   1     -29.460   0.005  23.866  0.00  0.00    +0.243 C 
BRANCH  22  23
ATOM     23  C   UNL A   1     -30.065  -1.377  23.573  0.00  0.00    +0.229 C 
ATOM     24  O   UNL A   1     -30.729  -1.878  24.721  0.00  0.00    -0.216 OA
ENDBRANCH  22  23
ENDBRANCH  21  22
ENDBRANCH  14  21
ENDBRANCH   6  10
BRANCH   4  25
ATOM     25  C   UNL A   1     -24.855  -1.012  30.143  0.00  0.00    +0.038 C 
BRANCH  25  26
ATOM     26  C   UNL A   1     -24.973  -2.505  29.788  0.00  0.00    -0.021 C 
ATOM     27  C   UNL A   1     -23.906  -3.173  29.146  0.00  0.00    -0.004 C 
ATOM     28  C   UNL A   1     -23.989  -4.549  28.853  0.00  0.00    -0.000 C 
ATOM     29  C   UNL A   1     -25.137  -5.280  29.205  0.00  0.00    -0.000 C 
ATOM     30  C   UNL A   1     -26.232  -4.611  29.784  0.00  0.00    -0.000 C 
ATOM     31  C   UNL A   1     -26.155  -3.232  30.065  0.00  0.00    -0.004 C 
ENDBRANCH  25  26
BRANCH  25  32
ATOM     32  C   UNL A   1     -25.387  -0.679  31.571  0.00  0.00    +0.077 C 
ATOM     33  C   UNL A   1     -25.189   0.773  32.028  0.00  0.00    +0.019 C 
ATOM     34  C   UNL A   1     -25.336   0.684  33.544  0.00  0.00    +0.020 C 
ATOM     35  C   UNL A   1     -24.829  -0.715  33.905  0.00  0.00    +0.089 C 
ATOM     36  N   UNL A   1     -24.758  -1.481  32.646  0.00  0.00    -0.219 NA
ENDBRANCH  25  32
ENDBRANCH   4  25
BRANCH   2  37
ATOM     37  C   UNL A   1     -26.617   0.049  28.557  0.00  0.00    +0.001 C 
BRANCH  37  44
ATOM     38  C   UNL A   1     -29.158   2.871  30.080  0.00  0.00    +0.027 C 
ATOM     39  C   UNL A   1     -29.773   1.778  27.801  0.00  0.00    +0.027 C 
ATOM     40  C   UNL A   1     -29.920   3.028  28.748  0.00  0.00    +0.093 C 
ATOM     41  C   UNL A   1     -28.651   1.497  30.453  0.00  0.00    +0.002 C 
ATOM     42  C   UNL A   1     -29.010   0.585  28.115  0.00  0.00    +0.002 C 
ATOM     43  C   UNL A   1     -29.340   4.314  28.088  0.00  0.00    +0.030 C 
ATOM     44  C   UNL A   1     -27.951   0.634  29.245  0.00  0.00    +0.000 C 
BRANCH  40  45
ATOM     45  O   UNL A   1     -31.328   3.314  28.952  0.00  0.00    -0.356 OA
ATOM     46  C   UNL A   1     -31.861   4.633  29.277  0.00  0.00    +0.174 C 
ENDBRANCH  40  45
ENDBRANCH  37  44
ENDBRANCH   2  37
TORSDOF 11
