REMARK  Name = outputs/IAG933/test6/raw/output_6485_IAG933_linker_design_.xyz
REMARK  12 active torsions:
REMARK  status: ('A' for Active; 'I' for Inactive)
REMARK    1  A    between atoms: C_1  and  C_2
REMARK    2  A    between atoms: C_1  and  C_8
REMARK    3  A    between atoms: C_1  and  C_35
REMARK    4  A    between atoms: C_9  and  C_28
REMARK    5  A    between atoms: C_13  and  C_42
REMARK    6  A    between atoms: C_14  and  C_15
REMARK    7  A    between atoms: C_21  and  O_22
REMARK    8  A    between atoms: O_22  and  C_23
REMARK    9  A    between atoms: C_23  and  C_24
REMARK   10  A    between atoms: C_28  and  N_32
REMARK   11  A    between atoms: C_30  and  N_32
REMARK   12  A    between atoms: C_30  and  C_33
REMARK                            x       y       z     vdW  Elec       q    Type
REMARK                         _______ _______ _______ _____ _____    ______ ____
ROOT
ATOM      1  O   UNL A   1     -22.925   2.350  25.815  0.00  0.00    -0.280 OA
ATOM      2  F   UNL A   1     -20.844   2.060  27.351  0.00  0.00    -0.197 F 
ATOM      3  C   UNL A   1     -24.143  -0.175  29.248  0.00  0.00    +0.347 C 
ATOM      4  C   UNL A   1     -21.966   1.411  27.736  0.00  0.00    +0.229 C 
ATOM      5  C   UNL A   1     -21.847   0.550  28.814  0.00  0.00    +0.268 C 
ATOM      6  C   UNL A   1     -23.113   1.681  26.955  0.00  0.00    +0.267 C 
ATOM      7  N   UNL A   1     -22.815  -0.148  29.406  0.00  0.00    -0.034 NA
ATOM      8  N   UNL A   1     -24.877   0.619  28.387  0.00  0.00    -0.006 NA
ATOM      9  C   UNL A   1     -24.453   1.305  27.333  0.00  0.00    +0.226 C 
ENDROOT
BRANCH   9  10
ATOM     10  C   UNL A   1     -25.688   1.614  26.461  0.00  0.00    +0.082 C 
ATOM     11  C   UNL A   1     -26.250   2.920  26.395  0.00  0.00    +0.080 C 
ATOM     12  C   UNL A   1     -27.438   3.091  25.645  0.00  0.00    +0.107 C 
ATOM     13  N   UNL A   1     -28.075   2.089  25.003  0.00  0.00    -0.208 NA
ATOM     14  C   UNL A   1     -27.543   0.849  25.079  0.00  0.00    +0.253 C 
ATOM     15  C   UNL A   1     -26.354   0.576  25.777  0.00  0.00    +0.197 C 
ATOM     16  F   UNL A   1     -25.860  -0.681  25.795  0.00  0.00    -0.199 F 
BRANCH  11  17
ATOM     17  C   UNL A   1     -25.642   4.093  27.123  0.00  0.00    +0.267 C 
ATOM     18  N   UNL A   1     -25.614   5.252  26.449  0.00  0.00    -0.200 NA
ATOM     19  C   UNL A   1     -25.026   6.479  26.963  0.00  0.00    +0.139 C 
ATOM     20  O   UNL A   1     -25.143   3.966  28.243  0.00  0.00    -0.268 OA
ENDBRANCH  11  17
BRANCH  14  21
ATOM     21  O   UNL A   1     -28.193  -0.208  24.477  0.00  0.00    -0.456 OA
BRANCH  21  22
ATOM     22  C   UNL A   1     -29.460   0.005  23.866  0.00  0.00    +0.243 C 
BRANCH  22  23
ATOM     23  C   UNL A   1     -30.065  -1.377  23.573  0.00  0.00    +0.229 C 
ATOM     24  O   UNL A   1     -30.729  -1.878  24.721  0.00  0.00    -0.216 OA
ENDBRANCH  22  23
ENDBRANCH  21  22
ENDBRANCH  14  21
ENDBRANCH   9  10
BRANCH   3  25
ATOM     25  C   UNL A   1     -24.855  -1.012  30.143  0.00  0.00    +0.148 C 
BRANCH  25  26
ATOM     26  C   UNL A   1     -24.973  -2.505  29.788  0.00  0.00    -0.009 C 
ATOM     27  C   UNL A   1     -23.906  -3.173  29.146  0.00  0.00    -0.004 C 
ATOM     28  C   UNL A   1     -23.989  -4.549  28.853  0.00  0.00    -0.000 C 
ATOM     29  C   UNL A   1     -25.137  -5.280  29.205  0.00  0.00    -0.000 C 
ATOM     30  C   UNL A   1     -26.232  -4.611  29.784  0.00  0.00    -0.000 C 
ATOM     31  C   UNL A   1     -26.155  -3.232  30.065  0.00  0.00    -0.004 C 
ENDBRANCH  25  26
BRANCH  25  32
ATOM     32  C   UNL A   1     -25.387  -0.679  31.571  0.00  0.00    +0.090 C 
ATOM     33  C   UNL A   1     -25.189   0.773  32.028  0.00  0.00    +0.036 C 
ATOM     34  C   UNL A   1     -25.336   0.684  33.544  0.00  0.00    +0.022 C 
ATOM     35  C   UNL A   1     -24.829  -0.715  33.905  0.00  0.00    +0.089 C 
ATOM     36  N   UNL A   1     -24.758  -1.481  32.646  0.00  0.00    -0.218 NA
BRANCH  33  37
ATOM     37  C   UNL A   1     -25.384   1.780  30.964  0.00  0.00    +0.090 C 
BRANCH  37  38
ATOM     38  N   UNL A   1     -25.205   3.240  31.072  0.00  0.00    -0.216 NA
BRANCH  38  40
ATOM     39  C   UNL A   1     -25.845   5.555  31.851  0.00  0.00    +0.022 C 
ATOM     40  C   UNL A   1     -26.170   4.057  31.870  0.00  0.00    +0.108 C 
BRANCH  40  41
ATOM     41  C   UNL A   1     -26.078   3.665  33.359  0.00  0.00    +0.210 C 
ATOM     42  F   UNL A   1     -24.726   3.840  33.700  0.00  0.00    -0.233 F 
ENDBRANCH  40  41
ENDBRANCH  38  40
ENDBRANCH  37  38
ENDBRANCH  33  37
ENDBRANCH  25  32
ENDBRANCH   3  25
TORSDOF 12
