REMARK  Name = outputs/IAG933/test6/raw/output_6487_IAG933_linker_design_.xyz
REMARK  9 active torsions:
REMARK  status: ('A' for Active; 'I' for Inactive)
REMARK    1  A    between atoms: C_1  and  C_2
REMARK    2  A    between atoms: C_1  and  C_8
REMARK    3  A    between atoms: C_1  and  N_29
REMARK    4  A    between atoms: C_13  and  C_44
REMARK    5  A    between atoms: C_14  and  C_15
REMARK    6  A    between atoms: C_21  and  O_22
REMARK    7  A    between atoms: O_22  and  C_23
REMARK    8  A    between atoms: C_23  and  C_24
REMARK    9  A    between atoms: C_43  and  C_44
REMARK                            x       y       z     vdW  Elec       q    Type
REMARK                         _______ _______ _______ _____ _____    ______ ____
ROOT
ATOM      1  C   UNL A   1     -28.798   3.187  30.365  0.00  0.00    +0.031 C 
ATOM      2  N   UNL A   1     -25.203   0.081  29.225  0.00  0.00    -0.247 NA
ATOM      3  C   UNL A   1     -28.225   2.007  29.672  0.00  0.00    -0.022 C 
ATOM      4  N   UNL A   1     -27.241  -0.280  28.550  0.00  0.00    -0.219 NA
ATOM      5  C   UNL A   1     -28.598   0.042  28.317  0.00  0.00    +0.082 C 
ATOM      6  C   UNL A   1     -26.849   1.782  29.598  0.00  0.00    +0.006 C 
ATOM      7  C   UNL A   1     -29.115   1.178  28.955  0.00  0.00    +0.013 C 
ATOM      8  C   UNL A   1     -26.341   0.581  28.970  0.00  0.00    +0.158 C 
ATOM      9  C   UNL A   1     -25.110   0.845  28.059  0.00  0.00    +0.112 C 
ENDROOT
BRANCH   9  17
ATOM     10  C   UNL A   1     -21.602   1.069  27.980  0.00  0.00    +0.231 C 
ATOM     11  F   UNL A   1     -20.355   0.949  28.442  0.00  0.00    -0.184 F 
ATOM     12  N   UNL A   1     -21.821   1.757  26.877  0.00  0.00    -0.146 NA
ATOM     13  N   UNL A   1     -22.630  -0.227  29.511  0.00  0.00    -0.124 NA
ATOM     14  O   UNL A   1     -23.559   2.572  25.619  0.00  0.00    -0.268 OA
ATOM     15  C   UNL A   1     -22.786   0.552  28.496  0.00  0.00    +0.134 C 
ATOM     16  C   UNL A   1     -23.099   1.877  26.566  0.00  0.00    +0.270 C 
ATOM     17  C   UNL A   1     -23.715   1.037  27.667  0.00  0.00    +0.070 C 
ENDBRANCH   9  17
BRANCH   9  18
ATOM     18  C   UNL A   1     -25.688   1.614  26.461  0.00  0.00    +0.091 C 
ATOM     19  C   UNL A   1     -26.250   2.920  26.395  0.00  0.00    +0.057 C 
ATOM     20  C   UNL A   1     -27.438   3.091  25.645  0.00  0.00    +0.102 C 
ATOM     21  N   UNL A   1     -28.075   2.089  25.003  0.00  0.00    -0.212 NA
ATOM     22  C   UNL A   1     -27.543   0.849  25.079  0.00  0.00    +0.234 C 
ATOM     23  C   UNL A   1     -26.354   0.576  25.777  0.00  0.00    +0.242 C 
ATOM     24  F   UNL A   1     -25.860  -0.681  25.795  0.00  0.00    -0.227 F 
BRANCH  19  25
ATOM     25  C   UNL A   1     -25.642   4.093  27.123  0.00  0.00    +0.263 C 
ATOM     26  N   UNL A   1     -25.614   5.252  26.449  0.00  0.00    -0.200 NA
ATOM     27  C   UNL A   1     -25.026   6.479  26.963  0.00  0.00    +0.139 C 
ATOM     28  O   UNL A   1     -25.143   3.966  28.243  0.00  0.00    -0.269 OA
ENDBRANCH  19  25
BRANCH  22  29
ATOM     29  O   UNL A   1     -28.193  -0.208  24.477  0.00  0.00    -0.459 OA
BRANCH  29  30
ATOM     30  C   UNL A   1     -29.460   0.005  23.866  0.00  0.00    +0.242 C 
BRANCH  30  31
ATOM     31  C   UNL A   1     -30.065  -1.377  23.573  0.00  0.00    +0.229 C 
ATOM     32  O   UNL A   1     -30.729  -1.878  24.721  0.00  0.00    -0.216 OA
ENDBRANCH  30  31
ENDBRANCH  29  30
ENDBRANCH  22  29
ENDBRANCH   9  18
BRANCH   2  33
ATOM     33  C   UNL A   1     -24.855  -1.012  30.143  0.00  0.00    +0.098 C 
BRANCH  33  34
ATOM     34  C   UNL A   1     -24.973  -2.505  29.788  0.00  0.00    -0.006 C 
ATOM     35  C   UNL A   1     -23.906  -3.173  29.146  0.00  0.00    -0.003 C 
ATOM     36  C   UNL A   1     -23.989  -4.549  28.853  0.00  0.00    -0.000 C 
ATOM     37  C   UNL A   1     -25.137  -5.280  29.205  0.00  0.00    -0.000 C 
ATOM     38  C   UNL A   1     -26.232  -4.611  29.784  0.00  0.00    -0.000 C 
ATOM     39  C   UNL A   1     -26.155  -3.232  30.065  0.00  0.00    -0.003 C 
ENDBRANCH  33  34
BRANCH  33  40
ATOM     40  C   UNL A   1     -25.387  -0.679  31.571  0.00  0.00    +0.092 C 
ATOM     41  C   UNL A   1     -25.189   0.773  32.028  0.00  0.00    +0.021 C 
ATOM     42  C   UNL A   1     -25.336   0.684  33.544  0.00  0.00    +0.020 C 
ATOM     43  C   UNL A   1     -24.829  -0.715  33.905  0.00  0.00    +0.089 C 
ATOM     44  N   UNL A   1     -24.758  -1.481  32.646  0.00  0.00    -0.218 NA
ENDBRANCH  33  40
ENDBRANCH   2  33
TORSDOF 9
