MODEL 648
MODEL 1
REMARK VINA RESULT:    -4.312      0.000      0.000
REMARK INTER + INTRA:          -4.312
REMARK INTER:                  -4.312
REMARK INTRA:                   0.000
REMARK UNBOUND:                 0.000
REMARK  Name = No_648-gen_results/8p0m/2024-11-27-11-27-31/
REMARK  0 active torsions:
REMARK  status: ('A' for Active; 'I' for Inactive)
REMARK                            x       y       z     vdW  Elec       q    Type
REMARK                         _______ _______ _______ _____ _____    ______ ____
ROOT
ATOM      1  C   UNL A   1     -24.228  -4.887  28.674  0.00  0.00    +0.000 A 
ATOM      2  C   UNL A   1     -25.097  -5.274  29.128  0.00  0.00    +0.000 A 
ATOM      3  C   UNL A   1     -24.095  -3.432  28.812  0.00  0.00    +0.000 A 
ATOM      4  C   UNL A   1     -25.072  -2.666  29.301  0.00  0.00    +0.000 A 
ATOM      5  C   UNL A   1     -26.277  -4.660  29.685  0.00  0.00    +0.000 A 
ATOM      6  C   UNL A   1     -26.145  -3.306  29.782  0.00  0.00    +0.000 A 
ENDROOT
TORSDOF 0
ENDMDL
ENDMDL
