REMARK  Name = outputs/IAG933/test6/raw/output_6496_IAG933_linker_design_.xyz
REMARK  15 active torsions:
REMARK  status: ('A' for Active; 'I' for Inactive)
REMARK    1  A    between atoms: C_1  and  C_2
REMARK    2  A    between atoms: C_1  and  C_8
REMARK    3  A    between atoms: C_9  and  C_42
REMARK    4  A    between atoms: C_13  and  C_35
REMARK    5  A    between atoms: C_14  and  C_15
REMARK    6  A    between atoms: C_21  and  O_22
REMARK    7  A    between atoms: O_22  and  C_23
REMARK    8  A    between atoms: C_23  and  C_24
REMARK    9  A    between atoms: N_32  and  N_36
REMARK   10  A    between atoms: N_32  and  C_42
REMARK   11  A    between atoms: C_33  and  C_39
REMARK   12  A    between atoms: C_33  and  C_42
REMARK   13  A    between atoms: C_35  and  N_36
REMARK   14  A    between atoms: N_36  and  C_43
REMARK   15  A    between atoms: C_40  and  C_43
REMARK                            x       y       z     vdW  Elec       q    Type
REMARK                         _______ _______ _______ _____ _____    ______ ____
ROOT
ATOM      1  N   UNL A   1     -24.900   1.742  29.268  0.00  0.00    -0.138 NA
ENDROOT
BRANCH   1   2
ATOM      2  N   UNL A   1     -23.817   1.726  28.111  0.00  0.00    -0.176 NA
BRANCH   2   4
ATOM      3  O   UNL A   1     -22.474   1.111  29.783  0.00  0.00    -0.204 OA
ATOM      4  C   UNL A   1     -22.578   1.018  28.391  0.00  0.00    +0.227 C 
BRANCH   4   6
ATOM      5  C   UNL A   1     -20.079   1.597  27.922  0.00  0.00    +0.004 C 
ATOM      6  C   UNL A   1     -21.523   1.702  27.475  0.00  0.00    +0.051 C 
ENDBRANCH   4   6
ENDBRANCH   2   4
BRANCH   2   7
ATOM      7  C   UNL A   1     -24.294   1.258  26.755  0.00  0.00    +0.100 C 
BRANCH   7   8
ATOM      8  C   UNL A   1     -25.688   1.614  26.461  0.00  0.00    +0.088 C 
ATOM      9  C   UNL A   1     -26.250   2.920  26.395  0.00  0.00    +0.056 C 
ATOM     10  C   UNL A   1     -27.438   3.091  25.645  0.00  0.00    +0.102 C 
ATOM     11  N   UNL A   1     -28.075   2.089  25.003  0.00  0.00    -0.212 NA
ATOM     12  C   UNL A   1     -27.543   0.849  25.079  0.00  0.00    +0.234 C 
ATOM     13  C   UNL A   1     -26.354   0.576  25.777  0.00  0.00    +0.241 C 
ATOM     14  F   UNL A   1     -25.860  -0.681  25.795  0.00  0.00    -0.227 F 
BRANCH   9  15
ATOM     15  C   UNL A   1     -25.642   4.093  27.123  0.00  0.00    +0.263 C 
ATOM     16  N   UNL A   1     -25.614   5.252  26.449  0.00  0.00    -0.200 NA
ATOM     17  C   UNL A   1     -25.026   6.479  26.963  0.00  0.00    +0.139 C 
ATOM     18  O   UNL A   1     -25.143   3.966  28.243  0.00  0.00    -0.269 OA
ENDBRANCH   9  15
BRANCH  12  19
ATOM     19  O   UNL A   1     -28.193  -0.208  24.477  0.00  0.00    -0.459 OA
BRANCH  19  20
ATOM     20  C   UNL A   1     -29.460   0.005  23.866  0.00  0.00    +0.242 C 
BRANCH  20  21
ATOM     21  C   UNL A   1     -30.065  -1.377  23.573  0.00  0.00    +0.229 C 
ATOM     22  O   UNL A   1     -30.729  -1.878  24.721  0.00  0.00    -0.216 OA
ENDBRANCH  20  21
ENDBRANCH  19  20
ENDBRANCH  12  19
ENDBRANCH   7   8
ENDBRANCH   2   7
ENDBRANCH   1   2
BRANCH   1  23
ATOM     23  C   UNL A   1     -24.817   1.792  30.867  0.00  0.00    +0.153 C 
BRANCH  23  25
ATOM     24  C   UNL A   1     -25.387  -0.679  31.571  0.00  0.00    +0.079 C 
ATOM     25  C   UNL A   1     -25.189   0.773  32.028  0.00  0.00    +0.043 C 
ATOM     26  C   UNL A   1     -25.336   0.684  33.544  0.00  0.00    +0.022 C 
ATOM     27  C   UNL A   1     -24.829  -0.715  33.905  0.00  0.00    +0.089 C 
ATOM     28  N   UNL A   1     -24.758  -1.481  32.646  0.00  0.00    -0.219 NA
BRANCH  24  29
ATOM     29  C   UNL A   1     -24.855  -1.012  30.143  0.00  0.00    +0.044 C 
BRANCH  29  30
ATOM     30  C   UNL A   1     -24.973  -2.505  29.788  0.00  0.00    -0.021 C 
ATOM     31  C   UNL A   1     -23.906  -3.173  29.146  0.00  0.00    -0.004 C 
ATOM     32  C   UNL A   1     -23.989  -4.549  28.853  0.00  0.00    -0.000 C 
ATOM     33  C   UNL A   1     -25.137  -5.280  29.205  0.00  0.00    -0.000 C 
ATOM     34  C   UNL A   1     -26.232  -4.611  29.784  0.00  0.00    -0.000 C 
ATOM     35  C   UNL A   1     -26.155  -3.232  30.065  0.00  0.00    -0.004 C 
ENDBRANCH  29  30
ENDBRANCH  24  29
ENDBRANCH  23  25
BRANCH  23  36
ATOM     36  C   UNL A   1     -25.845   2.975  31.074  0.00  0.00    +0.190 C 
ATOM     37  O   UNL A   1     -27.024   2.746  30.952  0.00  0.00    -0.290 OA
BRANCH  36  42
ATOM     38  C   UNL A   1     -24.998   7.211  32.054  0.00  0.00    +0.000 C 
ATOM     39  C   UNL A   1     -24.464   6.157  32.824  0.00  0.00    +0.000 C 
ATOM     40  C   UNL A   1     -25.825   6.905  30.958  0.00  0.00    +0.000 C 
ATOM     41  C   UNL A   1     -24.805   4.855  32.527  0.00  0.00    +0.003 C 
ATOM     42  C   UNL A   1     -25.549   4.509  31.424  0.00  0.00    +0.036 C 
ATOM     43  C   UNL A   1     -26.080   5.554  30.613  0.00  0.00    +0.003 C 
ENDBRANCH  36  42
ENDBRANCH  23  36
ENDBRANCH   1  23
TORSDOF 15
