MODEL 649
MODEL 1
REMARK VINA RESULT:    -5.596      0.000      0.000
REMARK INTER + INTRA:          -6.581
REMARK INTER:                  -6.250
REMARK INTRA:                  -0.331
REMARK UNBOUND:                -0.331
REMARK  Name = No_649-gen_results/8p0m/2024-11-27-11-27-31/
REMARK  2 active torsions:
REMARK  status: ('A' for Active; 'I' for Inactive)
REMARK    1  A    between atoms: C_2  and  C_4
REMARK    2  A    between atoms: C_4  and  C_6
REMARK                            x       y       z     vdW  Elec       q    Type
REMARK                         _______ _______ _______ _____ _____    ______ ____
ROOT
ATOM      1  C   UNL A   1     -24.386  -1.215  29.396  0.00  0.00    +0.259 C 
ATOM      2  F   UNL A   1     -23.824  -0.847  28.179  0.00  0.00    -0.225 F 
ENDROOT
BRANCH   1   3
ATOM      3  C   UNL A   1     -24.769  -2.484  29.349  0.00  0.00    +0.017 A 
ATOM      4  C   UNL A   1     -25.924  -3.021  29.876  0.00  0.00    -0.001 A 
ATOM      5  C   UNL A   1     -26.319  -4.429  29.726  0.00  0.00    -0.000 A 
ATOM      6  C   UNL A   1     -25.346  -5.217  29.127  0.00  0.00    -0.000 A 
ATOM      7  C   UNL A   1     -24.126  -4.768  28.597  0.00  0.00    -0.000 A 
ATOM      8  C   UNL A   1     -23.857  -3.438  28.706  0.00  0.00    -0.001 A 
ENDBRANCH   1   3
BRANCH   1  10
ATOM      9 CL   UNL A   1     -23.777   0.408  31.068  0.00  0.00    -0.044 Cl
ATOM     10  C   UNL A   1     -23.483  -0.845  30.624  0.00  0.00    +0.363 C 
ATOM     11  F   UNL A   1     -23.564  -1.833  31.399  0.00  0.00    -0.183 F 
ATOM     12  F   UNL A   1     -22.222  -0.855  30.095  0.00  0.00    -0.183 F 
ENDBRANCH   1  10
TORSDOF 2
ENDMDL
ENDMDL
