MODEL 64
MODEL 1
REMARK VINA RESULT:    -6.035      0.000      0.000
REMARK INTER + INTRA:          -6.695
REMARK INTER:                  -6.388
REMARK INTRA:                  -0.307
REMARK UNBOUND:                -0.307
REMARK  Name = No_64-gen_results/8p0m/2024-11-27-11-27-31/
REMARK  1 active torsions:
REMARK  status: ('A' for Active; 'I' for Inactive)
REMARK    1  A    between atoms: C_2  and  N_7
REMARK                            x       y       z     vdW  Elec       q    Type
REMARK                         _______ _______ _______ _____ _____    ______ ____
ROOT
ATOM      1  C   UNL A   1     -25.659  -2.391  29.421  0.00  0.00    +0.015 A 
ATOM      2  C   UNL A   1     -24.733  -2.535  28.938  0.00  0.00    +0.048 A 
ATOM      3  C   UNL A   1     -26.428  -3.603  29.745  0.00  0.00    +0.001 A 
ATOM      4  C   UNL A   1     -25.864  -4.896  29.536  0.00  0.00    +0.000 A 
ATOM      5  C   UNL A   1     -23.910  -3.744  28.665  0.00  0.00    +0.015 A 
ATOM      6  C   UNL A   1     -24.594  -4.890  28.944  0.00  0.00    +0.001 A 
ENDROOT
BRANCH   2   7
ATOM      7  N   UNL A   1     -23.921  -1.320  28.607  0.00  0.00    -0.307 N 
ATOM      8  C   UNL A   1     -24.229  -0.294  28.008  0.00  0.00    +0.091 C 
ATOM      9  C   UNL A   1     -23.260   0.644  27.651  0.00  0.00    +0.021 C 
ATOM     10  C   UNL A   1     -22.678  -1.145  29.238  0.00  0.00    +0.091 C 
ATOM     11  C   UNL A   1     -21.736  -0.368  28.911  0.00  0.00    +0.021 C 
ATOM     12  C   UNL A   1     -22.065   0.663  28.136  0.00  0.00    +0.004 C 
ENDBRANCH   2   7
TORSDOF 1
ENDMDL
ENDMDL
