REMARK  Name = No_650-gen_results/8p0m/2024-11-27-11-27-31/
REMARK  2 active torsions:
REMARK  status: ('A' for Active; 'I' for Inactive)
REMARK    1  A    between atoms: C_2  and  C_14
REMARK    2  A    between atoms: C_3  and  C_4
REMARK                            x       y       z     vdW  Elec       q    Type
REMARK                         _______ _______ _______ _____ _____    ______ ____
ROOT
ATOM      1  C   UNL A   1     -28.016  -0.814  28.878  0.00  0.00    +0.007 A 
ATOM      2  C   UNL A   1     -28.469  -0.785  29.829  0.00  0.00    +0.081 A 
ATOM      3  C   UNL A   1     -28.182   0.428  28.113  0.00  0.00    +0.001 A 
ATOM      4  C   UNL A   1     -29.426   0.110  30.418  0.00  0.00    +0.018 A 
ATOM      5  C   UNL A   1     -29.623   1.220  29.735  0.00  0.00    +0.058 A 
ATOM      6  C   UNL A   1     -28.961   1.453  28.551  0.00  0.00    +0.011 A 
ATOM      7 CL   UNL A   1     -30.671   2.480  30.326  0.00  0.00    -0.082 Cl
ENDROOT
BRANCH   3   8
ATOM      8  C   UNL A   1     -27.450   0.643  26.850  0.00  0.00    +0.000 A 
ATOM      9  C   UNL A   1     -27.860   1.457  25.908  0.00  0.00    +0.000 A 
ATOM     10  C   UNL A   1     -27.173   1.574  24.703  0.00  0.00    +0.000 A 
ATOM     11  C   UNL A   1     -26.298   0.679  24.465  0.00  0.00    +0.000 A 
ATOM     12  C   UNL A   1     -25.737  -0.201  25.324  0.00  0.00    +0.000 A 
ATOM     13  C   UNL A   1     -26.341  -0.272  26.541  0.00  0.00    +0.000 A 
ENDBRANCH   3   8
BRANCH   2  14
ATOM     14  C   UNL A   1     -28.286  -2.135  30.707  0.00  0.00    +0.388 C 
ATOM     15  O   UNL A   1     -27.450  -2.894  30.328  0.00  0.00    -0.241 OA
ATOM     16  O   UNL A   1     -29.036  -2.339  31.684  0.00  0.00    -0.241 OA
ENDBRANCH   2  14
TORSDOF 2
