REMARK  Name = outputs/IAG933/test6/raw/output_6500_IAG933_linker_design_.xyz
REMARK  11 active torsions:
REMARK  status: ('A' for Active; 'I' for Inactive)
REMARK    1  A    between atoms: C_1  and  C_2
REMARK    2  A    between atoms: C_1  and  C_8
REMARK    3  A    between atoms: C_1  and  C_28
REMARK    4  A    between atoms: C_13  and  C_41
REMARK    5  A    between atoms: C_14  and  C_15
REMARK    6  A    between atoms: C_21  and  O_22
REMARK    7  A    between atoms: O_22  and  C_23
REMARK    8  A    between atoms: C_23  and  C_24
REMARK    9  A    between atoms: C_28  and  N_36
REMARK   10  A    between atoms: C_28  and  C_41
REMARK   11  A    between atoms: C_33  and  C_41
REMARK                            x       y       z     vdW  Elec       q    Type
REMARK                         _______ _______ _______ _____ _____    ______ ____
ROOT
ATOM      1  C   UNL A   1     -25.613  -0.085  29.109  0.00  0.00    +0.103 C 
ENDROOT
BRANCH   1   5
ATOM      2  C   UNL A   1     -29.165   2.810  31.384  0.00  0.00    +0.137 C 
ATOM      3  C   UNL A   1     -28.315  -0.203  28.820  0.00  0.00    +0.323 C 
ATOM      4  N   UNL A   1     -28.872   0.839  29.525  0.00  0.00    -0.263 N 
ATOM      5  N   UNL A   1     -27.028  -0.593  28.846  0.00  0.00    -0.190 NA
ATOM      6  F   UNL A   1     -29.181   3.479  32.617  0.00  0.00    -0.240 F 
ATOM      7  C   UNL A   1     -28.412   1.637  31.875  0.00  0.00    +0.054 C 
ATOM      8  C   UNL A   1     -30.636   2.638  31.105  0.00  0.00    +0.035 C 
ATOM      9  O   UNL A   1     -29.135  -0.821  28.158  0.00  0.00    -0.251 OA
ATOM     10  C   UNL A   1     -28.557   3.289  30.012  0.00  0.00    +0.054 C 
ATOM     11  C   UNL A   1     -28.702   0.458  31.014  0.00  0.00    +0.098 C 
ATOM     12  C   UNL A   1     -29.053   2.221  28.982  0.00  0.00    +0.098 C 
ENDBRANCH   1   5
BRANCH   1  13
ATOM     13  C   UNL A   1     -24.855  -1.012  30.143  0.00  0.00    +0.058 C 
BRANCH  13  14
ATOM     14  C   UNL A   1     -24.973  -2.505  29.788  0.00  0.00    -0.019 C 
ATOM     15  C   UNL A   1     -23.906  -3.173  29.146  0.00  0.00    -0.004 C 
ATOM     16  C   UNL A   1     -23.989  -4.549  28.853  0.00  0.00    -0.000 C 
ATOM     17  C   UNL A   1     -25.137  -5.280  29.205  0.00  0.00    -0.000 C 
ATOM     18  C   UNL A   1     -26.232  -4.611  29.784  0.00  0.00    -0.000 C 
ATOM     19  C   UNL A   1     -26.155  -3.232  30.065  0.00  0.00    -0.004 C 
ENDBRANCH  13  14
BRANCH  13  20
ATOM     20  C   UNL A   1     -25.387  -0.679  31.571  0.00  0.00    +0.079 C 
ATOM     21  C   UNL A   1     -25.189   0.773  32.028  0.00  0.00    +0.019 C 
ATOM     22  C   UNL A   1     -25.336   0.684  33.544  0.00  0.00    +0.020 C 
ATOM     23  C   UNL A   1     -24.829  -0.715  33.905  0.00  0.00    +0.089 C 
ATOM     24  N   UNL A   1     -24.758  -1.481  32.646  0.00  0.00    -0.219 NA
ENDBRANCH  13  20
ENDBRANCH   1  13
BRANCH   1  25
ATOM     25  C   UNL A   1     -25.195   1.067  28.020  0.00  0.00    +0.037 C 
BRANCH  25  26
ATOM     26  C   UNL A   1     -25.688   1.614  26.461  0.00  0.00    +0.072 C 
ATOM     27  C   UNL A   1     -26.250   2.920  26.395  0.00  0.00    +0.055 C 
ATOM     28  C   UNL A   1     -27.438   3.091  25.645  0.00  0.00    +0.102 C 
ATOM     29  N   UNL A   1     -28.075   2.089  25.003  0.00  0.00    -0.212 NA
ATOM     30  C   UNL A   1     -27.543   0.849  25.079  0.00  0.00    +0.234 C 
ATOM     31  C   UNL A   1     -26.354   0.576  25.777  0.00  0.00    +0.240 C 
ATOM     32  F   UNL A   1     -25.860  -0.681  25.795  0.00  0.00    -0.227 F 
BRANCH  27  33
ATOM     33  C   UNL A   1     -25.642   4.093  27.123  0.00  0.00    +0.262 C 
ATOM     34  N   UNL A   1     -25.614   5.252  26.449  0.00  0.00    -0.200 NA
ATOM     35  C   UNL A   1     -25.026   6.479  26.963  0.00  0.00    +0.139 C 
ATOM     36  O   UNL A   1     -25.143   3.966  28.243  0.00  0.00    -0.269 OA
ENDBRANCH  27  33
BRANCH  30  37
ATOM     37  O   UNL A   1     -28.193  -0.208  24.477  0.00  0.00    -0.459 OA
BRANCH  37  38
ATOM     38  C   UNL A   1     -29.460   0.005  23.866  0.00  0.00    +0.242 C 
BRANCH  38  39
ATOM     39  C   UNL A   1     -30.065  -1.377  23.573  0.00  0.00    +0.229 C 
ATOM     40  O   UNL A   1     -30.729  -1.878  24.721  0.00  0.00    -0.216 OA
ENDBRANCH  38  39
ENDBRANCH  37  38
ENDBRANCH  30  37
ENDBRANCH  25  26
BRANCH  25  44
ATOM     41  C   UNL A   1     -23.206   1.841  26.648  0.00  0.00    +0.057 C 
ATOM     42  O   UNL A   1     -21.541   1.379  28.206  0.00  0.00    -0.462 OA
ATOM     43  N   UNL A   1     -22.490  -0.264  29.394  0.00  0.00    -0.112 NA
ATOM     44  C   UNL A   1     -23.754   1.052  27.832  0.00  0.00    +0.084 C 
ATOM     45  C   UNL A   1     -22.648   0.669  28.555  0.00  0.00    +0.219 C 
ATOM     46  C   UNL A   1     -21.999   2.127  27.170  0.00  0.00    +0.207 C 
ENDBRANCH  25  44
ENDBRANCH   1  25
TORSDOF 11
