REMARK  Name = outputs/IAG933/test6/raw/output_6505_IAG933_linker_design_.xyz
REMARK  8 active torsions:
REMARK  status: ('A' for Active; 'I' for Inactive)
REMARK    1  A    between atoms: C_1  and  C_2
REMARK    2  A    between atoms: C_1  and  C_8
REMARK    3  A    between atoms: C_1  and  C_35
REMARK    4  A    between atoms: C_13  and  N_32
REMARK    5  A    between atoms: C_14  and  C_15
REMARK    6  A    between atoms: C_21  and  O_22
REMARK    7  A    between atoms: O_22  and  C_23
REMARK    8  A    between atoms: C_23  and  C_24
REMARK                            x       y       z     vdW  Elec       q    Type
REMARK                         _______ _______ _______ _____ _____    ______ ____
ROOT
ATOM      1  N   UNL A   1     -22.055   1.738  26.513  0.00  0.00    -0.196 NA
ATOM      2  C   UNL A   1     -21.616   0.316  28.562  0.00  0.00    +0.117 C 
ATOM      3  C   UNL A   1     -23.712   0.860  27.584  0.00  0.00    +0.348 C 
ATOM      4  N   UNL A   1     -24.411   0.067  28.361  0.00  0.00    -0.042 NA
ATOM      5  N   UNL A   1     -24.292   1.535  26.713  0.00  0.00    -0.146 N 
ATOM      6  C   UNL A   1     -22.360  -0.344  29.577  0.00  0.00    +0.062 C 
ATOM      7  N   UNL A   1     -20.266   0.075  28.511  0.00  0.00    -0.126 NA
ATOM      8  C   UNL A   1     -23.775  -0.382  29.363  0.00  0.00    +0.177 C 
ATOM      9  C   UNL A   1     -23.248   2.078  25.917  0.00  0.00    +0.283 C 
ATOM     10  C   UNL A   1     -22.334   0.988  27.600  0.00  0.00    +0.184 C 
ENDROOT
BRANCH   5  11
ATOM     11  C   UNL A   1     -25.688   1.614  26.461  0.00  0.00    +0.236 C 
ATOM     12  C   UNL A   1     -26.250   2.920  26.395  0.00  0.00    +0.098 C 
ATOM     13  C   UNL A   1     -27.438   3.091  25.645  0.00  0.00    +0.106 C 
ATOM     14  N   UNL A   1     -28.075   2.089  25.003  0.00  0.00    -0.212 NA
ATOM     15  C   UNL A   1     -27.543   0.849  25.079  0.00  0.00    +0.238 C 
ATOM     16  C   UNL A   1     -26.354   0.576  25.777  0.00  0.00    +0.283 C 
ATOM     17  F   UNL A   1     -25.860  -0.681  25.795  0.00  0.00    -0.222 F 
BRANCH  12  18
ATOM     18  C   UNL A   1     -25.642   4.093  27.123  0.00  0.00    +0.266 C 
ATOM     19  N   UNL A   1     -25.614   5.252  26.449  0.00  0.00    -0.200 NA
ATOM     20  C   UNL A   1     -25.026   6.479  26.963  0.00  0.00    +0.139 C 
ATOM     21  O   UNL A   1     -25.143   3.966  28.243  0.00  0.00    -0.269 OA
ENDBRANCH  12  18
BRANCH  15  22
ATOM     22  O   UNL A   1     -28.193  -0.208  24.477  0.00  0.00    -0.458 OA
BRANCH  22  23
ATOM     23  C   UNL A   1     -29.460   0.005  23.866  0.00  0.00    +0.242 C 
BRANCH  23  24
ATOM     24  C   UNL A   1     -30.065  -1.377  23.573  0.00  0.00    +0.229 C 
ATOM     25  O   UNL A   1     -30.729  -1.878  24.721  0.00  0.00    -0.216 OA
ENDBRANCH  23  24
ENDBRANCH  22  23
ENDBRANCH  15  22
ENDBRANCH   5  11
BRANCH   8  26
ATOM     26  C   UNL A   1     -24.855  -1.012  30.143  0.00  0.00    +0.104 C 
BRANCH  26  27
ATOM     27  C   UNL A   1     -24.973  -2.505  29.788  0.00  0.00    -0.013 C 
ATOM     28  C   UNL A   1     -23.906  -3.173  29.146  0.00  0.00    -0.004 C 
ATOM     29  C   UNL A   1     -23.989  -4.549  28.853  0.00  0.00    -0.000 C 
ATOM     30  C   UNL A   1     -25.137  -5.280  29.205  0.00  0.00    -0.000 C 
ATOM     31  C   UNL A   1     -26.232  -4.611  29.784  0.00  0.00    -0.000 C 
ATOM     32  C   UNL A   1     -26.155  -3.232  30.065  0.00  0.00    -0.004 C 
ENDBRANCH  26  27
BRANCH  26  33
ATOM     33  C   UNL A   1     -25.387  -0.679  31.571  0.00  0.00    +0.085 C 
ATOM     34  C   UNL A   1     -25.189   0.773  32.028  0.00  0.00    +0.020 C 
ATOM     35  C   UNL A   1     -25.336   0.684  33.544  0.00  0.00    +0.020 C 
ATOM     36  C   UNL A   1     -24.829  -0.715  33.905  0.00  0.00    +0.089 C 
ATOM     37  N   UNL A   1     -24.758  -1.481  32.646  0.00  0.00    -0.219 NA
ENDBRANCH  26  33
ENDBRANCH   8  26
TORSDOF 8
