REMARK  Name = outputs/IAG933/test6/raw/output_6507_IAG933_linker_design_.xyz
REMARK  10 active torsions:
REMARK  status: ('A' for Active; 'I' for Inactive)
REMARK    1  A    between atoms: C_1  and  C_2
REMARK    2  A    between atoms: C_1  and  C_8
REMARK    3  A    between atoms: C_1  and  N_33
REMARK    4  A    between atoms: C_13  and  C_29
REMARK    5  A    between atoms: C_14  and  C_15
REMARK    6  A    between atoms: C_21  and  O_22
REMARK    7  A    between atoms: O_22  and  C_23
REMARK    8  A    between atoms: C_23  and  C_24
REMARK    9  A    between atoms: C_28  and  C_32
REMARK   10  A    between atoms: C_30  and  O_41
REMARK                            x       y       z     vdW  Elec       q    Type
REMARK                         _______ _______ _______ _____ _____    ______ ____
ROOT
ATOM      1  C   UNL A   1     -24.609   1.211  27.347  0.00  0.00    +0.104 C 
ATOM      2  C   UNL A   1     -23.338   1.300  27.783  0.00  0.00    +0.201 C 
ATOM      3  C   UNL A   1     -28.012   1.496  29.290  0.00  0.00    +0.059 C 
ATOM      4  N   UNL A   1     -24.340  -0.046  29.238  0.00  0.00    -0.250 N 
ATOM      5  C   UNL A   1     -23.159   0.370  28.898  0.00  0.00    +0.258 C 
ATOM      6  C   UNL A   1     -26.559   0.969  29.123  0.00  0.00    -0.089 C 
ATOM      7  O   UNL A   1     -22.026   0.105  29.446  0.00  0.00    -0.272 OA
ATOM      8  C   UNL A   1     -25.303   0.505  28.666  0.00  0.00    +0.073 C 
ENDROOT
BRANCH   3   9
ATOM      9  C   UNL A   1     -28.340   2.154  30.619  0.00  0.00    +0.095 C 
ATOM     10  C   UNL A   1     -29.713   2.428  30.980  0.00  0.00    +0.208 C 
ATOM     11  C   UNL A   1     -29.573   5.521  32.610  0.00  0.00    +0.091 C 
ATOM     12  N   UNL A   1     -27.368   2.926  31.420  0.00  0.00    -0.254 NA
ATOM     13  C   UNL A   1     -30.099   3.193  32.035  0.00  0.00    +0.113 C 
ATOM     14  C   UNL A   1     -27.858   3.735  32.323  0.00  0.00    +0.201 C 
ATOM     15  N   UNL A   1     -29.149   4.157  32.402  0.00  0.00    -0.248 NA
ATOM     16  O   UNL A   1     -30.598   2.430  29.829  0.00  0.00    -0.215 OA
ENDBRANCH   3   9
BRANCH   1  17
ATOM     17  C   UNL A   1     -25.688   1.614  26.461  0.00  0.00    +0.024 C 
ATOM     18  C   UNL A   1     -26.250   2.920  26.395  0.00  0.00    +0.073 C 
ATOM     19  C   UNL A   1     -27.438   3.091  25.645  0.00  0.00    +0.106 C 
ATOM     20  N   UNL A   1     -28.075   2.089  25.003  0.00  0.00    -0.208 NA
ATOM     21  C   UNL A   1     -27.543   0.849  25.079  0.00  0.00    +0.253 C 
ATOM     22  C   UNL A   1     -26.354   0.576  25.777  0.00  0.00    +0.190 C 
ATOM     23  F   UNL A   1     -25.860  -0.681  25.795  0.00  0.00    -0.200 F 
BRANCH  18  24
ATOM     24  C   UNL A   1     -25.642   4.093  27.123  0.00  0.00    +0.266 C 
ATOM     25  N   UNL A   1     -25.614   5.252  26.449  0.00  0.00    -0.200 NA
ATOM     26  C   UNL A   1     -25.026   6.479  26.963  0.00  0.00    +0.139 C 
ATOM     27  O   UNL A   1     -25.143   3.966  28.243  0.00  0.00    -0.268 OA
ENDBRANCH  18  24
BRANCH  21  28
ATOM     28  O   UNL A   1     -28.193  -0.208  24.477  0.00  0.00    -0.456 OA
BRANCH  28  29
ATOM     29  C   UNL A   1     -29.460   0.005  23.866  0.00  0.00    +0.243 C 
BRANCH  29  30
ATOM     30  C   UNL A   1     -30.065  -1.377  23.573  0.00  0.00    +0.229 C 
ATOM     31  O   UNL A   1     -30.729  -1.878  24.721  0.00  0.00    -0.216 OA
ENDBRANCH  29  30
ENDBRANCH  28  29
ENDBRANCH  21  28
ENDBRANCH   1  17
BRANCH   2  33
ATOM     32  C   UNL A   1     -20.978   1.808  27.425  0.00  0.00    +0.175 C 
ATOM     33  O   UNL A   1     -22.336   2.208  27.291  0.00  0.00    -0.344 OA
ENDBRANCH   2  33
BRANCH   4  34
ATOM     34  C   UNL A   1     -24.855  -1.012  30.143  0.00  0.00    +0.118 C 
BRANCH  34  35
ATOM     35  C   UNL A   1     -24.973  -2.505  29.788  0.00  0.00    -0.003 C 
ATOM     36  C   UNL A   1     -23.906  -3.173  29.146  0.00  0.00    -0.003 C 
ATOM     37  C   UNL A   1     -23.989  -4.549  28.853  0.00  0.00    -0.000 C 
ATOM     38  C   UNL A   1     -25.137  -5.280  29.205  0.00  0.00    -0.000 C 
ATOM     39  C   UNL A   1     -26.232  -4.611  29.784  0.00  0.00    -0.000 C 
ATOM     40  C   UNL A   1     -26.155  -3.232  30.065  0.00  0.00    -0.003 C 
ENDBRANCH  34  35
BRANCH  34  41
ATOM     41  C   UNL A   1     -25.387  -0.679  31.571  0.00  0.00    +0.096 C 
ATOM     42  C   UNL A   1     -25.189   0.773  32.028  0.00  0.00    +0.021 C 
ATOM     43  C   UNL A   1     -25.336   0.684  33.544  0.00  0.00    +0.020 C 
ATOM     44  C   UNL A   1     -24.829  -0.715  33.905  0.00  0.00    +0.089 C 
ATOM     45  N   UNL A   1     -24.758  -1.481  32.646  0.00  0.00    -0.217 NA
ENDBRANCH  34  41
ENDBRANCH   4  34
TORSDOF 10
