MODEL 650
MODEL 1
REMARK VINA RESULT:    -7.224      0.000      0.000
REMARK INTER + INTRA:          -8.558
REMARK INTER:                  -8.068
REMARK INTRA:                  -0.490
REMARK UNBOUND:                -0.490
REMARK  Name = No_650-gen_results/8p0m/2024-11-27-11-27-31/
REMARK  2 active torsions:
REMARK  status: ('A' for Active; 'I' for Inactive)
REMARK    1  A    between atoms: C_2  and  C_14
REMARK    2  A    between atoms: C_3  and  C_4
REMARK                            x       y       z     vdW  Elec       q    Type
REMARK                         _______ _______ _______ _____ _____    ______ ____
ROOT
ATOM      1  C   UNL A   1     -28.451 -11.744  31.314  0.00  0.00    +0.007 A 
ATOM      2  C   UNL A   1     -28.226 -11.378  32.276  0.00  0.00    +0.081 A 
ATOM      3  C   UNL A   1     -29.396 -10.899  30.573  0.00  0.00    +0.001 A 
ATOM      4  C   UNL A   1     -28.845 -10.378  33.100  0.00  0.00    +0.018 A 
ATOM      5  C   UNL A   1     -29.725  -9.624  32.471  0.00  0.00    +0.058 A 
ATOM      6  C   UNL A   1     -30.011  -9.826  31.139  0.00  0.00    +0.011 A 
ATOM      7 CL   UNL A   1     -30.517  -8.291  33.264  0.00  0.00    -0.082 Cl
ENDROOT
BRANCH   3   8
ATOM      8  C   UNL A   1     -29.671 -11.144  29.144  0.00  0.00    +0.000 A 
ATOM      9  C   UNL A   1     -28.960 -11.956  28.401  0.00  0.00    +0.000 A 
ATOM     10  C   UNL A   1     -29.214 -12.102  27.040  0.00  0.00    +0.000 A 
ATOM     11  C   UNL A   1     -29.982 -11.232  26.515  0.00  0.00    +0.000 A 
ATOM     12  C   UNL A   1     -30.811 -10.358  27.129  0.00  0.00    +0.000 A 
ATOM     13  C   UNL A   1     -30.638 -10.260  28.475  0.00  0.00    +0.000 A 
ENDBRANCH   3   8
BRANCH   2  14
ATOM     14  C   UNL A   1     -27.170 -12.279  33.112  0.00  0.00    +0.388 C 
ATOM     15  O   UNL A   1     -26.368 -12.878  32.466  0.00  0.00    -0.241 OA
ATOM     16  O   UNL A   1     -27.267 -12.344  34.355  0.00  0.00    -0.241 OA
ENDBRANCH   2  14
TORSDOF 2
ENDMDL
ENDMDL
