REMARK  Name = outputs/IAG933/test6/raw/output_6510_IAG933_linker_design_.xyz
REMARK  14 active torsions:
REMARK  status: ('A' for Active; 'I' for Inactive)
REMARK    1  A    between atoms: C_1  and  C_2
REMARK    2  A    between atoms: C_1  and  C_8
REMARK    3  A    between atoms: C_1  and  C_45
REMARK    4  A    between atoms: C_9  and  C_35
REMARK    5  A    between atoms: C_13  and  N_34
REMARK    6  A    between atoms: C_14  and  C_15
REMARK    7  A    between atoms: C_21  and  O_22
REMARK    8  A    between atoms: O_22  and  C_23
REMARK    9  A    between atoms: C_23  and  C_24
REMARK   10  A    between atoms: O_28  and  C_40
REMARK   11  A    between atoms: C_31  and  N_34
REMARK   12  A    between atoms: C_31  and  C_40
REMARK   13  A    between atoms: C_31  and  C_45
REMARK   14  A    between atoms: C_32  and  C_35
REMARK                            x       y       z     vdW  Elec       q    Type
REMARK                         _______ _______ _______ _____ _____    ______ ____
ROOT
ATOM      1  C   UNL A   1     -24.855  -1.012  30.143  0.00  0.00    +0.098 C 
ENDROOT
BRANCH   1   2
ATOM      2  C   UNL A   1     -24.973  -2.505  29.788  0.00  0.00    -0.014 C 
ATOM      3  C   UNL A   1     -23.906  -3.173  29.146  0.00  0.00    -0.004 C 
ATOM      4  C   UNL A   1     -23.989  -4.549  28.853  0.00  0.00    -0.000 C 
ATOM      5  C   UNL A   1     -25.137  -5.280  29.205  0.00  0.00    -0.000 C 
ATOM      6  C   UNL A   1     -26.232  -4.611  29.784  0.00  0.00    -0.000 C 
ATOM      7  C   UNL A   1     -26.155  -3.232  30.065  0.00  0.00    -0.004 C 
ENDBRANCH   1   2
BRANCH   1   8
ATOM      8  C   UNL A   1     -25.387  -0.679  31.571  0.00  0.00    +0.084 C 
ATOM      9  C   UNL A   1     -25.189   0.773  32.028  0.00  0.00    +0.018 C 
ATOM     10  C   UNL A   1     -25.336   0.684  33.544  0.00  0.00    +0.020 C 
ATOM     11  C   UNL A   1     -24.829  -0.715  33.905  0.00  0.00    +0.089 C 
ATOM     12  N   UNL A   1     -24.758  -1.481  32.646  0.00  0.00    -0.219 NA
BRANCH   9  13
ATOM     13  C   UNL A   1     -24.276   2.066  31.464  0.00  0.00    +0.004 C 
BRANCH  13  15
ATOM     14  C   UNL A   1     -26.525   7.628  32.084  0.00  0.00    +0.019 C 
ATOM     15  C   UNL A   1     -24.995   3.321  31.972  0.00  0.00    +0.033 C 
ATOM     16  C   UNL A   1     -25.447   5.625  32.438  0.00  0.00    +0.058 C 
ATOM     17  C   UNL A   1     -26.320   3.244  31.543  0.00  0.00    +0.168 C 
ATOM     18  N   UNL A   1     -26.329   5.577  31.376  0.00  0.00    -0.272 NA
ATOM     19  C   UNL A   1     -25.571   6.970  33.084  0.00  0.00    +0.017 C 
ATOM     20  C   UNL A   1     -26.778   4.417  30.787  0.00  0.00    +0.105 C 
ATOM     21  C   UNL A   1     -26.507   6.870  30.788  0.00  0.00    +0.072 C 
ATOM     22  O   UNL A   1     -27.120   2.896  32.764  0.00  0.00    -0.222 OA
ATOM     23  C   UNL A   1     -24.616   4.491  32.714  0.00  0.00    +0.018 C 
ENDBRANCH  13  15
ENDBRANCH   9  13
ENDBRANCH   1   8
BRANCH   1  25
ATOM     24  O   UNL A   1     -26.478  -0.288  28.669  0.00  0.00    -0.294 OA
ATOM     25  C   UNL A   1     -25.335  -0.296  29.016  0.00  0.00    +0.178 C 
BRANCH  25  26
ATOM     26  C   UNL A   1     -24.167   0.249  28.077  0.00  0.00    +0.179 C 
BRANCH  26  27
ATOM     27  N   UNL A   1     -24.576   1.345  27.162  0.00  0.00    -0.227 NA
BRANCH  27  28
ATOM     28  C   UNL A   1     -25.688   1.614  26.461  0.00  0.00    +0.104 C 
ATOM     29  C   UNL A   1     -26.250   2.920  26.395  0.00  0.00    +0.091 C 
ATOM     30  C   UNL A   1     -27.438   3.091  25.645  0.00  0.00    +0.108 C 
ATOM     31  N   UNL A   1     -28.075   2.089  25.003  0.00  0.00    -0.208 NA
ATOM     32  C   UNL A   1     -27.543   0.849  25.079  0.00  0.00    +0.255 C 
ATOM     33  C   UNL A   1     -26.354   0.576  25.777  0.00  0.00    +0.208 C 
ATOM     34  F   UNL A   1     -25.860  -0.681  25.795  0.00  0.00    -0.198 F 
BRANCH  29  35
ATOM     35  C   UNL A   1     -25.642   4.093  27.123  0.00  0.00    +0.268 C 
ATOM     36  N   UNL A   1     -25.614   5.252  26.449  0.00  0.00    -0.200 NA
ATOM     37  C   UNL A   1     -25.026   6.479  26.963  0.00  0.00    +0.139 C 
ATOM     38  O   UNL A   1     -25.143   3.966  28.243  0.00  0.00    -0.268 OA
ENDBRANCH  29  35
BRANCH  32  39
ATOM     39  O   UNL A   1     -28.193  -0.208  24.477  0.00  0.00    -0.456 OA
BRANCH  39  40
ATOM     40  C   UNL A   1     -29.460   0.005  23.866  0.00  0.00    +0.243 C 
BRANCH  40  41
ATOM     41  C   UNL A   1     -30.065  -1.377  23.573  0.00  0.00    +0.229 C 
ATOM     42  O   UNL A   1     -30.729  -1.878  24.721  0.00  0.00    -0.216 OA
ENDBRANCH  40  41
ENDBRANCH  39  40
ENDBRANCH  32  39
ENDBRANCH  27  28
ENDBRANCH  26  27
BRANCH  26  43
ATOM     43  C   UNL A   1     -23.007   0.549  29.084  0.00  0.00    +0.171 C 
BRANCH  43  44
ATOM     44  O   UNL A   1     -22.658   1.917  28.802  0.00  0.00    -0.349 OA
ATOM     45  C   UNL A   1     -21.756   1.662  27.676  0.00  0.00    +0.174 C 
ENDBRANCH  43  44
ENDBRANCH  26  43
ENDBRANCH  25  26
ENDBRANCH   1  25
TORSDOF 14
