REMARK  Name = outputs/IAG933/test6/raw/output_6512_IAG933_linker_design_.xyz
REMARK  15 active torsions:
REMARK  status: ('A' for Active; 'I' for Inactive)
REMARK    1  A    between atoms: C_1  and  C_2
REMARK    2  A    between atoms: C_1  and  C_8
REMARK    3  A    between atoms: C_1  and  N_39
REMARK    4  A    between atoms: C_13  and  C_32
REMARK    5  A    between atoms: C_14  and  C_15
REMARK    6  A    between atoms: C_21  and  O_22
REMARK    7  A    between atoms: O_22  and  C_23
REMARK    8  A    between atoms: C_23  and  C_24
REMARK    9  A    between atoms: C_28  and  C_37
REMARK   10  A    between atoms: C_28  and  C_40
REMARK   11  A    between atoms: C_31  and  N_39
REMARK   12  A    between atoms: C_32  and  C_46
REMARK   13  A    between atoms: C_34  and  C_46
REMARK   14  A    between atoms: C_35  and  C_37
REMARK   15  A    between atoms: N_39  and  C_40
REMARK                            x       y       z     vdW  Elec       q    Type
REMARK                         _______ _______ _______ _____ _____    ______ ____
ROOT
ATOM      1  N   UNL A   1     -25.521  -0.073  29.229  0.00  0.00    -0.246 NA
ENDROOT
BRANCH   1   4
ATOM      2  O   UNL A   1     -26.779   1.430  29.704  0.00  0.00    -0.319 OA
ATOM      3  C   UNL A   1     -29.916   1.900  28.439  0.00  0.00    +0.304 C 
ATOM      4  C   UNL A   1     -26.959   0.199  29.224  0.00  0.00    +0.199 C 
ATOM      5  C   UNL A   1     -28.433   0.082  29.610  0.00  0.00    +0.152 C 
ATOM      6  S   UNL A   1     -30.418   0.763  27.291  0.00  0.00    +0.090 S 
ATOM      7  N   UNL A   1     -28.858   1.452  29.208  0.00  0.00    -0.239 N 
ATOM      8  O   UNL A   1     -29.400  -0.611  27.821  0.00  0.00    -0.290 OA
ATOM      9  C   UNL A   1     -27.830   2.237  29.766  0.00  0.00    +0.244 C 
ATOM     10  C   UNL A   1     -29.203  -1.053  28.968  0.00  0.00    +0.182 C 
ATOM     11  O   UNL A   1     -30.444   2.871  28.702  0.00  0.00    -0.260 OA
ENDBRANCH   1   4
BRANCH   1  12
ATOM     12  C   UNL A   1     -24.855  -1.012  30.143  0.00  0.00    +0.098 C 
BRANCH  12  13
ATOM     13  C   UNL A   1     -24.973  -2.505  29.788  0.00  0.00    -0.006 C 
ATOM     14  C   UNL A   1     -23.906  -3.173  29.146  0.00  0.00    -0.003 C 
ATOM     15  C   UNL A   1     -23.989  -4.549  28.853  0.00  0.00    -0.000 C 
ATOM     16  C   UNL A   1     -25.137  -5.280  29.205  0.00  0.00    -0.000 C 
ATOM     17  C   UNL A   1     -26.232  -4.611  29.784  0.00  0.00    -0.000 C 
ATOM     18  C   UNL A   1     -26.155  -3.232  30.065  0.00  0.00    -0.003 C 
ENDBRANCH  12  13
BRANCH  12  19
ATOM     19  C   UNL A   1     -25.387  -0.679  31.571  0.00  0.00    +0.092 C 
ATOM     20  C   UNL A   1     -25.189   0.773  32.028  0.00  0.00    +0.021 C 
ATOM     21  C   UNL A   1     -25.336   0.684  33.544  0.00  0.00    +0.020 C 
ATOM     22  C   UNL A   1     -24.829  -0.715  33.905  0.00  0.00    +0.089 C 
ATOM     23  N   UNL A   1     -24.758  -1.481  32.646  0.00  0.00    -0.218 NA
ENDBRANCH  12  19
ENDBRANCH   1  12
BRANCH   1  24
ATOM     24  C   UNL A   1     -24.627   0.660  28.608  0.00  0.00    +0.075 C 
BRANCH  24  25
ATOM     25  C   UNL A   1     -23.608   0.637  29.022  0.00  0.00    +0.022 C 
BRANCH  25  26
ATOM     26  C   UNL A   1     -22.438   0.475  29.391  0.00  0.00    +0.029 C 
BRANCH  26  28
ATOM     27  C   UNL A   1     -22.163   1.515  27.292  0.00  0.00    +0.113 C 
ATOM     28  C   UNL A   1     -21.626   0.827  28.363  0.00  0.00    -0.001 C 
ATOM     29  F   UNL A   1     -21.515   2.137  26.309  0.00  0.00    -0.209 F 
BRANCH  27  30
ATOM     30  C   UNL A   1     -23.354   1.716  27.056  0.00  0.00    +0.057 C 
BRANCH  30  31
ATOM     31  C   UNL A   1     -24.283   1.728  26.029  0.00  0.00    +0.015 C 
BRANCH  31  32
ATOM     32  C   UNL A   1     -25.688   1.614  26.461  0.00  0.00    +0.071 C 
ATOM     33  C   UNL A   1     -26.250   2.920  26.395  0.00  0.00    +0.055 C 
ATOM     34  C   UNL A   1     -27.438   3.091  25.645  0.00  0.00    +0.102 C 
ATOM     35  N   UNL A   1     -28.075   2.089  25.003  0.00  0.00    -0.212 NA
ATOM     36  C   UNL A   1     -27.543   0.849  25.079  0.00  0.00    +0.234 C 
ATOM     37  C   UNL A   1     -26.354   0.576  25.777  0.00  0.00    +0.240 C 
ATOM     38  F   UNL A   1     -25.860  -0.681  25.795  0.00  0.00    -0.227 F 
BRANCH  33  39
ATOM     39  C   UNL A   1     -25.642   4.093  27.123  0.00  0.00    +0.262 C 
ATOM     40  N   UNL A   1     -25.614   5.252  26.449  0.00  0.00    -0.200 NA
ATOM     41  C   UNL A   1     -25.026   6.479  26.963  0.00  0.00    +0.139 C 
ATOM     42  O   UNL A   1     -25.143   3.966  28.243  0.00  0.00    -0.269 OA
ENDBRANCH  33  39
BRANCH  36  43
ATOM     43  O   UNL A   1     -28.193  -0.208  24.477  0.00  0.00    -0.459 OA
BRANCH  43  44
ATOM     44  C   UNL A   1     -29.460   0.005  23.866  0.00  0.00    +0.242 C 
BRANCH  44  45
ATOM     45  C   UNL A   1     -30.065  -1.377  23.573  0.00  0.00    +0.229 C 
ATOM     46  O   UNL A   1     -30.729  -1.878  24.721  0.00  0.00    -0.216 OA
ENDBRANCH  44  45
ENDBRANCH  43  44
ENDBRANCH  36  43
ENDBRANCH  31  32
ENDBRANCH  30  31
ENDBRANCH  27  30
ENDBRANCH  26  28
ENDBRANCH  25  26
ENDBRANCH  24  25
ENDBRANCH   1  24
TORSDOF 15
