REMARK  Name = outputs/IAG933/test6/raw/output_6515_IAG933_linker_design_.xyz
REMARK  16 active torsions:
REMARK  status: ('A' for Active; 'I' for Inactive)
REMARK    1  A    between atoms: C_1  and  C_2
REMARK    2  A    between atoms: C_1  and  C_8
REMARK    3  A    between atoms: C_1  and  N_36
REMARK    4  A    between atoms: C_13  and  C_48
REMARK    5  A    between atoms: C_14  and  C_15
REMARK    6  A    between atoms: C_15  and  O_18
REMARK    7  A    between atoms: O_18  and  C_38
REMARK    8  A    between atoms: C_21  and  O_22
REMARK    9  A    between atoms: O_22  and  C_23
REMARK   10  A    between atoms: C_23  and  C_24
REMARK   11  A    between atoms: C_31  and  O_33
REMARK   12  A    between atoms: C_31  and  C_37
REMARK   13  A    between atoms: O_33  and  C_38
REMARK   14  A    between atoms: C_34  and  C_43
REMARK   15  A    between atoms: C_37  and  N_47
REMARK   16  A    between atoms: C_43  and  C_45
REMARK                            x       y       z     vdW  Elec       q    Type
REMARK                         _______ _______ _______ _____ _____    ______ ____
ROOT
ATOM      1  C   UNL A   1     -25.688   1.614  26.461  0.00  0.00    +0.060 C 
ATOM      2  C   UNL A   1     -26.250   2.920  26.395  0.00  0.00    +0.076 C 
ATOM      3  C   UNL A   1     -27.438   3.091  25.645  0.00  0.00    +0.107 C 
ATOM      4  N   UNL A   1     -28.075   2.089  25.003  0.00  0.00    -0.208 NA
ATOM      5  C   UNL A   1     -27.543   0.849  25.079  0.00  0.00    +0.253 C 
ATOM      6  C   UNL A   1     -26.354   0.576  25.777  0.00  0.00    +0.195 C 
ATOM      7  F   UNL A   1     -25.860  -0.681  25.795  0.00  0.00    -0.199 F 
ENDROOT
BRANCH   1  14
ATOM      8  C   UNL A   1     -23.300   1.750  27.064  0.00  0.00    +0.239 C 
ATOM      9  F   UNL A   1     -21.225   2.001  27.951  0.00  0.00    -0.204 F 
ATOM     10  C   UNL A   1     -22.825   0.575  29.177  0.00  0.00    +0.171 C 
ATOM     11  N   UNL A   1     -24.127  -0.042  29.185  0.00  0.00    -0.222 N 
ATOM     12  O   UNL A   1     -22.972   2.468  26.019  0.00  0.00    -0.283 OA
ATOM     13  C   UNL A   1     -22.433   1.429  28.082  0.00  0.00    +0.179 C 
ATOM     14  C   UNL A   1     -24.562   1.212  27.286  0.00  0.00    +0.142 C 
ATOM     15  N   UNL A   1     -24.892   0.309  28.188  0.00  0.00    -0.178 NA
BRANCH  11  16
ATOM     16  C   UNL A   1     -24.855  -1.012  30.143  0.00  0.00    +0.130 C 
BRANCH  16  17
ATOM     17  C   UNL A   1     -24.973  -2.505  29.788  0.00  0.00    -0.002 C 
ATOM     18  C   UNL A   1     -23.906  -3.173  29.146  0.00  0.00    -0.003 C 
ATOM     19  C   UNL A   1     -23.989  -4.549  28.853  0.00  0.00    -0.000 C 
ATOM     20  C   UNL A   1     -25.137  -5.280  29.205  0.00  0.00    -0.000 C 
ATOM     21  C   UNL A   1     -26.232  -4.611  29.784  0.00  0.00    -0.000 C 
ATOM     22  C   UNL A   1     -26.155  -3.232  30.065  0.00  0.00    -0.003 C 
ENDBRANCH  16  17
BRANCH  16  23
ATOM     23  C   UNL A   1     -25.387  -0.679  31.571  0.00  0.00    +0.097 C 
ATOM     24  C   UNL A   1     -25.189   0.773  32.028  0.00  0.00    +0.021 C 
ATOM     25  C   UNL A   1     -25.336   0.684  33.544  0.00  0.00    +0.020 C 
ATOM     26  C   UNL A   1     -24.829  -0.715  33.905  0.00  0.00    +0.089 C 
ATOM     27  N   UNL A   1     -24.758  -1.481  32.646  0.00  0.00    -0.217 NA
ENDBRANCH  16  23
ENDBRANCH  11  16
ENDBRANCH   1  14
BRANCH   2  28
ATOM     28  C   UNL A   1     -25.642   4.093  27.123  0.00  0.00    +0.224 C 
ATOM     29  N   UNL A   1     -25.614   5.252  26.449  0.00  0.00    -0.236 NA
ATOM     30  C   UNL A   1     -25.026   6.479  26.963  0.00  0.00    +0.155 C 
BRANCH  28  31
ATOM     31  O   UNL A   1     -25.143   3.966  28.243  0.00  0.00    -0.431 OA
BRANCH  31  32
ATOM     32  C   UNL A   1     -25.543   3.751  29.531  0.00  0.00    +0.362 C 
BRANCH  32  33
ATOM     33  O   UNL A   1     -24.913   4.690  30.386  0.00  0.00    -0.314 OA
BRANCH  33  34
ATOM     34  C   UNL A   1     -25.938   5.619  30.737  0.00  0.00    +0.168 C 
BRANCH  34  35
ATOM     35  C   UNL A   1     -26.831   5.175  31.650  0.00  0.00    +0.126 C 
BRANCH  35  42
ATOM     36  C   UNL A   1     -25.512   5.705  34.801  0.00  0.00    +0.085 C 
ATOM     37  C   UNL A   1     -27.682   5.027  33.768  0.00  0.00    +0.090 C 
ATOM     38  C   UNL A   1     -25.274   5.464  33.364  0.00  0.00    +0.226 C 
ATOM     39  C   UNL A   1     -26.009   4.467  35.365  0.00  0.00    +0.011 C 
ATOM     40  C   UNL A   1     -27.360   4.392  35.044  0.00  0.00    +0.021 C 
ATOM     41  O   UNL A   1     -24.098   4.800  32.778  0.00  0.00    -0.275 OA
ATOM     42  N   UNL A   1     -26.641   5.183  32.878  0.00  0.00    -0.278 N 
BRANCH  37  43
ATOM     43  C   UNL A   1     -28.948   4.499  33.170  0.00  0.00    +0.125 C 
BRANCH  43  45
ATOM     44  N   UNL A   1     -28.633   2.258  32.334  0.00  0.00    -0.196 NA
ATOM     45  C   UNL A   1     -28.870   3.272  32.684  0.00  0.00    +0.075 C 
ENDBRANCH  43  45
ENDBRANCH  37  43
ENDBRANCH  35  42
ENDBRANCH  34  35
ENDBRANCH  33  34
ENDBRANCH  32  33
ENDBRANCH  31  32
ENDBRANCH  28  31
ENDBRANCH   2  28
BRANCH   5  46
ATOM     46  O   UNL A   1     -28.193  -0.208  24.477  0.00  0.00    -0.456 OA
BRANCH  46  47
ATOM     47  C   UNL A   1     -29.460   0.005  23.866  0.00  0.00    +0.243 C 
BRANCH  47  48
ATOM     48  C   UNL A   1     -30.065  -1.377  23.573  0.00  0.00    +0.229 C 
ATOM     49  O   UNL A   1     -30.729  -1.878  24.721  0.00  0.00    -0.216 OA
ENDBRANCH  47  48
ENDBRANCH  46  47
ENDBRANCH   5  46
TORSDOF 16
