MODEL 651
MODEL 1
REMARK VINA RESULT:    -5.025      0.000      0.000
REMARK INTER + INTRA:          -5.702
REMARK INTER:                  -5.613
REMARK INTRA:                  -0.089
REMARK UNBOUND:                -0.089
REMARK  Name = No_651-gen_results/8p0m/2024-11-27-11-27-31/
REMARK  2 active torsions:
REMARK  status: ('A' for Active; 'I' for Inactive)
REMARK    1  A    between atoms: C_2  and  C_7
REMARK    2  A    between atoms: C_8  and  C_9
REMARK                            x       y       z     vdW  Elec       q    Type
REMARK                         _______ _______ _______ _____ _____    ______ ____
ROOT
ATOM      1  C   UNL A   1     -23.798  -3.439  28.662  0.00  0.00    +0.000 A 
ATOM      2  C   UNL A   1     -24.528  -2.599  29.135  0.00  0.00    +0.000 A 
ATOM      3  C   UNL A   1     -25.746  -2.947  29.708  0.00  0.00    +0.000 A 
ATOM      4  C   UNL A   1     -26.199  -4.314  29.714  0.00  0.00    +0.000 A 
ATOM      5  C   UNL A   1     -25.304  -5.217  29.125  0.00  0.00    +0.000 A 
ATOM      6  C   UNL A   1     -24.171  -4.835  28.581  0.00  0.00    +0.000 A 
ENDROOT
BRANCH   2   7
ATOM      7  C   UNL A   1     -24.236  -1.142  29.192  0.00  0.00    +0.000 C 
ATOM      8  C   UNL A   1     -24.445  -0.377  28.546  0.00  0.00    +0.000 C 
BRANCH   8   9
ATOM      9  C   UNL A   1     -25.262  -0.714  27.296  0.00  0.00    +0.000 C 
ATOM     10  C   UNL A   1     -25.296   0.001  26.217  0.00  0.00    +0.000 C 
ENDBRANCH   8   9
ENDBRANCH   2   7
TORSDOF 2
ENDMDL
ENDMDL
