REMARK  Name = outputs/IAG933/test6/raw/output_6521_IAG933_linker_design_.xyz
REMARK  13 active torsions:
REMARK  status: ('A' for Active; 'I' for Inactive)
REMARK    1  A    between atoms: C_1  and  C_2
REMARK    2  A    between atoms: C_1  and  C_8
REMARK    3  A    between atoms: C_1  and  C_43
REMARK    4  A    between atoms: C_13  and  C_38
REMARK    5  A    between atoms: C_14  and  C_15
REMARK    6  A    between atoms: C_21  and  O_22
REMARK    7  A    between atoms: O_22  and  C_23
REMARK    8  A    between atoms: C_23  and  C_24
REMARK    9  A    between atoms: C_29  and  C_34
REMARK   10  A    between atoms: C_29  and  C_37
REMARK   11  A    between atoms: C_34  and  C_43
REMARK   12  A    between atoms: C_35  and  C_43
REMARK   13  A    between atoms: O_36  and  C_41
REMARK                            x       y       z     vdW  Elec       q    Type
REMARK                         _______ _______ _______ _____ _____    ______ ____
ROOT
ATOM      1  F   UNL A   1     -20.950   1.782  27.846  0.00  0.00    -0.201 F 
ATOM      2  C   UNL A   1     -23.824   1.681  26.035  0.00  0.00    +0.043 C 
ATOM      3  C   UNL A   1     -23.003   0.750  28.496  0.00  0.00    +0.029 C 
ATOM      4  C   UNL A   1     -24.351   0.597  28.166  0.00  0.00    -0.017 C 
ATOM      5  C   UNL A   1     -24.658   1.278  26.955  0.00  0.00    +0.002 C 
ATOM      6  C   UNL A   1     -22.188   1.397  27.602  0.00  0.00    +0.178 C 
ATOM      7  C   UNL A   1     -22.562   1.749  26.390  0.00  0.00    +0.216 C 
ENDROOT
BRANCH   5   8
ATOM      8  C   UNL A   1     -25.688   1.614  26.461  0.00  0.00    +0.038 C 
ATOM      9  C   UNL A   1     -26.250   2.920  26.395  0.00  0.00    +0.076 C 
ATOM     10  C   UNL A   1     -27.438   3.091  25.645  0.00  0.00    +0.107 C 
ATOM     11  N   UNL A   1     -28.075   2.089  25.003  0.00  0.00    -0.208 NA
ATOM     12  C   UNL A   1     -27.543   0.849  25.079  0.00  0.00    +0.253 C 
ATOM     13  C   UNL A   1     -26.354   0.576  25.777  0.00  0.00    +0.193 C 
ATOM     14  F   UNL A   1     -25.860  -0.681  25.795  0.00  0.00    -0.199 F 
BRANCH   9  15
ATOM     15  C   UNL A   1     -25.642   4.093  27.123  0.00  0.00    +0.266 C 
ATOM     16  N   UNL A   1     -25.614   5.252  26.449  0.00  0.00    -0.200 NA
ATOM     17  C   UNL A   1     -25.026   6.479  26.963  0.00  0.00    +0.139 C 
ATOM     18  O   UNL A   1     -25.143   3.966  28.243  0.00  0.00    -0.268 OA
ENDBRANCH   9  15
BRANCH  12  19
ATOM     19  O   UNL A   1     -28.193  -0.208  24.477  0.00  0.00    -0.456 OA
BRANCH  19  20
ATOM     20  C   UNL A   1     -29.460   0.005  23.866  0.00  0.00    +0.243 C 
BRANCH  20  21
ATOM     21  C   UNL A   1     -30.065  -1.377  23.573  0.00  0.00    +0.229 C 
ATOM     22  O   UNL A   1     -30.729  -1.878  24.721  0.00  0.00    -0.216 OA
ENDBRANCH  20  21
ENDBRANCH  19  20
ENDBRANCH  12  19
ENDBRANCH   5   8
BRANCH   7  23
ATOM     23  O   UNL A   1     -21.641   2.239  25.501  0.00  0.00    -0.290 OA
ATOM     24  F   UNL A   1     -22.305   2.712  24.372  0.00  0.00    +0.014 F 
ENDBRANCH   7  23
BRANCH   4  25
ATOM     25  C   UNL A   1     -25.471  -0.130  29.042  0.00  0.00    +0.061 C 
BRANCH  25  27
ATOM     26  O   UNL A   1     -26.060   2.107  29.793  0.00  0.00    -0.220 OA
ATOM     27  C   UNL A   1     -26.562   0.893  29.300  0.00  0.00    +0.186 C 
BRANCH  27  28
ATOM     28  C   UNL A   1     -28.033   0.551  29.538  0.00  0.00    +0.182 C 
ATOM     29  O   UNL A   1     -28.508  -0.667  28.881  0.00  0.00    -0.220 OA
BRANCH  28  31
ATOM     30  C   UNL A   1     -28.578   2.507  31.012  0.00  0.00    +0.003 C 
ATOM     31  C   UNL A   1     -28.740   1.920  29.617  0.00  0.00    +0.036 C 
ENDBRANCH  28  31
ENDBRANCH  27  28
ENDBRANCH  25  27
BRANCH  25  32
ATOM     32  C   UNL A   1     -24.855  -1.012  30.143  0.00  0.00    +0.045 C 
BRANCH  32  33
ATOM     33  C   UNL A   1     -24.973  -2.505  29.788  0.00  0.00    -0.021 C 
ATOM     34  C   UNL A   1     -23.906  -3.173  29.146  0.00  0.00    -0.004 C 
ATOM     35  C   UNL A   1     -23.989  -4.549  28.853  0.00  0.00    -0.000 C 
ATOM     36  C   UNL A   1     -25.137  -5.280  29.205  0.00  0.00    -0.000 C 
ATOM     37  C   UNL A   1     -26.232  -4.611  29.784  0.00  0.00    -0.000 C 
ATOM     38  C   UNL A   1     -26.155  -3.232  30.065  0.00  0.00    -0.004 C 
ENDBRANCH  32  33
BRANCH  32  39
ATOM     39  C   UNL A   1     -25.387  -0.679  31.571  0.00  0.00    +0.077 C 
ATOM     40  C   UNL A   1     -25.189   0.773  32.028  0.00  0.00    +0.019 C 
ATOM     41  C   UNL A   1     -25.336   0.684  33.544  0.00  0.00    +0.020 C 
ATOM     42  C   UNL A   1     -24.829  -0.715  33.905  0.00  0.00    +0.089 C 
ATOM     43  N   UNL A   1     -24.758  -1.481  32.646  0.00  0.00    -0.219 NA
ENDBRANCH  32  39
ENDBRANCH  25  32
ENDBRANCH   4  25
TORSDOF 13
