REMARK  Name = outputs/IAG933/test6/raw/output_6523_IAG933_linker_design_.xyz
REMARK  11 active torsions:
REMARK  status: ('A' for Active; 'I' for Inactive)
REMARK    1  A    between atoms: C_1  and  C_2
REMARK    2  A    between atoms: C_1  and  C_8
REMARK    3  A    between atoms: C_1  and  N_43
REMARK    4  A    between atoms: C_13  and  C_41
REMARK    5  A    between atoms: C_14  and  C_15
REMARK    6  A    between atoms: C_21  and  O_22
REMARK    7  A    between atoms: O_22  and  C_23
REMARK    8  A    between atoms: C_23  and  C_24
REMARK    9  A    between atoms: O_30  and  C_37
REMARK   10  A    between atoms: C_36  and  N_43
REMARK   11  A    between atoms: C_37  and  C_42
REMARK                            x       y       z     vdW  Elec       q    Type
REMARK                         _______ _______ _______ _____ _____    ______ ____
ROOT
ATOM      1  C   UNL A   1     -22.679   2.368  25.654  0.00  0.00    +0.294 C 
ATOM      2  C   UNL A   1     -23.173   1.755  26.502  0.00  0.00    +0.042 C 
ATOM      3  C   UNL A   1     -22.726   0.343  28.753  0.00  0.00    +0.153 C 
ATOM      4  C   UNL A   1     -21.713   1.022  28.151  0.00  0.00    +0.032 C 
ATOM      5  O   UNL A   1     -23.275   3.467  25.284  0.00  0.00    -0.180 OA
ATOM      6  C   UNL A   1     -24.079   0.550  28.361  0.00  0.00    +0.082 C 
ATOM      7  F   UNL A   1     -22.371  -0.530  29.729  0.00  0.00    -0.203 F 
ATOM      8  F   UNL A   1     -21.750   2.129  24.619  0.00  0.00    -0.197 F 
ATOM      9  C   UNL A   1     -21.958   1.669  26.892  0.00  0.00    +0.043 C 
ATOM     10  C   UNL A   1     -24.314   1.297  27.118  0.00  0.00    +0.019 C 
ENDROOT
BRANCH  10  11
ATOM     11  C   UNL A   1     -25.688   1.614  26.461  0.00  0.00    +0.039 C 
ATOM     12  C   UNL A   1     -26.250   2.920  26.395  0.00  0.00    +0.077 C 
ATOM     13  C   UNL A   1     -27.438   3.091  25.645  0.00  0.00    +0.107 C 
ATOM     14  N   UNL A   1     -28.075   2.089  25.003  0.00  0.00    -0.208 NA
ATOM     15  C   UNL A   1     -27.543   0.849  25.079  0.00  0.00    +0.253 C 
ATOM     16  C   UNL A   1     -26.354   0.576  25.777  0.00  0.00    +0.193 C 
ATOM     17  F   UNL A   1     -25.860  -0.681  25.795  0.00  0.00    -0.199 F 
BRANCH  12  18
ATOM     18  C   UNL A   1     -25.642   4.093  27.123  0.00  0.00    +0.266 C 
ATOM     19  N   UNL A   1     -25.614   5.252  26.449  0.00  0.00    -0.200 NA
ATOM     20  C   UNL A   1     -25.026   6.479  26.963  0.00  0.00    +0.139 C 
ATOM     21  O   UNL A   1     -25.143   3.966  28.243  0.00  0.00    -0.268 OA
ENDBRANCH  12  18
BRANCH  15  22
ATOM     22  O   UNL A   1     -28.193  -0.208  24.477  0.00  0.00    -0.456 OA
BRANCH  22  23
ATOM     23  C   UNL A   1     -29.460   0.005  23.866  0.00  0.00    +0.243 C 
BRANCH  23  24
ATOM     24  C   UNL A   1     -30.065  -1.377  23.573  0.00  0.00    +0.229 C 
ATOM     25  O   UNL A   1     -30.729  -1.878  24.721  0.00  0.00    -0.216 OA
ENDBRANCH  23  24
ENDBRANCH  22  23
ENDBRANCH  15  22
ENDBRANCH  10  11
BRANCH   6  28
ATOM     26  O   UNL A   1     -26.233   2.004  29.721  0.00  0.00    -0.272 OA
ATOM     27  C   UNL A   1     -26.148   0.815  29.292  0.00  0.00    +0.260 C 
ATOM     28  N   UNL A   1     -25.047   0.131  29.197  0.00  0.00    -0.251 N 
BRANCH  28  29
ATOM     29  C   UNL A   1     -24.855  -1.012  30.143  0.00  0.00    +0.118 C 
BRANCH  29  30
ATOM     30  C   UNL A   1     -24.973  -2.505  29.788  0.00  0.00    -0.003 C 
ATOM     31  C   UNL A   1     -23.906  -3.173  29.146  0.00  0.00    -0.003 C 
ATOM     32  C   UNL A   1     -23.989  -4.549  28.853  0.00  0.00    -0.000 C 
ATOM     33  C   UNL A   1     -25.137  -5.280  29.205  0.00  0.00    -0.000 C 
ATOM     34  C   UNL A   1     -26.232  -4.611  29.784  0.00  0.00    -0.000 C 
ATOM     35  C   UNL A   1     -26.155  -3.232  30.065  0.00  0.00    -0.003 C 
ENDBRANCH  29  30
BRANCH  29  36
ATOM     36  C   UNL A   1     -25.387  -0.679  31.571  0.00  0.00    +0.096 C 
ATOM     37  C   UNL A   1     -25.189   0.773  32.028  0.00  0.00    +0.021 C 
ATOM     38  C   UNL A   1     -25.336   0.684  33.544  0.00  0.00    +0.020 C 
ATOM     39  C   UNL A   1     -24.829  -0.715  33.905  0.00  0.00    +0.089 C 
ATOM     40  N   UNL A   1     -24.758  -1.481  32.646  0.00  0.00    -0.217 NA
ENDBRANCH  29  36
ENDBRANCH  28  29
BRANCH  27  41
ATOM     41  C   UNL A   1     -27.365   0.024  29.033  0.00  0.00    +0.228 C 
BRANCH  41  42
ATOM     42  O   UNL A   1     -28.647   0.585  29.107  0.00  0.00    -0.342 OA
ATOM     43  C   UNL A   1     -29.596  -0.445  28.767  0.00  0.00    +0.175 C 
ENDBRANCH  41  42
ENDBRANCH  27  41
ENDBRANCH   6  28
TORSDOF 11
