REMARK  Name = outputs/IAG933/test6/raw/output_6524_IAG933_linker_design_.xyz
REMARK  10 active torsions:
REMARK  status: ('A' for Active; 'I' for Inactive)
REMARK    1  A    between atoms: C_1  and  C_2
REMARK    2  A    between atoms: C_1  and  C_8
REMARK    3  A    between atoms: C_1  and  C_35
REMARK    4  A    between atoms: C_13  and  C_34
REMARK    5  A    between atoms: C_14  and  C_15
REMARK    6  A    between atoms: C_21  and  O_22
REMARK    7  A    between atoms: O_22  and  C_23
REMARK    8  A    between atoms: C_23  and  C_24
REMARK    9  A    between atoms: C_29  and  C_41
REMARK   10  A    between atoms: C_35  and  C_37
REMARK                            x       y       z     vdW  Elec       q    Type
REMARK                         _______ _______ _______ _____ _____    ______ ____
ROOT
ATOM      1  C   UNL A   1     -23.546   1.252  29.112  0.00  0.00    +0.255 C 
ATOM      2  O   UNL A   1     -23.614   2.115  30.037  0.00  0.00    -0.272 OA
ATOM      3  C   UNL A   1     -24.531   1.310  27.245  0.00  0.00    -0.000 C 
ATOM      4  F   UNL A   1     -21.014   2.119  27.395  0.00  0.00    -0.208 F 
ATOM      5  C   UNL A   1     -24.572   0.769  28.458  0.00  0.00    +0.158 C 
ATOM      6  N   UNL A   1     -22.330   0.963  28.709  0.00  0.00    -0.168 NA
ATOM      7  C   UNL A   1     -22.175   1.574  27.534  0.00  0.00    +0.282 C 
ATOM      8  C   UNL A   1     -23.349   1.696  26.679  0.00  0.00    +0.099 C 
ENDROOT
BRANCH   3   9
ATOM      9  C   UNL A   1     -25.688   1.614  26.461  0.00  0.00    +0.035 C 
ATOM     10  C   UNL A   1     -26.250   2.920  26.395  0.00  0.00    +0.076 C 
ATOM     11  C   UNL A   1     -27.438   3.091  25.645  0.00  0.00    +0.107 C 
ATOM     12  N   UNL A   1     -28.075   2.089  25.003  0.00  0.00    -0.208 NA
ATOM     13  C   UNL A   1     -27.543   0.849  25.079  0.00  0.00    +0.253 C 
ATOM     14  C   UNL A   1     -26.354   0.576  25.777  0.00  0.00    +0.193 C 
ATOM     15  F   UNL A   1     -25.860  -0.681  25.795  0.00  0.00    -0.199 F 
BRANCH  10  16
ATOM     16  C   UNL A   1     -25.642   4.093  27.123  0.00  0.00    +0.266 C 
ATOM     17  N   UNL A   1     -25.614   5.252  26.449  0.00  0.00    -0.200 NA
ATOM     18  C   UNL A   1     -25.026   6.479  26.963  0.00  0.00    +0.139 C 
ATOM     19  O   UNL A   1     -25.143   3.966  28.243  0.00  0.00    -0.268 OA
ENDBRANCH  10  16
BRANCH  13  20
ATOM     20  O   UNL A   1     -28.193  -0.208  24.477  0.00  0.00    -0.456 OA
BRANCH  20  21
ATOM     21  C   UNL A   1     -29.460   0.005  23.866  0.00  0.00    +0.243 C 
BRANCH  21  22
ATOM     22  C   UNL A   1     -30.065  -1.377  23.573  0.00  0.00    +0.229 C 
ATOM     23  O   UNL A   1     -30.729  -1.878  24.721  0.00  0.00    -0.216 OA
ENDBRANCH  21  22
ENDBRANCH  20  21
ENDBRANCH  13  20
ENDBRANCH   3   9
BRANCH   8  25
ATOM     24  F   UNL A   1     -21.978   2.373  24.989  0.00  0.00    -0.166 F 
ATOM     25  C   UNL A   1     -23.212   2.114  25.222  0.00  0.00    +0.419 C 
ATOM     26  F   UNL A   1     -23.669   1.067  24.519  0.00  0.00    -0.166 F 
ATOM     27  F   UNL A   1     -23.959   3.130  24.953  0.00  0.00    -0.166 F 
ENDBRANCH   8  25
BRANCH   5  29
ATOM     28  O   UNL A   1     -26.511  -0.353  28.547  0.00  0.00    -0.295 OA
ATOM     29  C   UNL A   1     -25.372  -0.211  28.993  0.00  0.00    +0.168 C 
BRANCH  29  30
ATOM     30  C   UNL A   1     -24.855  -1.012  30.143  0.00  0.00    +0.097 C 
BRANCH  30  31
ATOM     31  C   UNL A   1     -24.973  -2.505  29.788  0.00  0.00    -0.014 C 
ATOM     32  C   UNL A   1     -23.906  -3.173  29.146  0.00  0.00    -0.004 C 
ATOM     33  C   UNL A   1     -23.989  -4.549  28.853  0.00  0.00    -0.000 C 
ATOM     34  C   UNL A   1     -25.137  -5.280  29.205  0.00  0.00    -0.000 C 
ATOM     35  C   UNL A   1     -26.232  -4.611  29.784  0.00  0.00    -0.000 C 
ATOM     36  C   UNL A   1     -26.155  -3.232  30.065  0.00  0.00    -0.004 C 
ENDBRANCH  30  31
BRANCH  30  37
ATOM     37  C   UNL A   1     -25.387  -0.679  31.571  0.00  0.00    +0.084 C 
ATOM     38  C   UNL A   1     -25.189   0.773  32.028  0.00  0.00    +0.020 C 
ATOM     39  C   UNL A   1     -25.336   0.684  33.544  0.00  0.00    +0.020 C 
ATOM     40  C   UNL A   1     -24.829  -0.715  33.905  0.00  0.00    +0.089 C 
ATOM     41  N   UNL A   1     -24.758  -1.481  32.646  0.00  0.00    -0.219 NA
ENDBRANCH  30  37
ENDBRANCH  29  30
ENDBRANCH   5  29
TORSDOF 10
