REMARK  Name = outputs/IAG933/test6/raw/output_6525_IAG933_linker_design_.xyz
REMARK  9 active torsions:
REMARK  status: ('A' for Active; 'I' for Inactive)
REMARK    1  A    between atoms: C_1  and  C_2
REMARK    2  A    between atoms: C_1  and  C_8
REMARK    3  A    between atoms: C_1  and  N_28
REMARK    4  A    between atoms: C_13  and  N_31
REMARK    5  A    between atoms: C_14  and  C_15
REMARK    6  A    between atoms: C_21  and  O_22
REMARK    7  A    between atoms: O_22  and  C_23
REMARK    8  A    between atoms: C_23  and  C_24
REMARK    9  A    between atoms: C_29  and  C_35
REMARK                            x       y       z     vdW  Elec       q    Type
REMARK                         _______ _______ _______ _____ _____    ______ ____
ROOT
ATOM      1  N   UNL A   1     -24.700   0.157  29.372  0.00  0.00    -0.256 N 
ATOM      2  C   UNL A   1     -23.445   1.232  27.294  0.00  0.00    +0.200 C 
ATOM      3  C   UNL A   1     -22.489   0.585  29.182  0.00  0.00    +0.260 C 
ATOM      4  N   UNL A   1     -24.741   1.250  27.308  0.00  0.00    -0.276 N 
ATOM      5  O   UNL A   1     -20.879   0.971  27.587  0.00  0.00    -0.217 OA
ATOM      6  C   UNL A   1     -23.631   1.072  29.839  0.00  0.00    +0.260 C 
ATOM      7  O   UNL A   1     -23.662   2.211  30.079  0.00  0.00    -0.272 OA
ATOM      8  C   UNL A   1     -25.369   0.694  28.413  0.00  0.00    +0.192 C 
ATOM      9  O   UNL A   1     -22.047  -0.556  29.817  0.00  0.00    -0.210 OA
ATOM     10  C   UNL A   1     -22.158   0.991  27.848  0.00  0.00    +0.224 C 
ENDROOT
BRANCH   4  11
ATOM     11  C   UNL A   1     -25.688   1.614  26.461  0.00  0.00    +0.088 C 
ATOM     12  C   UNL A   1     -26.250   2.920  26.395  0.00  0.00    +0.090 C 
ATOM     13  C   UNL A   1     -27.438   3.091  25.645  0.00  0.00    +0.108 C 
ATOM     14  N   UNL A   1     -28.075   2.089  25.003  0.00  0.00    -0.208 NA
ATOM     15  C   UNL A   1     -27.543   0.849  25.079  0.00  0.00    +0.255 C 
ATOM     16  C   UNL A   1     -26.354   0.576  25.777  0.00  0.00    +0.206 C 
ATOM     17  F   UNL A   1     -25.860  -0.681  25.795  0.00  0.00    -0.198 F 
BRANCH  12  18
ATOM     18  C   UNL A   1     -25.642   4.093  27.123  0.00  0.00    +0.268 C 
ATOM     19  N   UNL A   1     -25.614   5.252  26.449  0.00  0.00    -0.200 NA
ATOM     20  C   UNL A   1     -25.026   6.479  26.963  0.00  0.00    +0.139 C 
ATOM     21  O   UNL A   1     -25.143   3.966  28.243  0.00  0.00    -0.268 OA
ENDBRANCH  12  18
BRANCH  15  22
ATOM     22  O   UNL A   1     -28.193  -0.208  24.477  0.00  0.00    -0.456 OA
BRANCH  22  23
ATOM     23  C   UNL A   1     -29.460   0.005  23.866  0.00  0.00    +0.243 C 
BRANCH  23  24
ATOM     24  C   UNL A   1     -30.065  -1.377  23.573  0.00  0.00    +0.229 C 
ATOM     25  O   UNL A   1     -30.729  -1.878  24.721  0.00  0.00    -0.216 OA
ENDBRANCH  23  24
ENDBRANCH  22  23
ENDBRANCH  15  22
ENDBRANCH   4  11
BRANCH   2  26
ATOM     26  C   UNL A   1     -23.175   2.129  26.100  0.00  0.00    +0.095 C 
ATOM     27  N   UNL A   1     -22.988   2.747  25.239  0.00  0.00    -0.194 NA
ENDBRANCH   2  26
BRANCH   1  28
ATOM     28  C   UNL A   1     -24.855  -1.012  30.143  0.00  0.00    +0.115 C 
BRANCH  28  29
ATOM     29  C   UNL A   1     -24.973  -2.505  29.788  0.00  0.00    -0.003 C 
ATOM     30  C   UNL A   1     -23.906  -3.173  29.146  0.00  0.00    -0.003 C 
ATOM     31  C   UNL A   1     -23.989  -4.549  28.853  0.00  0.00    -0.000 C 
ATOM     32  C   UNL A   1     -25.137  -5.280  29.205  0.00  0.00    -0.000 C 
ATOM     33  C   UNL A   1     -26.232  -4.611  29.784  0.00  0.00    -0.000 C 
ATOM     34  C   UNL A   1     -26.155  -3.232  30.065  0.00  0.00    -0.003 C 
ENDBRANCH  28  29
BRANCH  28  35
ATOM     35  C   UNL A   1     -25.387  -0.679  31.571  0.00  0.00    +0.095 C 
ATOM     36  C   UNL A   1     -25.189   0.773  32.028  0.00  0.00    +0.021 C 
ATOM     37  C   UNL A   1     -25.336   0.684  33.544  0.00  0.00    +0.020 C 
ATOM     38  C   UNL A   1     -24.829  -0.715  33.905  0.00  0.00    +0.089 C 
ATOM     39  N   UNL A   1     -24.758  -1.481  32.646  0.00  0.00    -0.217 NA
ENDBRANCH  28  35
ENDBRANCH   1  28
TORSDOF 9
