REMARK  Name = outputs/IAG933/test6/raw/output_6529_IAG933_linker_design_.xyz
REMARK  13 active torsions:
REMARK  status: ('A' for Active; 'I' for Inactive)
REMARK    1  A    between atoms: C_1  and  C_2
REMARK    2  A    between atoms: C_1  and  C_8
REMARK    3  A    between atoms: C_1  and  C_41
REMARK    4  A    between atoms: C_13  and  C_37
REMARK    5  A    between atoms: C_14  and  C_15
REMARK    6  A    between atoms: C_21  and  O_22
REMARK    7  A    between atoms: O_22  and  C_23
REMARK    8  A    between atoms: C_23  and  C_24
REMARK    9  A    between atoms: O_29  and  C_32
REMARK   10  A    between atoms: O_29  and  C_41
REMARK   11  A    between atoms: C_32  and  C_39
REMARK   12  A    between atoms: C_35  and  C_39
REMARK   13  A    between atoms: C_38  and  C_41
REMARK                            x       y       z     vdW  Elec       q    Type
REMARK                         _______ _______ _______ _____ _____    ______ ____
ROOT
ATOM      1  F   UNL A   1     -21.327   2.163  25.366  0.00  0.00    -0.182 F 
ATOM      2  C   UNL A   1     -21.888   1.356  27.593  0.00  0.00    +0.162 A 
ATOM      3  C   UNL A   1     -22.232   1.830  26.311  0.00  0.00    +0.241 A 
ATOM      4  N   UNL A   1     -23.513   1.865  26.009  0.00  0.00    -0.217 NA
ATOM      5  F   UNL A   1     -22.455   0.256  29.686  0.00  0.00    -0.203 F 
ATOM      6  C   UNL A   1     -24.495   1.381  26.949  0.00  0.00    +0.087 A 
ATOM      7  C   UNL A   1     -24.250   0.683  28.210  0.00  0.00    +0.052 A 
ATOM      8  N   UNL A   1     -20.622   1.554  28.060  0.00  0.00    -0.122 NA
ATOM      9  C   UNL A   1     -22.852   0.715  28.517  0.00  0.00    +0.160 A 
ENDROOT
BRANCH   6  10
ATOM     10  C   UNL A   1     -25.688   1.614  26.461  0.00  0.00    +0.056 C 
ATOM     11  C   UNL A   1     -26.250   2.920  26.395  0.00  0.00    +0.078 C 
ATOM     12  C   UNL A   1     -27.438   3.091  25.645  0.00  0.00    +0.107 C 
ATOM     13  N   UNL A   1     -28.075   2.089  25.003  0.00  0.00    -0.208 NA
ATOM     14  C   UNL A   1     -27.543   0.849  25.079  0.00  0.00    +0.253 C 
ATOM     15  C   UNL A   1     -26.354   0.576  25.777  0.00  0.00    +0.195 C 
ATOM     16  F   UNL A   1     -25.860  -0.681  25.795  0.00  0.00    -0.199 F 
BRANCH  11  17
ATOM     17  C   UNL A   1     -25.642   4.093  27.123  0.00  0.00    +0.267 C 
ATOM     18  N   UNL A   1     -25.614   5.252  26.449  0.00  0.00    -0.200 NA
ATOM     19  C   UNL A   1     -25.026   6.479  26.963  0.00  0.00    +0.139 C 
ATOM     20  O   UNL A   1     -25.143   3.966  28.243  0.00  0.00    -0.268 OA
ENDBRANCH  11  17
BRANCH  14  21
ATOM     21  O   UNL A   1     -28.193  -0.208  24.477  0.00  0.00    -0.456 OA
BRANCH  21  22
ATOM     22  C   UNL A   1     -29.460   0.005  23.866  0.00  0.00    +0.243 C 
BRANCH  22  23
ATOM     23  C   UNL A   1     -30.065  -1.377  23.573  0.00  0.00    +0.229 C 
ATOM     24  O   UNL A   1     -30.729  -1.878  24.721  0.00  0.00    -0.216 OA
ENDBRANCH  22  23
ENDBRANCH  21  22
ENDBRANCH  14  21
ENDBRANCH   6  10
BRANCH   7  25
ATOM     25  C   UNL A   1     -25.313  -0.092  29.039  0.00  0.00    +0.146 C 
BRANCH  25  26
ATOM     26  C   UNL A   1     -24.855  -1.012  30.143  0.00  0.00    +0.070 C 
BRANCH  26  27
ATOM     27  C   UNL A   1     -24.973  -2.505  29.788  0.00  0.00    -0.018 C 
ATOM     28  C   UNL A   1     -23.906  -3.173  29.146  0.00  0.00    -0.004 C 
ATOM     29  C   UNL A   1     -23.989  -4.549  28.853  0.00  0.00    -0.000 C 
ATOM     30  C   UNL A   1     -25.137  -5.280  29.205  0.00  0.00    -0.000 C 
ATOM     31  C   UNL A   1     -26.232  -4.611  29.784  0.00  0.00    -0.000 C 
ATOM     32  C   UNL A   1     -26.155  -3.232  30.065  0.00  0.00    -0.004 C 
ENDBRANCH  26  27
BRANCH  26  33
ATOM     33  C   UNL A   1     -25.387  -0.679  31.571  0.00  0.00    +0.080 C 
ATOM     34  C   UNL A   1     -25.189   0.773  32.028  0.00  0.00    +0.019 C 
ATOM     35  C   UNL A   1     -25.336   0.684  33.544  0.00  0.00    +0.020 C 
ATOM     36  C   UNL A   1     -24.829  -0.715  33.905  0.00  0.00    +0.089 C 
ATOM     37  N   UNL A   1     -24.758  -1.481  32.646  0.00  0.00    -0.219 NA
ENDBRANCH  26  33
ENDBRANCH  25  26
BRANCH  25  38
ATOM     38  O   UNL A   1     -26.551   0.524  28.743  0.00  0.00    -0.351 OA
BRANCH  38  39
ATOM     39  C   UNL A   1     -26.930   1.767  29.341  0.00  0.00    +0.152 C 
BRANCH  39  40
ATOM     40  C   UNL A   1     -28.428   1.842  29.672  0.00  0.00    +0.120 C 
BRANCH  40  41
ATOM     41  C   UNL A   1     -28.971   0.560  30.035  0.00  0.00    +0.263 C 
ATOM     42  O   UNL A   1     -28.789  -0.506  29.245  0.00  0.00    -0.272 OA
ATOM     43  N   UNL A   1     -29.694   0.530  31.196  0.00  0.00    -0.088 NA
ENDBRANCH  40  41
ENDBRANCH  39  40
ENDBRANCH  38  39
ENDBRANCH  25  38
ENDBRANCH   7  25
TORSDOF 13
