MODEL 652
MODEL 1
REMARK VINA RESULT:    -4.314      0.000      0.000
REMARK INTER + INTRA:          -4.314
REMARK INTER:                  -4.314
REMARK INTRA:                   0.000
REMARK UNBOUND:                 0.000
REMARK  Name = No_652-gen_results/8p0m/2024-11-27-11-27-31/
REMARK  0 active torsions:
REMARK  status: ('A' for Active; 'I' for Inactive)
REMARK                            x       y       z     vdW  Elec       q    Type
REMARK                         _______ _______ _______ _____ _____    ______ ____
ROOT
ATOM      1  C   UNL A   1     -25.007  -2.644  29.101  0.00  0.00    +0.000 A 
ATOM      2  C   UNL A   1     -24.194  -3.203  28.730  0.00  0.00    +0.000 A 
ATOM      3  C   UNL A   1     -26.061  -3.472  29.700  0.00  0.00    +0.000 A 
ATOM      4  C   UNL A   1     -26.065  -4.802  29.609  0.00  0.00    +0.000 A 
ATOM      5  C   UNL A   1     -23.985  -4.613  28.509  0.00  0.00    +0.000 A 
ATOM      6  C   UNL A   1     -24.986  -5.364  29.050  0.00  0.00    +0.000 A 
ENDROOT
TORSDOF 0
ENDMDL
ENDMDL
