REMARK  Name = outputs/IAG933/test6/raw/output_6533_IAG933_linker_design_.xyz
REMARK  16 active torsions:
REMARK  status: ('A' for Active; 'I' for Inactive)
REMARK    1  A    between atoms: C_1  and  C_2
REMARK    2  A    between atoms: C_1  and  C_8
REMARK    3  A    between atoms: C_1  and  O_40
REMARK    4  A    between atoms: C_9  and  O_28
REMARK    5  A    between atoms: C_13  and  C_42
REMARK    6  A    between atoms: C_14  and  C_15
REMARK    7  A    between atoms: C_21  and  O_22
REMARK    8  A    between atoms: O_22  and  C_23
REMARK    9  A    between atoms: C_23  and  C_24
REMARK   10  A    between atoms: O_28  and  C_32
REMARK   11  A    between atoms: C_29  and  C_30
REMARK   12  A    between atoms: C_30  and  C_31
REMARK   13  A    between atoms: C_30  and  N_35
REMARK   14  A    between atoms: C_31  and  O_40
REMARK   15  A    between atoms: O_33  and  C_38
REMARK   16  A    between atoms: N_35  and  C_42
REMARK                            x       y       z     vdW  Elec       q    Type
REMARK                         _______ _______ _______ _____ _____    ______ ____
ROOT
ATOM      1  C   UNK A   1     -24.855  -1.012  30.143  0.00  0.00    +0.157 C 
ENDROOT
BRANCH   1   2
ATOM      2  C   UNK A   1     -24.973  -2.505  29.788  0.00  0.00    +0.006 C 
ATOM      3  C   UNK A   1     -23.906  -3.173  29.146  0.00  0.00    -0.002 C 
ATOM      4  C   UNK A   1     -23.989  -4.549  28.853  0.00  0.00    -0.000 C 
ATOM      5  C   UNK A   1     -25.137  -5.280  29.205  0.00  0.00    -0.000 C 
ATOM      6  C   UNK A   1     -26.232  -4.611  29.784  0.00  0.00    -0.000 C 
ATOM      7  C   UNK A   1     -26.155  -3.232  30.065  0.00  0.00    -0.002 C 
ENDBRANCH   1   2
BRANCH   1   8
ATOM      8  C   UNK A   1     -25.387  -0.679  31.571  0.00  0.00    +0.144 C 
ATOM      9  C   UNK A   1     -25.189   0.773  32.028  0.00  0.00    +0.186 C 
ATOM     10  C   UNK A   1     -25.336   0.684  33.544  0.00  0.00    +0.064 C 
ATOM     11  C   UNK A   1     -24.829  -0.715  33.905  0.00  0.00    +0.093 C 
ATOM     12  N   UNK A   1     -24.758  -1.481  32.646  0.00  0.00    -0.213 NA
BRANCH   9  13
ATOM     13  O   UNK A   1     -24.640   1.995  31.445  0.00  0.00    -0.477 OA
BRANCH  13  14
ATOM     14  C   UNK A   1     -24.919   3.367  31.950  0.00  0.00    +0.144 C 
ATOM     15  C   UNK A   1     -26.585   4.904  32.836  0.00  0.00    +0.146 C 
ATOM     16  C   UNK A   1     -23.907   4.303  32.355  0.00  0.00    +0.074 C 
ATOM     17  C   UNK A   1     -24.256   5.552  32.938  0.00  0.00    +0.144 C 
ATOM     18  C   UNK A   1     -26.244   3.741  32.118  0.00  0.00    +0.067 C 
ATOM     19  C   UNK A   1     -25.606   5.839  33.169  0.00  0.00    +0.067 C 
ATOM     20  F   UNK A   1     -27.836   5.170  33.272  0.00  0.00    -0.204 F 
BRANCH  17  21
ATOM     21  O   UNK A   1     -23.344   6.530  33.256  0.00  0.00    -0.471 OA
ATOM     22  C   UNK A   1     -21.940   6.345  33.175  0.00  0.00    +0.253 C 
ENDBRANCH  17  21
ENDBRANCH  13  14
ENDBRANCH   9  13
ENDBRANCH   1   8
BRANCH   1  23
ATOM     23  O   UNK A   1     -23.577  -0.480  30.124  0.00  0.00    -0.349 OA
BRANCH  23  24
ATOM     24  C   UNK A   1     -22.928   0.745  29.541  0.00  0.00    +0.163 C 
BRANCH  24  25
ATOM     25  C   UNK A   1     -22.480   0.757  28.116  0.00  0.00    +0.135 C 
BRANCH  25  26
ATOM     26  C   UNK A   1     -21.184   1.502  27.712  0.00  0.00    +0.202 C 
ATOM     27  O   UNK A   1     -21.384   2.204  26.448  0.00  0.00    -0.219 OA
ENDBRANCH  25  26
BRANCH  25  28
ATOM     28  N   UNK A   1     -23.566   1.611  27.479  0.00  0.00    -0.214 NA
BRANCH  28  29
ATOM     29  C   UNK     1     -24.149   1.403  26.396  0.00  0.00    +0.097 C 
BRANCH  29  30
ATOM     30  C   UNK     1     -25.688   1.614  26.461  0.00  0.00    +0.087 C 
ATOM     31  C   UNK     1     -26.250   2.920  26.395  0.00  0.00    +0.056 C 
ATOM     32  C   UNK     1     -27.438   3.091  25.645  0.00  0.00    +0.102 C 
ATOM     33  N   UNK     1     -28.075   2.089  25.003  0.00  0.00    -0.212 NA
ATOM     34  C   UNK     1     -27.543   0.849  25.079  0.00  0.00    +0.234 C 
ATOM     35  C   UNK     1     -26.354   0.576  25.777  0.00  0.00    +0.241 C 
ATOM     36  F   UNK     1     -25.860  -0.681  25.795  0.00  0.00    -0.227 F 
BRANCH  31  37
ATOM     37  C   UNK     1     -25.642   4.093  27.123  0.00  0.00    +0.263 C 
ATOM     38  N   UNK     1     -25.614   5.252  26.449  0.00  0.00    -0.200 NA
ATOM     39  C   UNK     1     -25.026   6.479  26.963  0.00  0.00    +0.139 C 
ATOM     40  O   UNK     1     -25.143   3.966  28.243  0.00  0.00    -0.269 OA
ENDBRANCH  31  37
BRANCH  34  41
ATOM     41  O   UNK     1     -28.193  -0.208  24.477  0.00  0.00    -0.459 OA
BRANCH  41  42
ATOM     42  C   UNK     1     -29.460   0.005  23.866  0.00  0.00    +0.242 C 
BRANCH  42  43
ATOM     43  C   UNK     1     -30.065  -1.377  23.573  0.00  0.00    +0.229 C 
ATOM     44  O   UNK     1     -30.729  -1.878  24.721  0.00  0.00    -0.216 OA
ENDBRANCH  42  43
ENDBRANCH  41  42
ENDBRANCH  34  41
ENDBRANCH  29  30
ENDBRANCH  28  29
ENDBRANCH  25  28
ENDBRANCH  24  25
ENDBRANCH  23  24
ENDBRANCH   1  23
TORSDOF 16
