REMARK  Name = outputs/IAG933/test6/raw/output_6536_IAG933_linker_design_.xyz
REMARK  14 active torsions:
REMARK  status: ('A' for Active; 'I' for Inactive)
REMARK    1  A    between atoms: C_1  and  C_2
REMARK    2  A    between atoms: C_1  and  C_8
REMARK    3  A    between atoms: C_9  and  C_33
REMARK    4  A    between atoms: C_13  and  C_42
REMARK    5  A    between atoms: C_14  and  C_15
REMARK    6  A    between atoms: C_21  and  O_22
REMARK    7  A    between atoms: O_22  and  C_23
REMARK    8  A    between atoms: C_23  and  C_24
REMARK    9  A    between atoms: N_28  and  C_31
REMARK   10  A    between atoms: C_31  and  C_47
REMARK   11  A    between atoms: C_33  and  C_35
REMARK   12  A    between atoms: C_33  and  C_47
REMARK   13  A    between atoms: O_34  and  C_39
REMARK   14  A    between atoms: N_37  and  C_46
REMARK                            x       y       z     vdW  Elec       q    Type
REMARK                         _______ _______ _______ _____ _____    ______ ____
ROOT
ATOM      1  C   UNL A   1     -24.930   1.803  31.014  0.00  0.00    +0.082 C 
ENDROOT
BRANCH   1   3
ATOM      2  C   UNL A   1     -25.387  -0.679  31.571  0.00  0.00    +0.078 C 
ATOM      3  C   UNL A   1     -25.189   0.773  32.028  0.00  0.00    +0.027 C 
ATOM      4  C   UNL A   1     -25.336   0.684  33.544  0.00  0.00    +0.021 C 
ATOM      5  C   UNL A   1     -24.829  -0.715  33.905  0.00  0.00    +0.089 C 
ATOM      6  N   UNL A   1     -24.758  -1.481  32.646  0.00  0.00    -0.219 NA
BRANCH   2   7
ATOM      7  C   UNL A   1     -24.855  -1.012  30.143  0.00  0.00    +0.044 C 
BRANCH   7   8
ATOM      8  C   UNL A   1     -24.973  -2.505  29.788  0.00  0.00    -0.021 C 
ATOM      9  C   UNL A   1     -23.906  -3.173  29.146  0.00  0.00    -0.004 C 
ATOM     10  C   UNL A   1     -23.989  -4.549  28.853  0.00  0.00    -0.000 C 
ATOM     11  C   UNL A   1     -25.137  -5.280  29.205  0.00  0.00    -0.000 C 
ATOM     12  C   UNL A   1     -26.232  -4.611  29.784  0.00  0.00    -0.000 C 
ATOM     13  C   UNL A   1     -26.155  -3.232  30.065  0.00  0.00    -0.004 C 
ENDBRANCH   7   8
ENDBRANCH   2   7
ENDBRANCH   1   3
BRANCH   1  14
ATOM     14  C   UNL A   1     -25.209   3.200  31.701  0.00  0.00    +0.241 C 
ATOM     15  N   UNL A   1     -25.401   3.186  32.983  0.00  0.00    -0.202 NA
ATOM     16  O   UNL A   1     -25.150   4.204  31.048  0.00  0.00    -0.273 OA
BRANCH  15  24
ATOM     17  N   UNL A   1     -26.266   4.959  35.776  0.00  0.00    -0.139 N 
ATOM     18  C   UNL A   1     -26.603   3.871  34.899  0.00  0.00    +0.232 C 
ATOM     19  C   UNL A   1     -25.704   5.978  35.076  0.00  0.00    +0.309 C 
ATOM     20  C   UNL A   1     -25.208   5.569  33.815  0.00  0.00    +0.143 C 
ATOM     21  C   UNL A   1     -26.243   5.265  37.231  0.00  0.00    +0.337 C 
ATOM     22  N   UNL A   1     -25.226   6.818  36.028  0.00  0.00    -0.033 NA
ATOM     23  C   UNL A   1     -25.543   6.392  37.379  0.00  0.00    +0.316 C 
ATOM     24  C   UNL A   1     -26.045   4.343  33.536  0.00  0.00    +0.154 C 
BRANCH  21  25
ATOM     25  O   UNL A   1     -26.860   4.516  38.267  0.00  0.00    -0.439 OA
ATOM     26  C   UNL A   1     -26.257   4.886  39.529  0.00  0.00    +0.256 C 
ENDBRANCH  21  25
ENDBRANCH  15  24
ENDBRANCH   1  14
BRANCH   1  27
ATOM     27  C   UNL A   1     -23.486   2.067  30.466  0.00  0.00    +0.045 C 
BRANCH  27  28
ATOM     28  C   UNL A   1     -23.078   1.476  29.182  0.00  0.00    +0.152 C 
ATOM     29  N   UNL A   1     -21.735   1.361  28.746  0.00  0.00    -0.115 NA
BRANCH  28  30
ATOM     30  N   UNL A   1     -24.068   1.154  28.345  0.00  0.00    -0.255 NA
ATOM     31  C   UNL A   1     -23.292   2.200  25.981  0.00  0.00    +0.022 C 
ATOM     32  C   UNL A   1     -24.368   1.421  26.965  0.00  0.00    +0.083 C 
ATOM     33  C   UNL A   1     -23.808   0.181  27.347  0.00  0.00    +0.092 C 
BRANCH  32  34
ATOM     34  C   UNL A   1     -25.688   1.614  26.461  0.00  0.00    +0.030 C 
ATOM     35  C   UNL A   1     -26.250   2.920  26.395  0.00  0.00    +0.074 C 
ATOM     36  C   UNL A   1     -27.438   3.091  25.645  0.00  0.00    +0.106 C 
ATOM     37  N   UNL A   1     -28.075   2.089  25.003  0.00  0.00    -0.208 NA
ATOM     38  C   UNL A   1     -27.543   0.849  25.079  0.00  0.00    +0.253 C 
ATOM     39  C   UNL A   1     -26.354   0.576  25.777  0.00  0.00    +0.190 C 
ATOM     40  F   UNL A   1     -25.860  -0.681  25.795  0.00  0.00    -0.200 F 
BRANCH  35  41
ATOM     41  C   UNL A   1     -25.642   4.093  27.123  0.00  0.00    +0.266 C 
ATOM     42  N   UNL A   1     -25.614   5.252  26.449  0.00  0.00    -0.200 NA
ATOM     43  C   UNL A   1     -25.026   6.479  26.963  0.00  0.00    +0.139 C 
ATOM     44  O   UNL A   1     -25.143   3.966  28.243  0.00  0.00    -0.268 OA
ENDBRANCH  35  41
BRANCH  38  45
ATOM     45  O   UNL A   1     -28.193  -0.208  24.477  0.00  0.00    -0.456 OA
BRANCH  45  46
ATOM     46  C   UNL A   1     -29.460   0.005  23.866  0.00  0.00    +0.243 C 
BRANCH  46  47
ATOM     47  C   UNL A   1     -30.065  -1.377  23.573  0.00  0.00    +0.229 C 
ATOM     48  O   UNL A   1     -30.729  -1.878  24.721  0.00  0.00    -0.216 OA
ENDBRANCH  46  47
ENDBRANCH  45  46
ENDBRANCH  38  45
ENDBRANCH  32  34
ENDBRANCH  28  30
ENDBRANCH  27  28
ENDBRANCH   1  27
TORSDOF 14
