REMARK  Name = outputs/IAG933/test6/raw/output_6543_IAG933_linker_design_.xyz
REMARK  10 active torsions:
REMARK  status: ('A' for Active; 'I' for Inactive)
REMARK    1  A    between atoms: C_1  and  C_2
REMARK    2  A    between atoms: C_13  and  N_42
REMARK    3  A    between atoms: C_14  and  C_15
REMARK    4  A    between atoms: C_21  and  O_22
REMARK    5  A    between atoms: O_22  and  C_23
REMARK    6  A    between atoms: C_23  and  C_24
REMARK    7  A    between atoms: C_30  and  N_37
REMARK    8  A    between atoms: C_33  and  O_36
REMARK    9  A    between atoms: C_34  and  C_39
REMARK   10  A    between atoms: O_36  and  C_39
REMARK                            x       y       z     vdW  Elec       q    Type
REMARK                         _______ _______ _______ _____ _____    ______ ____
ROOT
ATOM      1  C   UNL A   1     -24.855  -1.012  30.143  0.00  0.00    +0.100 C 
ATOM      2  C   UNL A   1     -25.387  -0.679  31.571  0.00  0.00    +0.106 C 
ATOM      3  C   UNL A   1     -25.189   0.773  32.028  0.00  0.00    +0.080 C 
ATOM      4  C   UNL A   1     -25.336   0.684  33.544  0.00  0.00    +0.036 C 
ATOM      5  C   UNL A   1     -24.829  -0.715  33.905  0.00  0.00    +0.090 C 
ATOM      6  N   UNL A   1     -24.758  -1.481  32.646  0.00  0.00    -0.216 NA
ATOM      7  N   UNL A   1     -24.595   0.022  29.250  0.00  0.00    -0.239 NA
ATOM      8  N   UNL A   1     -22.330   0.763  30.141  0.00  0.00    -0.128 NA
ATOM      9  C   UNL A   1     -23.421   1.857  27.634  0.00  0.00    +0.194 C 
ATOM     10  C   UNL A   1     -23.250   1.641  29.237  0.00  0.00    +0.151 C 
ATOM     11  N   UNL A   1     -25.184   1.806  30.968  0.00  0.00    -0.232 NA
ATOM     12  C   UNL A   1     -24.523  -0.314  27.772  0.00  0.00    +0.171 C 
ATOM     13  C   UNL A   1     -24.745   1.342  29.684  0.00  0.00    +0.142 C 
ATOM     14  N   UNL A   1     -24.580   1.080  27.179  0.00  0.00    -0.283 N 
ENDROOT
BRANCH  14  15
ATOM     15  C   UNL A   1     -25.688   1.614  26.461  0.00  0.00    +0.088 C 
ATOM     16  C   UNL A   1     -26.250   2.920  26.395  0.00  0.00    +0.090 C 
ATOM     17  C   UNL A   1     -27.438   3.091  25.645  0.00  0.00    +0.108 C 
ATOM     18  N   UNL A   1     -28.075   2.089  25.003  0.00  0.00    -0.208 NA
ATOM     19  C   UNL A   1     -27.543   0.849  25.079  0.00  0.00    +0.255 C 
ATOM     20  C   UNL A   1     -26.354   0.576  25.777  0.00  0.00    +0.206 C 
ATOM     21  F   UNL A   1     -25.860  -0.681  25.795  0.00  0.00    -0.198 F 
BRANCH  16  22
ATOM     22  C   UNL A   1     -25.642   4.093  27.123  0.00  0.00    +0.268 C 
ATOM     23  N   UNL A   1     -25.614   5.252  26.449  0.00  0.00    -0.200 NA
ATOM     24  C   UNL A   1     -25.026   6.479  26.963  0.00  0.00    +0.139 C 
ATOM     25  O   UNL A   1     -25.143   3.966  28.243  0.00  0.00    -0.268 OA
ENDBRANCH  16  22
BRANCH  19  26
ATOM     26  O   UNL A   1     -28.193  -0.208  24.477  0.00  0.00    -0.456 OA
BRANCH  26  27
ATOM     27  C   UNL A   1     -29.460   0.005  23.866  0.00  0.00    +0.243 C 
BRANCH  27  28
ATOM     28  C   UNL A   1     -30.065  -1.377  23.573  0.00  0.00    +0.229 C 
ATOM     29  O   UNL A   1     -30.729  -1.878  24.721  0.00  0.00    -0.216 OA
ENDBRANCH  27  28
ENDBRANCH  26  27
ENDBRANCH  19  26
ENDBRANCH  14  15
BRANCH   1  30
ATOM     30  C   UNL A   1     -24.973  -2.505  29.788  0.00  0.00    -0.006 C 
ATOM     31  C   UNL A   1     -23.906  -3.173  29.146  0.00  0.00    -0.003 C 
ATOM     32  C   UNL A   1     -23.989  -4.549  28.853  0.00  0.00    -0.000 C 
ATOM     33  C   UNL A   1     -25.137  -5.280  29.205  0.00  0.00    -0.000 C 
ATOM     34  C   UNL A   1     -26.232  -4.611  29.784  0.00  0.00    -0.000 C 
ATOM     35  C   UNL A   1     -26.155  -3.232  30.065  0.00  0.00    -0.003 C 
ENDBRANCH   1  30
BRANCH  11  37
ATOM     36  O   UNL A   1     -26.334   3.930  30.854  0.00  0.00    -0.201 OA
ATOM     37  C   UNL A   1     -25.858   2.889  31.017  0.00  0.00    +0.260 C 
ENDBRANCH  11  37
BRANCH   9  38
ATOM     38  C   UNL A   1     -22.088   1.728  26.898  0.00  0.00    +0.339 C 
ATOM     39  O   UNL A   1     -21.052   1.489  27.399  0.00  0.00    -0.248 OA
BRANCH  38  40
ATOM     40  O   UNL A   1     -22.198   2.059  25.517  0.00  0.00    -0.414 OA
BRANCH  40  42
ATOM     41  F   UNL A   1     -23.877   0.941  24.517  0.00  0.00    -0.181 F 
ATOM     42  C   UNL A   1     -23.188   1.972  24.775  0.00  0.00    +0.405 C 
ENDBRANCH  40  42
ENDBRANCH  38  40
ENDBRANCH   9  38
TORSDOF 10
