REMARK  Name = outputs/IAG933/test6/raw/output_6546_IAG933_linker_design_.xyz
REMARK  5 active torsions:
REMARK  status: ('A' for Active; 'I' for Inactive)
REMARK    1  A    between atoms: C_1  and  C_2
REMARK    2  A    between atoms: C_1  and  C_8
REMARK    3  A    between atoms: C_1  and  C_37
REMARK    4  A    between atoms: C_14  and  C_15
REMARK    5  A    between atoms: C_32  and  C_48
REMARK                            x       y       z     vdW  Elec       q    Type
REMARK                         _______ _______ _______ _____ _____    ______ ____
ROOT
ATOM      1  C   UNL A   1     -25.688   1.614  26.461  0.00  0.00    +0.052 C 
ATOM      2  C   UNL A   1     -26.250   2.920  26.395  0.00  0.00    +0.078 C 
ATOM      3  C   UNL A   1     -27.438   3.091  25.645  0.00  0.00    +0.107 C 
ATOM      4  N   UNL A   1     -28.075   2.089  25.003  0.00  0.00    -0.208 NA
ATOM      5  C   UNL A   1     -27.543   0.849  25.079  0.00  0.00    +0.253 C 
ATOM      6  O   UNL A   1     -28.193  -0.208  24.477  0.00  0.00    -0.456 OA
ATOM      7  C   UNL A   1     -29.460   0.005  23.866  0.00  0.00    +0.239 C 
ATOM      8  C   UNL A   1     -30.065  -1.377  23.573  0.00  0.00    +0.193 C 
ATOM      9  O   UNL A   1     -30.729  -1.878  24.721  0.00  0.00    -0.315 OA
ATOM     10  C   UNL A   1     -26.354   0.576  25.777  0.00  0.00    +0.194 C 
ATOM     11  F   UNL A   1     -25.860  -0.681  25.795  0.00  0.00    -0.199 F 
ATOM     12  C   UNL A   1     -31.296   0.237  27.662  0.00  0.00    +0.319 C 
ATOM     13  C   UNL A   1     -28.868  -0.962  29.626  0.00  0.00    +0.089 C 
ATOM     14  C   UNL A   1     -28.735  -1.426  31.145  0.00  0.00    +0.010 C 
ATOM     15  C   UNL A   1     -30.068  -2.300  31.530  0.00  0.00    +0.001 C 
ATOM     16  C   UNL A   1     -23.189   1.940  26.493  0.00  0.00    +0.016 C 
ATOM     17  O   UNL A   1     -31.901   1.315  27.254  0.00  0.00    -0.250 OA
ATOM     18  C   UNL A   1     -22.864   0.450  28.462  0.00  0.00    +0.067 C 
ATOM     19  C   UNL A   1     -25.320  -0.153  28.954  0.00  0.00    +0.179 C 
ATOM     20  C   UNL A   1     -30.171  -0.104  29.130  0.00  0.00    +0.108 C 
ATOM     21  N   UNL A   1     -26.591  -0.695  28.508  0.00  0.00    -0.186 NA
ATOM     22  C   UNL A   1     -31.206  -0.343  30.110  0.00  0.00    +0.012 C 
ATOM     23  O   UNL A   1     -27.948   0.989  28.512  0.00  0.00    -0.273 OA
ATOM     24  C   UNL A   1     -31.337  -1.515  31.011  0.00  0.00    +0.001 C 
ATOM     25  O   UNL A   1     -30.984  -0.889  27.176  0.00  0.00    -0.422 OA
ATOM     26  C   UNL A   1     -27.717  -0.216  28.896  0.00  0.00    +0.243 C 
ATOM     27  C   UNL A   1     -24.345   1.481  27.036  0.00  0.00    +0.055 C 
ATOM     28  C   UNL A   1     -22.174   1.363  27.467  0.00  0.00    +0.017 C 
ATOM     29  N   UNL A   1     -24.278   0.496  28.113  0.00  0.00    -0.269 N 
ATOM     30  C   UNL A   1     -31.327  -1.058  25.858  0.00  0.00    +0.324 C 
ENDROOT
BRANCH   2  31
ATOM     31  C   UNL A   1     -25.642   4.093  27.123  0.00  0.00    +0.267 C 
ATOM     32  N   UNL A   1     -25.614   5.252  26.449  0.00  0.00    -0.200 NA
ATOM     33  C   UNL A   1     -25.026   6.479  26.963  0.00  0.00    +0.139 C 
ATOM     34  O   UNL A   1     -25.143   3.966  28.243  0.00  0.00    -0.268 OA
ENDBRANCH   2  31
BRANCH  30  35
ATOM     35  C   UNL A   1     -32.775  -0.891  25.519  0.00  0.00    +0.258 C 
ATOM     36  O   UNL A   1     -33.790  -0.728  26.486  0.00  0.00    -0.213 OA
ENDBRANCH  30  35
BRANCH  19  37
ATOM     37  C   UNL A   1     -24.855  -1.012  30.143  0.00  0.00    +0.078 C 
BRANCH  37  38
ATOM     38  C   UNL A   1     -24.973  -2.505  29.788  0.00  0.00    -0.018 C 
ATOM     39  C   UNL A   1     -23.906  -3.173  29.146  0.00  0.00    -0.004 C 
ATOM     40  C   UNL A   1     -23.989  -4.549  28.853  0.00  0.00    -0.000 C 
ATOM     41  C   UNL A   1     -25.137  -5.280  29.205  0.00  0.00    -0.000 C 
ATOM     42  C   UNL A   1     -26.232  -4.611  29.784  0.00  0.00    -0.000 C 
ATOM     43  C   UNL A   1     -26.155  -3.232  30.065  0.00  0.00    -0.004 C 
ENDBRANCH  37  38
BRANCH  37  44
ATOM     44  C   UNL A   1     -25.387  -0.679  31.571  0.00  0.00    +0.080 C 
ATOM     45  C   UNL A   1     -25.189   0.773  32.028  0.00  0.00    +0.019 C 
ATOM     46  C   UNL A   1     -25.336   0.684  33.544  0.00  0.00    +0.020 C 
ATOM     47  C   UNL A   1     -24.829  -0.715  33.905  0.00  0.00    +0.089 C 
ATOM     48  N   UNL A   1     -24.758  -1.481  32.646  0.00  0.00    -0.219 NA
ENDBRANCH  37  44
ENDBRANCH  19  37
TORSDOF 5
