MODEL 654
MODEL 1
REMARK VINA RESULT:    -7.591      0.000      0.000
REMARK INTER + INTRA:         -10.899
REMARK INTER:                  -9.809
REMARK INTRA:                  -1.089
REMARK UNBOUND:                -1.089
REMARK  Name = No_654-gen_results/8p0m/2024-11-27-11-27-31/
REMARK  5 active torsions:
REMARK  status: ('A' for Active; 'I' for Inactive)
REMARK    1  A    between atoms: C_1  and  C_3
REMARK    2  A    between atoms: C_3  and  C_4
REMARK    3  A    between atoms: C_3  and  C_18
REMARK    4  A    between atoms: C_4  and  C_6
REMARK    5  A    between atoms: C_13  and  C_15
REMARK                            x       y       z     vdW  Elec       q    Type
REMARK                         _______ _______ _______ _____ _____    ______ ____
ROOT
ATOM      1  C   UNL A   1     -23.423  -0.352  29.109  0.00  0.00    +0.093 C 
ENDROOT
BRANCH   1   2
ATOM      2  C   UNL A   1     -23.611   0.501  27.925  0.00  0.00    -0.017 A 
ATOM      3  C   UNL A   1     -22.828   1.167  27.694  0.00  0.00    -0.004 A 
ATOM      4  C   UNL A   1     -22.917   2.110  26.491  0.00  0.00    -0.000 A 
ATOM      5  C   UNL A   1     -23.966   1.813  25.665  0.00  0.00    +0.007 A 
ATOM      6  C   UNL A   1     -24.766   0.767  25.909  0.00  0.00    +0.080 A 
ATOM      7  C   UNL A   1     -24.570  -0.024  26.977  0.00  0.00    +0.003 A 
BRANCH   6   8
ATOM      8  C   UNL A   1     -25.860   0.359  24.978  0.00  0.00    +0.388 C 
ATOM      9  O   UNL A   1     -25.849  -0.580  24.455  0.00  0.00    -0.241 OA
ATOM     10  O   UNL A   1     -26.788   1.265  24.700  0.00  0.00    -0.241 OA
ENDBRANCH   6   8
ENDBRANCH   1   2
BRANCH   1  11
ATOM     11  C   UNL A   1     -22.072  -0.303  29.747  0.00  0.00    +0.323 C 
ATOM     12  F   UNL A   1     -22.112  -0.747  30.913  0.00  0.00    -0.198 F 
ATOM     13  F   UNL A   1     -21.176  -1.145  29.140  0.00  0.00    -0.198 F 
ENDBRANCH   1  11
BRANCH   1  14
ATOM     14  C   UNL A   1     -24.456  -1.024  29.883  0.00  0.00    +0.036 C 
BRANCH  14  15
ATOM     15  C   UNL A   1     -24.787  -2.236  29.516  0.00  0.00    -0.022 A 
ATOM     16  C   UNL A   1     -23.798  -3.112  28.905  0.00  0.00    -0.004 A 
ATOM     17  C   UNL A   1     -24.086  -4.485  28.728  0.00  0.00    -0.000 A 
ATOM     18  C   UNL A   1     -25.379  -4.915  29.137  0.00  0.00    -0.000 A 
ATOM     19  C   UNL A   1     -26.312  -4.093  29.765  0.00  0.00    -0.000 A 
ATOM     20  C   UNL A   1     -26.018  -2.774  29.943  0.00  0.00    -0.004 A 
ENDBRANCH  14  15
ENDBRANCH   1  14
TORSDOF 5
ENDMDL
ENDMDL
