REMARK  Name = outputs/IAG933/test6/raw/output_6552_IAG933_linker_design_.xyz
REMARK  13 active torsions:
REMARK  status: ('A' for Active; 'I' for Inactive)
REMARK    1  A    between atoms: C_1  and  C_2
REMARK    2  A    between atoms: C_1  and  C_8
REMARK    3  A    between atoms: C_1  and  C_42
REMARK    4  A    between atoms: C_13  and  C_33
REMARK    5  A    between atoms: C_14  and  C_15
REMARK    6  A    between atoms: C_21  and  O_22
REMARK    7  A    between atoms: O_22  and  C_23
REMARK    8  A    between atoms: C_23  and  C_24
REMARK    9  A    between atoms: C_28  and  C_35
REMARK   10  A    between atoms: C_31  and  S_44
REMARK   11  A    between atoms: C_35  and  C_42
REMARK   12  A    between atoms: C_38  and  C_42
REMARK   13  A    between atoms: C_38  and  S_44
REMARK                            x       y       z     vdW  Elec       q    Type
REMARK                         _______ _______ _______ _____ _____    ______ ____
ROOT
ATOM      1  C   UNL A   1     -25.895   0.028  29.205  0.00  0.00    +0.031 C 
ENDROOT
BRANCH   1   2
ATOM      2  C   UNL A   1     -24.855  -1.012  30.143  0.00  0.00    +0.040 C 
BRANCH   2   3
ATOM      3  C   UNL A   1     -24.973  -2.505  29.788  0.00  0.00    -0.021 C 
ATOM      4  C   UNL A   1     -23.906  -3.173  29.146  0.00  0.00    -0.004 C 
ATOM      5  C   UNL A   1     -23.989  -4.549  28.853  0.00  0.00    -0.000 C 
ATOM      6  C   UNL A   1     -25.137  -5.280  29.205  0.00  0.00    -0.000 C 
ATOM      7  C   UNL A   1     -26.232  -4.611  29.784  0.00  0.00    -0.000 C 
ATOM      8  C   UNL A   1     -26.155  -3.232  30.065  0.00  0.00    -0.004 C 
ENDBRANCH   2   3
BRANCH   2   9
ATOM      9  C   UNL A   1     -25.387  -0.679  31.571  0.00  0.00    +0.077 C 
ATOM     10  C   UNL A   1     -25.189   0.773  32.028  0.00  0.00    +0.019 C 
ATOM     11  C   UNL A   1     -25.336   0.684  33.544  0.00  0.00    +0.020 C 
ATOM     12  C   UNL A   1     -24.829  -0.715  33.905  0.00  0.00    +0.089 C 
ATOM     13  N   UNL A   1     -24.758  -1.481  32.646  0.00  0.00    -0.219 NA
ENDBRANCH   2   9
ENDBRANCH   1   2
BRANCH   1  14
ATOM     14  C   UNL A   1     -24.774   1.014  28.707  0.00  0.00    +0.032 C 
BRANCH  14  15
ATOM     15  C   UNL A   1     -23.468   0.204  28.224  0.00  0.00    +0.115 C 
ATOM     16  C   UNL A   1     -24.169   1.350  26.581  0.00  0.00    +0.122 C 
ATOM     17  C   UNL A   1     -21.698   1.717  27.207  0.00  0.00    +0.005 C 
ATOM     18  O   UNL A   1     -23.822   0.243  26.904  0.00  0.00    -0.358 OA
ATOM     19  C   UNL A   1     -22.825   2.087  26.270  0.00  0.00    +0.030 C 
ATOM     20  C   UNL A   1     -22.175   0.974  28.448  0.00  0.00    +0.030 C 
BRANCH  16  21
ATOM     21  C   UNL A   1     -25.688   1.614  26.461  0.00  0.00    +0.097 C 
ATOM     22  C   UNL A   1     -26.250   2.920  26.395  0.00  0.00    +0.057 C 
ATOM     23  C   UNL A   1     -27.438   3.091  25.645  0.00  0.00    +0.102 C 
ATOM     24  N   UNL A   1     -28.075   2.089  25.003  0.00  0.00    -0.212 NA
ATOM     25  C   UNL A   1     -27.543   0.849  25.079  0.00  0.00    +0.234 C 
ATOM     26  C   UNL A   1     -26.354   0.576  25.777  0.00  0.00    +0.242 C 
ATOM     27  F   UNL A   1     -25.860  -0.681  25.795  0.00  0.00    -0.227 F 
BRANCH  22  28
ATOM     28  C   UNL A   1     -25.642   4.093  27.123  0.00  0.00    +0.263 C 
ATOM     29  N   UNL A   1     -25.614   5.252  26.449  0.00  0.00    -0.200 NA
ATOM     30  C   UNL A   1     -25.026   6.479  26.963  0.00  0.00    +0.139 C 
ATOM     31  O   UNL A   1     -25.143   3.966  28.243  0.00  0.00    -0.269 OA
ENDBRANCH  22  28
BRANCH  25  32
ATOM     32  O   UNL A   1     -28.193  -0.208  24.477  0.00  0.00    -0.459 OA
BRANCH  32  33
ATOM     33  C   UNL A   1     -29.460   0.005  23.866  0.00  0.00    +0.242 C 
BRANCH  33  34
ATOM     34  C   UNL A   1     -30.065  -1.377  23.573  0.00  0.00    +0.229 C 
ATOM     35  O   UNL A   1     -30.729  -1.878  24.721  0.00  0.00    -0.216 OA
ENDBRANCH  33  34
ENDBRANCH  32  33
ENDBRANCH  25  32
ENDBRANCH  16  21
ENDBRANCH  14  15
ENDBRANCH   1  14
BRANCH   1  36
ATOM     36  C   UNL A   1     -27.195   0.848  28.669  0.00  0.00    +0.151 C 
BRANCH  36  38
ATOM     37  O   UNL A   1     -29.615  -0.404  28.073  0.00  0.00    -0.173 OA
ATOM     38  S   UNL A   1     -28.757   0.192  29.000  0.00  0.00    -0.012 S 
ATOM     39  O   UNL A   1     -28.369  -0.727  30.033  0.00  0.00    -0.173 OA
BRANCH  38  42
ATOM     40  C   UNL A   1     -30.771   0.736  30.434  0.00  0.00    +0.024 C 
ATOM     41  C   UNL A   1     -30.040   3.333  31.678  0.00  0.00    +0.002 C 
ATOM     42  C   UNL A   1     -29.614   1.547  29.839  0.00  0.00    +0.129 C 
ATOM     43  C   UNL A   1     -29.112   2.789  30.633  0.00  0.00    +0.024 C 
ATOM     44  C   UNL A   1     -30.945   2.326  32.343  0.00  0.00    +0.000 C 
ATOM     45  C   UNL A   1     -31.711   1.580  31.246  0.00  0.00    +0.002 C 
ENDBRANCH  38  42
ENDBRANCH  36  38
ENDBRANCH   1  36
TORSDOF 13
