REMARK  Name = outputs/IAG933/test6/raw/output_6557_IAG933_linker_design_.xyz
REMARK  11 active torsions:
REMARK  status: ('A' for Active; 'I' for Inactive)
REMARK    1  A    between atoms: C_1  and  C_2
REMARK    2  A    between atoms: C_1  and  C_8
REMARK    3  A    between atoms: C_9  and  CA_37
REMARK    4  A    between atoms: C_13  and  C_28
REMARK    5  A    between atoms: C_14  and  C_15
REMARK    6  A    between atoms: C_21  and  O_22
REMARK    7  A    between atoms: O_22  and  C_23
REMARK    8  A    between atoms: C_23  and  C_24
REMARK    9  A    between atoms: N_33  and  C_36
REMARK   10  A    between atoms: N_33  and  CA_37
REMARK   11  A    between atoms: CA_37  and  C_38
REMARK                            x       y       z     vdW  Elec       q    Type
REMARK                         _______ _______ _______ _____ _____    ______ ____
ROOT
ATOM      1  C   UNL A   1     -24.304   1.611  26.951  0.00  0.00    +0.030 C 
ATOM      2  F   UNL A   1     -20.268   2.138  27.903  0.00  0.00    -0.202 F 
ATOM      3  F   UNL A   1     -21.035   2.075  25.329  0.00  0.00    -0.199 F 
ATOM      4  F   UNL A   1     -23.562   2.032  24.653  0.00  0.00    -0.202 F 
ATOM      5  C   UNL A   1     -21.539   1.871  27.618  0.00  0.00    +0.171 C 
ATOM      6  C   UNL A   1     -22.514   1.706  28.707  0.00  0.00    +0.048 C 
ATOM      7  C   UNL A   1     -23.894   1.648  28.432  0.00  0.00    +0.067 C 
ATOM      8  C   UNL A   1     -23.284   1.816  25.918  0.00  0.00    +0.167 C 
ATOM      9  C   UNL A   1     -21.970   1.885  26.298  0.00  0.00    +0.194 C 
ENDROOT
BRANCH   1  10
ATOM     10  C   UNL A   1     -25.688   1.614  26.461  0.00  0.00    +0.096 C 
ATOM     11  C   UNL A   1     -26.250   2.920  26.395  0.00  0.00    +0.059 C 
ATOM     12  C   UNL A   1     -27.438   3.091  25.645  0.00  0.00    +0.102 C 
ATOM     13  N   UNL A   1     -28.075   2.089  25.003  0.00  0.00    -0.212 NA
ATOM     14  C   UNL A   1     -27.543   0.849  25.079  0.00  0.00    +0.234 C 
ATOM     15  C   UNL A   1     -26.354   0.576  25.777  0.00  0.00    +0.244 C 
ATOM     16  F   UNL A   1     -25.860  -0.681  25.795  0.00  0.00    -0.227 F 
BRANCH  11  17
ATOM     17  C   UNL A   1     -25.642   4.093  27.123  0.00  0.00    +0.263 C 
ATOM     18  N   UNL A   1     -25.614   5.252  26.449  0.00  0.00    -0.200 NA
ATOM     19  C   UNL A   1     -25.026   6.479  26.963  0.00  0.00    +0.139 C 
ATOM     20  O   UNL A   1     -25.143   3.966  28.243  0.00  0.00    -0.269 OA
ENDBRANCH  11  17
BRANCH  14  21
ATOM     21  O   UNL A   1     -28.193  -0.208  24.477  0.00  0.00    -0.459 OA
BRANCH  21  22
ATOM     22  C   UNL A   1     -29.460   0.005  23.866  0.00  0.00    +0.242 C 
BRANCH  22  23
ATOM     23  C   UNL A   1     -30.065  -1.377  23.573  0.00  0.00    +0.229 C 
ATOM     24  O   UNL A   1     -30.729  -1.878  24.721  0.00  0.00    -0.216 OA
ENDBRANCH  22  23
ENDBRANCH  21  22
ENDBRANCH  14  21
ENDBRANCH   1  10
BRANCH   7  25
ATOM     25  N   UNL A   1     -24.718   1.708  29.584  0.00  0.00    -0.228 NA
BRANCH  25  26
ATOM     26  CA  UNL A   1     -24.419   1.795  31.042  0.00  0.00    +0.196 C 
BRANCH  26  28
ATOM     27  C   UNL A   1     -25.387  -0.679  31.571  0.00  0.00    +0.079 C 
ATOM     28  C   UNL A   1     -25.189   0.773  32.028  0.00  0.00    +0.049 C 
ATOM     29  C   UNL A   1     -25.336   0.684  33.544  0.00  0.00    +0.022 C 
ATOM     30  C   UNL A   1     -24.829  -0.715  33.905  0.00  0.00    +0.089 C 
ATOM     31  N   UNL A   1     -24.758  -1.481  32.646  0.00  0.00    -0.219 NA
BRANCH  27  32
ATOM     32  C   UNL A   1     -24.855  -1.012  30.143  0.00  0.00    +0.044 C 
BRANCH  32  33
ATOM     33  C   UNL A   1     -24.973  -2.505  29.788  0.00  0.00    -0.021 C 
ATOM     34  C   UNL A   1     -23.906  -3.173  29.146  0.00  0.00    -0.004 C 
ATOM     35  C   UNL A   1     -23.989  -4.549  28.853  0.00  0.00    -0.000 C 
ATOM     36  C   UNL A   1     -25.137  -5.280  29.205  0.00  0.00    -0.000 C 
ATOM     37  C   UNL A   1     -26.232  -4.611  29.784  0.00  0.00    -0.000 C 
ATOM     38  C   UNL A   1     -26.155  -3.232  30.065  0.00  0.00    -0.004 C 
ENDBRANCH  32  33
ENDBRANCH  27  32
ENDBRANCH  26  28
BRANCH  26  40
ATOM     39  O   UNL A   1     -25.248   4.318  31.015  0.00  0.00    -0.244 OA
ATOM     40  C   UNL A   1     -24.934   3.183  31.593  0.00  0.00    +0.384 C 
ATOM     41  OXT UNL A   1     -24.944   3.250  32.839  0.00  0.00    -0.244 OA
ENDBRANCH  26  40
ENDBRANCH  25  26
ENDBRANCH   7  25
TORSDOF 11
