REMARK  Name = outputs/IAG933/test6/raw/output_6558_IAG933_linker_design_.xyz
REMARK  8 active torsions:
REMARK  status: ('A' for Active; 'I' for Inactive)
REMARK    1  A    between atoms: C_1  and  C_2
REMARK    2  A    between atoms: C_1  and  C_8
REMARK    3  A    between atoms: C_1  and  C_30
REMARK    4  A    between atoms: C_13  and  N_28
REMARK    5  A    between atoms: C_14  and  C_15
REMARK    6  A    between atoms: C_21  and  O_22
REMARK    7  A    between atoms: O_22  and  C_23
REMARK    8  A    between atoms: C_23  and  C_24
REMARK                            x       y       z     vdW  Elec       q    Type
REMARK                         _______ _______ _______ _____ _____    ______ ____
ROOT
ATOM      1  N   UNL A   1     -24.627   1.302  27.318  0.00  0.00    -0.164 N 
ATOM      2  N   UNL A   1     -23.271   2.121  25.500  0.00  0.00    +0.006 NA
ATOM      3  C   UNL A   1     -24.776  -0.013  29.269  0.00  0.00    +0.126 C 
ATOM      4  C   UNL A   1     -21.958  -0.083  29.309  0.00  0.00    +0.029 C 
ATOM      5  O   UNL A   1     -27.266  -0.210  28.631  0.00  0.00    -0.291 OA
ATOM      6  C   UNL A   1     -25.183   1.359  28.704  0.00  0.00    +0.233 C 
ATOM      7  C   UNL A   1     -23.603   1.625  26.724  0.00  0.00    +0.335 C 
ATOM      8  O   UNL A   1     -21.096   2.015  26.457  0.00  0.00    -0.410 OA
ATOM      9  C   UNL A   1     -21.670   1.452  27.369  0.00  0.00    +0.183 C 
ATOM     10  C   UNL A   1     -21.039   0.735  28.510  0.00  0.00    +0.174 C 
ATOM     11  C   UNL A   1     -22.870   1.156  27.561  0.00  0.00    +0.116 C 
ATOM     12  F   UNL A   1     -19.779   1.474  28.567  0.00  0.00    -0.201 F 
ATOM     13  C   UNL A   1     -22.001   2.389  25.442  0.00  0.00    +0.426 C 
ATOM     14  C   UNL A   1     -26.154   0.236  28.784  0.00  0.00    +0.202 C 
ATOM     15  C   UNL A   1     -23.154   0.213  28.730  0.00  0.00    +0.001 C 
ENDROOT
BRANCH   1  16
ATOM     16  C   UNL A   1     -25.688   1.614  26.461  0.00  0.00    +0.177 C 
ATOM     17  C   UNL A   1     -26.250   2.920  26.395  0.00  0.00    +0.114 C 
ATOM     18  C   UNL A   1     -27.438   3.091  25.645  0.00  0.00    +0.110 C 
ATOM     19  N   UNL A   1     -28.075   2.089  25.003  0.00  0.00    -0.208 NA
ATOM     20  C   UNL A   1     -27.543   0.849  25.079  0.00  0.00    +0.257 C 
ATOM     21  C   UNL A   1     -26.354   0.576  25.777  0.00  0.00    +0.230 C 
ATOM     22  F   UNL A   1     -25.860  -0.681  25.795  0.00  0.00    -0.196 F 
BRANCH  17  23
ATOM     23  C   UNL A   1     -25.642   4.093  27.123  0.00  0.00    +0.270 C 
ATOM     24  N   UNL A   1     -25.614   5.252  26.449  0.00  0.00    -0.200 NA
ATOM     25  C   UNL A   1     -25.026   6.479  26.963  0.00  0.00    +0.139 C 
ATOM     26  O   UNL A   1     -25.143   3.966  28.243  0.00  0.00    -0.268 OA
ENDBRANCH  17  23
BRANCH  20  27
ATOM     27  O   UNL A   1     -28.193  -0.208  24.477  0.00  0.00    -0.456 OA
BRANCH  27  28
ATOM     28  C   UNL A   1     -29.460   0.005  23.866  0.00  0.00    +0.243 C 
BRANCH  28  29
ATOM     29  C   UNL A   1     -30.065  -1.377  23.573  0.00  0.00    +0.229 C 
ATOM     30  O   UNL A   1     -30.729  -1.878  24.721  0.00  0.00    -0.216 OA
ENDBRANCH  28  29
ENDBRANCH  27  28
ENDBRANCH  20  27
ENDBRANCH   1  16
BRANCH   3  31
ATOM     31  C   UNL A   1     -24.855  -1.012  30.143  0.00  0.00    +0.053 C 
BRANCH  31  32
ATOM     32  C   UNL A   1     -24.973  -2.505  29.788  0.00  0.00    -0.020 C 
ATOM     33  C   UNL A   1     -23.906  -3.173  29.146  0.00  0.00    -0.004 C 
ATOM     34  C   UNL A   1     -23.989  -4.549  28.853  0.00  0.00    -0.000 C 
ATOM     35  C   UNL A   1     -25.137  -5.280  29.205  0.00  0.00    -0.000 C 
ATOM     36  C   UNL A   1     -26.232  -4.611  29.784  0.00  0.00    -0.000 C 
ATOM     37  C   UNL A   1     -26.155  -3.232  30.065  0.00  0.00    -0.004 C 
ENDBRANCH  31  32
BRANCH  31  38
ATOM     38  C   UNL A   1     -25.387  -0.679  31.571  0.00  0.00    +0.078 C 
ATOM     39  C   UNL A   1     -25.189   0.773  32.028  0.00  0.00    +0.019 C 
ATOM     40  C   UNL A   1     -25.336   0.684  33.544  0.00  0.00    +0.020 C 
ATOM     41  C   UNL A   1     -24.829  -0.715  33.905  0.00  0.00    +0.089 C 
ATOM     42  N   UNL A   1     -24.758  -1.481  32.646  0.00  0.00    -0.219 NA
ENDBRANCH  31  38
ENDBRANCH   3  31
TORSDOF 8
