REMARK  Name = outputs/IAG933/test6/raw/output_6559_IAG933_linker_design_.xyz
REMARK  17 active torsions:
REMARK  status: ('A' for Active; 'I' for Inactive)
REMARK    1  A    between atoms: C_1  and  C_2
REMARK    2  A    between atoms: C_1  and  C_8
REMARK    3  A    between atoms: C_1  and  C_43
REMARK    4  A    between atoms: C_13  and  C_30
REMARK    5  A    between atoms: C_14  and  C_15
REMARK    6  A    between atoms: C_15  and  O_18
REMARK    7  A    between atoms: O_18  and  C_35
REMARK    8  A    between atoms: C_21  and  O_22
REMARK    9  A    between atoms: O_22  and  C_23
REMARK   10  A    between atoms: C_23  and  C_24
REMARK   11  A    between atoms: C_33  and  O_42
REMARK   12  A    between atoms: C_33  and  C_52
REMARK   13  A    between atoms: C_35  and  C_39
REMARK   14  A    between atoms: C_36  and  O_41
REMARK   15  A    between atoms: C_37  and  O_42
REMARK   16  A    between atoms: C_43  and  N_50
REMARK   17  A    between atoms: N_51  and  C_52
REMARK                            x       y       z     vdW  Elec       q    Type
REMARK                         _______ _______ _______ _____ _____    ______ ____
ROOT
ATOM      1  C   UNL A   1     -25.688   1.614  26.461  0.00  0.00    +0.058 C 
ATOM      2  C   UNL A   1     -26.250   2.920  26.395  0.00  0.00    +0.074 C 
ATOM      3  C   UNL A   1     -27.438   3.091  25.645  0.00  0.00    +0.107 C 
ATOM      4  N   UNL A   1     -28.075   2.089  25.003  0.00  0.00    -0.208 NA
ATOM      5  C   UNL A   1     -27.543   0.849  25.079  0.00  0.00    +0.253 C 
ATOM      6  C   UNL A   1     -26.354   0.576  25.777  0.00  0.00    +0.193 C 
ATOM      7  F   UNL A   1     -25.860  -0.681  25.795  0.00  0.00    -0.199 F 
ENDROOT
BRANCH   1  10
ATOM      8  C   UNL A   1     -23.322   0.176  28.609  0.00  0.00    +0.077 C 
ATOM      9  C   UNL A   1     -22.435   2.127  27.268  0.00  0.00    +0.119 C 
ATOM     10  C   UNL A   1     -24.577   1.266  27.251  0.00  0.00    +0.202 C 
ATOM     11  O   UNL A   1     -23.752   2.186  27.653  0.00  0.00    -0.339 OA
ATOM     12  C   UNL A   1     -21.895   2.319  25.849  0.00  0.00    +0.032 C 
ATOM     13  C   UNL A   1     -22.085   0.907  28.084  0.00  0.00    +0.047 C 
ATOM     14  N   UNL A   1     -24.556   0.746  28.508  0.00  0.00    -0.247 NA
BRANCH  14  15
ATOM     15  C   UNL A   1     -25.561  -0.237  29.090  0.00  0.00    +0.080 C 
BRANCH  15  16
ATOM     16  C   UNL A   1     -24.855  -1.012  30.143  0.00  0.00    +0.054 C 
BRANCH  16  17
ATOM     17  C   UNL A   1     -24.973  -2.505  29.788  0.00  0.00    -0.020 C 
ATOM     18  C   UNL A   1     -23.906  -3.173  29.146  0.00  0.00    -0.004 C 
ATOM     19  C   UNL A   1     -23.989  -4.549  28.853  0.00  0.00    -0.000 C 
ATOM     20  C   UNL A   1     -25.137  -5.280  29.205  0.00  0.00    -0.000 C 
ATOM     21  C   UNL A   1     -26.232  -4.611  29.784  0.00  0.00    -0.000 C 
ATOM     22  C   UNL A   1     -26.155  -3.232  30.065  0.00  0.00    -0.004 C 
ENDBRANCH  16  17
BRANCH  16  23
ATOM     23  C   UNL A   1     -25.387  -0.679  31.571  0.00  0.00    +0.078 C 
ATOM     24  C   UNL A   1     -25.189   0.773  32.028  0.00  0.00    +0.019 C 
ATOM     25  C   UNL A   1     -25.336   0.684  33.544  0.00  0.00    +0.020 C 
ATOM     26  C   UNL A   1     -24.829  -0.715  33.905  0.00  0.00    +0.089 C 
ATOM     27  N   UNL A   1     -24.758  -1.481  32.646  0.00  0.00    -0.219 NA
ENDBRANCH  16  23
ENDBRANCH  15  16
ENDBRANCH  14  15
ENDBRANCH   1  10
BRANCH   2  28
ATOM     28  C   UNL A   1     -25.642   4.093  27.123  0.00  0.00    +0.222 C 
ATOM     29  N   UNL A   1     -25.614   5.252  26.449  0.00  0.00    -0.236 NA
ATOM     30  C   UNL A   1     -25.026   6.479  26.963  0.00  0.00    +0.155 C 
BRANCH  28  31
ATOM     31  O   UNL A   1     -25.143   3.966  28.243  0.00  0.00    -0.455 OA
BRANCH  31  32
ATOM     32  C   UNL A   1     -25.619   3.901  29.616  0.00  0.00    +0.240 C 
BRANCH  32  38
ATOM     33  C   UNL A   1     -25.634   4.456  32.084  0.00  0.00    +0.232 C 
ATOM     34  O   UNL A   1     -24.512   3.809  32.534  0.00  0.00    -0.283 OA
ATOM     35  C   UNL A   1     -27.843   4.064  31.037  0.00  0.00    +0.141 C 
ATOM     36  C   UNL A   1     -26.177   5.483  32.799  0.00  0.00    +0.187 C 
ATOM     37  C   UNL A   1     -27.579   5.711  32.740  0.00  0.00    +0.044 C 
ATOM     38  C   UNL A   1     -26.355   4.100  30.974  0.00  0.00    +0.097 C 
ATOM     39  C   UNL A   1     -28.409   4.963  31.897  0.00  0.00    +0.040 C 
BRANCH  35  41
ATOM     40  C   UNL A   1     -28.873   3.702  28.940  0.00  0.00    +0.253 C 
ATOM     41  O   UNL A   1     -28.462   3.250  30.195  0.00  0.00    -0.471 OA
ENDBRANCH  35  41
BRANCH  36  42
ATOM     42  O   UNL A   1     -25.067   6.327  33.618  0.00  0.00    -0.420 OA
BRANCH  42  43
ATOM     43  C   UNL A   1     -25.400   6.002  34.973  0.00  0.00    +0.338 C 
ATOM     44  O   UNL A   1     -26.340   4.956  35.281  0.00  0.00    -0.248 OA
BRANCH  43  45
ATOM     45  C   UNL A   1     -24.643   6.182  36.277  0.00  0.00    +0.184 C 
BRANCH  45  48
ATOM     46  C   UNL A   1     -23.424   7.741  34.857  0.00  0.00    +0.090 C 
ATOM     47  C   UNL A   1     -23.353   7.963  37.231  0.00  0.00    +0.090 C 
ATOM     48  N   UNL A   1     -23.523   7.067  36.010  0.00  0.00    -0.261 NA
ENDBRANCH  45  48
ENDBRANCH  43  45
ENDBRANCH  42  43
ENDBRANCH  36  42
ENDBRANCH  32  38
ENDBRANCH  31  32
ENDBRANCH  28  31
ENDBRANCH   2  28
BRANCH   5  49
ATOM     49  O   UNL A   1     -28.193  -0.208  24.477  0.00  0.00    -0.456 OA
BRANCH  49  50
ATOM     50  C   UNL A   1     -29.460   0.005  23.866  0.00  0.00    +0.243 C 
BRANCH  50  51
ATOM     51  C   UNL A   1     -30.065  -1.377  23.573  0.00  0.00    +0.229 C 
ATOM     52  O   UNL A   1     -30.729  -1.878  24.721  0.00  0.00    -0.216 OA
ENDBRANCH  50  51
ENDBRANCH  49  50
ENDBRANCH   5  49
TORSDOF 17
