MODEL 655
MODEL 1
REMARK VINA RESULT:    -6.565      0.000      0.000
REMARK INTER + INTRA:          -7.791
REMARK INTER:                  -7.333
REMARK INTRA:                  -0.458
REMARK UNBOUND:                -0.458
REMARK  Name = No_655-gen_results/8p0m/2024-11-27-11-27-31/
REMARK  2 active torsions:
REMARK  status: ('A' for Active; 'I' for Inactive)
REMARK    1  A    between atoms: C_3  and  C_7
REMARK    2  A    between atoms: C_7  and  C_8
REMARK                            x       y       z     vdW  Elec       q    Type
REMARK                         _______ _______ _______ _____ _____    ______ ____
ROOT
ATOM      1  C   UNL A   1     -24.974  -1.212  29.869  0.00  0.00    +0.053 C 
ENDROOT
BRANCH   1   4
ATOM      2  C   UNL A   1     -22.499  -0.553  29.727  0.00  0.00    -0.004 A 
ATOM      3  C   UNL A   1     -21.751  -0.032  29.198  0.00  0.00    -0.000 A 
ATOM      4  C   UNL A   1     -23.823  -0.479  29.239  0.00  0.00    -0.018 A 
ATOM      5  C   UNL A   1     -24.148   0.256  28.117  0.00  0.00    -0.004 A 
ATOM      6  C   UNL A   1     -21.828   0.810  27.988  0.00  0.00    -0.000 A 
ATOM      7  C   UNL A   1     -23.079   0.909  27.489  0.00  0.00    -0.000 A 
ENDBRANCH   1   4
BRANCH   1   8
ATOM      8  C   UNL A   1     -25.094  -2.600  29.546  0.00  0.00    -0.018 A 
ATOM      9  C   UNL A   1     -26.076  -3.327  29.870  0.00  0.00    -0.004 A 
ATOM     10  C   UNL A   1     -26.037  -4.842  29.571  0.00  0.00    -0.000 A 
ATOM     11  C   UNL A   1     -24.908  -5.288  28.890  0.00  0.00    -0.000 A 
ATOM     12  C   UNL A   1     -24.030  -3.477  28.913  0.00  0.00    -0.004 A 
ATOM     13  C   UNL A   1     -24.051  -4.661  28.514  0.00  0.00    -0.000 A 
ENDBRANCH   1   8
TORSDOF 2
ENDMDL
ENDMDL
