REMARK  Name = outputs/IAG933/test6/raw/output_656_IAG933_linker_design_.xyz
REMARK  8 active torsions:
REMARK  status: ('A' for Active; 'I' for Inactive)
REMARK    1  A    between atoms: C_1  and  C_2
REMARK    2  A    between atoms: C_1  and  C_8
REMARK    3  A    between atoms: C_1  and  N_28
REMARK    4  A    between atoms: C_13  and  N_42
REMARK    5  A    between atoms: C_14  and  C_15
REMARK    6  A    between atoms: C_21  and  O_22
REMARK    7  A    between atoms: O_22  and  C_23
REMARK    8  A    between atoms: C_23  and  C_24
REMARK                            x       y       z     vdW  Elec       q    Type
REMARK                         _______ _______ _______ _____ _____    ______ ____
ROOT
ATOM      1  N   UNL A   1     -23.472  -0.611  29.819  0.00  0.00    -0.224 NA
ATOM      2  F   UNL A   1     -19.849   2.001  27.660  0.00  0.00    -0.225 F 
ATOM      3  C   UNL A   1     -23.461   0.699  29.270  0.00  0.00    +0.284 C 
ATOM      4  O   UNL A   1     -22.029   1.919  26.099  0.00  0.00    -0.431 OA
ATOM      5  C   UNL A   1     -22.071   1.624  27.195  0.00  0.00    +0.248 C 
ATOM      6  O   UNL A   1     -23.519   3.121  24.933  0.00  0.00    -0.226 OA
ATOM      7  C   UNL A   1     -23.270   2.217  25.809  0.00  0.00    +0.406 C 
ATOM      8  O   UNL A   1     -19.937  -0.324  28.138  0.00  0.00    -0.292 OA
ATOM      9  N   UNL A   1     -24.616   1.079  28.536  0.00  0.00    -0.068 NA
ATOM     10  O   UNL A   1     -25.787   0.960  28.790  0.00  0.00    -0.113 OA
ATOM     11  C   UNL A   1     -23.517   1.231  27.870  0.00  0.00    +0.235 C 
ATOM     12  C   UNL A   1     -21.935  -0.856  29.622  0.00  0.00    +0.144 C 
ATOM     13  C   UNL A   1     -20.991   0.126  28.678  0.00  0.00    +0.203 C 
ATOM     14  O   UNL A   1     -22.874   1.687  30.000  0.00  0.00    -0.186 OA
ATOM     15  N   UNL A   1     -24.347   1.595  26.607  0.00  0.00    -0.222 N 
ATOM     16  C   UNL A   1     -21.061   1.586  28.157  0.00  0.00    +0.262 C 
ENDROOT
BRANCH  15  17
ATOM     17  C   UNL A   1     -25.688   1.614  26.461  0.00  0.00    +0.150 C 
ATOM     18  C   UNL A   1     -26.250   2.920  26.395  0.00  0.00    +0.073 C 
ATOM     19  C   UNL A   1     -27.438   3.091  25.645  0.00  0.00    +0.104 C 
ATOM     20  N   UNL A   1     -28.075   2.089  25.003  0.00  0.00    -0.212 NA
ATOM     21  C   UNL A   1     -27.543   0.849  25.079  0.00  0.00    +0.236 C 
ATOM     22  C   UNL A   1     -26.354   0.576  25.777  0.00  0.00    +0.258 C 
ATOM     23  F   UNL A   1     -25.860  -0.681  25.795  0.00  0.00    -0.225 F 
BRANCH  18  24
ATOM     24  C   UNL A   1     -25.642   4.093  27.123  0.00  0.00    +0.264 C 
ATOM     25  N   UNL A   1     -25.614   5.252  26.449  0.00  0.00    -0.200 NA
ATOM     26  C   UNL A   1     -25.026   6.479  26.963  0.00  0.00    +0.139 C 
ATOM     27  O   UNL A   1     -25.143   3.966  28.243  0.00  0.00    -0.269 OA
ENDBRANCH  18  24
BRANCH  21  28
ATOM     28  O   UNL A   1     -28.193  -0.208  24.477  0.00  0.00    -0.459 OA
BRANCH  28  29
ATOM     29  C   UNL A   1     -29.460   0.005  23.866  0.00  0.00    +0.242 C 
BRANCH  29  30
ATOM     30  C   UNL A   1     -30.065  -1.377  23.573  0.00  0.00    +0.229 C 
ATOM     31  O   UNL A   1     -30.729  -1.878  24.721  0.00  0.00    -0.216 OA
ENDBRANCH  29  30
ENDBRANCH  28  29
ENDBRANCH  21  28
ENDBRANCH  15  17
BRANCH   1  32
ATOM     32  C   UNL A   1     -24.855  -1.012  30.143  0.00  0.00    +0.100 C 
BRANCH  32  33
ATOM     33  C   UNL A   1     -24.973  -2.505  29.788  0.00  0.00    -0.006 C 
ATOM     34  C   UNL A   1     -23.906  -3.173  29.146  0.00  0.00    -0.003 C 
ATOM     35  C   UNL A   1     -23.989  -4.549  28.853  0.00  0.00    -0.000 C 
ATOM     36  C   UNL A   1     -25.137  -5.280  29.205  0.00  0.00    -0.000 C 
ATOM     37  C   UNL A   1     -26.232  -4.611  29.784  0.00  0.00    -0.000 C 
ATOM     38  C   UNL A   1     -26.155  -3.232  30.065  0.00  0.00    -0.003 C 
ENDBRANCH  32  33
BRANCH  32  39
ATOM     39  C   UNL A   1     -25.387  -0.679  31.571  0.00  0.00    +0.092 C 
ATOM     40  C   UNL A   1     -25.189   0.773  32.028  0.00  0.00    +0.021 C 
ATOM     41  C   UNL A   1     -25.336   0.684  33.544  0.00  0.00    +0.020 C 
ATOM     42  C   UNL A   1     -24.829  -0.715  33.905  0.00  0.00    +0.089 C 
ATOM     43  N   UNL A   1     -24.758  -1.481  32.646  0.00  0.00    -0.218 NA
ENDBRANCH  32  39
ENDBRANCH   1  32
TORSDOF 8
