MODEL 656
MODEL 1
REMARK VINA RESULT:    -3.278      0.000      0.000
REMARK INTER + INTRA:          -3.539
REMARK INTER:                  -3.470
REMARK INTRA:                  -0.069
REMARK UNBOUND:                -0.069
REMARK  Name = No_656-gen_results/8p0m/2024-11-27-11-27-31/
REMARK  1 active torsions:
REMARK  status: ('A' for Active; 'I' for Inactive)
REMARK    1  A    between atoms: C_2  and  C_3
REMARK                            x       y       z     vdW  Elec       q    Type
REMARK                         _______ _______ _______ _____ _____    ______ ____
ROOT
ATOM      1  C   UNL A   1     -24.196  -4.382  28.623  0.00  0.00    -0.018 C 
ATOM      2  C   UNL A   1     -24.937  -5.224  29.163  0.00  0.00    -0.029 C 
ATOM      3  C   UNL A   1     -26.264  -4.760  29.655  0.00  0.00    +0.030 C 
ENDROOT
BRANCH   1   5
ATOM      4 BR   UNL A   1     -23.446  -1.909  29.174  0.00  0.00    -0.076 Br
ATOM      5  C   UNL A   1     -24.432  -3.120  28.628  0.00  0.00    +0.093 C 
ENDBRANCH   1   5
TORSDOF 1
ENDMDL
ENDMDL
