REMARK  Name = outputs/IAG933/test6/raw/output_657_IAG933_linker_design_.xyz
REMARK  16 active torsions:
REMARK  status: ('A' for Active; 'I' for Inactive)
REMARK    1  A    between atoms: C_1  and  C_2
REMARK    2  A    between atoms: C_1  and  C_8
REMARK    3  A    between atoms: C_1  and  N_37
REMARK    4  A    between atoms: C_13  and  C_33
REMARK    5  A    between atoms: C_14  and  C_15
REMARK    6  A    between atoms: C_21  and  O_22
REMARK    7  A    between atoms: O_22  and  C_23
REMARK    8  A    between atoms: C_23  and  C_24
REMARK    9  A    between atoms: C_28  and  C_31
REMARK   10  A    between atoms: C_29  and  C_38
REMARK   11  A    between atoms: C_29  and  N_41
REMARK   12  A    between atoms: C_31  and  N_41
REMARK   13  A    between atoms: C_35  and  N_36
REMARK   14  A    between atoms: C_35  and  N_37
REMARK   15  A    between atoms: C_35  and  C_42
REMARK   16  A    between atoms: N_36  and  C_38
REMARK                            x       y       z     vdW  Elec       q    Type
REMARK                         _______ _______ _______ _____ _____    ______ ____
ROOT
ATOM      1  C   UNL A   1     -24.353   0.811  28.692  0.00  0.00    +0.169 C 
ENDROOT
BRANCH   1   7
ATOM      2  C   UNL A   1     -22.105   2.070  25.338  0.00  0.00    -0.000 C 
ATOM      3  C   UNL A   1     -24.178   1.612  26.520  0.00  0.00    -0.016 C 
ATOM      4  C   UNL A   1     -23.489   1.856  25.308  0.00  0.00    -0.004 C 
ATOM      5  C   UNL A   1     -21.369   1.966  26.519  0.00  0.00    -0.000 C 
ATOM      6  C   UNL A   1     -22.057   1.587  27.691  0.00  0.00    -0.002 C 
ATOM      7  C   UNL A   1     -23.481   1.330  27.652  0.00  0.00    +0.006 C 
BRANCH   3   8
ATOM      8  C   UNL A   1     -25.688   1.614  26.461  0.00  0.00    +0.092 C 
ATOM      9  C   UNL A   1     -26.250   2.920  26.395  0.00  0.00    +0.059 C 
ATOM     10  C   UNL A   1     -27.438   3.091  25.645  0.00  0.00    +0.102 C 
ATOM     11  N   UNL A   1     -28.075   2.089  25.003  0.00  0.00    -0.212 NA
ATOM     12  C   UNL A   1     -27.543   0.849  25.079  0.00  0.00    +0.234 C 
ATOM     13  C   UNL A   1     -26.354   0.576  25.777  0.00  0.00    +0.244 C 
ATOM     14  F   UNL A   1     -25.860  -0.681  25.795  0.00  0.00    -0.227 F 
BRANCH   9  15
ATOM     15  C   UNL A   1     -25.642   4.093  27.123  0.00  0.00    +0.263 C 
ATOM     16  N   UNL A   1     -25.614   5.252  26.449  0.00  0.00    -0.200 NA
ATOM     17  C   UNL A   1     -25.026   6.479  26.963  0.00  0.00    +0.139 C 
ATOM     18  O   UNL A   1     -25.143   3.966  28.243  0.00  0.00    -0.269 OA
ENDBRANCH   9  15
BRANCH  12  19
ATOM     19  O   UNL A   1     -28.193  -0.208  24.477  0.00  0.00    -0.459 OA
BRANCH  19  20
ATOM     20  C   UNL A   1     -29.460   0.005  23.866  0.00  0.00    +0.242 C 
BRANCH  20  21
ATOM     21  C   UNL A   1     -30.065  -1.377  23.573  0.00  0.00    +0.229 C 
ATOM     22  O   UNL A   1     -30.729  -1.878  24.721  0.00  0.00    -0.216 OA
ENDBRANCH  20  21
ENDBRANCH  19  20
ENDBRANCH  12  19
ENDBRANCH   3   8
ENDBRANCH   1   7
BRANCH   1  23
ATOM     23  N   UNL A   1     -24.613   1.672  29.572  0.00  0.00    -0.197 NA
BRANCH  23  24
ATOM     24  C   UNL A   1     -23.525   2.408  30.294  0.00  0.00    +0.109 C 
BRANCH  24  25
ATOM     25  C   UNL A   1     -24.698   3.358  30.816  0.00  0.00    +0.108 C 
BRANCH  25  26
ATOM     26  N   UNL A   1     -24.341   4.447  31.696  0.00  0.00    -0.214 NA
BRANCH  26  27
ATOM     27  C   UNL A   1     -22.999   5.015  31.611  0.00  0.00    +0.124 C 
BRANCH  27  28
ATOM     28  C   UNL A   1     -23.263   6.225  32.566  0.00  0.00    +0.201 C 
ATOM     29  O   UNL A   1     -24.633   6.590  32.639  0.00  0.00    -0.219 OA
ENDBRANCH  27  28
ENDBRANCH  26  27
ENDBRANCH  25  26
ENDBRANCH  24  25
ENDBRANCH  23  24
ENDBRANCH   1  23
BRANCH   1  30
ATOM     30  N   UNL A   1     -24.966  -0.335  28.869  0.00  0.00    -0.194 NA
BRANCH  30  31
ATOM     31  C   UNL A   1     -24.855  -1.012  30.143  0.00  0.00    +0.113 C 
BRANCH  31  32
ATOM     32  C   UNL A   1     -24.973  -2.505  29.788  0.00  0.00    -0.005 C 
ATOM     33  C   UNL A   1     -23.906  -3.173  29.146  0.00  0.00    -0.003 C 
ATOM     34  C   UNL A   1     -23.989  -4.549  28.853  0.00  0.00    -0.000 C 
ATOM     35  C   UNL A   1     -25.137  -5.280  29.205  0.00  0.00    -0.000 C 
ATOM     36  C   UNL A   1     -26.232  -4.611  29.784  0.00  0.00    -0.000 C 
ATOM     37  C   UNL A   1     -26.155  -3.232  30.065  0.00  0.00    -0.003 C 
ENDBRANCH  31  32
BRANCH  31  38
ATOM     38  C   UNL A   1     -25.387  -0.679  31.571  0.00  0.00    +0.093 C 
ATOM     39  C   UNL A   1     -25.189   0.773  32.028  0.00  0.00    +0.021 C 
ATOM     40  C   UNL A   1     -25.336   0.684  33.544  0.00  0.00    +0.020 C 
ATOM     41  C   UNL A   1     -24.829  -0.715  33.905  0.00  0.00    +0.089 C 
ATOM     42  N   UNL A   1     -24.758  -1.481  32.646  0.00  0.00    -0.218 NA
ENDBRANCH  31  38
ENDBRANCH  30  31
ENDBRANCH   1  30
TORSDOF 16
