MODEL 657
MODEL 1
REMARK VINA RESULT:    -4.331      0.000      0.000
REMARK INTER + INTRA:          -4.331
REMARK INTER:                  -4.331
REMARK INTRA:                   0.000
REMARK UNBOUND:                 0.000
REMARK  Name = No_657-gen_results/8p0m/2024-11-27-11-27-31/
REMARK  0 active torsions:
REMARK  status: ('A' for Active; 'I' for Inactive)
REMARK                            x       y       z     vdW  Elec       q    Type
REMARK                         _______ _______ _______ _____ _____    ______ ____
ROOT
ATOM      1  C   UNL A   1     -23.980  -4.033  28.848  0.00  0.00    +0.011 A 
ATOM      2  C   UNL A   1     -24.241  -3.077  29.207  0.00  0.00    +0.058 A 
ATOM      3  C   UNL A   1     -24.967  -5.106  29.052  0.00  0.00    +0.001 A 
ATOM      4  C   UNL A   1     -26.257  -4.812  29.582  0.00  0.00    +0.000 A 
ATOM      5  C   UNL A   1     -25.511  -2.505  29.731  0.00  0.00    +0.011 A 
ATOM      6  C   UNL A   1     -26.448  -3.472  29.944  0.00  0.00    +0.001 A 
ATOM      7 CL   UNL A   1     -23.043  -1.739  28.951  0.00  0.00    -0.082 Cl
ENDROOT
TORSDOF 0
ENDMDL
ENDMDL
