REMARK  Name = outputs/IAG933/test6/raw/output_6580_IAG933_linker_design_.xyz
REMARK  11 active torsions:
REMARK  status: ('A' for Active; 'I' for Inactive)
REMARK    1  A    between atoms: C_1  and  C_2
REMARK    2  A    between atoms: C_1  and  C_8
REMARK    3  A    between atoms: C_1  and  N_33
REMARK    4  A    between atoms: C_13  and  N_31
REMARK    5  A    between atoms: C_14  and  C_15
REMARK    6  A    between atoms: C_21  and  O_22
REMARK    7  A    between atoms: O_22  and  C_23
REMARK    8  A    between atoms: C_23  and  C_24
REMARK    9  A    between atoms: C_30  and  C_34
REMARK   10  A    between atoms: N_33  and  C_39
REMARK   11  A    between atoms: N_35  and  C_41
REMARK                            x       y       z     vdW  Elec       q    Type
REMARK                         _______ _______ _______ _____ _____    ______ ____
ROOT
ATOM      1  C   UNL A   1     -22.779   1.614  28.122  0.00  0.00    +0.128 C 
ATOM      2  F   UNL A   1     -20.388   2.032  27.682  0.00  0.00    -0.204 F 
ATOM      3  N   UNL A   1     -24.257   1.450  26.527  0.00  0.00    -0.239 NA
ATOM      4  O   UNL A   1     -21.853   1.705  25.947  0.00  0.00    -0.309 OA
ATOM      5  C   UNL A   1     -21.567   1.358  27.051  0.00  0.00    +0.285 C 
ATOM      6  C   UNL A   1     -23.492   0.587  28.853  0.00  0.00    +0.210 C 
ATOM      7  C   UNL A   1     -23.758   0.526  27.565  0.00  0.00    +0.115 C 
ATOM      8  C   UNL A   1     -23.164   1.359  25.458  0.00  0.00    +0.223 C 
ATOM      9  O   UNL A   1     -22.806   0.292  30.081  0.00  0.00    -0.203 OA
ENDROOT
BRANCH   3  10
ATOM     10  C   UNL A   1     -25.688   1.614  26.461  0.00  0.00    +0.130 C 
ATOM     11  C   UNL A   1     -26.250   2.920  26.395  0.00  0.00    +0.070 C 
ATOM     12  C   UNL A   1     -27.438   3.091  25.645  0.00  0.00    +0.103 C 
ATOM     13  N   UNL A   1     -28.075   2.089  25.003  0.00  0.00    -0.212 NA
ATOM     14  C   UNL A   1     -27.543   0.849  25.079  0.00  0.00    +0.235 C 
ATOM     15  C   UNL A   1     -26.354   0.576  25.777  0.00  0.00    +0.255 C 
ATOM     16  F   UNL A   1     -25.860  -0.681  25.795  0.00  0.00    -0.225 F 
BRANCH  11  17
ATOM     17  C   UNL A   1     -25.642   4.093  27.123  0.00  0.00    +0.264 C 
ATOM     18  N   UNL A   1     -25.614   5.252  26.449  0.00  0.00    -0.200 NA
ATOM     19  C   UNL A   1     -25.026   6.479  26.963  0.00  0.00    +0.139 C 
ATOM     20  O   UNL A   1     -25.143   3.966  28.243  0.00  0.00    -0.269 OA
ENDBRANCH  11  17
BRANCH  14  21
ATOM     21  O   UNL A   1     -28.193  -0.208  24.477  0.00  0.00    -0.459 OA
BRANCH  21  22
ATOM     22  C   UNL A   1     -29.460   0.005  23.866  0.00  0.00    +0.242 C 
BRANCH  22  23
ATOM     23  C   UNL A   1     -30.065  -1.377  23.573  0.00  0.00    +0.229 C 
ATOM     24  O   UNL A   1     -30.729  -1.878  24.721  0.00  0.00    -0.216 OA
ENDBRANCH  22  23
ENDBRANCH  21  22
ENDBRANCH  14  21
ENDBRANCH   3  10
BRANCH   6  26
ATOM     25  O   UNL A   1     -26.406   1.910  29.482  0.00  0.00    -0.250 OA
ATOM     26  N   UNL A   1     -24.726   0.264  29.581  0.00  0.00    -0.236 N 
ATOM     27  C   UNL A   1     -25.314   1.729  29.820  0.00  0.00    +0.329 C 
BRANCH  27  29
ATOM     28  C   UNL A   1     -24.275   3.887  31.743  0.00  0.00    +0.083 C 
ATOM     29  N   UNL A   1     -24.498   2.683  30.650  0.00  0.00    -0.164 NA
BRANCH  28  30
ATOM     30  C   UNL A   1     -25.494   4.575  32.428  0.00  0.00    +0.130 C 
ATOM     31  C   UNL A   1     -26.263   5.112  31.212  0.00  0.00    +0.027 C 
ATOM     32  N   UNL A   1     -25.190   5.696  33.379  0.00  0.00    -0.127 NA
ENDBRANCH  28  30
ENDBRANCH  27  29
BRANCH  26  33
ATOM     33  C   UNL A   1     -24.855  -1.012  30.143  0.00  0.00    +0.117 C 
BRANCH  33  34
ATOM     34  C   UNL A   1     -24.973  -2.505  29.788  0.00  0.00    -0.003 C 
ATOM     35  C   UNL A   1     -23.906  -3.173  29.146  0.00  0.00    -0.003 C 
ATOM     36  C   UNL A   1     -23.989  -4.549  28.853  0.00  0.00    -0.000 C 
ATOM     37  C   UNL A   1     -25.137  -5.280  29.205  0.00  0.00    -0.000 C 
ATOM     38  C   UNL A   1     -26.232  -4.611  29.784  0.00  0.00    -0.000 C 
ATOM     39  C   UNL A   1     -26.155  -3.232  30.065  0.00  0.00    -0.003 C 
ENDBRANCH  33  34
BRANCH  33  40
ATOM     40  C   UNL A   1     -25.387  -0.679  31.571  0.00  0.00    +0.095 C 
ATOM     41  C   UNL A   1     -25.189   0.773  32.028  0.00  0.00    +0.021 C 
ATOM     42  C   UNL A   1     -25.336   0.684  33.544  0.00  0.00    +0.020 C 
ATOM     43  C   UNL A   1     -24.829  -0.715  33.905  0.00  0.00    +0.089 C 
ATOM     44  N   UNL A   1     -24.758  -1.481  32.646  0.00  0.00    -0.217 NA
ENDBRANCH  33  40
ENDBRANCH  26  33
ENDBRANCH   6  26
TORSDOF 11
