REMARK  Name = outputs/IAG933/test6/raw/output_6585_IAG933_linker_design_.xyz
REMARK  14 active torsions:
REMARK  status: ('A' for Active; 'I' for Inactive)
REMARK    1  A    between atoms: C_1  and  C_2
REMARK    2  A    between atoms: C_1  and  C_8
REMARK    3  A    between atoms: C_1  and  C_35
REMARK    4  A    between atoms: C_13  and  C_47
REMARK    5  A    between atoms: C_14  and  C_15
REMARK    6  A    between atoms: C_21  and  O_22
REMARK    7  A    between atoms: O_22  and  C_23
REMARK    8  A    between atoms: C_23  and  C_24
REMARK    9  A    between atoms: N_30  and  C_35
REMARK   10  A    between atoms: C_31  and  C_36
REMARK   11  A    between atoms: C_34  and  C_40
REMARK   12  A    between atoms: C_35  and  C_43
REMARK   13  A    between atoms: C_36  and  C_43
REMARK   14  A    between atoms: C_40  and  C_45
REMARK                            x       y       z     vdW  Elec       q    Type
REMARK                         _______ _______ _______ _____ _____    ______ ____
ROOT
ATOM      1  C   UNL A   1     -25.216  -0.027  29.008  0.00  0.00    +0.064 C 
ENDROOT
BRANCH   1   3
ATOM      2  C   UNL A   1     -21.992   0.590  28.696  0.00  0.00    +0.159 C 
ATOM      3  N   UNL A   1     -24.360   0.710  28.210  0.00  0.00    -0.269 NA
ATOM      4  C   UNL A   1     -21.802   2.265  26.795  0.00  0.00    +0.144 C 
ATOM      5  C   UNL A   1     -23.024   2.201  27.079  0.00  0.00    +0.053 C 
ATOM      6  C   UNL A   1     -22.911  -0.057  28.025  0.00  0.00    +0.105 C 
ATOM      7  O   UNL A   1     -21.300   1.731  28.077  0.00  0.00    -0.352 OA
ATOM      8  C   UNL A   1     -24.308   1.421  26.942  0.00  0.00    +0.085 C 
BRANCH   8   9
ATOM      9  C   UNL A   1     -25.688   1.614  26.461  0.00  0.00    +0.030 C 
ATOM     10  C   UNL A   1     -26.250   2.920  26.395  0.00  0.00    +0.074 C 
ATOM     11  C   UNL A   1     -27.438   3.091  25.645  0.00  0.00    +0.106 C 
ATOM     12  N   UNL A   1     -28.075   2.089  25.003  0.00  0.00    -0.208 NA
ATOM     13  C   UNL A   1     -27.543   0.849  25.079  0.00  0.00    +0.253 C 
ATOM     14  C   UNL A   1     -26.354   0.576  25.777  0.00  0.00    +0.190 C 
ATOM     15  F   UNL A   1     -25.860  -0.681  25.795  0.00  0.00    -0.200 F 
BRANCH  10  16
ATOM     16  C   UNL A   1     -25.642   4.093  27.123  0.00  0.00    +0.266 C 
ATOM     17  N   UNL A   1     -25.614   5.252  26.449  0.00  0.00    -0.200 NA
ATOM     18  C   UNL A   1     -25.026   6.479  26.963  0.00  0.00    +0.139 C 
ATOM     19  O   UNL A   1     -25.143   3.966  28.243  0.00  0.00    -0.268 OA
ENDBRANCH  10  16
BRANCH  13  20
ATOM     20  O   UNL A   1     -28.193  -0.208  24.477  0.00  0.00    -0.456 OA
BRANCH  20  21
ATOM     21  C   UNL A   1     -29.460   0.005  23.866  0.00  0.00    +0.243 C 
BRANCH  21  22
ATOM     22  C   UNL A   1     -30.065  -1.377  23.573  0.00  0.00    +0.229 C 
ATOM     23  O   UNL A   1     -30.729  -1.878  24.721  0.00  0.00    -0.216 OA
ENDBRANCH  21  22
ENDBRANCH  20  21
ENDBRANCH  13  20
ENDBRANCH   8   9
ENDBRANCH   1   3
BRANCH   1  24
ATOM     24  C   UNL A   1     -24.855  -1.012  30.143  0.00  0.00    +0.053 C 
BRANCH  24  25
ATOM     25  C   UNL A   1     -24.973  -2.505  29.788  0.00  0.00    -0.020 C 
ATOM     26  C   UNL A   1     -23.906  -3.173  29.146  0.00  0.00    -0.004 C 
ATOM     27  C   UNL A   1     -23.989  -4.549  28.853  0.00  0.00    -0.000 C 
ATOM     28  C   UNL A   1     -25.137  -5.280  29.205  0.00  0.00    -0.000 C 
ATOM     29  C   UNL A   1     -26.232  -4.611  29.784  0.00  0.00    -0.000 C 
ATOM     30  C   UNL A   1     -26.155  -3.232  30.065  0.00  0.00    -0.004 C 
ENDBRANCH  24  25
BRANCH  24  31
ATOM     31  C   UNL A   1     -25.387  -0.679  31.571  0.00  0.00    +0.078 C 
ATOM     32  C   UNL A   1     -25.189   0.773  32.028  0.00  0.00    +0.019 C 
ATOM     33  C   UNL A   1     -25.336   0.684  33.544  0.00  0.00    +0.020 C 
ATOM     34  C   UNL A   1     -24.829  -0.715  33.905  0.00  0.00    +0.089 C 
ATOM     35  N   UNL A   1     -24.758  -1.481  32.646  0.00  0.00    -0.219 NA
ENDBRANCH  24  31
ENDBRANCH   1  24
BRANCH   1  36
ATOM     36  C   UNL A   1     -26.704  -0.266  28.597  0.00  0.00    +0.021 C 
BRANCH  36  37
ATOM     37  C   UNL A   1     -27.575   0.127  29.875  0.00  0.00    +0.029 C 
BRANCH  37  39
ATOM     38  C   UNL A   1     -29.423   1.090  28.579  0.00  0.00    +0.018 C 
ATOM     39  C   UNL A   1     -28.425   1.324  29.497  0.00  0.00    -0.003 C 
ATOM     40  N   UNL A   1     -26.950   3.150  30.511  0.00  0.00    -0.127 NA
ATOM     41  N   UNL A   1     -30.104   3.288  28.765  0.00  0.00    -0.247 NA
ATOM     42  C   UNL A   1     -29.110   3.587  29.716  0.00  0.00    +0.077 C 
ATOM     43  C   UNL A   1     -30.224   2.109  28.121  0.00  0.00    +0.098 C 
ATOM     44  C   UNL A   1     -28.187   2.675  29.971  0.00  0.00    +0.099 C 
BRANCH  42  45
ATOM     45  C   UNL A   1     -29.142   4.990  30.240  0.00  0.00    +0.068 C 
BRANCH  45  47
ATOM     46  N   UNL A   1     -31.478   5.068  31.094  0.00  0.00    -0.131 NA
ATOM     47  C   UNL A   1     -30.159   5.598  31.178  0.00  0.00    +0.116 C 
ENDBRANCH  45  47
ENDBRANCH  42  45
ENDBRANCH  37  39
ENDBRANCH  36  37
ENDBRANCH   1  36
TORSDOF 14
