MODEL 658
MODEL 1
REMARK VINA RESULT:    -5.153      0.000      0.000
REMARK INTER + INTRA:          -5.511
REMARK INTER:                  -5.454
REMARK INTRA:                  -0.057
REMARK UNBOUND:                -0.057
REMARK  Name = No_658-gen_results/8p0m/2024-11-27-11-27-31/
REMARK  1 active torsions:
REMARK  status: ('A' for Active; 'I' for Inactive)
REMARK    1  A    between atoms: C_4  and  C_6
REMARK                            x       y       z     vdW  Elec       q    Type
REMARK                         _______ _______ _______ _____ _____    ______ ____
ROOT
ATOM      1  C   UNL A   1     -26.416  -3.952  29.763  0.00  0.00    +0.000 A 
ATOM      2  C   UNL A   1     -26.034  -4.891  29.478  0.00  0.00    +0.000 A 
ATOM      3  C   UNL A   1     -25.565  -2.831  29.648  0.00  0.00    +0.002 A 
ATOM      4  C   UNL A   1     -24.526  -2.874  29.157  0.00  0.00    +0.019 A 
ATOM      5  C   UNL A   1     -24.748  -5.210  28.857  0.00  0.00    +0.000 A 
ATOM      6  C   UNL A   1     -23.951  -4.098  28.704  0.00  0.00    +0.002 A 
ENDROOT
BRANCH   4   7
ATOM      7  C   UNL A   1     -23.561  -1.688  28.951  0.00  0.00    +0.093 C 
ATOM      8  N   UNL A   1     -22.553  -1.640  29.112  0.00  0.00    -0.267 NA
ATOM      9  C   UNL A   1     -21.749  -0.515  28.810  0.00  0.00    +0.152 C 
ENDBRANCH   4   7
TORSDOF 1
ENDMDL
ENDMDL
