REMARK  Name = No_659-gen_results/8p0m/2024-11-27-11-27-31/
REMARK  7 active torsions:
REMARK  status: ('A' for Active; 'I' for Inactive)
REMARK    1  A    between atoms: C_8  and  C_27
REMARK    2  A    between atoms: C_11  and  C_12
REMARK    3  A    between atoms: C_15  and  C_16
REMARK    4  A    between atoms: C_18  and  C_23
REMARK    5  A    between atoms: C_27  and  O_29
REMARK    6  A    between atoms: O_29  and  C_30
REMARK    7  A    between atoms: C_31  and  C_32
REMARK                            x       y       z     vdW  Elec       q    Type
REMARK                         _______ _______ _______ _____ _____    ______ ____
ROOT
ATOM      1  O   UNL A   1     -28.123  -1.335  28.487  0.00  0.00    -0.270 OA
ATOM      2  C   UNL A   1     -27.064  -0.824  28.869  0.00  0.00    +0.255 C 
ATOM      3  C   UNL A   1     -26.402  -0.062  28.622  0.00  0.00    +0.057 A 
ATOM      4  N   UNL A   1     -26.265  -1.867  29.761  0.00  0.00    -0.223 N 
ATOM      5  C   UNL A   1     -25.044   0.392  29.066  0.00  0.00    -0.009 A 
ATOM      6  C   UNL A   1     -24.473  -0.544  29.987  0.00  0.00    +0.049 C 
ATOM      7  C   UNL A   1     -25.133  -1.670  30.289  0.00  0.00    +0.106 C 
ATOM      8  C   UNL A   1     -26.905   1.110  27.652  0.00  0.00    +0.080 A 
ATOM      9  C   UNL A   1     -26.134   1.718  26.812  0.00  0.00    +0.007 A 
ATOM     10  C   UNL A   1     -24.745   2.085  27.296  0.00  0.00    +0.006 A 
ATOM     11  C   UNL A   1     -24.160   1.254  28.279  0.00  0.00    +0.076 A 
ATOM     12  C   UNL A   1     -27.113  -3.028  30.248  0.00  0.00    +0.255 C 
ATOM     13  O   UNL A   1     -26.503  -4.108  30.057  0.00  0.00    -0.270 OA
ENDROOT
BRANCH  12  14
ATOM     14  C   UNL A   1     -28.415  -2.885  30.750  0.00  0.00    +0.054 A 
ATOM     15  C   UNL A   1     -29.134  -3.979  31.024  0.00  0.00    +0.008 A 
ATOM     16  C   UNL A   1     -30.481  -3.806  31.404  0.00  0.00    +0.072 A 
ATOM     17  C   UNL A   1     -31.068  -2.530  31.494  0.00  0.00    +0.004 A 
ATOM     18  C   UNL A   1     -30.292  -1.427  31.231  0.00  0.00    +0.000 A 
ATOM     19  C   UNL A   1     -28.964  -1.554  30.842  0.00  0.00    +0.004 A 
BRANCH  16  20
ATOM     20  C   UNL A   1     -31.307  -5.040  31.728  0.00  0.00    +0.419 C 
ATOM     21  F   UNL A   1     -31.445  -5.456  32.851  0.00  0.00    -0.166 F 
ATOM     22  F   UNL A   1     -32.570  -4.820  31.111  0.00  0.00    -0.166 F 
ATOM     23  F   UNL A   1     -30.752  -6.059  30.972  0.00  0.00    -0.166 F 
ENDBRANCH  16  20
ENDBRANCH  12  14
BRANCH  11  24
ATOM     24  C   UNL A   1     -22.768   1.488  28.644  0.00  0.00    +0.387 C 
ATOM     25  O   UNL A   1     -21.970   1.954  27.680  0.00  0.00    -0.241 OA
ATOM     26  O   UNL A   1     -22.379   1.402  29.864  0.00  0.00    -0.241 OA
ENDBRANCH  11  24
BRANCH   8  27
ATOM     27  C   UNL A   1     -28.354   1.127  27.435  0.00  0.00    +0.346 C 
ATOM     28  O   UNL A   1     -28.974   0.881  26.491  0.00  0.00    -0.244 OA
BRANCH  27  29
ATOM     29  O   UNL A   1     -28.934   1.920  28.434  0.00  0.00    -0.418 OA
BRANCH  29  30
ATOM     30  C   UNL A   1     -29.777   2.973  28.173  0.00  0.00    +0.183 C 
ATOM     31  C   UNL A   1     -30.752   3.081  28.946  0.00  0.00    +0.041 C 
BRANCH  31  32
ATOM     32  C   UNL A   1     -30.916   2.413  30.139  0.00  0.00    +0.003 C 
ATOM     33  C   UNL A   1     -29.833   1.881  30.725  0.00  0.00    +0.000 C 
ENDBRANCH  31  32
ENDBRANCH  29  30
ENDBRANCH  27  29
ENDBRANCH   8  27
TORSDOF 7
