REMARK  Name = outputs/IAG933/test6/raw/output_6599_IAG933_linker_design_.xyz
REMARK  12 active torsions:
REMARK  status: ('A' for Active; 'I' for Inactive)
REMARK    1  A    between atoms: C_1  and  C_2
REMARK    2  A    between atoms: C_1  and  C_8
REMARK    3  A    between atoms: C_1  and  N_36
REMARK    4  A    between atoms: C_13  and  C_42
REMARK    5  A    between atoms: C_14  and  C_15
REMARK    6  A    between atoms: C_21  and  O_22
REMARK    7  A    between atoms: O_22  and  C_23
REMARK    8  A    between atoms: C_23  and  C_24
REMARK    9  A    between atoms: N_28  and  C_40
REMARK   10  A    between atoms: C_30  and  C_41
REMARK   11  A    between atoms: N_36  and  C_44
REMARK   12  A    between atoms: C_40  and  C_41
REMARK                            x       y       z     vdW  Elec       q    Type
REMARK                         _______ _______ _______ _____ _____    ______ ____
ROOT
ATOM      1  C   UNL A   1     -22.588   0.461  28.803  0.00  0.00    +0.154 C 
ATOM      2  C   UNL A   1     -21.659   1.746  26.827  0.00  0.00    +0.014 C 
ATOM      3  F   UNL A   1     -22.291  -0.306  29.832  0.00  0.00    -0.203 F 
ATOM      4  C   UNL A   1     -21.446   1.081  28.100  0.00  0.00    +0.032 C 
ATOM      5 CL   UNL A   1     -23.179   2.678  24.822  0.00  0.00    -0.082 Cl
ATOM      6  C   UNL A   1     -23.058   1.886  26.304  0.00  0.00    +0.059 C 
ATOM      7  C   UNL A   1     -24.261   1.385  27.120  0.00  0.00    +0.029 C 
ATOM      8  C   UNL A   1     -23.992   0.622  28.418  0.00  0.00    +0.084 C 
ENDROOT
BRANCH   7   9
ATOM      9  C   UNL A   1     -25.688   1.614  26.461  0.00  0.00    +0.040 C 
ATOM     10  C   UNL A   1     -26.250   2.920  26.395  0.00  0.00    +0.077 C 
ATOM     11  C   UNL A   1     -27.438   3.091  25.645  0.00  0.00    +0.107 C 
ATOM     12  N   UNL A   1     -28.075   2.089  25.003  0.00  0.00    -0.208 NA
ATOM     13  C   UNL A   1     -27.543   0.849  25.079  0.00  0.00    +0.253 C 
ATOM     14  C   UNL A   1     -26.354   0.576  25.777  0.00  0.00    +0.193 C 
ATOM     15  F   UNL A   1     -25.860  -0.681  25.795  0.00  0.00    -0.199 F 
BRANCH  10  16
ATOM     16  C   UNL A   1     -25.642   4.093  27.123  0.00  0.00    +0.266 C 
ATOM     17  N   UNL A   1     -25.614   5.252  26.449  0.00  0.00    -0.200 NA
ATOM     18  C   UNL A   1     -25.026   6.479  26.963  0.00  0.00    +0.139 C 
ATOM     19  O   UNL A   1     -25.143   3.966  28.243  0.00  0.00    -0.268 OA
ENDBRANCH  10  16
BRANCH  13  20
ATOM     20  O   UNL A   1     -28.193  -0.208  24.477  0.00  0.00    -0.456 OA
BRANCH  20  21
ATOM     21  C   UNL A   1     -29.460   0.005  23.866  0.00  0.00    +0.243 C 
BRANCH  21  22
ATOM     22  C   UNL A   1     -30.065  -1.377  23.573  0.00  0.00    +0.229 C 
ATOM     23  O   UNL A   1     -30.729  -1.878  24.721  0.00  0.00    -0.216 OA
ENDBRANCH  21  22
ENDBRANCH  20  21
ENDBRANCH  13  20
ENDBRANCH   7   9
BRANCH   8  25
ATOM     24  N   UNL A   1     -26.279   2.187  29.910  0.00  0.00    -0.188 NA
ATOM     25  N   UNL A   1     -25.024   0.092  29.150  0.00  0.00    -0.236 N 
ATOM     26  O   UNL A   1     -27.408   0.383  29.175  0.00  0.00    -0.250 OA
ATOM     27  C   UNL A   1     -26.301   0.808  29.315  0.00  0.00    +0.327 C 
BRANCH  25  28
ATOM     28  C   UNL A   1     -24.855  -1.012  30.143  0.00  0.00    +0.120 C 
BRANCH  28  29
ATOM     29  C   UNL A   1     -24.973  -2.505  29.788  0.00  0.00    -0.003 C 
ATOM     30  C   UNL A   1     -23.906  -3.173  29.146  0.00  0.00    -0.003 C 
ATOM     31  C   UNL A   1     -23.989  -4.549  28.853  0.00  0.00    -0.000 C 
ATOM     32  C   UNL A   1     -25.137  -5.280  29.205  0.00  0.00    -0.000 C 
ATOM     33  C   UNL A   1     -26.232  -4.611  29.784  0.00  0.00    -0.000 C 
ATOM     34  C   UNL A   1     -26.155  -3.232  30.065  0.00  0.00    -0.003 C 
ENDBRANCH  28  29
BRANCH  28  35
ATOM     35  C   UNL A   1     -25.387  -0.679  31.571  0.00  0.00    +0.096 C 
ATOM     36  C   UNL A   1     -25.189   0.773  32.028  0.00  0.00    +0.021 C 
ATOM     37  C   UNL A   1     -25.336   0.684  33.544  0.00  0.00    +0.020 C 
ATOM     38  C   UNL A   1     -24.829  -0.715  33.905  0.00  0.00    +0.089 C 
ATOM     39  N   UNL A   1     -24.758  -1.481  32.646  0.00  0.00    -0.217 NA
ENDBRANCH  28  35
ENDBRANCH  25  28
BRANCH  24  40
ATOM     40  C   UNL A   1     -25.595   3.289  30.737  0.00  0.00    +0.119 C 
BRANCH  40  41
ATOM     41  C   UNL A   1     -25.416   3.729  32.224  0.00  0.00    +0.054 C 
BRANCH  41  42
ATOM     42  C   UNL A   1     -25.033   5.167  32.554  0.00  0.00    +0.129 C 
ATOM     43  C   UNL A   1     -26.334   5.787  33.264  0.00  0.00    +0.033 C 
ATOM     44  C   UNL A   1     -24.909   6.193  31.313  0.00  0.00    +0.033 C 
ATOM     45  O   UNL A   1     -23.733   5.151  33.100  0.00  0.00    -0.226 OA
ENDBRANCH  41  42
ENDBRANCH  40  41
ENDBRANCH  24  40
ENDBRANCH   8  25
TORSDOF 12
