MODEL 65
MODEL 1
REMARK VINA RESULT:    -4.534      0.000      0.000
REMARK INTER + INTRA:          -4.534
REMARK INTER:                  -4.534
REMARK INTRA:                   0.000
REMARK UNBOUND:                 0.000
REMARK  Name = No_65-gen_results/8p0m/2024-11-27-11-27-31/
REMARK  0 active torsions:
REMARK  status: ('A' for Active; 'I' for Inactive)
REMARK                            x       y       z     vdW  Elec       q    Type
REMARK                         _______ _______ _______ _____ _____    ______ ____
ROOT
ATOM      1  C   UNL A   1     -23.992  -4.433  28.641  0.00  0.00    +0.030 A 
ATOM      2  C   UNL A   1     -24.888  -4.942  28.863  0.00  0.00    +0.140 A 
ATOM      3  C   UNL A   1     -23.980  -2.959  28.980  0.00  0.00    +0.002 A 
ATOM      4  C   UNL A   1     -25.070  -2.402  29.680  0.00  0.00    +0.000 A 
ATOM      5  C   UNL A   1     -26.127  -4.615  29.604  0.00  0.00    +0.030 A 
ATOM      6  C   UNL A   1     -26.149  -3.268  29.938  0.00  0.00    +0.002 A 
ATOM      7  F   UNL A   1     -24.888  -6.359  28.548  0.00  0.00    -0.204 F 
ENDROOT
TORSDOF 0
ENDMDL
ENDMDL
