REMARK  Name = No_660-gen_results/8p0m/2024-11-27-11-27-31/
REMARK  3 active torsions:
REMARK  status: ('A' for Active; 'I' for Inactive)
REMARK    1  A    between atoms: C_3  and  O_7
REMARK    2  A    between atoms: C_6  and  C_10
REMARK    3  A    between atoms: O_7  and  C_8
REMARK                            x       y       z     vdW  Elec       q    Type
REMARK                         _______ _______ _______ _____ _____    ______ ____
ROOT
ATOM      1  C   UNL A   1     -28.016  -0.814  28.878  0.00  0.00    +0.008 A 
ATOM      2  C   UNL A   1     -27.064  -0.119  28.608  0.00  0.00    +0.038 A 
ATOM      3  C   UNL A   1     -25.765  -0.390  29.036  0.00  0.00    +0.145 A 
ATOM      4  C   UNL A   1     -25.530  -1.530  29.901  0.00  0.00    +0.038 A 
ATOM      5  C   UNL A   1     -26.658  -2.292  30.203  0.00  0.00    +0.008 A 
ATOM      6  C   UNL A   1     -27.855  -1.956  29.763  0.00  0.00    +0.055 A 
ENDROOT
BRANCH   6   7
ATOM      7  C   UNL A   1     -28.995  -2.843  30.190  0.00  0.00    +0.265 C 
ATOM      8  O   UNL A   1     -30.043  -2.537  30.056  0.00  0.00    -0.268 OA
ATOM      9  N   UNL A   1     -28.634  -3.866  31.092  0.00  0.00    -0.200 NA
ATOM     10  C   UNL A   1     -29.602  -4.817  31.612  0.00  0.00    +0.139 C 
ENDBRANCH   6   7
BRANCH   3  11
ATOM     11  O   UNL A   1     -24.804   0.524  28.799  0.00  0.00    -0.451 OA
BRANCH  11  12
ATOM     12  C   UNL A   1     -23.752   0.513  28.523  0.00  0.00    +0.175 C 
ATOM     13  C   UNL A   1     -22.790   1.375  29.065  0.00  0.00    +0.015 C 
ATOM     14  C   UNL A   1     -21.377   1.253  28.597  0.00  0.00    +0.034 C 
ENDBRANCH  11  12
ENDBRANCH   3  11
TORSDOF 3
