REMARK  Name = outputs/IAG933/test6/raw/output_6601_IAG933_linker_design_.xyz
REMARK  14 active torsions:
REMARK  status: ('A' for Active; 'I' for Inactive)
REMARK    1  A    between atoms: C_1  and  C_2
REMARK    2  A    between atoms: C_1  and  C_8
REMARK    3  A    between atoms: C_1  and  C_37
REMARK    4  A    between atoms: C_13  and  C_34
REMARK    5  A    between atoms: C_14  and  C_15
REMARK    6  A    between atoms: C_21  and  O_22
REMARK    7  A    between atoms: O_22  and  C_23
REMARK    8  A    between atoms: C_23  and  C_24
REMARK    9  A    between atoms: C_29  and  C_32
REMARK   10  A    between atoms: N_30  and  C_32
REMARK   11  A    between atoms: N_30  and  C_35
REMARK   12  A    between atoms: C_33  and  C_36
REMARK   13  A    between atoms: C_37  and  N_39
REMARK   14  A    between atoms: C_37  and  C_41
REMARK                            x       y       z     vdW  Elec       q    Type
REMARK                         _______ _______ _______ _____ _____    ______ ____
ROOT
ATOM      1  C   UNL A   1     -23.007   1.599  27.093  0.00  0.00    +0.023 C 
ATOM      2  C   UNL A   1     -24.233   1.382  26.787  0.00  0.00    +0.011 C 
ATOM      3  C   UNL A   1     -23.085   2.749  25.764  0.00  0.00    +0.002 C 
ATOM      4  C   UNL A   1     -23.934   0.915  27.834  0.00  0.00    +0.025 C 
ENDROOT
BRANCH   2   5
ATOM      5  C   UNL A   1     -25.688   1.614  26.461  0.00  0.00    +0.070 C 
ATOM      6  C   UNL A   1     -26.250   2.920  26.395  0.00  0.00    +0.055 C 
ATOM      7  C   UNL A   1     -27.438   3.091  25.645  0.00  0.00    +0.102 C 
ATOM      8  N   UNL A   1     -28.075   2.089  25.003  0.00  0.00    -0.212 NA
ATOM      9  C   UNL A   1     -27.543   0.849  25.079  0.00  0.00    +0.234 C 
ATOM     10  C   UNL A   1     -26.354   0.576  25.777  0.00  0.00    +0.240 C 
ATOM     11  F   UNL A   1     -25.860  -0.681  25.795  0.00  0.00    -0.227 F 
BRANCH   6  12
ATOM     12  C   UNL A   1     -25.642   4.093  27.123  0.00  0.00    +0.262 C 
ATOM     13  N   UNL A   1     -25.614   5.252  26.449  0.00  0.00    -0.200 NA
ATOM     14  C   UNL A   1     -25.026   6.479  26.963  0.00  0.00    +0.139 C 
ATOM     15  O   UNL A   1     -25.143   3.966  28.243  0.00  0.00    -0.269 OA
ENDBRANCH   6  12
BRANCH   9  16
ATOM     16  O   UNL A   1     -28.193  -0.208  24.477  0.00  0.00    -0.459 OA
BRANCH  16  17
ATOM     17  C   UNL A   1     -29.460   0.005  23.866  0.00  0.00    +0.242 C 
BRANCH  17  18
ATOM     18  C   UNL A   1     -30.065  -1.377  23.573  0.00  0.00    +0.229 C 
ATOM     19  O   UNL A   1     -30.729  -1.878  24.721  0.00  0.00    -0.216 OA
ENDBRANCH  17  18
ENDBRANCH  16  17
ENDBRANCH   9  16
ENDBRANCH   2   5
BRANCH   1  20
ATOM     20  C   UNL A   1     -21.691   1.701  27.276  0.00  0.00    +0.124 C 
BRANCH  20  21
ATOM     21  N   UNL A   1     -21.269   1.050  28.313  0.00  0.00    -0.167 NA
BRANCH  21  22
ATOM     22  C   UNL A   1     -21.835   0.244  29.003  0.00  0.00    +0.188 C 
ATOM     23  N   UNL A   1     -22.164  -0.549  29.903  0.00  0.00    -0.173 NA
ENDBRANCH  21  22
ENDBRANCH  20  21
ENDBRANCH   1  20
BRANCH   4  24
ATOM     24  C   UNL A   1     -24.547   0.057  29.022  0.00  0.00    +0.109 C 
BRANCH  24  26
ATOM     25  C   UNL A   1     -27.070   0.505  29.232  0.00  0.00    +0.180 C 
ATOM     26  N   UNL A   1     -25.890   0.154  28.540  0.00  0.00    -0.264 NA
BRANCH  25  29
ATOM     27  O   UNL A   1     -28.590  -0.149  27.969  0.00  0.00    -0.239 OA
ATOM     28  O   UNL A   1     -28.690   1.740  29.202  0.00  0.00    -0.239 OA
ATOM     29  C   UNL A   1     -28.111   0.686  28.818  0.00  0.00    +0.406 C 
ENDBRANCH  25  29
ENDBRANCH  24  26
BRANCH  24  30
ATOM     30  C   UNL A   1     -24.855  -1.012  30.143  0.00  0.00    +0.061 C 
BRANCH  30  31
ATOM     31  C   UNL A   1     -24.973  -2.505  29.788  0.00  0.00    -0.019 C 
ATOM     32  C   UNL A   1     -23.906  -3.173  29.146  0.00  0.00    -0.004 C 
ATOM     33  C   UNL A   1     -23.989  -4.549  28.853  0.00  0.00    -0.000 C 
ATOM     34  C   UNL A   1     -25.137  -5.280  29.205  0.00  0.00    -0.000 C 
ATOM     35  C   UNL A   1     -26.232  -4.611  29.784  0.00  0.00    -0.000 C 
ATOM     36  C   UNL A   1     -26.155  -3.232  30.065  0.00  0.00    -0.004 C 
ENDBRANCH  30  31
BRANCH  30  37
ATOM     37  C   UNL A   1     -25.387  -0.679  31.571  0.00  0.00    +0.079 C 
ATOM     38  C   UNL A   1     -25.189   0.773  32.028  0.00  0.00    +0.019 C 
ATOM     39  C   UNL A   1     -25.336   0.684  33.544  0.00  0.00    +0.020 C 
ATOM     40  C   UNL A   1     -24.829  -0.715  33.905  0.00  0.00    +0.089 C 
ATOM     41  N   UNL A   1     -24.758  -1.481  32.646  0.00  0.00    -0.219 NA
ENDBRANCH  30  37
ENDBRANCH  24  30
ENDBRANCH   4  24
TORSDOF 14
