REMARK  Name = outputs/IAG933/test6/raw/output_6604_IAG933_linker_design_.xyz
REMARK  13 active torsions:
REMARK  status: ('A' for Active; 'I' for Inactive)
REMARK    1  A    between atoms: C_1  and  C_2
REMARK    2  A    between atoms: C_1  and  C_8
REMARK    3  A    between atoms: C_9  and  C_40
REMARK    4  A    between atoms: C_13  and  C_34
REMARK    5  A    between atoms: C_14  and  C_15
REMARK    6  A    between atoms: C_21  and  O_22
REMARK    7  A    between atoms: O_22  and  C_23
REMARK    8  A    between atoms: C_23  and  C_24
REMARK    9  A    between atoms: C_31  and  C_37
REMARK   10  A    between atoms: C_31  and  N_45
REMARK   11  A    between atoms: C_36  and  C_38
REMARK   12  A    between atoms: C_38  and  C_40
REMARK   13  A    between atoms: C_40  and  N_45
REMARK                            x       y       z     vdW  Elec       q    Type
REMARK                         _______ _______ _______ _____ _____    ______ ____
ROOT
ATOM      1  C   UNL A   1     -22.709   1.246  29.995  0.00  0.00    +0.044 C 
ENDROOT
BRANCH   1   5
ATOM      2  C   UNL A   1     -24.097   1.124  27.998  0.00  0.00    +0.029 C 
ATOM      3  C   UNL A   1     -22.298   2.034  26.119  0.00  0.00    +0.350 C 
ATOM      4  C   UNL A   1     -24.463   1.498  26.753  0.00  0.00    +0.126 C 
ATOM      5  C   UNL A   1     -22.811   1.366  28.449  0.00  0.00    -0.016 C 
ATOM      6  C   UNL A   1     -21.860   1.757  27.500  0.00  0.00    +0.050 C 
ATOM      7  F   UNL A   1     -21.534   2.486  25.099  0.00  0.00    -0.183 F 
ATOM      8  O   UNL A   1     -23.553   1.867  25.788  0.00  0.00    -0.450 OA
BRANCH   4   9
ATOM      9  C   UNL A   1     -25.688   1.614  26.461  0.00  0.00    +0.127 C 
ATOM     10  C   UNL A   1     -26.250   2.920  26.395  0.00  0.00    +0.062 C 
ATOM     11  C   UNL A   1     -27.438   3.091  25.645  0.00  0.00    +0.103 C 
ATOM     12  N   UNL A   1     -28.075   2.089  25.003  0.00  0.00    -0.212 NA
ATOM     13  C   UNL A   1     -27.543   0.849  25.079  0.00  0.00    +0.234 C 
ATOM     14  C   UNL A   1     -26.354   0.576  25.777  0.00  0.00    +0.247 C 
ATOM     15  F   UNL A   1     -25.860  -0.681  25.795  0.00  0.00    -0.226 F 
BRANCH  10  16
ATOM     16  C   UNL A   1     -25.642   4.093  27.123  0.00  0.00    +0.263 C 
ATOM     17  N   UNL A   1     -25.614   5.252  26.449  0.00  0.00    -0.200 NA
ATOM     18  C   UNL A   1     -25.026   6.479  26.963  0.00  0.00    +0.139 C 
ATOM     19  O   UNL A   1     -25.143   3.966  28.243  0.00  0.00    -0.269 OA
ENDBRANCH  10  16
BRANCH  13  20
ATOM     20  O   UNL A   1     -28.193  -0.208  24.477  0.00  0.00    -0.459 OA
BRANCH  20  21
ATOM     21  C   UNL A   1     -29.460   0.005  23.866  0.00  0.00    +0.242 C 
BRANCH  21  22
ATOM     22  C   UNL A   1     -30.065  -1.377  23.573  0.00  0.00    +0.229 C 
ATOM     23  O   UNL A   1     -30.729  -1.878  24.721  0.00  0.00    -0.216 OA
ENDBRANCH  21  22
ENDBRANCH  20  21
ENDBRANCH  13  20
ENDBRANCH   4   9
ENDBRANCH   1   5
BRANCH   1  24
ATOM     24  C   UNL A   1     -24.083   1.414  30.994  0.00  0.00    +0.079 C 
BRANCH  24  26
ATOM     25  C   UNL A   1     -25.387  -0.679  31.571  0.00  0.00    +0.079 C 
ATOM     26  C   UNL A   1     -25.189   0.773  32.028  0.00  0.00    +0.034 C 
ATOM     27  C   UNL A   1     -25.336   0.684  33.544  0.00  0.00    +0.022 C 
ATOM     28  C   UNL A   1     -24.829  -0.715  33.905  0.00  0.00    +0.089 C 
ATOM     29  N   UNL A   1     -24.758  -1.481  32.646  0.00  0.00    -0.219 NA
BRANCH  25  30
ATOM     30  C   UNL A   1     -24.855  -1.012  30.143  0.00  0.00    +0.044 C 
BRANCH  30  31
ATOM     31  C   UNL A   1     -24.973  -2.505  29.788  0.00  0.00    -0.021 C 
ATOM     32  C   UNL A   1     -23.906  -3.173  29.146  0.00  0.00    -0.004 C 
ATOM     33  C   UNL A   1     -23.989  -4.549  28.853  0.00  0.00    -0.000 C 
ATOM     34  C   UNL A   1     -25.137  -5.280  29.205  0.00  0.00    -0.000 C 
ATOM     35  C   UNL A   1     -26.232  -4.611  29.784  0.00  0.00    -0.000 C 
ATOM     36  C   UNL A   1     -26.155  -3.232  30.065  0.00  0.00    -0.004 C 
ENDBRANCH  30  31
ENDBRANCH  25  30
ENDBRANCH  24  26
BRANCH  24  37
ATOM     37  N   UNL A   1     -24.762   2.839  30.724  0.00  0.00    -0.218 NA
BRANCH  37  38
ATOM     38  C   UNL A   1     -24.966   3.618  31.921  0.00  0.00    +0.106 C 
BRANCH  38  43
ATOM     39  N   UNL A   1     -26.733   6.981  33.211  0.00  0.00    -0.257 NA
ATOM     40  C   UNL A   1     -26.511   7.303  31.866  0.00  0.00    +0.075 C 
ATOM     41  C   UNL A   1     -27.104   5.699  33.486  0.00  0.00    +0.164 C 
ATOM     42  C   UNL A   1     -26.530   7.926  34.362  0.00  0.00    +0.091 C 
ATOM     43  C   UNL A   1     -25.946   4.868  31.753  0.00  0.00    +0.093 C 
ATOM     44  C   UNL A   1     -26.085   6.288  31.021  0.00  0.00    +0.036 C 
ATOM     45  N   UNL A   1     -26.829   4.690  32.644  0.00  0.00    -0.201 NA
ENDBRANCH  38  43
ENDBRANCH  37  38
ENDBRANCH  24  37
ENDBRANCH   1  24
TORSDOF 13
