MODEL 660
MODEL 1
REMARK VINA RESULT:    -5.542      0.000      0.000
REMARK INTER + INTRA:          -6.803
REMARK INTER:                  -6.514
REMARK INTRA:                  -0.289
REMARK UNBOUND:                -0.289
REMARK  Name = No_660-gen_results/8p0m/2024-11-27-11-27-31/
REMARK  3 active torsions:
REMARK  status: ('A' for Active; 'I' for Inactive)
REMARK    1  A    between atoms: C_3  and  O_7
REMARK    2  A    between atoms: C_6  and  C_10
REMARK    3  A    between atoms: O_7  and  C_8
REMARK                            x       y       z     vdW  Elec       q    Type
REMARK                         _______ _______ _______ _____ _____    ______ ____
ROOT
ATOM      1  C   UNL A   1     -24.966   0.527  27.637  0.00  0.00    +0.008 A 
ATOM      2  C   UNL A   1     -24.772  -0.535  28.181  0.00  0.00    +0.038 A 
ATOM      3  C   UNL A   1     -23.532  -0.931  28.681  0.00  0.00    +0.145 A 
ATOM      4  C   UNL A   1     -22.386  -0.061  28.496  0.00  0.00    +0.038 A 
ATOM      5  C   UNL A   1     -22.651   1.144  27.847  0.00  0.00    +0.008 A 
ATOM      6  C   UNL A   1     -23.856   1.434  27.396  0.00  0.00    +0.055 A 
ENDROOT
BRANCH   6   7
ATOM      7  C   UNL A   1     -24.001   2.752  26.681  0.00  0.00    +0.265 C 
ATOM      8  O   UNL A   1     -23.445   2.969  25.757  0.00  0.00    -0.268 OA
ATOM      9  N   UNL A   1     -24.566   3.782  27.463  0.00  0.00    -0.200 NA
ATOM     10  C   UNL A   1     -24.781   5.121  26.941  0.00  0.00    +0.139 C 
ENDBRANCH   6   7
BRANCH   3  11
ATOM     11  O   UNL A   1     -23.393  -2.190  29.139  0.00  0.00    -0.451 OA
BRANCH  11  12
ATOM     12  C   UNL A   1     -24.049  -3.032  29.351  0.00  0.00    +0.175 C 
ATOM     13  C   UNL A   1     -24.026  -4.241  28.643  0.00  0.00    +0.015 C 
ATOM     14  C   UNL A   1     -24.982  -5.318  29.038  0.00  0.00    +0.034 C 
ENDBRANCH  11  12
ENDBRANCH   3  11
TORSDOF 3
ENDMDL
ENDMDL
