REMARK  Name = outputs/IAG933/test6/raw/output_661_IAG933_linker_design_.xyz
REMARK  16 active torsions:
REMARK  status: ('A' for Active; 'I' for Inactive)
REMARK    1  A    between atoms: C_1  and  C_2
REMARK    2  A    between atoms: C_1  and  C_8
REMARK    3  A    between atoms: C_1  and  C_41
REMARK    4  A    between atoms: C_13  and  C_45
REMARK    5  A    between atoms: C_14  and  C_15
REMARK    6  A    between atoms: C_21  and  O_22
REMARK    7  A    between atoms: O_22  and  C_23
REMARK    8  A    between atoms: C_23  and  C_24
REMARK    9  A    between atoms: O_30  and  C_39
REMARK   10  A    between atoms: O_30  and  C_41
REMARK   11  A    between atoms: C_31  and  C_39
REMARK   12  A    between atoms: C_36  and  N_43
REMARK   13  A    between atoms: C_37  and  C_45
REMARK   14  A    between atoms: C_39  and  N_43
REMARK   15  A    between atoms: C_41  and  O_47
REMARK   16  A    between atoms: C_45  and  O_47
REMARK                            x       y       z     vdW  Elec       q    Type
REMARK                         _______ _______ _______ _____ _____    ______ ____
ROOT
ATOM      1  C   UNL A   1     -25.623  -0.198  29.085  0.00  0.00    +0.242 C 
ENDROOT
BRANCH   1   2
ATOM      2  C   UNL A   1     -24.855  -1.012  30.143  0.00  0.00    +0.095 C 
BRANCH   2   3
ATOM      3  C   UNL A   1     -24.973  -2.505  29.788  0.00  0.00    -0.016 C 
ATOM      4  C   UNL A   1     -23.906  -3.173  29.146  0.00  0.00    -0.004 C 
ATOM      5  C   UNL A   1     -23.989  -4.549  28.853  0.00  0.00    -0.000 C 
ATOM      6  C   UNL A   1     -25.137  -5.280  29.205  0.00  0.00    -0.000 C 
ATOM      7  C   UNL A   1     -26.232  -4.611  29.784  0.00  0.00    -0.000 C 
ATOM      8  C   UNL A   1     -26.155  -3.232  30.065  0.00  0.00    -0.004 C 
ENDBRANCH   2   3
BRANCH   2   9
ATOM      9  C   UNL A   1     -25.387  -0.679  31.571  0.00  0.00    +0.082 C 
ATOM     10  C   UNL A   1     -25.189   0.773  32.028  0.00  0.00    +0.019 C 
ATOM     11  C   UNL A   1     -25.336   0.684  33.544  0.00  0.00    +0.020 C 
ATOM     12  C   UNL A   1     -24.829  -0.715  33.905  0.00  0.00    +0.089 C 
ATOM     13  N   UNL A   1     -24.758  -1.481  32.646  0.00  0.00    -0.219 NA
ENDBRANCH   2   9
ENDBRANCH   1   2
BRANCH   1  14
ATOM     14  O   UNL A   1     -26.836   0.110  28.835  0.00  0.00    -0.309 OA
BRANCH  14  15
ATOM     15  C   UNL A   1     -28.063  -0.490  29.029  0.00  0.00    +0.244 C 
BRANCH  15  16
ATOM     16  C   UNL A   1     -28.709  -0.732  27.906  0.00  0.00    +0.234 C 
ATOM     17  O   UNL A   1     -29.877  -0.337  27.525  0.00  0.00    -0.216 OA
ENDBRANCH  15  16
BRANCH  15  18
ATOM     18  N   UNL A   1     -28.625  -0.755  30.297  0.00  0.00    -0.205 NA
BRANCH  18  23
ATOM     19  C   UNL A   1     -31.051  -3.320  31.190  0.00  0.00    +0.043 C 
ATOM     20  C   UNL A   1     -31.800  -2.522  32.067  0.00  0.00    +0.003 C 
ATOM     21  O   UNL A   1     -29.338  -3.457  29.516  0.00  0.00    -0.285 OA
ATOM     22  C   UNL A   1     -29.974  -2.774  30.498  0.00  0.00    +0.210 C 
ATOM     23  C   UNL A   1     -29.593  -1.439  30.810  0.00  0.00    +0.107 C 
ATOM     24  C   UNL A   1     -30.353  -0.639  31.705  0.00  0.00    +0.019 C 
ATOM     25  C   UNL A   1     -31.460  -1.188  32.304  0.00  0.00    +0.002 C 
ENDBRANCH  18  23
ENDBRANCH  15  18
ENDBRANCH  14  15
ENDBRANCH   1  14
BRANCH   1  26
ATOM     26  O   UNL A   1     -24.559  -0.048  27.996  0.00  0.00    -0.328 OA
BRANCH  26  27
ATOM     27  C   UNL A   1     -24.627   1.065  27.376  0.00  0.00    +0.145 C 
BRANCH  27  28
ATOM     28  C   UNL A   1     -25.688   1.614  26.461  0.00  0.00    +0.043 C 
ATOM     29  C   UNL A   1     -26.250   2.920  26.395  0.00  0.00    +0.075 C 
ATOM     30  C   UNL A   1     -27.438   3.091  25.645  0.00  0.00    +0.106 C 
ATOM     31  N   UNL A   1     -28.075   2.089  25.003  0.00  0.00    -0.208 NA
ATOM     32  C   UNL A   1     -27.543   0.849  25.079  0.00  0.00    +0.253 C 
ATOM     33  C   UNL A   1     -26.354   0.576  25.777  0.00  0.00    +0.191 C 
ATOM     34  F   UNL A   1     -25.860  -0.681  25.795  0.00  0.00    -0.200 F 
BRANCH  29  35
ATOM     35  C   UNL A   1     -25.642   4.093  27.123  0.00  0.00    +0.266 C 
ATOM     36  N   UNL A   1     -25.614   5.252  26.449  0.00  0.00    -0.200 NA
ATOM     37  C   UNL A   1     -25.026   6.479  26.963  0.00  0.00    +0.139 C 
ATOM     38  O   UNL A   1     -25.143   3.966  28.243  0.00  0.00    -0.268 OA
ENDBRANCH  29  35
BRANCH  32  39
ATOM     39  O   UNL A   1     -28.193  -0.208  24.477  0.00  0.00    -0.456 OA
BRANCH  39  40
ATOM     40  C   UNL A   1     -29.460   0.005  23.866  0.00  0.00    +0.243 C 
BRANCH  40  41
ATOM     41  C   UNL A   1     -30.065  -1.377  23.573  0.00  0.00    +0.229 C 
ATOM     42  O   UNL A   1     -30.729  -1.878  24.721  0.00  0.00    -0.216 OA
ENDBRANCH  40  41
ENDBRANCH  39  40
ENDBRANCH  32  39
ENDBRANCH  27  28
BRANCH  27  45
ATOM     43  O   UNL A   1     -21.541   2.299  25.972  0.00  0.00    -0.354 OA
ATOM     44  C   UNL A   1     -21.092   1.724  27.213  0.00  0.00    +0.142 C 
ATOM     45  C   UNL A   1     -23.284   1.280  26.945  0.00  0.00    +0.064 C 
ATOM     46  C   UNL A   1     -22.197   0.887  27.869  0.00  0.00    +0.037 C 
ATOM     47  C   UNL A   1     -22.886   1.974  25.710  0.00  0.00    +0.145 C 
ENDBRANCH  27  45
ENDBRANCH  26  27
ENDBRANCH   1  26
TORSDOF 16
