REMARK  Name = outputs/IAG933/test6/raw/output_6611_IAG933_linker_design_.xyz
REMARK  14 active torsions:
REMARK  status: ('A' for Active; 'I' for Inactive)
REMARK    1  A    between atoms: C_1  and  C_2
REMARK    2  A    between atoms: C_1  and  C_8
REMARK    3  A    between atoms: C_1  and  C_28
REMARK    4  A    between atoms: C_13  and  C_31
REMARK    5  A    between atoms: C_14  and  C_15
REMARK    6  A    between atoms: C_21  and  O_22
REMARK    7  A    between atoms: O_22  and  C_23
REMARK    8  A    between atoms: C_23  and  C_24
REMARK    9  A    between atoms: C_28  and  C_38
REMARK   10  A    between atoms: C_28  and  C_47
REMARK   11  A    between atoms: C_34  and  C_35
REMARK   12  A    between atoms: C_35  and  C_37
REMARK   13  A    between atoms: O_36  and  C_41
REMARK   14  A    between atoms: C_40  and  C_45
REMARK                            x       y       z     vdW  Elec       q    Type
REMARK                         _______ _______ _______ _____ _____    ______ ____
ROOT
ATOM      1  C   UNL A   1     -25.527  -0.285  28.983  0.00  0.00    +0.070 C 
ENDROOT
BRANCH   1   5
ATOM      2  C   UNL A   1     -24.534   1.164  27.064  0.00  0.00    +0.028 C 
ATOM      3  O   UNL A   1     -20.993   1.151  27.729  0.00  0.00    -0.223 OA
ATOM      4  C   UNL A   1     -23.221   1.996  26.927  0.00  0.00    +0.037 C 
ATOM      5  C   UNL A   1     -24.642   0.844  28.625  0.00  0.00    +0.019 C 
ATOM      6  C   UNL A   1     -23.181   0.418  28.887  0.00  0.00    +0.034 C 
ATOM      7  C   UNL A   1     -22.299   1.520  28.073  0.00  0.00    +0.152 C 
BRANCH   2   8
ATOM      8  C   UNL A   1     -25.688   1.614  26.461  0.00  0.00    +0.016 C 
ATOM      9  C   UNL A   1     -26.250   2.920  26.395  0.00  0.00    +0.073 C 
ATOM     10  C   UNL A   1     -27.438   3.091  25.645  0.00  0.00    +0.106 C 
ATOM     11  N   UNL A   1     -28.075   2.089  25.003  0.00  0.00    -0.208 NA
ATOM     12  C   UNL A   1     -27.543   0.849  25.079  0.00  0.00    +0.253 C 
ATOM     13  C   UNL A   1     -26.354   0.576  25.777  0.00  0.00    +0.189 C 
ATOM     14  F   UNL A   1     -25.860  -0.681  25.795  0.00  0.00    -0.200 F 
BRANCH   9  15
ATOM     15  C   UNL A   1     -25.642   4.093  27.123  0.00  0.00    +0.266 C 
ATOM     16  N   UNL A   1     -25.614   5.252  26.449  0.00  0.00    -0.200 NA
ATOM     17  C   UNL A   1     -25.026   6.479  26.963  0.00  0.00    +0.139 C 
ATOM     18  O   UNL A   1     -25.143   3.966  28.243  0.00  0.00    -0.268 OA
ENDBRANCH   9  15
BRANCH  12  19
ATOM     19  O   UNL A   1     -28.193  -0.208  24.477  0.00  0.00    -0.456 OA
BRANCH  19  20
ATOM     20  C   UNL A   1     -29.460   0.005  23.866  0.00  0.00    +0.243 C 
BRANCH  20  21
ATOM     21  C   UNL A   1     -30.065  -1.377  23.573  0.00  0.00    +0.229 C 
ATOM     22  O   UNL A   1     -30.729  -1.878  24.721  0.00  0.00    -0.216 OA
ENDBRANCH  20  21
ENDBRANCH  19  20
ENDBRANCH  12  19
ENDBRANCH   2   8
ENDBRANCH   1   5
BRANCH   1  24
ATOM     23  C   UNL A   1     -28.178   0.753  28.691  0.00  0.00    -0.086 C 
ATOM     24  C   UNL A   1     -27.043   0.114  28.881  0.00  0.00    -0.091 C 
BRANCH  23  25
ATOM     25  C   UNL A   1     -29.189   1.893  28.893  0.00  0.00    +0.103 C 
BRANCH  25  27
ATOM     26  C   UNL A   1     -28.017   2.726  30.936  0.00  0.00    +0.000 C 
ATOM     27  C   UNL A   1     -28.856   3.120  29.838  0.00  0.00    +0.001 C 
ATOM     28  O   UNL A   1     -29.787   6.357  31.497  0.00  0.00    -0.283 OA
ATOM     29  C   UNL A   1     -29.303   4.146  32.403  0.00  0.00    +0.178 C 
ATOM     30  C   UNL A   1     -29.455   4.399  29.951  0.00  0.00    +0.119 C 
ATOM     31  C   UNL A   1     -29.617   4.992  31.263  0.00  0.00    +0.235 C 
ATOM     32  C   UNL A   1     -28.288   3.201  32.219  0.00  0.00    +0.040 C 
BRANCH  30  34
ATOM     33  O   UNL A   1     -29.616   6.499  28.983  0.00  0.00    -0.240 OA
ATOM     34  C   UNL A   1     -29.671   5.281  28.794  0.00  0.00    +0.391 C 
ATOM     35  O   UNL A   1     -29.879   4.668  27.733  0.00  0.00    -0.240 OA
ENDBRANCH  30  34
BRANCH  29  36
ATOM     36  O   UNL A   1     -30.000   4.269  33.527  0.00  0.00    -0.468 OA
ATOM     37  C   UNL A   1     -30.447   3.613  34.616  0.00  0.00    +0.253 C 
ENDBRANCH  29  36
ENDBRANCH  25  27
ENDBRANCH  23  25
ENDBRANCH   1  24
BRANCH   1  38
ATOM     38  C   UNL A   1     -24.855  -1.012  30.143  0.00  0.00    +0.050 C 
BRANCH  38  39
ATOM     39  C   UNL A   1     -24.973  -2.505  29.788  0.00  0.00    -0.020 C 
ATOM     40  C   UNL A   1     -23.906  -3.173  29.146  0.00  0.00    -0.004 C 
ATOM     41  C   UNL A   1     -23.989  -4.549  28.853  0.00  0.00    -0.000 C 
ATOM     42  C   UNL A   1     -25.137  -5.280  29.205  0.00  0.00    -0.000 C 
ATOM     43  C   UNL A   1     -26.232  -4.611  29.784  0.00  0.00    -0.000 C 
ATOM     44  C   UNL A   1     -26.155  -3.232  30.065  0.00  0.00    -0.004 C 
ENDBRANCH  38  39
BRANCH  38  45
ATOM     45  C   UNL A   1     -25.387  -0.679  31.571  0.00  0.00    +0.078 C 
ATOM     46  C   UNL A   1     -25.189   0.773  32.028  0.00  0.00    +0.019 C 
ATOM     47  C   UNL A   1     -25.336   0.684  33.544  0.00  0.00    +0.020 C 
ATOM     48  C   UNL A   1     -24.829  -0.715  33.905  0.00  0.00    +0.089 C 
ATOM     49  N   UNL A   1     -24.758  -1.481  32.646  0.00  0.00    -0.219 NA
ENDBRANCH  38  45
ENDBRANCH   1  38
TORSDOF 14
