REMARK  Name = outputs/IAG933/test6/raw/output_6615_IAG933_linker_design_.xyz
REMARK  16 active torsions:
REMARK  status: ('A' for Active; 'I' for Inactive)
REMARK    1  A    between atoms: C_1  and  C_2
REMARK    2  A    between atoms: C_1  and  C_8
REMARK    3  A    between atoms: C_1  and  N_38
REMARK    4  A    between atoms: C_14  and  C_15
REMARK    5  A    between atoms: C_15  and  O_18
REMARK    6  A    between atoms: O_18  and  C_39
REMARK    7  A    between atoms: C_21  and  O_22
REMARK    8  A    between atoms: O_22  and  C_23
REMARK    9  A    between atoms: C_23  and  C_24
REMARK   10  A    between atoms: C_29  and  C_39
REMARK   11  A    between atoms: C_29  and  C_42
REMARK   12  A    between atoms: C_30  and  N_32
REMARK   13  A    between atoms: C_30  and  C_39
REMARK   14  A    between atoms: N_34  and  C_42
REMARK   15  A    between atoms: N_38  and  C_42
REMARK   16  A    between atoms: C_41  and  C_43
REMARK                            x       y       z     vdW  Elec       q    Type
REMARK                         _______ _______ _______ _____ _____    ______ ____
ROOT
ATOM      1  C   UNL A   1     -25.645   3.095  29.284  0.00  0.00    +0.191 C 
ENDROOT
BRANCH   1   2
ATOM      2  C   UNL A   1     -24.615   1.969  29.159  0.00  0.00    +0.085 C 
BRANCH   2   3
ATOM      3  C   UNL A   1     -24.113   0.801  29.187  0.00  0.00    +0.172 C 
BRANCH   3   4
ATOM      4  N   UNL A   1     -22.726   0.584  28.907  0.00  0.00    -0.188 NA
ATOM      5  O   UNL A   1     -20.755   1.224  27.760  0.00  0.00    -0.272 OA
ATOM      6  C   UNL A   1     -22.027   1.325  28.055  0.00  0.00    +0.262 C 
BRANCH   6   8
ATOM      7  N   UNL A   1     -23.214   2.477  26.161  0.00  0.00    -0.121 NA
ATOM      8  C   UNL A   1     -22.600   2.355  27.401  0.00  0.00    +0.196 C 
ENDBRANCH   6   8
ENDBRANCH   3   4
BRANCH   3   9
ATOM      9  N   UNL A   1     -24.998  -0.120  29.166  0.00  0.00    -0.194 NA
BRANCH   9  10
ATOM     10  C   UNL A   1     -24.855  -1.012  30.143  0.00  0.00    +0.113 C 
BRANCH  10  11
ATOM     11  C   UNL A   1     -24.973  -2.505  29.788  0.00  0.00    -0.005 C 
ATOM     12  C   UNL A   1     -23.906  -3.173  29.146  0.00  0.00    -0.003 C 
ATOM     13  C   UNL A   1     -23.989  -4.549  28.853  0.00  0.00    -0.000 C 
ATOM     14  C   UNL A   1     -25.137  -5.280  29.205  0.00  0.00    -0.000 C 
ATOM     15  C   UNL A   1     -26.232  -4.611  29.784  0.00  0.00    -0.000 C 
ATOM     16  C   UNL A   1     -26.155  -3.232  30.065  0.00  0.00    -0.003 C 
ENDBRANCH  10  11
BRANCH  10  17
ATOM     17  C   UNL A   1     -25.387  -0.679  31.571  0.00  0.00    +0.093 C 
ATOM     18  C   UNL A   1     -25.189   0.773  32.028  0.00  0.00    +0.021 C 
ATOM     19  C   UNL A   1     -25.336   0.684  33.544  0.00  0.00    +0.020 C 
ATOM     20  C   UNL A   1     -24.829  -0.715  33.905  0.00  0.00    +0.089 C 
ATOM     21  N   UNL A   1     -24.758  -1.481  32.646  0.00  0.00    -0.218 NA
ENDBRANCH  10  17
ENDBRANCH   9  10
ENDBRANCH   3   9
ENDBRANCH   2   3
ENDBRANCH   1   2
BRANCH   1  22
ATOM     22  C   UNL A   1     -27.213   3.289  29.175  0.00  0.00    +0.139 C 
BRANCH  22  25
ATOM     23  O   UNL A   1     -28.977   6.479  30.004  0.00  0.00    -0.324 OA
ATOM     24  C   UNL A   1     -29.092   5.214  29.506  0.00  0.00    +0.243 C 
ATOM     25  N   UNL A   1     -27.980   4.466  29.875  0.00  0.00    -0.248 N 
ATOM     26  C   UNL A   1     -27.339   5.311  30.744  0.00  0.00    +0.258 C 
ATOM     27  C   UNL A   1     -28.092   6.502  31.127  0.00  0.00    +0.229 C 
ATOM     28  O   UNL A   1     -26.153   5.072  30.947  0.00  0.00    -0.272 OA
ENDBRANCH  22  25
ENDBRANCH   1  22
BRANCH   1  29
ATOM     29  O   UNL A   1     -25.143   3.966  28.243  0.00  0.00    -0.462 OA
BRANCH  29  30
ATOM     30  C   UNL A   1     -25.642   4.093  27.123  0.00  0.00    +0.222 C 
ATOM     31  N   UNL A   1     -25.614   5.252  26.449  0.00  0.00    -0.236 NA
ATOM     32  C   UNL A   1     -25.026   6.479  26.963  0.00  0.00    +0.155 C 
BRANCH  30  34
ATOM     33  C   UNL A   1     -25.688   1.614  26.461  0.00  0.00    +0.041 C 
ATOM     34  C   UNL A   1     -26.250   2.920  26.395  0.00  0.00    +0.074 C 
ATOM     35  C   UNL A   1     -27.438   3.091  25.645  0.00  0.00    +0.107 C 
ATOM     36  N   UNL A   1     -28.075   2.089  25.003  0.00  0.00    -0.208 NA
ATOM     37  C   UNL A   1     -27.543   0.849  25.079  0.00  0.00    +0.253 C 
ATOM     38  C   UNL A   1     -26.354   0.576  25.777  0.00  0.00    +0.193 C 
ATOM     39  F   UNL A   1     -25.860  -0.681  25.795  0.00  0.00    -0.199 F 
BRANCH  37  40
ATOM     40  O   UNL A   1     -28.193  -0.208  24.477  0.00  0.00    -0.456 OA
BRANCH  40  41
ATOM     41  C   UNL A   1     -29.460   0.005  23.866  0.00  0.00    +0.243 C 
BRANCH  41  42
ATOM     42  C   UNL A   1     -30.065  -1.377  23.573  0.00  0.00    +0.229 C 
ATOM     43  O   UNL A   1     -30.729  -1.878  24.721  0.00  0.00    -0.216 OA
ENDBRANCH  41  42
ENDBRANCH  40  41
ENDBRANCH  37  40
ENDBRANCH  30  34
ENDBRANCH  29  30
ENDBRANCH   1  29
TORSDOF 16
