REMARK  Name = outputs/IAG933/test6/raw/output_6616_IAG933_linker_design_.xyz
REMARK  11 active torsions:
REMARK  status: ('A' for Active; 'I' for Inactive)
REMARK    1  A    between atoms: C_1  and  C_2
REMARK    2  A    between atoms: C_1  and  C_8
REMARK    3  A    between atoms: C_1  and  N_40
REMARK    4  A    between atoms: C_9  and  C_43
REMARK    5  A    between atoms: C_13  and  C_39
REMARK    6  A    between atoms: C_14  and  C_15
REMARK    7  A    between atoms: C_21  and  O_22
REMARK    8  A    between atoms: O_22  and  C_23
REMARK    9  A    between atoms: C_23  and  C_24
REMARK   10  A    between atoms: C_37  and  C_41
REMARK   11  A    between atoms: C_41  and  C_43
REMARK                            x       y       z     vdW  Elec       q    Type
REMARK                         _______ _______ _______ _____ _____    ______ ____
ROOT
ATOM      1  N   UNL A   1     -22.986   0.032  28.722  0.00  0.00    -0.060 NA
ATOM      2  O   UNL A   1     -27.341  -0.285  29.025  0.00  0.00    -0.220 OA
ATOM      3  C   UNL A   1     -21.243   1.437  27.783  0.00  0.00    +0.031 C 
ATOM      4  C   UNL A   1     -21.782   0.513  28.672  0.00  0.00    +0.290 C 
ATOM      5  C   UNL A   1     -21.886   2.134  26.763  0.00  0.00    +0.000 C 
ATOM      6  N   UNL A   1     -26.576   1.878  29.515  0.00  0.00    -0.045 NA
ATOM      7  C   UNL A   1     -23.246   2.027  26.410  0.00  0.00    +0.007 C 
ATOM      8  C   UNL A   1     -26.429   0.505  29.184  0.00  0.00    +0.435 C 
ATOM      9  C   UNL A   1     -24.306   1.341  27.057  0.00  0.00    +0.085 C 
ATOM     10  N   UNL A   1     -25.196   0.025  29.156  0.00  0.00    -0.121 N 
ATOM     11  C   UNL A   1     -24.200   0.432  28.210  0.00  0.00    +0.327 C 
ENDROOT
BRANCH   9  12
ATOM     12  C   UNL A   1     -25.688   1.614  26.461  0.00  0.00    +0.045 C 
ATOM     13  C   UNL A   1     -26.250   2.920  26.395  0.00  0.00    +0.077 C 
ATOM     14  C   UNL A   1     -27.438   3.091  25.645  0.00  0.00    +0.107 C 
ATOM     15  N   UNL A   1     -28.075   2.089  25.003  0.00  0.00    -0.208 NA
ATOM     16  C   UNL A   1     -27.543   0.849  25.079  0.00  0.00    +0.253 C 
ATOM     17  C   UNL A   1     -26.354   0.576  25.777  0.00  0.00    +0.193 C 
ATOM     18  F   UNL A   1     -25.860  -0.681  25.795  0.00  0.00    -0.199 F 
BRANCH  13  19
ATOM     19  C   UNL A   1     -25.642   4.093  27.123  0.00  0.00    +0.266 C 
ATOM     20  N   UNL A   1     -25.614   5.252  26.449  0.00  0.00    -0.200 NA
ATOM     21  C   UNL A   1     -25.026   6.479  26.963  0.00  0.00    +0.139 C 
ATOM     22  O   UNL A   1     -25.143   3.966  28.243  0.00  0.00    -0.268 OA
ENDBRANCH  13  19
BRANCH  16  23
ATOM     23  O   UNL A   1     -28.193  -0.208  24.477  0.00  0.00    -0.456 OA
BRANCH  23  24
ATOM     24  C   UNL A   1     -29.460   0.005  23.866  0.00  0.00    +0.243 C 
BRANCH  24  25
ATOM     25  C   UNL A   1     -30.065  -1.377  23.573  0.00  0.00    +0.229 C 
ATOM     26  O   UNL A   1     -30.729  -1.878  24.721  0.00  0.00    -0.216 OA
ENDBRANCH  24  25
ENDBRANCH  23  24
ENDBRANCH  16  23
ENDBRANCH   9  12
BRANCH  10  27
ATOM     27  C   UNL A   1     -24.855  -1.012  30.143  0.00  0.00    +0.208 C 
BRANCH  27  28
ATOM     28  C   UNL A   1     -24.973  -2.505  29.788  0.00  0.00    +0.022 C 
ATOM     29  C   UNL A   1     -23.906  -3.173  29.146  0.00  0.00    -0.000 C 
ATOM     30  C   UNL A   1     -23.989  -4.549  28.853  0.00  0.00    -0.000 C 
ATOM     31  C   UNL A   1     -25.137  -5.280  29.205  0.00  0.00    -0.000 C 
ATOM     32  C   UNL A   1     -26.232  -4.611  29.784  0.00  0.00    -0.000 C 
ATOM     33  C   UNL A   1     -26.155  -3.232  30.065  0.00  0.00    -0.000 C 
ENDBRANCH  27  28
BRANCH  27  34
ATOM     34  C   UNL A   1     -25.387  -0.679  31.571  0.00  0.00    +0.121 C 
ATOM     35  C   UNL A   1     -25.189   0.773  32.028  0.00  0.00    +0.029 C 
ATOM     36  C   UNL A   1     -25.336   0.684  33.544  0.00  0.00    +0.021 C 
ATOM     37  C   UNL A   1     -24.829  -0.715  33.905  0.00  0.00    +0.089 C 
ATOM     38  N   UNL A   1     -24.758  -1.481  32.646  0.00  0.00    -0.215 NA
BRANCH  35  39
ATOM     39  C   UNL A   1     -25.087   2.246  31.675  0.00  0.00    +0.066 C 
BRANCH  39  41
ATOM     40  O   UNL A   1     -26.238   4.189  30.753  0.00  0.00    -0.296 OA
ATOM     41  C   UNL A   1     -25.875   3.605  31.775  0.00  0.00    +0.151 C 
BRANCH  41  43
ATOM     42  C   UNL A   1     -27.039   5.197  33.348  0.00  0.00    +0.008 C 
ATOM     43  C   UNL A   1     -25.909   4.253  33.141  0.00  0.00    +0.065 C 
ENDBRANCH  41  43
ENDBRANCH  39  41
ENDBRANCH  35  39
ENDBRANCH  27  34
ENDBRANCH  10  27
TORSDOF 11
