MODEL 661
MODEL 1
REMARK VINA RESULT:    -7.547      0.000      0.000
REMARK INTER + INTRA:         -11.420
REMARK INTER:                 -10.194
REMARK INTRA:                  -1.225
REMARK UNBOUND:                -1.225
REMARK  Name = No_661-gen_results/8p0m/2024-11-27-11-27-31/
REMARK  6 active torsions:
REMARK  status: ('A' for Active; 'I' for Inactive)
REMARK    1  A    between atoms: C_3  and  C_4
REMARK    2  A    between atoms: C_6  and  C_13
REMARK    3  A    between atoms: C_12  and  O_16
REMARK    4  A    between atoms: O_16  and  C_17
REMARK    5  A    between atoms: C_17  and  C_18
REMARK    6  A    between atoms: C_18  and  C_19
REMARK                            x       y       z     vdW  Elec       q    Type
REMARK                         _______ _______ _______ _____ _____    ______ ____
ROOT
ATOM      1  C   UNL A   1     -25.046   1.349  25.936  0.00  0.00    +0.009 A 
ATOM      2  C   UNL A   1     -24.034   2.361  25.791  0.00  0.00    +0.001 A 
ATOM      3  C   UNL A   1     -22.870   2.227  26.492  0.00  0.00    +0.003 A 
ATOM      4  C   UNL A   1     -22.624   1.366  27.516  0.00  0.00    +0.037 A 
ATOM      5  C   UNL A   1     -24.681   0.196  26.745  0.00  0.00    +0.069 A 
ATOM      6  C   UNL A   1     -23.534   0.297  27.586  0.00  0.00    +0.147 A 
ATOM      7 BR   UNL A   1     -25.052  -0.432  27.514  0.00  0.00    -0.046 Br
ENDROOT
BRANCH   1  10
ATOM      8  C   UNL A   1     -28.005   0.434  23.985  0.00  0.00    +0.007 A 
ATOM      9  C   UNL A   1     -26.915   0.327  24.498  0.00  0.00    +0.000 A 
ATOM     10  C   UNL A   1     -26.377   1.355  25.264  0.00  0.00    +0.001 A 
ATOM     11  C   UNL A   1     -28.705   1.728  24.005  0.00  0.00    +0.080 A 
ATOM     12  C   UNL A   1     -28.298   2.769  24.786  0.00  0.00    +0.007 A 
ATOM     13  C   UNL A   1     -27.079   2.618  25.467  0.00  0.00    +0.000 A 
BRANCH  11  14
ATOM     14  C   UNL A   1     -30.019   1.925  23.304  0.00  0.00    +0.388 C 
ATOM     15  O   UNL A   1     -30.461   3.035  23.192  0.00  0.00    -0.241 OA
ATOM     16  O   UNL A   1     -30.674   0.878  22.949  0.00  0.00    -0.241 OA
ENDBRANCH  11  14
ENDBRANCH   1  10
BRANCH   6  17
ATOM     17  O   UNL A   1     -23.342  -0.717  28.472  0.00  0.00    -0.450 OA
BRANCH  17  18
ATOM     18  C   UNL A   1     -22.174  -0.555  29.359  0.00  0.00    +0.322 C 
ATOM     19  O   UNL A   1     -21.229  -1.168  28.886  0.00  0.00    -0.174 OA
BRANCH  18  20
ATOM     20  C   UNL A   1     -22.480  -0.423  30.740  0.00  0.00    +0.107 C 
BRANCH  20  21
ATOM     21  C   UNL A   1     -23.472   0.044  31.192  0.00  0.00    +0.012 A 
ATOM     22  C   UNL A   1     -23.837   1.435  31.176  0.00  0.00    -0.002 A 
ATOM     23  C   UNL A   1     -24.923   2.052  31.842  0.00  0.00    -0.000 A 
ATOM     24  C   UNL A   1     -25.786   1.159  32.534  0.00  0.00    +0.002 A 
ATOM     25  C   UNL A   1     -25.467  -0.143  32.718  0.00  0.00    +0.029 A 
ATOM     26  C   UNL A   1     -24.374  -0.691  32.067  0.00  0.00    +0.136 A 
ATOM     27  F   UNL A   1     -24.631  -1.875  31.327  0.00  0.00    -0.204 F 
ENDBRANCH  20  21
ENDBRANCH  18  20
ENDBRANCH  17  18
ENDBRANCH   6  17
TORSDOF 6
ENDMDL
ENDMDL
