REMARK  Name = No_662-gen_results/8p0m/2024-11-27-11-27-31/
REMARK  3 active torsions:
REMARK  status: ('A' for Active; 'I' for Inactive)
REMARK    1  A    between atoms: C_3  and  C_4
REMARK    2  A    between atoms: C_4  and  C_8
REMARK    3  A    between atoms: C_7  and  C_14
REMARK                            x       y       z     vdW  Elec       q    Type
REMARK                         _______ _______ _______ _____ _____    ______ ____
ROOT
ATOM      1  C   UNL A   1     -28.016  -0.814  28.878  0.00  0.00    -0.004 A 
ATOM      2  C   UNL A   1     -28.469  -0.785  29.829  0.00  0.00    -0.000 A 
ATOM      3  C   UNL A   1     -26.546  -0.876  28.850  0.00  0.00    -0.018 A 
ATOM      4  C   UNL A   1     -27.918  -1.003  31.188  0.00  0.00    -0.000 A 
ATOM      5  C   UNL A   1     -26.531  -1.079  31.246  0.00  0.00    -0.000 A 
ATOM      6  C   UNL A   1     -25.780  -1.046  30.090  0.00  0.00    -0.002 A 
ENDROOT
BRANCH   6   7
ATOM      7  C   UNL A   1     -24.373  -1.136  30.167  0.00  0.00    +0.019 A 
ATOM      8  C   UNL A   1     -23.618  -2.102  29.785  0.00  0.00    +0.099 A 
ATOM      9  C   UNL A   1     -23.773  -0.501  31.386  0.00  0.00    +0.003 A 
ATOM     10  C   UNL A   1     -22.373  -0.542  31.550  0.00  0.00    +0.021 A 
ATOM     11  N   UNL A   1     -22.221  -2.021  29.792  0.00  0.00    -0.242 NA
ATOM     12  C   UNL A   1     -21.650  -1.229  30.666  0.00  0.00    +0.099 A 
ENDBRANCH   6   7
BRANCH   3  13
ATOM     13  C   UNL A   1     -25.683  -0.777  27.683  0.00  0.00    +0.053 C 
BRANCH  13  14
ATOM     14  C   UNL A   1     -25.232   0.579  27.329  0.00  0.00    -0.018 A 
ATOM     15  C   UNL A   1     -25.903   1.534  27.425  0.00  0.00    -0.004 A 
ATOM     16  C   UNL A   1     -25.335   2.867  27.080  0.00  0.00    -0.000 A 
ATOM     17  C   UNL A   1     -24.003   2.989  26.647  0.00  0.00    -0.000 A 
ATOM     18  C   UNL A   1     -23.233   1.838  26.612  0.00  0.00    -0.000 A 
ATOM     19  C   UNL A   1     -23.806   0.581  26.992  0.00  0.00    -0.004 A 
ENDBRANCH  13  14
ENDBRANCH   3  13
TORSDOF 3
