REMARK  Name = outputs/IAG933/test6/raw/output_6633_IAG933_linker_design_.xyz
REMARK  18 active torsions:
REMARK  status: ('A' for Active; 'I' for Inactive)
REMARK    1  A    between atoms: C_1  and  C_2
REMARK    2  A    between atoms: C_1  and  C_8
REMARK    3  A    between atoms: C_1  and  O_31
REMARK    4  A    between atoms: C_14  and  C_15
REMARK    5  A    between atoms: C_15  and  O_18
REMARK    6  A    between atoms: O_18  and  C_32
REMARK    7  A    between atoms: C_21  and  O_22
REMARK    8  A    between atoms: O_22  and  C_23
REMARK    9  A    between atoms: C_23  and  C_24
REMARK   10  A    between atoms: C_28  and  O_31
REMARK   11  A    between atoms: N_30  and  C_32
REMARK   12  A    between atoms: N_30  and  C_39
REMARK   13  A    between atoms: C_32  and  C_35
REMARK   14  A    between atoms: C_34  and  C_43
REMARK   15  A    between atoms: C_35  and  C_40
REMARK   16  A    between atoms: C_36  and  C_42
REMARK   17  A    between atoms: C_42  and  C_44
REMARK   18  A    between atoms: C_44  and  N_45
REMARK                            x       y       z     vdW  Elec       q    Type
REMARK                         _______ _______ _______ _____ _____    ______ ____
ROOT
ATOM      1  C   UNL A   1     -24.661   3.307  29.314  0.00  0.00    +0.252 C 
ENDROOT
BRANCH   1   2
ATOM      2  N   UNL A   1     -23.579   2.544  29.408  0.00  0.00    -0.178 NA
BRANCH   2   5
ATOM      3  C   UNL A   1     -23.883   0.565  28.544  0.00  0.00    +0.139 C 
ATOM      4  C   UNL A   1     -22.470   0.454  28.591  0.00  0.00    +0.114 C 
ATOM      5  C   UNL A   1     -23.454   1.127  29.835  0.00  0.00    +0.111 C 
BRANCH   4   8
ATOM      6  F   UNL A   1     -20.969   1.649  27.486  0.00  0.00    -0.198 F 
ATOM      7  F   UNL A   1     -22.808   1.143  26.447  0.00  0.00    -0.198 F 
ATOM      8  C   UNL A   1     -22.087   1.143  27.517  0.00  0.00    +0.322 C 
ENDBRANCH   4   8
BRANCH   3   9
ATOM      9  O   UNL A   1     -24.890  -0.296  28.961  0.00  0.00    -0.351 OA
BRANCH   9  10
ATOM     10  C   UNL A   1     -24.855  -1.012  30.143  0.00  0.00    +0.153 C 
BRANCH  10  11
ATOM     11  C   UNL A   1     -24.973  -2.505  29.788  0.00  0.00    +0.006 C 
ATOM     12  C   UNL A   1     -23.906  -3.173  29.146  0.00  0.00    -0.002 C 
ATOM     13  C   UNL A   1     -23.989  -4.549  28.853  0.00  0.00    -0.000 C 
ATOM     14  C   UNL A   1     -25.137  -5.280  29.205  0.00  0.00    -0.000 C 
ATOM     15  C   UNL A   1     -26.232  -4.611  29.784  0.00  0.00    -0.000 C 
ATOM     16  C   UNL A   1     -26.155  -3.232  30.065  0.00  0.00    -0.002 C 
ENDBRANCH  10  11
BRANCH  10  17
ATOM     17  C   UNL A   1     -25.387  -0.679  31.571  0.00  0.00    +0.104 C 
ATOM     18  C   UNL A   1     -25.189   0.773  32.028  0.00  0.00    +0.022 C 
ATOM     19  C   UNL A   1     -25.336   0.684  33.544  0.00  0.00    +0.020 C 
ATOM     20  C   UNL A   1     -24.829  -0.715  33.905  0.00  0.00    +0.089 C 
ATOM     21  N   UNL A   1     -24.758  -1.481  32.646  0.00  0.00    -0.217 NA
ENDBRANCH  10  17
ENDBRANCH   9  10
ENDBRANCH   3   9
ENDBRANCH   2   5
ENDBRANCH   1   2
BRANCH   1  22
ATOM     22  O   UNL A   1     -25.143   3.966  28.243  0.00  0.00    -0.446 OA
BRANCH  22  23
ATOM     23  C   UNL A   1     -25.642   4.093  27.123  0.00  0.00    +0.223 C 
ATOM     24  N   UNL A   1     -25.614   5.252  26.449  0.00  0.00    -0.236 NA
ATOM     25  C   UNL A   1     -25.026   6.479  26.963  0.00  0.00    +0.155 C 
BRANCH  23  27
ATOM     26  C   UNL A   1     -25.688   1.614  26.461  0.00  0.00    +0.041 C 
ATOM     27  C   UNL A   1     -26.250   2.920  26.395  0.00  0.00    +0.074 C 
ATOM     28  C   UNL A   1     -27.438   3.091  25.645  0.00  0.00    +0.107 C 
ATOM     29  N   UNL A   1     -28.075   2.089  25.003  0.00  0.00    -0.208 NA
ATOM     30  C   UNL A   1     -27.543   0.849  25.079  0.00  0.00    +0.253 C 
ATOM     31  C   UNL A   1     -26.354   0.576  25.777  0.00  0.00    +0.193 C 
ATOM     32  F   UNL A   1     -25.860  -0.681  25.795  0.00  0.00    -0.199 F 
BRANCH  30  33
ATOM     33  O   UNL A   1     -28.193  -0.208  24.477  0.00  0.00    -0.456 OA
BRANCH  33  34
ATOM     34  C   UNL A   1     -29.460   0.005  23.866  0.00  0.00    +0.243 C 
BRANCH  34  35
ATOM     35  C   UNL A   1     -30.065  -1.377  23.573  0.00  0.00    +0.229 C 
ATOM     36  O   UNL A   1     -30.729  -1.878  24.721  0.00  0.00    -0.216 OA
ENDBRANCH  34  35
ENDBRANCH  33  34
ENDBRANCH  30  33
ENDBRANCH  23  27
ENDBRANCH  22  23
ENDBRANCH   1  22
BRANCH   1  37
ATOM     37  C   UNL A   1     -25.371   3.615  30.632  0.00  0.00    +0.149 C 
BRANCH  37  39
ATOM     38  O   UNL A   1     -23.962   4.787  32.094  0.00  0.00    -0.273 OA
ATOM     39  C   UNL A   1     -24.888   4.854  31.286  0.00  0.00    +0.247 C 
ATOM     40  N   UNL A   1     -25.453   5.992  30.963  0.00  0.00    -0.205 NA
BRANCH  40  41
ATOM     41  C   UNL A   1     -25.288   7.145  31.848  0.00  0.00    +0.125 C 
BRANCH  41  42
ATOM     42  C   UNL A   1     -24.053   7.780  31.398  0.00  0.00    +0.112 C 
BRANCH  42  43
ATOM     43  C   UNL A   1     -24.324   9.028  30.696  0.00  0.00    +0.263 C 
ATOM     44  O   UNL A   1     -25.399   9.373  30.210  0.00  0.00    -0.272 OA
ATOM     45  N   UNL A   1     -23.327   9.848  30.696  0.00  0.00    -0.088 NA
ENDBRANCH  42  43
ENDBRANCH  41  42
ENDBRANCH  40  41
ENDBRANCH  37  39
ENDBRANCH   1  37
TORSDOF 18
