REMARK  Name = outputs/IAG933/test6/raw/output_6638_IAG933_linker_design_.xyz
REMARK  9 active torsions:
REMARK  status: ('A' for Active; 'I' for Inactive)
REMARK    1  A    between atoms: C_1  and  C_2
REMARK    2  A    between atoms: C_13  and  C_42
REMARK    3  A    between atoms: C_14  and  C_15
REMARK    4  A    between atoms: C_21  and  O_22
REMARK    5  A    between atoms: O_22  and  C_23
REMARK    6  A    between atoms: C_23  and  C_24
REMARK    7  A    between atoms: C_28  and  C_37
REMARK    8  A    between atoms: N_33  and  C_36
REMARK    9  A    between atoms: N_33  and  O_38
REMARK                            x       y       z     vdW  Elec       q    Type
REMARK                         _______ _______ _______ _____ _____    ______ ____
ROOT
ATOM      1  C   UNL A   1     -23.186   1.795  26.620  0.00  0.00    +0.075 C 
ATOM      2 CL   UNL A   1     -22.842   2.805  25.289  0.00  0.00    -0.084 Cl
ATOM      3  F   UNL A   1     -20.888   1.535  27.436  0.00  0.00    -0.223 F 
ATOM      4  C   UNL A   1     -24.106   0.701  28.314  0.00  0.00    +0.033 C 
ATOM      5  C   UNL A   1     -22.734   0.664  28.459  0.00  0.00    +0.208 C 
ATOM      6  O   UNL A   1     -22.023  -0.082  29.316  0.00  0.00    -0.288 OA
ATOM      7  C   UNL A   1     -22.215   1.329  27.483  0.00  0.00    +0.254 C 
ATOM      8  C   UNL A   1     -24.415   1.347  27.080  0.00  0.00    +0.012 C 
ENDROOT
BRANCH   4  15
ATOM      9  C   UNL A   1     -24.855  -1.012  30.143  0.00  0.00    +0.059 C 
ATOM     10  C   UNL A   1     -25.387  -0.679  31.571  0.00  0.00    +0.084 C 
ATOM     11  C   UNL A   1     -25.189   0.773  32.028  0.00  0.00    +0.080 C 
ATOM     12  C   UNL A   1     -25.336   0.684  33.544  0.00  0.00    +0.026 C 
ATOM     13  C   UNL A   1     -24.829  -0.715  33.905  0.00  0.00    +0.089 C 
ATOM     14  N   UNL A   1     -24.758  -1.481  32.646  0.00  0.00    -0.219 NA
ATOM     15  C   UNL A   1     -25.056   0.339  29.406  0.00  0.00    +0.107 C 
ATOM     16  N   UNL A   1     -25.794   1.567  29.794  0.00  0.00    -0.173 NA
ATOM     17  O   UNL A   1     -26.990   2.581  31.642  0.00  0.00    -0.187 OA
ATOM     18  C   UNL A   1     -25.759   1.999  31.247  0.00  0.00    +0.274 C 
BRANCH   9  19
ATOM     19  C   UNL A   1     -24.973  -2.505  29.788  0.00  0.00    -0.019 C 
ATOM     20  C   UNL A   1     -23.906  -3.173  29.146  0.00  0.00    -0.004 C 
ATOM     21  C   UNL A   1     -23.989  -4.549  28.853  0.00  0.00    -0.000 C 
ATOM     22  C   UNL A   1     -25.137  -5.280  29.205  0.00  0.00    -0.000 C 
ATOM     23  C   UNL A   1     -26.232  -4.611  29.784  0.00  0.00    -0.000 C 
ATOM     24  C   UNL A   1     -26.155  -3.232  30.065  0.00  0.00    -0.004 C 
ENDBRANCH   9  19
BRANCH  18  25
ATOM     25  N   UNL A   1     -24.833   3.052  31.337  0.00  0.00    -0.038 NA
BRANCH  25  27
ATOM     26  C   UNL A   1     -25.691   4.822  32.917  0.00  0.00    +0.203 C 
ATOM     27  O   UNL A   1     -24.961   3.623  32.651  0.00  0.00    -0.260 OA
ENDBRANCH  25  27
ENDBRANCH  18  25
ENDBRANCH   4  15
BRANCH   8  28
ATOM     28  C   UNL A   1     -25.688   1.614  26.461  0.00  0.00    +0.038 C 
ATOM     29  C   UNL A   1     -26.250   2.920  26.395  0.00  0.00    +0.077 C 
ATOM     30  C   UNL A   1     -27.438   3.091  25.645  0.00  0.00    +0.107 C 
ATOM     31  N   UNL A   1     -28.075   2.089  25.003  0.00  0.00    -0.208 NA
ATOM     32  C   UNL A   1     -27.543   0.849  25.079  0.00  0.00    +0.253 C 
ATOM     33  C   UNL A   1     -26.354   0.576  25.777  0.00  0.00    +0.193 C 
ATOM     34  F   UNL A   1     -25.860  -0.681  25.795  0.00  0.00    -0.199 F 
BRANCH  29  35
ATOM     35  C   UNL A   1     -25.642   4.093  27.123  0.00  0.00    +0.266 C 
ATOM     36  N   UNL A   1     -25.614   5.252  26.449  0.00  0.00    -0.200 NA
ATOM     37  C   UNL A   1     -25.026   6.479  26.963  0.00  0.00    +0.139 C 
ATOM     38  O   UNL A   1     -25.143   3.966  28.243  0.00  0.00    -0.268 OA
ENDBRANCH  29  35
BRANCH  32  39
ATOM     39  O   UNL A   1     -28.193  -0.208  24.477  0.00  0.00    -0.456 OA
BRANCH  39  40
ATOM     40  C   UNL A   1     -29.460   0.005  23.866  0.00  0.00    +0.243 C 
BRANCH  40  41
ATOM     41  C   UNL A   1     -30.065  -1.377  23.573  0.00  0.00    +0.229 C 
ATOM     42  O   UNL A   1     -30.729  -1.878  24.721  0.00  0.00    -0.216 OA
ENDBRANCH  40  41
ENDBRANCH  39  40
ENDBRANCH  32  39
ENDBRANCH   8  28
TORSDOF 9
