REMARK  Name = outputs/IAG933/test6/raw/output_6639_IAG933_linker_design_.xyz
REMARK  16 active torsions:
REMARK  status: ('A' for Active; 'I' for Inactive)
REMARK    1  A    between atoms: C_1  and  C_2
REMARK    2  A    between atoms: C_1  and  C_8
REMARK    3  A    between atoms: C_9  and  C_39
REMARK    4  A    between atoms: C_13  and  N_47
REMARK    5  A    between atoms: C_14  and  C_15
REMARK    6  A    between atoms: C_21  and  O_22
REMARK    7  A    between atoms: O_22  and  C_23
REMARK    8  A    between atoms: C_23  and  C_24
REMARK    9  A    between atoms: O_30  and  C_37
REMARK   10  A    between atoms: O_30  and  C_39
REMARK   11  A    between atoms: C_31  and  O_34
REMARK   12  A    between atoms: C_31  and  C_44
REMARK   13  A    between atoms: O_34  and  C_41
REMARK   14  A    between atoms: C_36  and  C_44
REMARK   15  A    between atoms: C_37  and  C_48
REMARK   16  A    between atoms: C_39  and  C_50
REMARK                            x       y       z     vdW  Elec       q    Type
REMARK                         _______ _______ _______ _____ _____    ______ ____
ROOT
ATOM      1  C   UNL A   1     -25.648   2.081  31.293  0.00  0.00    +0.139 C 
ENDROOT
BRANCH   1  11
ATOM      2  C   UNL A   1     -25.856   5.927  33.368  0.00  0.00    -0.004 C 
ATOM      3  C   UNL A   1     -25.300   4.691  33.834  0.00  0.00    -0.001 C 
ATOM      4  C   UNL A   1     -26.987   7.582  31.586  0.00  0.00    +0.026 C 
ATOM      5  C   UNL A   1     -26.963   4.814  31.413  0.00  0.00    -0.001 C 
ATOM      6  C   UNL A   1     -25.366   3.619  33.117  0.00  0.00    -0.002 C 
ATOM      7  C   UNL A   1     -28.449   5.340  31.243  0.00  0.00    +0.137 C 
ATOM      8  C   UNL A   1     -28.338   6.380  30.146  0.00  0.00    +0.035 C 
ATOM      9  C   UNL A   1     -26.468   6.018  32.044  0.00  0.00    -0.024 C 
ATOM     10  C   UNL A   1     -27.181   7.028  30.155  0.00  0.00    +0.007 C 
ATOM     11  C   UNL A   1     -26.060   3.470  31.943  0.00  0.00    +0.003 C 
BRANCH   7  12
ATOM     12  O   UNL A   1     -29.584   4.528  30.814  0.00  0.00    -0.352 OA
BRANCH  12  13
ATOM     13  C   UNL A   1     -29.283   3.112  30.574  0.00  0.00    +0.142 C 
BRANCH  13  14
ATOM     14  C   UNL A   1     -29.387   2.359  30.074  0.00  0.00    +0.032 C 
BRANCH  14  15
ATOM     15  C   UNL A   1     -28.241   2.019  30.324  0.00  0.00    +0.003 C 
ATOM     16  C   UNL A   1     -28.144   0.795  31.126  0.00  0.00    +0.000 C 
ENDBRANCH  14  15
ENDBRANCH  13  14
ENDBRANCH  12  13
ENDBRANCH   7  12
ENDBRANCH   1  11
BRANCH   1  18
ATOM     17  C   UNL A   1     -25.387  -0.679  31.571  0.00  0.00    +0.080 C 
ATOM     18  C   UNL A   1     -25.189   0.773  32.028  0.00  0.00    +0.049 C 
ATOM     19  C   UNL A   1     -25.336   0.684  33.544  0.00  0.00    +0.023 C 
ATOM     20  C   UNL A   1     -24.829  -0.715  33.905  0.00  0.00    +0.089 C 
ATOM     21  N   UNL A   1     -24.758  -1.481  32.646  0.00  0.00    -0.219 NA
BRANCH  17  22
ATOM     22  C   UNL A   1     -24.855  -1.012  30.143  0.00  0.00    +0.044 C 
BRANCH  22  23
ATOM     23  C   UNL A   1     -24.973  -2.505  29.788  0.00  0.00    -0.021 C 
ATOM     24  C   UNL A   1     -23.906  -3.173  29.146  0.00  0.00    -0.004 C 
ATOM     25  C   UNL A   1     -23.989  -4.549  28.853  0.00  0.00    -0.000 C 
ATOM     26  C   UNL A   1     -25.137  -5.280  29.205  0.00  0.00    -0.000 C 
ATOM     27  C   UNL A   1     -26.232  -4.611  29.784  0.00  0.00    -0.000 C 
ATOM     28  C   UNL A   1     -26.155  -3.232  30.065  0.00  0.00    -0.004 C 
ENDBRANCH  22  23
ENDBRANCH  17  22
ENDBRANCH   1  18
BRANCH   1  29
ATOM     29  O   UNL A   1     -25.096   2.245  30.098  0.00  0.00    -0.350 OA
BRANCH  29  30
ATOM     30  C   UNL A   1     -25.315   1.136  29.147  0.00  0.00    +0.162 C 
BRANCH  30  36
ATOM     31  C   UNL A   1     -21.782   1.583  27.118  0.00  0.00    +0.182 C 
ATOM     32  F   UNL A   1     -20.984   2.728  27.269  0.00  0.00    -0.235 F 
ATOM     33  C   UNL A   1     -22.418   1.342  28.466  0.00  0.00    +0.059 C 
ATOM     34  C   UNL A   1     -22.995   1.791  26.317  0.00  0.00    +0.126 C 
ATOM     35  N   UNL A   1     -24.274   1.373  26.957  0.00  0.00    -0.302 N 
ATOM     36  C   UNL A   1     -23.993   1.032  28.336  0.00  0.00    +0.105 C 
BRANCH  35  37
ATOM     37  C   UNL A   1     -25.688   1.614  26.461  0.00  0.00    +0.086 C 
ATOM     38  C   UNL A   1     -26.250   2.920  26.395  0.00  0.00    +0.090 C 
ATOM     39  C   UNL A   1     -27.438   3.091  25.645  0.00  0.00    +0.108 C 
ATOM     40  N   UNL A   1     -28.075   2.089  25.003  0.00  0.00    -0.208 NA
ATOM     41  C   UNL A   1     -27.543   0.849  25.079  0.00  0.00    +0.255 C 
ATOM     42  C   UNL A   1     -26.354   0.576  25.777  0.00  0.00    +0.206 C 
ATOM     43  F   UNL A   1     -25.860  -0.681  25.795  0.00  0.00    -0.198 F 
BRANCH  38  44
ATOM     44  C   UNL A   1     -25.642   4.093  27.123  0.00  0.00    +0.268 C 
ATOM     45  N   UNL A   1     -25.614   5.252  26.449  0.00  0.00    -0.200 NA
ATOM     46  C   UNL A   1     -25.026   6.479  26.963  0.00  0.00    +0.139 C 
ATOM     47  O   UNL A   1     -25.143   3.966  28.243  0.00  0.00    -0.268 OA
ENDBRANCH  38  44
BRANCH  41  48
ATOM     48  O   UNL A   1     -28.193  -0.208  24.477  0.00  0.00    -0.456 OA
BRANCH  48  49
ATOM     49  C   UNL A   1     -29.460   0.005  23.866  0.00  0.00    +0.243 C 
BRANCH  49  50
ATOM     50  C   UNL A   1     -30.065  -1.377  23.573  0.00  0.00    +0.229 C 
ATOM     51  O   UNL A   1     -30.729  -1.878  24.721  0.00  0.00    -0.216 OA
ENDBRANCH  49  50
ENDBRANCH  48  49
ENDBRANCH  41  48
ENDBRANCH  35  37
ENDBRANCH  30  36
ENDBRANCH  29  30
ENDBRANCH   1  29
TORSDOF 16
