MODEL 663
MODEL 1
REMARK VINA RESULT:    -7.041      0.000      0.000
REMARK INTER + INTRA:         -15.756
REMARK INTER:                 -10.334
REMARK INTRA:                  -5.423
REMARK UNBOUND:                -5.423
REMARK  Name = No_663-gen_results/8p0m/2024-11-27-11-27-31/
REMARK  8 active torsions:
REMARK  status: ('A' for Active; 'I' for Inactive)
REMARK    1  A    between atoms: C_3  and  C_7
REMARK    2  A    between atoms: C_8  and  C_16
REMARK    3  A    between atoms: C_9  and  C_13
REMARK    4  A    between atoms: C_18  and  C_19
REMARK    5  A    between atoms: C_23  and  C_24
REMARK    6  A    between atoms: C_25  and  C_26
REMARK    7  A    between atoms: C_26  and  C_27
REMARK    8  A    between atoms: C_29  and  C_30
REMARK                            x       y       z     vdW  Elec       q    Type
REMARK                         _______ _______ _______ _____ _____    ______ ____
ROOT
ATOM      1  C   UNL A   1     -23.450   0.482  30.100  0.00  0.00    -0.000 A 
ATOM      2  C   UNL A   1     -22.514  -0.435  30.613  0.00  0.00    -0.000 A 
ATOM      3  C   UNL A   1     -24.285   1.189  31.006  0.00  0.00    -0.000 A 
ATOM      4  C   UNL A   1     -22.694  -1.186  31.372  0.00  0.00    -0.000 A 
ATOM      5  C   UNL A   1     -23.523  -0.670  32.525  0.00  0.00    +0.000 A 
ATOM      6  C   UNL A   1     -24.365   0.507  32.349  0.00  0.00    -0.000 A 
ENDROOT
BRANCH   1   8
ATOM      7  C   UNL A   1     -24.393  -0.085  27.783  0.00  0.00    +0.001 A 
ATOM      8  C   UNL A   1     -23.638   0.693  28.655  0.00  0.00    -0.000 A 
ATOM      9  C   UNL A   1     -24.616   0.401  26.489  0.00  0.00    +0.044 A 
ATOM     10  C   UNL A   1     -23.864   1.384  25.948  0.00  0.00    +0.001 A 
ATOM     11  C   UNL A   1     -23.030   1.901  28.186  0.00  0.00    -0.000 A 
ATOM     12  C   UNL A   1     -23.111   2.166  26.798  0.00  0.00    -0.000 A 
BRANCH   7  15
ATOM     13  C   UNL A   1     -24.465  -2.395  28.447  0.00  0.00    -0.000 A 
ATOM     14  C   UNL A   1     -24.963  -3.199  28.913  0.00  0.00    -0.000 A 
ATOM     15  C   UNL A   1     -25.226  -1.146  28.465  0.00  0.00    -0.000 A 
ATOM     16  C   UNL A   1     -26.205  -1.023  29.070  0.00  0.00    -0.000 A 
ATOM     17  C   UNL A   1     -26.178  -3.317  29.695  0.00  0.00    -0.000 A 
ATOM     18  C   UNL A   1     -26.859  -2.070  29.728  0.00  0.00    -0.000 A 
ENDBRANCH   7  15
BRANCH   9  19
ATOM     19  C   UNL A   1     -25.386  -0.432  25.532  0.00  0.00    +0.341 C 
ATOM     20  F   UNL A   1     -26.566  -0.481  25.611  0.00  0.00    -0.193 F 
ATOM     21  F   UNL A   1     -24.990  -0.051  24.319  0.00  0.00    -0.193 F 
ENDBRANCH   9  19
ENDBRANCH   1   8
BRANCH   3  22
ATOM     22  C   UNL A   1     -25.340   2.026  30.806  0.00  0.00    -0.000 C 
ATOM     23  C   UNL A   1     -25.667   3.008  31.214  0.00  0.00    -0.000 C 
BRANCH  23  24
ATOM     24  C   UNL A   1     -26.770   3.902  30.870  0.00  0.00    -0.004 C 
ATOM     25  C   UNL A   1     -27.756   3.336  30.020  0.00  0.00    -0.021 C 
BRANCH  25  26
ATOM     26  C   UNL A   1     -27.821   3.938  28.638  0.00  0.00    +0.052 C 
BRANCH  26  27
ATOM     27  C   UNL A   1     -27.906   3.115  27.495  0.00  0.00    -0.018 A 
ATOM     28  C   UNL A   1     -28.992   2.342  27.261  0.00  0.00    +0.003 A 
ATOM     29  C   UNL A   1     -28.849   1.540  26.152  0.00  0.00    +0.080 A 
ATOM     30  C   UNL A   1     -28.159   2.167  24.905  0.00  0.00    +0.007 A 
ATOM     31  C   UNL A   1     -26.973   2.930  25.192  0.00  0.00    -0.000 A 
ATOM     32  C   UNL A   1     -26.906   3.556  26.501  0.00  0.00    -0.004 A 
BRANCH  29  33
ATOM     33  C   UNL A   1     -29.928   0.690  25.816  0.00  0.00    +0.388 C 
ATOM     34  O   UNL A   1     -30.099  -0.415  26.278  0.00  0.00    -0.241 OA
ATOM     35  O   UNL A   1     -30.843   1.212  25.012  0.00  0.00    -0.241 OA
ENDBRANCH  29  33
ENDBRANCH  26  27
ENDBRANCH  25  26
ENDBRANCH  23  24
ENDBRANCH   3  22
TORSDOF 8
ENDMDL
ENDMDL
