REMARK  Name = outputs/IAG933/test6/raw/output_6640_IAG933_linker_design_.xyz
REMARK  9 active torsions:
REMARK  status: ('A' for Active; 'I' for Inactive)
REMARK    1  A    between atoms: C_1  and  C_2
REMARK    2  A    between atoms: C_1  and  C_8
REMARK    3  A    between atoms: C_1  and  N_35
REMARK    4  A    between atoms: C_21  and  O_22
REMARK    5  A    between atoms: O_22  and  C_23
REMARK    6  A    between atoms: C_23  and  C_24
REMARK    7  A    between atoms: C_33  and  C_34
REMARK    8  A    between atoms: C_34  and  C_43
REMARK    9  A    between atoms: C_36  and  N_39
REMARK                            x       y       z     vdW  Elec       q    Type
REMARK                         _______ _______ _______ _____ _____    ______ ____
ROOT
ATOM      1  C   UNL A   1     -25.688   1.614  26.461  0.00  0.00    +0.039 C 
ATOM      2  C   UNL A   1     -26.250   2.920  26.395  0.00  0.00    +0.072 C 
ATOM      3  C   UNL A   1     -25.642   4.093  27.123  0.00  0.00    +0.224 C 
ATOM      4  N   UNL A   1     -25.614   5.252  26.449  0.00  0.00    -0.236 NA
ATOM      5  C   UNL A   1     -25.026   6.479  26.963  0.00  0.00    +0.155 C 
ATOM      6  O   UNL A   1     -25.143   3.966  28.243  0.00  0.00    -0.436 OA
ATOM      7  C   UNL A   1     -27.438   3.091  25.645  0.00  0.00    +0.106 C 
ATOM      8  N   UNL A   1     -28.075   2.089  25.003  0.00  0.00    -0.208 NA
ATOM      9  C   UNL A   1     -27.543   0.849  25.079  0.00  0.00    +0.253 C 
ATOM     10  C   UNL A   1     -26.354   0.576  25.777  0.00  0.00    +0.191 C 
ATOM     11  F   UNL A   1     -25.860  -0.681  25.795  0.00  0.00    -0.200 F 
ATOM     12  O   UNL A   1     -24.787   2.137  29.467  0.00  0.00    -0.301 OA
ATOM     13  C   UNL A   1     -24.618   1.419  27.352  0.00  0.00    +0.162 C 
ATOM     14  C   UNL A   1     -22.914   0.230  29.305  0.00  0.00    +0.306 C 
ATOM     15  N   UNL A   1     -24.248  -0.016  29.265  0.00  0.00    -0.245 N 
ATOM     16  O   UNL A   1     -21.093   1.597  28.220  0.00  0.00    -0.264 OA
ATOM     17  O   UNL A   1     -22.094  -0.255  30.206  0.00  0.00    -0.265 OA
ATOM     18  N   UNL A   1     -23.311   1.530  27.223  0.00  0.00    -0.183 N 
ATOM     19  C   UNL A   1     -22.396   1.240  28.223  0.00  0.00    +0.315 C 
ATOM     20  C   UNL A   1     -25.085   0.969  28.739  0.00  0.00    +0.222 C 
ATOM     21  C   UNL A   1     -25.061   3.300  29.372  0.00  0.00    +0.303 C 
ENDROOT
BRANCH  18  23
ATOM     22  N   UNL A   1     -22.035   1.961  25.075  0.00  0.00    -0.174 NA
ATOM     23  C   UNL A   1     -22.655   1.771  25.997  0.00  0.00    +0.177 C 
ENDBRANCH  18  23
BRANCH  15  24
ATOM     24  C   UNL A   1     -24.855  -1.012  30.143  0.00  0.00    +0.116 C 
BRANCH  24  25
ATOM     25  C   UNL A   1     -24.973  -2.505  29.788  0.00  0.00    -0.003 C 
ATOM     26  C   UNL A   1     -23.906  -3.173  29.146  0.00  0.00    -0.003 C 
ATOM     27  C   UNL A   1     -23.989  -4.549  28.853  0.00  0.00    -0.000 C 
ATOM     28  C   UNL A   1     -25.137  -5.280  29.205  0.00  0.00    -0.000 C 
ATOM     29  C   UNL A   1     -26.232  -4.611  29.784  0.00  0.00    -0.000 C 
ATOM     30  C   UNL A   1     -26.155  -3.232  30.065  0.00  0.00    -0.003 C 
ENDBRANCH  24  25
BRANCH  24  31
ATOM     31  C   UNL A   1     -25.387  -0.679  31.571  0.00  0.00    +0.095 C 
ATOM     32  C   UNL A   1     -25.189   0.773  32.028  0.00  0.00    +0.021 C 
ATOM     33  C   UNL A   1     -25.336   0.684  33.544  0.00  0.00    +0.020 C 
ATOM     34  C   UNL A   1     -24.829  -0.715  33.905  0.00  0.00    +0.089 C 
ATOM     35  N   UNL A   1     -24.758  -1.481  32.646  0.00  0.00    -0.217 NA
ENDBRANCH  24  31
ENDBRANCH  15  24
BRANCH   9  36
ATOM     36  O   UNL A   1     -28.193  -0.208  24.477  0.00  0.00    -0.456 OA
BRANCH  36  37
ATOM     37  C   UNL A   1     -29.460   0.005  23.866  0.00  0.00    +0.243 C 
BRANCH  37  38
ATOM     38  C   UNL A   1     -30.065  -1.377  23.573  0.00  0.00    +0.229 C 
ATOM     39  O   UNL A   1     -30.729  -1.878  24.721  0.00  0.00    -0.216 OA
ENDBRANCH  37  38
ENDBRANCH  36  37
ENDBRANCH   9  36
BRANCH  21  40
ATOM     40  C   UNL A   1     -25.030   4.037  30.616  0.00  0.00    +0.209 C 
BRANCH  40  42
ATOM     41  N   UNL A   1     -25.990   6.062  31.839  0.00  0.00    +0.200 NA
ATOM     42  C   UNL A   1     -26.092   4.971  30.986  0.00  0.00    +0.460 C 
ATOM     43  N   UNL A   1     -27.284   4.748  30.410  0.00  0.00    +0.200 NA
ENDBRANCH  40  42
ENDBRANCH  21  40
TORSDOF 9
