REMARK  Name = outputs/IAG933/test6/raw/output_6644_IAG933_linker_design_.xyz
REMARK  17 active torsions:
REMARK  status: ('A' for Active; 'I' for Inactive)
REMARK    1  A    between atoms: C_1  and  C_2
REMARK    2  A    between atoms: C_1  and  C_8
REMARK    3  A    between atoms: C_1  and  O_34
REMARK    4  A    between atoms: C_14  and  C_15
REMARK    5  A    between atoms: C_15  and  O_18
REMARK    6  A    between atoms: O_18  and  C_39
REMARK    7  A    between atoms: C_21  and  O_22
REMARK    8  A    between atoms: O_22  and  C_23
REMARK    9  A    between atoms: C_23  and  C_24
REMARK   10  A    between atoms: C_29  and  N_35
REMARK   11  A    between atoms: C_29  and  C_44
REMARK   12  A    between atoms: C_29  and  N_45
REMARK   13  A    between atoms: C_30  and  C_33
REMARK   14  A    between atoms: C_30  and  O_34
REMARK   15  A    between atoms: C_33  and  C_40
REMARK   16  A    between atoms: C_33  and  C_42
REMARK   17  A    between atoms: C_39  and  C_44
REMARK                            x       y       z     vdW  Elec       q    Type
REMARK                         _______ _______ _______ _____ _____    ______ ____
ROOT
ATOM      1  C   UNL A   1     -24.931   2.930  29.211  0.00  0.00    +0.124 C 
ATOM      2  C   UNL A   1     -24.218   1.590  29.330  0.00  0.00    +0.020 C 
ENDROOT
BRANCH   1   3
ATOM      3  O   UNL A   1     -25.143   3.966  28.243  0.00  0.00    -0.441 OA
BRANCH   3   4
ATOM      4  C   UNL A   1     -25.642   4.093  27.123  0.00  0.00    +0.226 C 
ATOM      5  N   UNL A   1     -25.614   5.252  26.449  0.00  0.00    -0.235 NA
ATOM      6  C   UNL A   1     -25.026   6.479  26.963  0.00  0.00    +0.155 C 
BRANCH   4   8
ATOM      7  C   UNL A   1     -25.688   1.614  26.461  0.00  0.00    +0.041 C 
ATOM      8  C   UNL A   1     -26.250   2.920  26.395  0.00  0.00    +0.075 C 
ATOM      9  C   UNL A   1     -27.438   3.091  25.645  0.00  0.00    +0.107 C 
ATOM     10  N   UNL A   1     -28.075   2.089  25.003  0.00  0.00    -0.208 NA
ATOM     11  C   UNL A   1     -27.543   0.849  25.079  0.00  0.00    +0.253 C 
ATOM     12  C   UNL A   1     -26.354   0.576  25.777  0.00  0.00    +0.193 C 
ATOM     13  F   UNL A   1     -25.860  -0.681  25.795  0.00  0.00    -0.199 F 
BRANCH  11  14
ATOM     14  O   UNL A   1     -28.193  -0.208  24.477  0.00  0.00    -0.456 OA
BRANCH  14  15
ATOM     15  C   UNL A   1     -29.460   0.005  23.866  0.00  0.00    +0.243 C 
BRANCH  15  16
ATOM     16  C   UNL A   1     -30.065  -1.377  23.573  0.00  0.00    +0.229 C 
ATOM     17  O   UNL A   1     -30.729  -1.878  24.721  0.00  0.00    -0.216 OA
ENDBRANCH  15  16
ENDBRANCH  14  15
ENDBRANCH  11  14
ENDBRANCH   4   8
ENDBRANCH   3   4
ENDBRANCH   1   3
BRANCH   2  18
ATOM     18  C   UNL A   1     -23.250   0.730  28.646  0.00  0.00    +0.158 C 
BRANCH  18  21
ATOM     19  O   UNL A   1     -22.788   2.501  27.064  0.00  0.00    -0.245 OA
ATOM     20  O   UNL A   1     -21.088   1.311  27.770  0.00  0.00    -0.245 OA
ATOM     21  C   UNL A   1     -22.406   1.568  27.794  0.00  0.00    +0.371 C 
ENDBRANCH  18  21
BRANCH  18  22
ATOM     22  C   UNL A   1     -22.526  -0.175  29.583  0.00  0.00    +0.158 C 
BRANCH  22  23
ATOM     23  O   UNL A   1     -23.501  -0.760  30.377  0.00  0.00    -0.349 OA
BRANCH  23  24
ATOM     24  C   UNL A   1     -24.855  -1.012  30.143  0.00  0.00    +0.153 C 
BRANCH  24  25
ATOM     25  C   UNL A   1     -24.973  -2.505  29.788  0.00  0.00    +0.006 C 
ATOM     26  C   UNL A   1     -23.906  -3.173  29.146  0.00  0.00    -0.002 C 
ATOM     27  C   UNL A   1     -23.989  -4.549  28.853  0.00  0.00    -0.000 C 
ATOM     28  C   UNL A   1     -25.137  -5.280  29.205  0.00  0.00    -0.000 C 
ATOM     29  C   UNL A   1     -26.232  -4.611  29.784  0.00  0.00    -0.000 C 
ATOM     30  C   UNL A   1     -26.155  -3.232  30.065  0.00  0.00    -0.002 C 
ENDBRANCH  24  25
BRANCH  24  31
ATOM     31  C   UNL A   1     -25.387  -0.679  31.571  0.00  0.00    +0.104 C 
ATOM     32  C   UNL A   1     -25.189   0.773  32.028  0.00  0.00    +0.022 C 
ATOM     33  C   UNL A   1     -25.336   0.684  33.544  0.00  0.00    +0.020 C 
ATOM     34  C   UNL A   1     -24.829  -0.715  33.905  0.00  0.00    +0.089 C 
ATOM     35  N   UNL A   1     -24.758  -1.481  32.646  0.00  0.00    -0.217 NA
ENDBRANCH  24  31
ENDBRANCH  23  24
ENDBRANCH  22  23
ENDBRANCH  18  22
ENDBRANCH   2  18
BRANCH   1  36
ATOM     36  C   UNL A   1     -25.648   3.242  30.399  0.00  0.00    +0.108 C 
BRANCH  36  37
ATOM     37  C   UNL A   1     -26.777   4.196  30.364  0.00  0.00    +0.198 C 
BRANCH  37  38
ATOM     38  N   UNL A   1     -26.844   5.150  31.383  0.00  0.00    -0.165 NA
ATOM     39  O   UNL A   1     -24.959   5.038  32.553  0.00  0.00    -0.247 OA
ATOM     40  N   UNL A   1     -25.732   7.051  31.984  0.00  0.00    -0.068 NA
ATOM     41  C   UNL A   1     -25.798   5.746  31.989  0.00  0.00    +0.360 C 
ENDBRANCH  37  38
BRANCH  37  45
ATOM     42  C   UNL A   1     -29.948   3.799  28.421  0.00  0.00    +0.097 C 
ATOM     43  O   UNL A   1     -29.014   2.434  30.142  0.00  0.00    -0.273 OA
ATOM     44  C   UNL A   1     -28.828   3.398  29.365  0.00  0.00    +0.243 C 
ATOM     45  N   UNL A   1     -27.781   4.172  29.352  0.00  0.00    -0.184 NA
ENDBRANCH  37  45
ENDBRANCH  36  37
ENDBRANCH   1  36
TORSDOF 17
