REMARK  Name = outputs/IAG933/test6/raw/output_6649_IAG933_linker_design_.xyz
REMARK  17 active torsions:
REMARK  status: ('A' for Active; 'I' for Inactive)
REMARK    1  A    between atoms: C_1  and  C_2
REMARK    2  A    between atoms: C_1  and  C_8
REMARK    3  A    between atoms: C_1  and  C_40
REMARK    4  A    between atoms: C_13  and  C_32
REMARK    5  A    between atoms: C_14  and  C_15
REMARK    6  A    between atoms: C_21  and  O_22
REMARK    7  A    between atoms: O_22  and  C_23
REMARK    8  A    between atoms: C_23  and  C_24
REMARK    9  A    between atoms: O_29  and  C_40
REMARK   10  A    between atoms: O_29  and  C_41
REMARK   11  A    between atoms: C_32  and  N_34
REMARK   12  A    between atoms: N_34  and  C_39
REMARK   13  A    between atoms: N_34  and  C_42
REMARK   14  A    between atoms: C_35  and  O_46
REMARK   15  A    between atoms: C_36  and  C_37
REMARK   16  A    between atoms: C_37  and  C_41
REMARK   17  A    between atoms: C_39  and  C_40
REMARK                            x       y       z     vdW  Elec       q    Type
REMARK                         _______ _______ _______ _____ _____    ______ ____
ROOT
ATOM      1  C   UNL A   1     -25.034  -0.126  28.928  0.00  0.00    +0.167 C 
ENDROOT
BRANCH   1   2
ATOM      2  C   UNL A   1     -23.704   0.767  28.978  0.00  0.00    +0.244 C 
ATOM      3  O   UNL A   1     -22.492   0.099  29.443  0.00  0.00    -0.202 OA
BRANCH   2   4
ATOM      4  N   UNL A   1     -23.561   1.384  27.595  0.00  0.00    -0.186 NA
BRANCH   4   6
ATOM      5  F   UNL A   1     -22.608   2.392  25.845  0.00  0.00    -0.179 F 
ATOM      6  C   UNL A   1     -22.487   1.779  26.964  0.00  0.00    +0.386 C 
ATOM      7  F   UNL A   1     -21.337   1.669  27.480  0.00  0.00    -0.179 F 
ENDBRANCH   4   6
BRANCH   4   8
ATOM      8  C   UNL A   1     -24.786   1.482  27.067  0.00  0.00    +0.109 C 
BRANCH   8   9
ATOM      9  C   UNL A   1     -25.688   1.614  26.461  0.00  0.00    +0.032 C 
ATOM     10  C   UNL A   1     -26.250   2.920  26.395  0.00  0.00    +0.074 C 
ATOM     11  C   UNL A   1     -27.438   3.091  25.645  0.00  0.00    +0.106 C 
ATOM     12  N   UNL A   1     -28.075   2.089  25.003  0.00  0.00    -0.208 NA
ATOM     13  C   UNL A   1     -27.543   0.849  25.079  0.00  0.00    +0.253 C 
ATOM     14  C   UNL A   1     -26.354   0.576  25.777  0.00  0.00    +0.190 C 
ATOM     15  F   UNL A   1     -25.860  -0.681  25.795  0.00  0.00    -0.200 F 
BRANCH  10  16
ATOM     16  C   UNL A   1     -25.642   4.093  27.123  0.00  0.00    +0.266 C 
ATOM     17  N   UNL A   1     -25.614   5.252  26.449  0.00  0.00    -0.200 NA
ATOM     18  C   UNL A   1     -25.026   6.479  26.963  0.00  0.00    +0.139 C 
ATOM     19  O   UNL A   1     -25.143   3.966  28.243  0.00  0.00    -0.268 OA
ENDBRANCH  10  16
BRANCH  13  20
ATOM     20  O   UNL A   1     -28.193  -0.208  24.477  0.00  0.00    -0.456 OA
BRANCH  20  21
ATOM     21  C   UNL A   1     -29.460   0.005  23.866  0.00  0.00    +0.243 C 
BRANCH  21  22
ATOM     22  C   UNL A   1     -30.065  -1.377  23.573  0.00  0.00    +0.229 C 
ATOM     23  O   UNL A   1     -30.729  -1.878  24.721  0.00  0.00    -0.216 OA
ENDBRANCH  21  22
ENDBRANCH  20  21
ENDBRANCH  13  20
ENDBRANCH   8   9
ENDBRANCH   4   8
ENDBRANCH   2   4
ENDBRANCH   1   2
BRANCH   1  24
ATOM     24  C   UNL A   1     -24.855  -1.012  30.143  0.00  0.00    +0.070 C 
BRANCH  24  25
ATOM     25  C   UNL A   1     -24.973  -2.505  29.788  0.00  0.00    -0.019 C 
ATOM     26  C   UNL A   1     -23.906  -3.173  29.146  0.00  0.00    -0.004 C 
ATOM     27  C   UNL A   1     -23.989  -4.549  28.853  0.00  0.00    -0.000 C 
ATOM     28  C   UNL A   1     -25.137  -5.280  29.205  0.00  0.00    -0.000 C 
ATOM     29  C   UNL A   1     -26.232  -4.611  29.784  0.00  0.00    -0.000 C 
ATOM     30  C   UNL A   1     -26.155  -3.232  30.065  0.00  0.00    -0.004 C 
ENDBRANCH  24  25
BRANCH  24  31
ATOM     31  C   UNL A   1     -25.387  -0.679  31.571  0.00  0.00    +0.079 C 
ATOM     32  C   UNL A   1     -25.189   0.773  32.028  0.00  0.00    +0.019 C 
ATOM     33  C   UNL A   1     -25.336   0.684  33.544  0.00  0.00    +0.020 C 
ATOM     34  C   UNL A   1     -24.829  -0.715  33.905  0.00  0.00    +0.089 C 
ATOM     35  N   UNL A   1     -24.758  -1.481  32.646  0.00  0.00    -0.219 NA
ENDBRANCH  24  31
ENDBRANCH   1  24
BRANCH   1  36
ATOM     36  O   UNL A   1     -26.407   0.295  28.603  0.00  0.00    -0.344 OA
BRANCH  36  37
ATOM     37  C   UNL A   1     -27.787   0.080  28.883  0.00  0.00    +0.211 C 
BRANCH  37  39
ATOM     38  O   UNL A   1     -28.355   2.374  29.561  0.00  0.00    -0.289 OA
ATOM     39  C   UNL A   1     -28.712   1.292  28.993  0.00  0.00    +0.203 C 
BRANCH  39  43
ATOM     40  C   UNL A   1     -30.433  -0.125  27.817  0.00  0.00    +0.006 C 
ATOM     41  C   UNL A   1     -31.107   2.080  28.544  0.00  0.00    +0.006 C 
ATOM     42  C   UNL A   1     -32.772   0.484  27.701  0.00  0.00    +0.139 C 
ATOM     43  C   UNL A   1     -30.110   1.105  28.427  0.00  0.00    +0.037 C 
ATOM     44  C   UNL A   1     -32.438   1.770  28.205  0.00  0.00    +0.037 C 
ATOM     45  C   UNL A   1     -31.741  -0.456  27.460  0.00  0.00    +0.037 C 
BRANCH  42  47
ATOM     46  C   UNL A   1     -34.932  -0.723  28.060  0.00  0.00    +0.253 C 
ATOM     47  O   UNL A   1     -34.087   0.197  27.363  0.00  0.00    -0.471 OA
ENDBRANCH  42  47
ENDBRANCH  39  43
ENDBRANCH  37  39
ENDBRANCH  36  37
ENDBRANCH   1  36
TORSDOF 17
