MODEL 664
MODEL 1
REMARK VINA RESULT:    -5.022      0.000      0.000
REMARK INTER + INTRA:          -5.348
REMARK INTER:                  -5.315
REMARK INTRA:                  -0.032
REMARK UNBOUND:                -0.032
REMARK  Name = No_664-gen_results/8p0m/2024-11-27-11-27-31/
REMARK  1 active torsions:
REMARK  status: ('A' for Active; 'I' for Inactive)
REMARK    1  A    between atoms: C_1  and  C_2
REMARK                            x       y       z     vdW  Elec       q    Type
REMARK                         _______ _______ _______ _____ _____    ______ ____
ROOT
ATOM      1  C   UNL A   1      -9.432  -9.865  17.943  0.00  0.00    +0.021 A 
ATOM      2  C   UNL A   1     -10.381  -9.523  19.010  0.00  0.00    +0.002 A 
ATOM      3  C   UNL A   1      -9.908  -8.978  20.297  0.00  0.00    +0.000 A 
ATOM      4  C   UNL A   1      -8.633  -9.381  20.753  0.00  0.00    +0.000 A 
ATOM      5  C   UNL A   1      -7.779 -10.108  19.885  0.00  0.00    +0.000 A 
ATOM      6  C   UNL A   1      -8.183 -10.415  18.634  0.00  0.00    +0.002 A 
ENDROOT
BRANCH   1   7
ATOM      7  C   UNL A   1      -9.874 -10.384  17.139  0.00  0.00    +0.122 C 
ATOM      8  N   UNL A   1     -11.096 -10.513  16.809  0.00  0.00    -0.146 NA
ENDBRANCH   1   7
TORSDOF 1
ENDMDL
ENDMDL
