REMARK  Name = outputs/IAG933/test6/raw/output_6653_IAG933_linker_design_.xyz
REMARK  16 active torsions:
REMARK  status: ('A' for Active; 'I' for Inactive)
REMARK    1  A    between atoms: C_1  and  C_2
REMARK    2  A    between atoms: C_1  and  C_8
REMARK    3  A    between atoms: C_1  and  C_40
REMARK    4  A    between atoms: C_13  and  N_43
REMARK    5  A    between atoms: C_14  and  C_15
REMARK    6  A    between atoms: C_21  and  O_22
REMARK    7  A    between atoms: O_22  and  C_23
REMARK    8  A    between atoms: C_23  and  C_24
REMARK    9  A    between atoms: C_28  and  C_38
REMARK   10  A    between atoms: C_32  and  C_40
REMARK   11  A    between atoms: C_32  and  C_46
REMARK   12  A    between atoms: C_35  and  C_36
REMARK   13  A    between atoms: C_35  and  N_43
REMARK   14  A    between atoms: S_37  and  C_38
REMARK   15  A    between atoms: C_40  and  N_43
REMARK   16  A    between atoms: C_42  and  C_46
REMARK                            x       y       z     vdW  Elec       q    Type
REMARK                         _______ _______ _______ _____ _____    ______ ____
ROOT
ATOM      1  C   UNL A   1     -25.518  -0.206  28.872  0.00  0.00    +0.101 C 
ENDROOT
BRANCH   1   2
ATOM      2  C   UNL A   1     -27.052   0.033  29.305  0.00  0.00    +0.224 C 
ATOM      3  O   UNL A   1     -27.313   1.085  30.371  0.00  0.00    -0.214 OA
BRANCH   2   5
ATOM      4  O   UNL A   1     -28.508  -1.868  29.541  0.00  0.00    -0.293 OA
ATOM      5  C   UNL A   1     -28.461  -0.738  29.374  0.00  0.00    +0.186 C 
BRANCH   5  10
ATOM      6  C   UNL A   1     -30.884  -0.827  28.636  0.00  0.00    +0.084 C 
ATOM      7  O   UNL A   1     -31.860  -0.531  26.363  0.00  0.00    -0.291 OA
ATOM      8  C   UNL A   1     -29.790   1.352  29.260  0.00  0.00    -0.018 C 
ATOM      9  C   UNL A   1     -30.247   2.085  28.193  0.00  0.00    -0.001 C 
ATOM     10  C   UNL A   1     -29.692  -0.077  29.289  0.00  0.00    +0.090 C 
ATOM     11  C   UNL A   1     -31.189  -0.022  27.348  0.00  0.00    +0.174 C 
ATOM     12  C   UNL A   1     -30.848   1.352  27.183  0.00  0.00    +0.037 C 
BRANCH   6  13
ATOM     13  C   UNL A   1     -31.821  -1.269  29.584  0.00  0.00    +0.066 C 
BRANCH  13  15
ATOM     14  C   UNL A   1     -33.011  -3.256  28.591  0.00  0.00    +0.069 C 
ATOM     15  S   UNL A   1     -33.384  -1.907  29.657  0.00  0.00    -0.139 S 
ENDBRANCH  13  15
ENDBRANCH   6  13
ENDBRANCH   5  10
ENDBRANCH   2   5
ENDBRANCH   1   2
BRANCH   1  16
ATOM     16  C   UNL A   1     -24.855  -1.012  30.143  0.00  0.00    +0.056 C 
BRANCH  16  17
ATOM     17  C   UNL A   1     -24.973  -2.505  29.788  0.00  0.00    -0.020 C 
ATOM     18  C   UNL A   1     -23.906  -3.173  29.146  0.00  0.00    -0.004 C 
ATOM     19  C   UNL A   1     -23.989  -4.549  28.853  0.00  0.00    -0.000 C 
ATOM     20  C   UNL A   1     -25.137  -5.280  29.205  0.00  0.00    -0.000 C 
ATOM     21  C   UNL A   1     -26.232  -4.611  29.784  0.00  0.00    -0.000 C 
ATOM     22  C   UNL A   1     -26.155  -3.232  30.065  0.00  0.00    -0.004 C 
ENDBRANCH  16  17
BRANCH  16  23
ATOM     23  C   UNL A   1     -25.387  -0.679  31.571  0.00  0.00    +0.078 C 
ATOM     24  C   UNL A   1     -25.189   0.773  32.028  0.00  0.00    +0.019 C 
ATOM     25  C   UNL A   1     -25.336   0.684  33.544  0.00  0.00    +0.020 C 
ATOM     26  C   UNL A   1     -24.829  -0.715  33.905  0.00  0.00    +0.089 C 
ATOM     27  N   UNL A   1     -24.758  -1.481  32.646  0.00  0.00    -0.219 NA
ENDBRANCH  16  23
ENDBRANCH   1  16
BRANCH   1  28
ATOM     28  N   UNL A   1     -25.137   1.089  27.764  0.00  0.00    -0.264 NA
BRANCH  28  29
ATOM     29  C   UNL A   1     -25.688   1.614  26.461  0.00  0.00    +0.129 C 
ATOM     30  C   UNL A   1     -26.250   2.920  26.395  0.00  0.00    +0.070 C 
ATOM     31  C   UNL A   1     -27.438   3.091  25.645  0.00  0.00    +0.103 C 
ATOM     32  N   UNL A   1     -28.075   2.089  25.003  0.00  0.00    -0.212 NA
ATOM     33  C   UNL A   1     -27.543   0.849  25.079  0.00  0.00    +0.235 C 
ATOM     34  C   UNL A   1     -26.354   0.576  25.777  0.00  0.00    +0.255 C 
ATOM     35  F   UNL A   1     -25.860  -0.681  25.795  0.00  0.00    -0.225 F 
BRANCH  30  36
ATOM     36  C   UNL A   1     -25.642   4.093  27.123  0.00  0.00    +0.264 C 
ATOM     37  N   UNL A   1     -25.614   5.252  26.449  0.00  0.00    -0.200 NA
ATOM     38  C   UNL A   1     -25.026   6.479  26.963  0.00  0.00    +0.139 C 
ATOM     39  O   UNL A   1     -25.143   3.966  28.243  0.00  0.00    -0.269 OA
ENDBRANCH  30  36
BRANCH  33  40
ATOM     40  O   UNL A   1     -28.193  -0.208  24.477  0.00  0.00    -0.459 OA
BRANCH  40  41
ATOM     41  C   UNL A   1     -29.460   0.005  23.866  0.00  0.00    +0.242 C 
BRANCH  41  42
ATOM     42  C   UNL A   1     -30.065  -1.377  23.573  0.00  0.00    +0.229 C 
ATOM     43  O   UNL A   1     -30.729  -1.878  24.721  0.00  0.00    -0.216 OA
ENDBRANCH  41  42
ENDBRANCH  40  41
ENDBRANCH  33  40
ENDBRANCH  28  29
BRANCH  28  44
ATOM     44  C   UNL A   1     -23.780   1.676  27.859  0.00  0.00    +0.106 C 
BRANCH  44  45
ATOM     45  C   UNL A   1     -22.724   1.040  27.826  0.00  0.00    +0.168 C 
ATOM     46  C   UNL A   1     -21.483   1.688  27.350  0.00  0.00    +0.037 C 
ATOM     47  O   UNL A   1     -22.688  -0.173  28.264  0.00  0.00    -0.222 OA
ENDBRANCH  44  45
ENDBRANCH  28  44
ENDBRANCH   1  28
TORSDOF 16
