REMARK  Name = outputs/IAG933/test6/raw/output_6658_IAG933_linker_design_.xyz
REMARK  12 active torsions:
REMARK  status: ('A' for Active; 'I' for Inactive)
REMARK    1  A    between atoms: C_1  and  C_2
REMARK    2  A    between atoms: C_1  and  C_8
REMARK    3  A    between atoms: C_1  and  N_29
REMARK    4  A    between atoms: C_13  and  C_34
REMARK    5  A    between atoms: C_14  and  C_15
REMARK    6  A    between atoms: C_21  and  O_22
REMARK    7  A    between atoms: O_22  and  C_23
REMARK    8  A    between atoms: C_23  and  C_24
REMARK    9  A    between atoms: C_28  and  C_37
REMARK   10  A    between atoms: C_30  and  CA_38
REMARK   11  A    between atoms: C_31  and  C_37
REMARK   12  A    between atoms: C_34  and  CA_38
REMARK                            x       y       z     vdW  Elec       q    Type
REMARK                         _______ _______ _______ _____ _____    ______ ____
ROOT
ATOM      1  N   UNL A   1     -25.654  -0.165  29.291  0.00  0.00    -0.302 N 
ATOM      2  C   UNL A   1     -26.788   0.023  28.881  0.00  0.00    +0.116 C 
ATOM      3  C   UNL A   1     -25.582   0.492  28.437  0.00  0.00    +0.042 C 
ATOM      4  C   UNL A   1     -24.527   1.290  27.525  0.00  0.00    +0.019 C 
ENDROOT
BRANCH   4   5
ATOM      5  C   UNL A   1     -25.688   1.614  26.461  0.00  0.00    +0.037 C 
ATOM      6  C   UNL A   1     -26.250   2.920  26.395  0.00  0.00    +0.076 C 
ATOM      7  C   UNL A   1     -27.438   3.091  25.645  0.00  0.00    +0.107 C 
ATOM      8  N   UNL A   1     -28.075   2.089  25.003  0.00  0.00    -0.208 NA
ATOM      9  C   UNL A   1     -27.543   0.849  25.079  0.00  0.00    +0.253 C 
ATOM     10  C   UNL A   1     -26.354   0.576  25.777  0.00  0.00    +0.193 C 
ATOM     11  F   UNL A   1     -25.860  -0.681  25.795  0.00  0.00    -0.199 F 
BRANCH   6  12
ATOM     12  C   UNL A   1     -25.642   4.093  27.123  0.00  0.00    +0.266 C 
ATOM     13  N   UNL A   1     -25.614   5.252  26.449  0.00  0.00    -0.200 NA
ATOM     14  C   UNL A   1     -25.026   6.479  26.963  0.00  0.00    +0.139 C 
ATOM     15  O   UNL A   1     -25.143   3.966  28.243  0.00  0.00    -0.268 OA
ENDBRANCH   6  12
BRANCH   9  16
ATOM     16  O   UNL A   1     -28.193  -0.208  24.477  0.00  0.00    -0.456 OA
BRANCH  16  17
ATOM     17  C   UNL A   1     -29.460   0.005  23.866  0.00  0.00    +0.243 C 
BRANCH  17  18
ATOM     18  C   UNL A   1     -30.065  -1.377  23.573  0.00  0.00    +0.229 C 
ATOM     19  O   UNL A   1     -30.729  -1.878  24.721  0.00  0.00    -0.216 OA
ENDBRANCH  17  18
ENDBRANCH  16  17
ENDBRANCH   9  16
ENDBRANCH   4   5
BRANCH   4  20
ATOM     20  CA  UNL A   1     -23.131   0.719  28.153  0.00  0.00    +0.217 C 
ATOM     21  N   UNL A   1     -22.866   1.004  29.597  0.00  0.00    -0.116 NA
BRANCH  20  22
ATOM     22  C   UNL A   1     -22.008   1.369  27.377  0.00  0.00    +0.386 C 
ATOM     23  O   UNL A   1     -20.864   1.586  27.955  0.00  0.00    -0.244 OA
ATOM     24  OXT UNL A   1     -22.192   1.752  26.297  0.00  0.00    -0.244 OA
ENDBRANCH  20  22
ENDBRANCH   4  20
BRANCH   1  25
ATOM     25  C   UNL A   1     -24.855  -1.012  30.143  0.00  0.00    +0.111 C 
BRANCH  25  26
ATOM     26  C   UNL A   1     -24.973  -2.505  29.788  0.00  0.00    -0.003 C 
ATOM     27  C   UNL A   1     -23.906  -3.173  29.146  0.00  0.00    -0.003 C 
ATOM     28  C   UNL A   1     -23.989  -4.549  28.853  0.00  0.00    -0.000 C 
ATOM     29  C   UNL A   1     -25.137  -5.280  29.205  0.00  0.00    -0.000 C 
ATOM     30  C   UNL A   1     -26.232  -4.611  29.784  0.00  0.00    -0.000 C 
ATOM     31  C   UNL A   1     -26.155  -3.232  30.065  0.00  0.00    -0.003 C 
ENDBRANCH  25  26
BRANCH  25  32
ATOM     32  C   UNL A   1     -25.387  -0.679  31.571  0.00  0.00    +0.095 C 
ATOM     33  C   UNL A   1     -25.189   0.773  32.028  0.00  0.00    +0.021 C 
ATOM     34  C   UNL A   1     -25.336   0.684  33.544  0.00  0.00    +0.020 C 
ATOM     35  C   UNL A   1     -24.829  -0.715  33.905  0.00  0.00    +0.089 C 
ATOM     36  N   UNL A   1     -24.758  -1.481  32.646  0.00  0.00    -0.217 NA
ENDBRANCH  25  32
ENDBRANCH   1  25
BRANCH   2  37
ATOM     37  C   UNL A   1     -28.268   0.101  29.009  0.00  0.00    +0.090 C 
BRANCH  37  38
ATOM     38  C   UNL A   1     -29.310   0.938  28.357  0.00  0.00    +0.153 C 
ATOM     39  C   UNL A   1     -29.922   2.164  29.006  0.00  0.00    +0.072 C 
ATOM     40  O   UNL A   1     -29.661   0.636  27.257  0.00  0.00    -0.296 OA
ENDBRANCH  37  38
ENDBRANCH   2  37
TORSDOF 12
