MODEL 665
MODEL 1
REMARK VINA RESULT:    -4.541      0.000      0.000
REMARK INTER + INTRA:          -4.541
REMARK INTER:                  -4.541
REMARK INTRA:                   0.000
REMARK UNBOUND:                 0.000
REMARK  Name = No_665-gen_results/8p0m/2024-11-27-11-27-31/
REMARK  0 active torsions:
REMARK  status: ('A' for Active; 'I' for Inactive)
REMARK                            x       y       z     vdW  Elec       q    Type
REMARK                         _______ _______ _______ _____ _____    ______ ____
ROOT
ATOM      1 CL   UNL A   1      -7.245  -9.822  20.805  0.00  0.00    -0.082 Cl
ATOM      2  C   UNL A   1      -8.070  -9.912  19.908  0.00  0.00    +0.058 A 
ATOM      3  C   UNL A   1      -7.951 -10.578  18.843  0.00  0.00    +0.011 A 
ATOM      4  C   UNL A   1      -9.027 -10.621  17.920  0.00  0.00    +0.001 A 
ATOM      5  C   UNL A   1     -10.194  -9.904  18.134  0.00  0.00    +0.000 A 
ATOM      6  C   UNL A   1     -10.366  -9.172  19.296  0.00  0.00    +0.001 A 
ATOM      7  C   UNL A   1      -9.379  -9.205  20.192  0.00  0.00    +0.011 A 
ENDROOT
TORSDOF 0
ENDMDL
ENDMDL
