REMARK  Name = outputs/IAG933/test6/raw/output_6662_IAG933_linker_design_.xyz
REMARK  14 active torsions:
REMARK  status: ('A' for Active; 'I' for Inactive)
REMARK    1  A    between atoms: C_1  and  C_2
REMARK    2  A    between atoms: C_1  and  C_8
REMARK    3  A    between atoms: C_1  and  N_38
REMARK    4  A    between atoms: C_13  and  N_30
REMARK    5  A    between atoms: C_14  and  C_15
REMARK    6  A    between atoms: C_21  and  O_22
REMARK    7  A    between atoms: O_22  and  C_23
REMARK    8  A    between atoms: C_23  and  C_24
REMARK    9  A    between atoms: C_28  and  C_42
REMARK   10  A    between atoms: N_30  and  C_32
REMARK   11  A    between atoms: C_31  and  C_36
REMARK   12  A    between atoms: C_31  and  N_38
REMARK   13  A    between atoms: C_34  and  C_37
REMARK   14  A    between atoms: C_34  and  N_38
REMARK                            x       y       z     vdW  Elec       q    Type
REMARK                         _______ _______ _______ _____ _____    ______ ____
ROOT
ATOM      1  C   UNL A   1     -23.587   1.509  27.203  0.00  0.00    +0.192 C 
ATOM      2  C   UNL A   1     -20.748   1.245  27.148  0.00  0.00    +0.214 C 
ATOM      3  C   UNL A   1     -22.896   1.889  26.086  0.00  0.00    +0.337 C 
ATOM      4  C   UNL A   1     -22.744   1.028  28.261  0.00  0.00    +0.056 C 
ATOM      5  O   UNL A   1     -23.474   2.262  25.005  0.00  0.00    -0.248 OA
ATOM      6  O   UNL A   1     -21.437   1.931  26.042  0.00  0.00    -0.447 OA
ATOM      7  C   UNL A   1     -21.436   0.739  28.064  0.00  0.00    +0.112 C 
ENDROOT
BRANCH   7   8
ATOM      8  C   UNL A   1     -20.952  -0.118  28.927  0.00  0.00    +0.313 C 
ATOM      9  F   UNL A   1     -21.815  -0.546  30.069  0.00  0.00    -0.201 F 
ATOM     10  O   UNL A   1     -19.994  -0.524  27.932  0.00  0.00    -0.184 OA
ENDBRANCH   7   8
BRANCH   1  11
ATOM     11  N   UNL A   1     -24.541   1.372  26.948  0.00  0.00    -0.225 NA
BRANCH  11  12
ATOM     12  C   UNL A   1     -25.688   1.614  26.461  0.00  0.00    +0.104 C 
ATOM     13  C   UNL A   1     -26.250   2.920  26.395  0.00  0.00    +0.091 C 
ATOM     14  C   UNL A   1     -27.438   3.091  25.645  0.00  0.00    +0.108 C 
ATOM     15  N   UNL A   1     -28.075   2.089  25.003  0.00  0.00    -0.208 NA
ATOM     16  C   UNL A   1     -27.543   0.849  25.079  0.00  0.00    +0.255 C 
ATOM     17  C   UNL A   1     -26.354   0.576  25.777  0.00  0.00    +0.208 C 
ATOM     18  F   UNL A   1     -25.860  -0.681  25.795  0.00  0.00    -0.198 F 
BRANCH  13  19
ATOM     19  C   UNL A   1     -25.642   4.093  27.123  0.00  0.00    +0.268 C 
ATOM     20  N   UNL A   1     -25.614   5.252  26.449  0.00  0.00    -0.200 NA
ATOM     21  C   UNL A   1     -25.026   6.479  26.963  0.00  0.00    +0.139 C 
ATOM     22  O   UNL A   1     -25.143   3.966  28.243  0.00  0.00    -0.268 OA
ENDBRANCH  13  19
BRANCH  16  23
ATOM     23  O   UNL A   1     -28.193  -0.208  24.477  0.00  0.00    -0.456 OA
BRANCH  23  24
ATOM     24  C   UNL A   1     -29.460   0.005  23.866  0.00  0.00    +0.243 C 
BRANCH  24  25
ATOM     25  C   UNL A   1     -30.065  -1.377  23.573  0.00  0.00    +0.229 C 
ATOM     26  O   UNL A   1     -30.729  -1.878  24.721  0.00  0.00    -0.216 OA
ENDBRANCH  24  25
ENDBRANCH  23  24
ENDBRANCH  16  23
ENDBRANCH  11  12
ENDBRANCH   1  11
BRANCH   4  27
ATOM     27  C   UNL A   1     -23.711   1.051  29.395  0.00  0.00    +0.075 C 
BRANCH  27  28
ATOM     28  N   UNL A   1     -24.911   0.197  29.322  0.00  0.00    -0.267 NA
BRANCH  28  29
ATOM     29  C   UNL A   1     -24.855  -1.012  30.143  0.00  0.00    +0.096 C 
BRANCH  29  30
ATOM     30  C   UNL A   1     -24.973  -2.505  29.788  0.00  0.00    -0.006 C 
ATOM     31  C   UNL A   1     -23.906  -3.173  29.146  0.00  0.00    -0.003 C 
ATOM     32  C   UNL A   1     -23.989  -4.549  28.853  0.00  0.00    -0.000 C 
ATOM     33  C   UNL A   1     -25.137  -5.280  29.205  0.00  0.00    -0.000 C 
ATOM     34  C   UNL A   1     -26.232  -4.611  29.784  0.00  0.00    -0.000 C 
ATOM     35  C   UNL A   1     -26.155  -3.232  30.065  0.00  0.00    -0.003 C 
ENDBRANCH  29  30
BRANCH  29  36
ATOM     36  C   UNL A   1     -25.387  -0.679  31.571  0.00  0.00    +0.092 C 
ATOM     37  C   UNL A   1     -25.189   0.773  32.028  0.00  0.00    +0.021 C 
ATOM     38  C   UNL A   1     -25.336   0.684  33.544  0.00  0.00    +0.020 C 
ATOM     39  C   UNL A   1     -24.829  -0.715  33.905  0.00  0.00    +0.089 C 
ATOM     40  N   UNL A   1     -24.758  -1.481  32.646  0.00  0.00    -0.218 NA
ENDBRANCH  29  36
ENDBRANCH  28  29
BRANCH  28  41
ATOM     41  C   UNL A   1     -26.086   1.006  29.177  0.00  0.00    +0.108 C 
BRANCH  41  43
ATOM     42  O   UNL A   1     -27.583  -0.953  28.488  0.00  0.00    -0.219 OA
ATOM     43  C   UNL A   1     -26.979  -0.095  28.789  0.00  0.00    +0.199 C 
ENDBRANCH  41  43
ENDBRANCH  28  41
ENDBRANCH  27  28
ENDBRANCH   4  27
TORSDOF 14
