REMARK  Name = outputs/IAG933/test6/raw/output_6663_IAG933_linker_design_.xyz
REMARK  16 active torsions:
REMARK  status: ('A' for Active; 'I' for Inactive)
REMARK    1  A    between atoms: C_1  and  C_2
REMARK    2  A    between atoms: C_1  and  C_8
REMARK    3  A    between atoms: C_1  and  N_36
REMARK    4  A    between atoms: C_14  and  C_15
REMARK    5  A    between atoms: C_15  and  O_18
REMARK    6  A    between atoms: O_18  and  C_29
REMARK    7  A    between atoms: C_21  and  O_22
REMARK    8  A    between atoms: O_22  and  C_23
REMARK    9  A    between atoms: C_23  and  C_24
REMARK   10  A    between atoms: C_29  and  C_32
REMARK   11  A    between atoms: C_29  and  C_33
REMARK   12  A    between atoms: C_30  and  C_33
REMARK   13  A    between atoms: C_31  and  C_33
REMARK   14  A    between atoms: C_34  and  C_38
REMARK   15  A    between atoms: N_36  and  C_38
REMARK   16  A    between atoms: N_36  and  C_39
REMARK                            x       y       z     vdW  Elec       q    Type
REMARK                         _______ _______ _______ _____ _____    ______ ____
ROOT
ATOM      1  C   UNL A   1     -25.651   3.260  29.335  0.00  0.00    +0.197 C 
ENDROOT
BRANCH   1   2
ATOM      2  C   UNL A   1     -25.121   2.170  29.456  0.00  0.00    +0.033 C 
ATOM      3  C   UNL A   1     -24.533   1.009  28.879  0.00  0.00    +0.061 C 
BRANCH   3   4
ATOM      4  N   UNL A   1     -23.854  -0.072  29.626  0.00  0.00    -0.292 N 
BRANCH   4   5
ATOM      5  C   UNL A   1     -24.855  -1.012  30.143  0.00  0.00    +0.112 C 
BRANCH   5   6
ATOM      6  C   UNL A   1     -24.973  -2.505  29.788  0.00  0.00    -0.003 C 
ATOM      7  C   UNL A   1     -23.906  -3.173  29.146  0.00  0.00    -0.003 C 
ATOM      8  C   UNL A   1     -23.989  -4.549  28.853  0.00  0.00    -0.000 C 
ATOM      9  C   UNL A   1     -25.137  -5.280  29.205  0.00  0.00    -0.000 C 
ATOM     10  C   UNL A   1     -26.232  -4.611  29.784  0.00  0.00    -0.000 C 
ATOM     11  C   UNL A   1     -26.155  -3.232  30.065  0.00  0.00    -0.003 C 
ENDBRANCH   5   6
BRANCH   5  12
ATOM     12  C   UNL A   1     -25.387  -0.679  31.571  0.00  0.00    +0.095 C 
ATOM     13  C   UNL A   1     -25.189   0.773  32.028  0.00  0.00    +0.021 C 
ATOM     14  C   UNL A   1     -25.336   0.684  33.544  0.00  0.00    +0.020 C 
ATOM     15  C   UNL A   1     -24.829  -0.715  33.905  0.00  0.00    +0.089 C 
ATOM     16  N   UNL A   1     -24.758  -1.481  32.646  0.00  0.00    -0.217 NA
ENDBRANCH   5  12
ENDBRANCH   4   5
BRANCH   4  17
ATOM     17  C   UNL A   1     -22.662  -0.302  29.303  0.00  0.00    +0.169 C 
BRANCH  17  18
ATOM     18  C   UNL A   1     -21.978   0.580  28.520  0.00  0.00    -0.069 C 
ATOM     19  C   UNL A   1     -21.528   2.092  26.492  0.00  0.00    +0.090 C 
ATOM     20  C   UNL A   1     -21.633   1.335  27.555  0.00  0.00    -0.088 C 
ENDBRANCH  17  18
ENDBRANCH   4  17
ENDBRANCH   3   4
ENDBRANCH   1   2
BRANCH   1  21
ATOM     21  C   UNL A   1     -26.623   3.736  30.384  0.00  0.00    +0.096 C 
BRANCH  21  22
ATOM     22  C   UNL A   1     -25.944   4.862  31.118  0.00  0.00    -0.016 C 
ATOM     23  C   UNL A   1     -25.632   6.141  30.626  0.00  0.00    -0.004 C 
ATOM     24  C   UNL A   1     -25.540   4.503  32.388  0.00  0.00    -0.004 C 
ATOM     25  C   UNL A   1     -24.685   5.333  33.126  0.00  0.00    -0.000 C 
ATOM     26  C   UNL A   1     -24.748   6.990  31.348  0.00  0.00    -0.000 C 
ATOM     27  C   UNL A   1     -24.317   6.585  32.622  0.00  0.00    -0.000 C 
ENDBRANCH  21  22
BRANCH  21  29
ATOM     28  O   UNL A   1     -28.685   2.484  29.673  0.00  0.00    -0.351 OA
ATOM     29  C   UNL A   1     -28.078   4.043  29.899  0.00  0.00    +0.153 C 
ATOM     30  C   UNL A   1     -29.007   3.444  28.900  0.00  0.00    +0.172 C 
ENDBRANCH  21  29
ENDBRANCH   1  21
BRANCH   1  31
ATOM     31  O   UNL A   1     -25.143   3.966  28.243  0.00  0.00    -0.459 OA
BRANCH  31  32
ATOM     32  C   UNL A   1     -25.642   4.093  27.123  0.00  0.00    +0.222 C 
ATOM     33  N   UNL A   1     -25.614   5.252  26.449  0.00  0.00    -0.236 NA
ATOM     34  C   UNL A   1     -25.026   6.479  26.963  0.00  0.00    +0.155 C 
BRANCH  32  36
ATOM     35  C   UNL A   1     -25.688   1.614  26.461  0.00  0.00    +0.041 C 
ATOM     36  C   UNL A   1     -26.250   2.920  26.395  0.00  0.00    +0.074 C 
ATOM     37  C   UNL A   1     -27.438   3.091  25.645  0.00  0.00    +0.107 C 
ATOM     38  N   UNL A   1     -28.075   2.089  25.003  0.00  0.00    -0.208 NA
ATOM     39  C   UNL A   1     -27.543   0.849  25.079  0.00  0.00    +0.253 C 
ATOM     40  C   UNL A   1     -26.354   0.576  25.777  0.00  0.00    +0.193 C 
ATOM     41  F   UNL A   1     -25.860  -0.681  25.795  0.00  0.00    -0.199 F 
BRANCH  39  42
ATOM     42  O   UNL A   1     -28.193  -0.208  24.477  0.00  0.00    -0.456 OA
BRANCH  42  43
ATOM     43  C   UNL A   1     -29.460   0.005  23.866  0.00  0.00    +0.243 C 
BRANCH  43  44
ATOM     44  C   UNL A   1     -30.065  -1.377  23.573  0.00  0.00    +0.229 C 
ATOM     45  O   UNL A   1     -30.729  -1.878  24.721  0.00  0.00    -0.216 OA
ENDBRANCH  43  44
ENDBRANCH  42  43
ENDBRANCH  39  42
ENDBRANCH  32  36
ENDBRANCH  31  32
ENDBRANCH   1  31
TORSDOF 16
