REMARK  Name = outputs/IAG933/test6/raw/output_6664_IAG933_linker_design_.xyz
REMARK  18 active torsions:
REMARK  status: ('A' for Active; 'I' for Inactive)
REMARK    1  A    between atoms: C_1  and  C_2
REMARK    2  A    between atoms: C_1  and  C_8
REMARK    3  A    between atoms: C_1  and  C_37
REMARK    4  A    between atoms: C_14  and  C_15
REMARK    5  A    between atoms: C_15  and  O_18
REMARK    6  A    between atoms: O_18  and  C_45
REMARK    7  A    between atoms: C_21  and  O_22
REMARK    8  A    between atoms: O_22  and  C_23
REMARK    9  A    between atoms: C_23  and  C_24
REMARK   10  A    between atoms: C_28  and  O_39
REMARK   11  A    between atoms: C_28  and  C_45
REMARK   12  A    between atoms: C_33  and  O_35
REMARK   13  A    between atoms: C_33  and  C_37
REMARK   14  A    between atoms: C_33  and  C_38
REMARK   15  A    between atoms: O_35  and  C_41
REMARK   16  A    between atoms: C_38  and  O_42
REMARK   17  A    between atoms: C_38  and  C_45
REMARK   18  A    between atoms: O_39  and  C_43
REMARK                            x       y       z     vdW  Elec       q    Type
REMARK                         _______ _______ _______ _____ _____    ______ ____
ROOT
ATOM      1  C   UNL A   1     -26.186   3.414  29.356  0.00  0.00    +0.241 C 
ENDROOT
BRANCH   1   2
ATOM      2  C   UNL A   1     -26.399   2.004  29.101  0.00  0.00    +0.199 C 
BRANCH   2   4
ATOM      3  C   UNL A   1     -28.649   1.155  29.582  0.00  0.00    +0.174 C 
ATOM      4  O   UNL A   1     -27.678   1.553  28.591  0.00  0.00    -0.346 OA
ENDBRANCH   2   4
BRANCH   2   5
ATOM      5  C   UNL A   1     -25.315   1.203  28.855  0.00  0.00    +0.200 C 
BRANCH   5   6
ATOM      6  C   UNL A   1     -25.700  -0.315  29.077  0.00  0.00    +0.052 C 
BRANCH   6   7
ATOM      7  C   UNL A   1     -24.855  -1.012  30.143  0.00  0.00    +0.042 C 
BRANCH   7   8
ATOM      8  C   UNL A   1     -24.973  -2.505  29.788  0.00  0.00    -0.021 C 
ATOM      9  C   UNL A   1     -23.906  -3.173  29.146  0.00  0.00    -0.004 C 
ATOM     10  C   UNL A   1     -23.989  -4.549  28.853  0.00  0.00    -0.000 C 
ATOM     11  C   UNL A   1     -25.137  -5.280  29.205  0.00  0.00    -0.000 C 
ATOM     12  C   UNL A   1     -26.232  -4.611  29.784  0.00  0.00    -0.000 C 
ATOM     13  C   UNL A   1     -26.155  -3.232  30.065  0.00  0.00    -0.004 C 
ENDBRANCH   7   8
BRANCH   7  14
ATOM     14  C   UNL A   1     -25.387  -0.679  31.571  0.00  0.00    +0.077 C 
ATOM     15  C   UNL A   1     -25.189   0.773  32.028  0.00  0.00    +0.019 C 
ATOM     16  C   UNL A   1     -25.336   0.684  33.544  0.00  0.00    +0.020 C 
ATOM     17  C   UNL A   1     -24.829  -0.715  33.905  0.00  0.00    +0.089 C 
ATOM     18  N   UNL A   1     -24.758  -1.481  32.646  0.00  0.00    -0.219 NA
ENDBRANCH   7  14
ENDBRANCH   6   7
ENDBRANCH   5   6
BRANCH   5  19
ATOM     19  O   UNL A   1     -24.025   1.765  28.659  0.00  0.00    -0.450 OA
BRANCH  19  22
ATOM     20  C   UNL A   1     -21.972   1.787  27.244  0.00  0.00    +0.121 C 
ATOM     21  O   UNL A   1     -22.200   0.532  29.217  0.00  0.00    -0.250 OA
ATOM     22  C   UNL A   1     -22.837   1.215  28.437  0.00  0.00    +0.318 C 
ENDBRANCH  19  22
ENDBRANCH   5  19
ENDBRANCH   2   5
ENDBRANCH   1   2
BRANCH   1  23
ATOM     23  C   UNL A   1     -27.645   4.197  29.567  0.00  0.00    +0.251 C 
BRANCH  23  24
ATOM     24  O   UNL A   1     -27.122   5.374  30.139  0.00  0.00    -0.471 OA
BRANCH  24  29
ATOM     25  C   UNL A   1     -24.759   4.440  33.429  0.00  0.00    +0.000 C 
ATOM     26  C   UNL A   1     -26.150   4.457  33.522  0.00  0.00    +0.003 C 
ATOM     27  C   UNL A   1     -26.926   4.875  32.460  0.00  0.00    +0.037 C 
ATOM     28  C   UNL A   1     -24.949   5.385  31.227  0.00  0.00    +0.037 C 
ATOM     29  C   UNL A   1     -26.340   5.240  31.257  0.00  0.00    +0.139 C 
ATOM     30  C   UNL A   1     -24.164   4.987  32.310  0.00  0.00    +0.003 C 
ENDBRANCH  24  29
ENDBRANCH  23  24
ENDBRANCH   1  23
BRANCH   1  31
ATOM     31  O   UNL A   1     -25.143   3.966  28.243  0.00  0.00    -0.458 OA
BRANCH  31  32
ATOM     32  C   UNL A   1     -25.642   4.093  27.123  0.00  0.00    +0.222 C 
ATOM     33  N   UNL A   1     -25.614   5.252  26.449  0.00  0.00    -0.236 NA
ATOM     34  C   UNL A   1     -25.026   6.479  26.963  0.00  0.00    +0.155 C 
BRANCH  32  36
ATOM     35  C   UNL A   1     -25.688   1.614  26.461  0.00  0.00    +0.041 C 
ATOM     36  C   UNL A   1     -26.250   2.920  26.395  0.00  0.00    +0.074 C 
ATOM     37  C   UNL A   1     -27.438   3.091  25.645  0.00  0.00    +0.107 C 
ATOM     38  N   UNL A   1     -28.075   2.089  25.003  0.00  0.00    -0.208 NA
ATOM     39  C   UNL A   1     -27.543   0.849  25.079  0.00  0.00    +0.253 C 
ATOM     40  C   UNL A   1     -26.354   0.576  25.777  0.00  0.00    +0.193 C 
ATOM     41  F   UNL A   1     -25.860  -0.681  25.795  0.00  0.00    -0.199 F 
BRANCH  39  42
ATOM     42  O   UNL A   1     -28.193  -0.208  24.477  0.00  0.00    -0.456 OA
BRANCH  42  43
ATOM     43  C   UNL A   1     -29.460   0.005  23.866  0.00  0.00    +0.243 C 
BRANCH  43  44
ATOM     44  C   UNL A   1     -30.065  -1.377  23.573  0.00  0.00    +0.229 C 
ATOM     45  O   UNL A   1     -30.729  -1.878  24.721  0.00  0.00    -0.216 OA
ENDBRANCH  43  44
ENDBRANCH  42  43
ENDBRANCH  39  42
ENDBRANCH  32  36
ENDBRANCH  31  32
ENDBRANCH   1  31
TORSDOF 18
