MODEL 666
MODEL 1
REMARK VINA RESULT:    -7.867      0.000      0.000
REMARK INTER + INTRA:          -7.867
REMARK INTER:                  -7.867
REMARK INTRA:                   0.000
REMARK UNBOUND:                 0.000
REMARK  Name = No_666-gen_results/8p0m/2024-11-27-11-27-31/
REMARK  0 active torsions:
REMARK  status: ('A' for Active; 'I' for Inactive)
REMARK                            x       y       z     vdW  Elec       q    Type
REMARK                         _______ _______ _______ _____ _____    ______ ____
ROOT
ATOM      1  O   UNL A   1     -32.369 -13.063  33.401  0.00  0.00    -0.275 OA
ATOM      2  C   UNL A   1     -31.620 -13.612  32.720  0.00  0.00    +0.227 C 
ATOM      3  C   UNL A   1     -31.327 -13.153  31.451  0.00  0.00    +0.094 C 
ATOM      4  N   UNL A   1     -31.019 -14.916  33.057  0.00  0.00    -0.274 N 
ATOM      5  C   UNL A   1     -30.238 -13.685  30.780  0.00  0.00    +0.050 C 
ATOM      6  C   UNL A   1     -29.935 -13.322  29.426  0.00  0.00    -0.018 A 
ATOM      7  C   UNL A   1     -29.851 -13.982  28.303  0.00  0.00    -0.004 A 
ATOM      8  C   UNL A   1     -29.628 -13.421  27.053  0.00  0.00    -0.000 A 
ATOM      9  C   UNL A   1     -31.338 -15.461  34.290  0.00  0.00    +0.115 C 
ATOM     10  C   UNL A   1     -29.711 -11.837  29.240  0.00  0.00    -0.002 A 
ATOM     11  C   UNL A   1     -29.741 -11.015  30.405  0.00  0.00    +0.019 A 
ATOM     12  C   UNL A   1     -29.251 -12.074  26.961  0.00  0.00    -0.000 A 
ATOM     13  C   UNL A   1     -29.376 -11.293  28.042  0.00  0.00    -0.000 A 
ATOM     14  C   UNL A   1     -28.922 -11.052  31.462  0.00  0.00    -0.001 A 
ATOM     15  C   UNL A   1     -29.014 -10.189  32.524  0.00  0.00    +0.019 A 
ATOM     16  C   UNL A   1     -28.263 -10.355  33.702  0.00  0.00    +0.002 A 
ATOM     17  C   UNL A   1     -27.430 -11.496  33.811  0.00  0.00    -0.000 A 
ATOM     18  C   UNL A   1     -27.242 -12.382  32.755  0.00  0.00    -0.004 A 
ATOM     19  C   UNL A   1     -28.019 -12.238  31.625  0.00  0.00    -0.021 A 
ATOM     20  C   UNL A   1     -30.696  -9.929  30.344  0.00  0.00    +0.099 A 
ATOM     21  C   UNL A   1     -30.559 -15.317  30.559  0.00  0.00    -0.025 C 
ATOM     22  C   UNL A   1     -31.323 -15.806  31.251  0.00  0.00    -0.009 C 
ATOM     23  C   UNL A   1     -31.108 -15.853  31.999  0.00  0.00    +0.120 C 
ATOM     24  C   UNL A   1     -29.919  -9.119  32.459  0.00  0.00    +0.099 A 
ATOM     25  N   UNL A   1     -30.760  -9.117  31.392  0.00  0.00    -0.242 NA
ATOM     26  C   UNL A   1     -28.879 -13.787  31.567  0.00  0.00    +0.035 C 
ENDROOT
TORSDOF 0
ENDMDL
ENDMDL
