REMARK  Name = outputs/IAG933/test6/raw/output_6671_IAG933_linker_design_.xyz
REMARK  11 active torsions:
REMARK  status: ('A' for Active; 'I' for Inactive)
REMARK    1  A    between atoms: C_1  and  C_2
REMARK    2  A    between atoms: C_1  and  C_8
REMARK    3  A    between atoms: C_1  and  N_30
REMARK    4  A    between atoms: C_13  and  C_39
REMARK    5  A    between atoms: C_14  and  C_15
REMARK    6  A    between atoms: C_21  and  O_22
REMARK    7  A    between atoms: O_22  and  C_23
REMARK    8  A    between atoms: C_23  and  C_24
REMARK    9  A    between atoms: C_28  and  C_41
REMARK   10  A    between atoms: N_30  and  C_37
REMARK   11  A    between atoms: C_33  and  C_44
REMARK                            x       y       z     vdW  Elec       q    Type
REMARK                         _______ _______ _______ _____ _____    ______ ____
ROOT
ATOM      1  C   UNL A   1     -22.137   0.165  28.857  0.00  0.00    +0.392 C 
ATOM      2  N   UNL A   1     -23.442   0.479  28.952  0.00  0.00    -0.008 NA
ATOM      3  C   UNL A   1     -23.373   1.792  26.817  0.00  0.00    -0.106 C 
ATOM      4  C   UNL A   1     -24.619   0.513  28.524  0.00  0.00    +0.315 C 
ATOM      5  C   UNL A   1     -24.504   1.339  27.212  0.00  0.00    +0.080 C 
ATOM      6  C   UNL A   1     -21.080   0.955  28.232  0.00  0.00    +0.131 C 
ATOM      7  C   UNL A   1     -20.941   1.809  27.220  0.00  0.00    +0.045 C 
ATOM      8  N   UNL A   1     -21.745  -0.808  29.570  0.00  0.00    +0.192 NA
ATOM      9  C   UNL A   1     -22.471   1.971  26.534  0.00  0.00    +0.026 C 
ENDROOT
BRANCH   5  10
ATOM     10  C   UNL A   1     -25.688   1.614  26.461  0.00  0.00    +0.047 C 
ATOM     11  C   UNL A   1     -26.250   2.920  26.395  0.00  0.00    +0.077 C 
ATOM     12  C   UNL A   1     -27.438   3.091  25.645  0.00  0.00    +0.107 C 
ATOM     13  N   UNL A   1     -28.075   2.089  25.003  0.00  0.00    -0.208 NA
ATOM     14  C   UNL A   1     -27.543   0.849  25.079  0.00  0.00    +0.253 C 
ATOM     15  C   UNL A   1     -26.354   0.576  25.777  0.00  0.00    +0.194 C 
ATOM     16  F   UNL A   1     -25.860  -0.681  25.795  0.00  0.00    -0.199 F 
BRANCH  11  17
ATOM     17  C   UNL A   1     -25.642   4.093  27.123  0.00  0.00    +0.266 C 
ATOM     18  N   UNL A   1     -25.614   5.252  26.449  0.00  0.00    -0.200 NA
ATOM     19  C   UNL A   1     -25.026   6.479  26.963  0.00  0.00    +0.139 C 
ATOM     20  O   UNL A   1     -25.143   3.966  28.243  0.00  0.00    -0.268 OA
ENDBRANCH  11  17
BRANCH  14  21
ATOM     21  O   UNL A   1     -28.193  -0.208  24.477  0.00  0.00    -0.456 OA
BRANCH  21  22
ATOM     22  C   UNL A   1     -29.460   0.005  23.866  0.00  0.00    +0.243 C 
BRANCH  22  23
ATOM     23  C   UNL A   1     -30.065  -1.377  23.573  0.00  0.00    +0.229 C 
ATOM     24  O   UNL A   1     -30.729  -1.878  24.721  0.00  0.00    -0.216 OA
ENDBRANCH  22  23
ENDBRANCH  21  22
ENDBRANCH  14  21
ENDBRANCH   5  10
BRANCH   4  25
ATOM     25  N   UNL A   1     -25.561  -0.132  29.238  0.00  0.00    -0.234 N 
ATOM     26  O   UNL A   1     -27.269   1.467  29.279  0.00  0.00    -0.275 OA
ATOM     27  C   UNL A   1     -27.051   0.284  29.145  0.00  0.00    +0.228 C 
BRANCH  27  28
ATOM     28  C   UNL A   1     -28.233  -0.684  28.882  0.00  0.00    +0.077 C 
ATOM     29  C   UNL A   1     -29.373  -0.322  27.917  0.00  0.00    +0.010 C 
ATOM     30  C   UNL A   1     -29.020  -0.894  30.171  0.00  0.00    +0.010 C 
ENDBRANCH  27  28
BRANCH  25  31
ATOM     31  C   UNL A   1     -24.855  -1.012  30.143  0.00  0.00    +0.118 C 
BRANCH  31  32
ATOM     32  C   UNL A   1     -24.973  -2.505  29.788  0.00  0.00    -0.003 C 
ATOM     33  C   UNL A   1     -23.906  -3.173  29.146  0.00  0.00    -0.003 C 
ATOM     34  C   UNL A   1     -23.989  -4.549  28.853  0.00  0.00    -0.000 C 
ATOM     35  C   UNL A   1     -25.137  -5.280  29.205  0.00  0.00    -0.000 C 
ATOM     36  C   UNL A   1     -26.232  -4.611  29.784  0.00  0.00    -0.000 C 
ATOM     37  C   UNL A   1     -26.155  -3.232  30.065  0.00  0.00    -0.003 C 
ENDBRANCH  31  32
BRANCH  31  38
ATOM     38  C   UNL A   1     -25.387  -0.679  31.571  0.00  0.00    +0.095 C 
ATOM     39  C   UNL A   1     -25.189   0.773  32.028  0.00  0.00    +0.021 C 
ATOM     40  C   UNL A   1     -25.336   0.684  33.544  0.00  0.00    +0.020 C 
ATOM     41  C   UNL A   1     -24.829  -0.715  33.905  0.00  0.00    +0.089 C 
ATOM     42  N   UNL A   1     -24.758  -1.481  32.646  0.00  0.00    -0.217 NA
ENDBRANCH  31  38
ENDBRANCH  25  31
ENDBRANCH   4  25
BRANCH   9  44
ATOM     43  F   UNL A   1     -23.427   1.436  24.566  0.00  0.00    -0.229 F 
ATOM     44  C   UNL A   1     -22.578   2.061  25.462  0.00  0.00    +0.223 C 
ENDBRANCH   9  44
TORSDOF 11
