REMARK  Name = outputs/IAG933/test6/raw/output_6675_IAG933_linker_design_.xyz
REMARK  16 active torsions:
REMARK  status: ('A' for Active; 'I' for Inactive)
REMARK    1  A    between atoms: C_1  and  C_2
REMARK    2  A    between atoms: C_1  and  C_8
REMARK    3  A    between atoms: C_1  and  N_44
REMARK    4  A    between atoms: C_14  and  C_15
REMARK    5  A    between atoms: C_15  and  O_18
REMARK    6  A    between atoms: O_18  and  C_34
REMARK    7  A    between atoms: C_21  and  O_22
REMARK    8  A    between atoms: O_22  and  C_23
REMARK    9  A    between atoms: C_23  and  C_24
REMARK   10  A    between atoms: N_30  and  C_33
REMARK   11  A    between atoms: N_30  and  C_34
REMARK   12  A    between atoms: C_34  and  N_35
REMARK   13  A    between atoms: N_36  and  N_44
REMARK   14  A    between atoms: C_37  and  C_46
REMARK   15  A    between atoms: O_41  and  C_46
REMARK   16  A    between atoms: N_44  and  C_46
REMARK                            x       y       z     vdW  Elec       q    Type
REMARK                         _______ _______ _______ _____ _____    ______ ____
ROOT
ATOM      1  C   UNL A   1     -25.571   2.936  29.062  0.00  0.00    +0.377 C 
ENDROOT
BRANCH   1   2
ATOM      2  N   UNL A   1     -24.643   1.892  29.150  0.00  0.00    -0.098 NA
ATOM      3  N   UNL A   1     -24.860   0.810  29.330  0.00  0.00    -0.075 NA
BRANCH   3   4
ATOM      4  N   UNL A   1     -23.960  -0.199  29.600  0.00  0.00    -0.184 N 
BRANCH   4   5
ATOM      5  C   UNL A   1     -24.855  -1.012  30.143  0.00  0.00    +0.134 C 
BRANCH   5   6
ATOM      6  C   UNL A   1     -24.973  -2.505  29.788  0.00  0.00    -0.001 C 
ATOM      7  C   UNL A   1     -23.906  -3.173  29.146  0.00  0.00    -0.003 C 
ATOM      8  C   UNL A   1     -23.989  -4.549  28.853  0.00  0.00    -0.000 C 
ATOM      9  C   UNL A   1     -25.137  -5.280  29.205  0.00  0.00    -0.000 C 
ATOM     10  C   UNL A   1     -26.232  -4.611  29.784  0.00  0.00    -0.000 C 
ATOM     11  C   UNL A   1     -26.155  -3.232  30.065  0.00  0.00    -0.003 C 
ENDBRANCH   5   6
BRANCH   5  12
ATOM     12  C   UNL A   1     -25.387  -0.679  31.571  0.00  0.00    +0.097 C 
ATOM     13  C   UNL A   1     -25.189   0.773  32.028  0.00  0.00    +0.021 C 
ATOM     14  C   UNL A   1     -25.336   0.684  33.544  0.00  0.00    +0.020 C 
ATOM     15  C   UNL A   1     -24.829  -0.715  33.905  0.00  0.00    +0.089 C 
ATOM     16  N   UNL A   1     -24.758  -1.481  32.646  0.00  0.00    -0.217 NA
ENDBRANCH   5  12
ENDBRANCH   4   5
BRANCH   4  17
ATOM     17  C   UNL A   1     -23.011   0.300  28.999  0.00  0.00    +0.243 C 
BRANCH  17  18
ATOM     18  O   UNL A   1     -21.798  -0.078  29.054  0.00  0.00    -0.332 OA
ATOM     19  C   UNL A   1     -20.666   0.050  28.637  0.00  0.00    +0.176 C 
ENDBRANCH  17  18
BRANCH  17  20
ATOM     20  C   UNL A   1     -22.791   1.183  27.988  0.00  0.00    +0.234 C 
ATOM     21  O   UNL A   1     -21.806   1.915  27.349  0.00  0.00    -0.216 OA
ENDBRANCH  17  20
ENDBRANCH   4  17
ENDBRANCH   3   4
ENDBRANCH   1   2
BRANCH   1  22
ATOM     22  N   UNL A   1     -26.753   3.012  29.612  0.00  0.00    -0.147 NA
BRANCH  22  27
ATOM     23  O   UNL A   1     -25.844   5.539  30.761  0.00  0.00    -0.274 OA
ATOM     24  C   UNL A   1     -27.972   6.258  30.197  0.00  0.00    +0.123 C 
ATOM     25  C   UNL A   1     -28.984   3.536  30.280  0.00  0.00    +0.167 C 
ATOM     26  O   UNL A   1     -27.290   5.079  32.401  0.00  0.00    -0.274 OA
ATOM     27  C   UNL A   1     -27.525   3.691  30.615  0.00  0.00    +0.192 C 
ATOM     28  C   UNL A   1     -30.153   6.113  31.111  0.00  0.00    +0.032 C 
ATOM     29  C   UNL A   1     -27.175   5.120  31.004  0.00  0.00    +0.371 C 
ATOM     30  O   UNL A   1     -29.415   4.469  29.340  0.00  0.00    -0.354 OA
ATOM     31  C   UNL A   1     -29.372   5.807  29.831  0.00  0.00    +0.123 C 
ENDBRANCH  22  27
ENDBRANCH   1  22
BRANCH   1  32
ATOM     32  O   UNL A   1     -25.143   3.966  28.243  0.00  0.00    -0.426 OA
BRANCH  32  33
ATOM     33  C   UNL A   1     -25.642   4.093  27.123  0.00  0.00    +0.225 C 
ATOM     34  N   UNL A   1     -25.614   5.252  26.449  0.00  0.00    -0.236 NA
ATOM     35  C   UNL A   1     -25.026   6.479  26.963  0.00  0.00    +0.155 C 
BRANCH  33  37
ATOM     36  C   UNL A   1     -25.688   1.614  26.461  0.00  0.00    +0.041 C 
ATOM     37  C   UNL A   1     -26.250   2.920  26.395  0.00  0.00    +0.074 C 
ATOM     38  C   UNL A   1     -27.438   3.091  25.645  0.00  0.00    +0.107 C 
ATOM     39  N   UNL A   1     -28.075   2.089  25.003  0.00  0.00    -0.208 NA
ATOM     40  C   UNL A   1     -27.543   0.849  25.079  0.00  0.00    +0.253 C 
ATOM     41  C   UNL A   1     -26.354   0.576  25.777  0.00  0.00    +0.193 C 
ATOM     42  F   UNL A   1     -25.860  -0.681  25.795  0.00  0.00    -0.199 F 
BRANCH  40  43
ATOM     43  O   UNL A   1     -28.193  -0.208  24.477  0.00  0.00    -0.456 OA
BRANCH  43  44
ATOM     44  C   UNL A   1     -29.460   0.005  23.866  0.00  0.00    +0.243 C 
BRANCH  44  45
ATOM     45  C   UNL A   1     -30.065  -1.377  23.573  0.00  0.00    +0.229 C 
ATOM     46  O   UNL A   1     -30.729  -1.878  24.721  0.00  0.00    -0.216 OA
ENDBRANCH  44  45
ENDBRANCH  43  44
ENDBRANCH  40  43
ENDBRANCH  33  37
ENDBRANCH  32  33
ENDBRANCH   1  32
TORSDOF 16
