MODEL 667
MODEL 1
REMARK VINA RESULT:    -6.134      0.000      0.000
REMARK INTER + INTRA:          -6.539
REMARK INTER:                  -6.492
REMARK INTRA:                  -0.046
REMARK UNBOUND:                -0.046
REMARK  Name = No_667-gen_results/8p0m/2024-11-27-11-27-31/
REMARK  1 active torsions:
REMARK  status: ('A' for Active; 'I' for Inactive)
REMARK    1  A    between atoms: C_5  and  C_7
REMARK                            x       y       z     vdW  Elec       q    Type
REMARK                         _______ _______ _______ _____ _____    ______ ____
ROOT
ATOM      1  C   UNL A   1     -25.056  -0.733  27.807  0.00  0.00    +0.004 A 
ATOM      2  C   UNL A   1     -24.226   0.022  27.357  0.00  0.00    +0.000 A 
ATOM      3  C   UNL A   1     -23.086   0.364  27.886  0.00  0.00    +0.000 A 
ATOM      4  C   UNL A   1     -22.744  -0.189  29.158  0.00  0.00    +0.000 A 
ATOM      5  C   UNL A   1     -24.728  -1.423  29.041  0.00  0.00    +0.054 A 
ATOM      6  C   UNL A   1     -23.587  -1.116  29.658  0.00  0.00    +0.004 A 
ATOM      7  C   UNL A   1     -24.467   0.737  25.957  0.00  0.00    +0.000 A 
ATOM      8  C   UNL A   1     -23.911   1.989  25.724  0.00  0.00    +0.000 A 
ATOM      9  C   UNL A   1     -22.760   2.365  26.411  0.00  0.00    +0.000 A 
ATOM     10  C   UNL A   1     -22.376   1.668  27.575  0.00  0.00    +0.000 A 
ENDROOT
BRANCH   5  11
ATOM     11  C   UNL A   1     -25.708  -2.418  29.537  0.00  0.00    +0.249 C 
ATOM     12  O   UNL A   1     -26.663  -2.152  30.006  0.00  0.00    -0.270 OA
ATOM     13  N   UNL A   1     -25.352  -3.791  29.252  0.00  0.00    -0.273 N 
ATOM     14  C   UNL A   1     -24.135  -4.287  28.597  0.00  0.00    +0.115 C 
ATOM     15  C   UNL A   1     -26.240  -4.853  29.730  0.00  0.00    +0.115 C 
ENDBRANCH   5  11
TORSDOF 1
ENDMDL
ENDMDL
