REMARK  Name = outputs/IAG933/test6/raw/output_6683_IAG933_linker_design_.xyz
REMARK  9 active torsions:
REMARK  status: ('A' for Active; 'I' for Inactive)
REMARK    1  A    between atoms: C_1  and  C_2
REMARK    2  A    between atoms: C_1  and  C_8
REMARK    3  A    between atoms: C_1  and  C_44
REMARK    4  A    between atoms: C_14  and  C_15
REMARK    5  A    between atoms: C_15  and  O_18
REMARK    6  A    between atoms: O_18  and  C_32
REMARK    7  A    between atoms: C_21  and  O_22
REMARK    8  A    between atoms: O_22  and  C_23
REMARK    9  A    between atoms: C_23  and  C_24
REMARK                            x       y       z     vdW  Elec       q    Type
REMARK                         _______ _______ _______ _____ _____    ______ ____
ROOT
ATOM      1  C   UNL A   1     -26.061   5.952  31.688  0.00  0.00    -0.040 C 
ATOM      2  C   UNL A   1     -29.750   1.663  27.991  0.00  0.00    +0.011 C 
ATOM      3  C   UNL A   1     -25.129   2.470  29.906  0.00  0.00    +0.146 C 
ATOM      4  C   UNL A   1     -27.374   6.428  31.781  0.00  0.00    +0.048 C 
ATOM      5  C   UNL A   1     -25.874   3.426  29.384  0.00  0.00    +0.209 C 
ATOM      6  C   UNL A   1     -30.124   2.558  29.148  0.00  0.00    +0.005 C 
ATOM      7  C   UNL A   1     -26.686   3.913  30.302  0.00  0.00    +0.014 C 
ATOM      8  O   UNL A   1     -22.270   0.452  28.382  0.00  0.00    -0.222 OA
ATOM      9  C   UNL A   1     -28.643   0.712  28.546  0.00  0.00    +0.050 C 
ATOM     10  O   UNL A   1     -22.904   2.607  28.032  0.00  0.00    -0.222 OA
ATOM     11  S   UNL A   1     -27.094  -0.087  28.307  0.00  0.00    -0.121 S 
ATOM     12  N   UNL A   1     -24.519   1.270  29.099  0.00  0.00    -0.231 N 
ATOM     13  C   UNL A   1     -25.894   4.835  31.005  0.00  0.00    -0.009 C 
ATOM     14  C   UNL A   1     -23.152   1.453  28.426  0.00  0.00    +0.448 C 
ATOM     15  C   UNL A   1     -24.850   6.614  32.470  0.00  0.00    +0.027 C 
ATOM     16  C   UNL A   1     -28.917   4.535  31.265  0.00  0.00    -0.009 C 
ATOM     17  C   UNL A   1     -25.419  -0.117  28.867  0.00  0.00    +0.132 C 
ATOM     18  C   UNL A   1     -28.913   2.447  30.032  0.00  0.00    +0.023 C 
ATOM     19  C   UNL A   1     -28.595   5.800  31.628  0.00  0.00    -0.022 C 
ATOM     20  C   UNL A   1     -28.659   1.026  30.051  0.00  0.00    +0.015 C 
ATOM     21  C   UNL A   1     -28.183   3.591  30.560  0.00  0.00    -0.023 C 
ENDROOT
BRANCH  17  22
ATOM     22  C   UNL A   1     -24.855  -1.012  30.143  0.00  0.00    +0.067 C 
BRANCH  22  23
ATOM     23  C   UNL A   1     -24.973  -2.505  29.788  0.00  0.00    -0.019 C 
ATOM     24  C   UNL A   1     -23.906  -3.173  29.146  0.00  0.00    -0.004 C 
ATOM     25  C   UNL A   1     -23.989  -4.549  28.853  0.00  0.00    -0.000 C 
ATOM     26  C   UNL A   1     -25.137  -5.280  29.205  0.00  0.00    -0.000 C 
ATOM     27  C   UNL A   1     -26.232  -4.611  29.784  0.00  0.00    -0.000 C 
ATOM     28  C   UNL A   1     -26.155  -3.232  30.065  0.00  0.00    -0.004 C 
ENDBRANCH  22  23
BRANCH  22  29
ATOM     29  C   UNL A   1     -25.387  -0.679  31.571  0.00  0.00    +0.079 C 
ATOM     30  C   UNL A   1     -25.189   0.773  32.028  0.00  0.00    +0.019 C 
ATOM     31  C   UNL A   1     -25.336   0.684  33.544  0.00  0.00    +0.020 C 
ATOM     32  C   UNL A   1     -24.829  -0.715  33.905  0.00  0.00    +0.089 C 
ATOM     33  N   UNL A   1     -24.758  -1.481  32.646  0.00  0.00    -0.219 NA
ENDBRANCH  22  29
ENDBRANCH  17  22
BRANCH   5  34
ATOM     34  O   UNL A   1     -25.143   3.966  28.243  0.00  0.00    -0.458 OA
BRANCH  34  35
ATOM     35  C   UNL A   1     -25.642   4.093  27.123  0.00  0.00    +0.222 C 
ATOM     36  N   UNL A   1     -25.614   5.252  26.449  0.00  0.00    -0.236 NA
ATOM     37  C   UNL A   1     -25.026   6.479  26.963  0.00  0.00    +0.155 C 
BRANCH  35  39
ATOM     38  C   UNL A   1     -25.688   1.614  26.461  0.00  0.00    +0.041 C 
ATOM     39  C   UNL A   1     -26.250   2.920  26.395  0.00  0.00    +0.074 C 
ATOM     40  C   UNL A   1     -27.438   3.091  25.645  0.00  0.00    +0.107 C 
ATOM     41  N   UNL A   1     -28.075   2.089  25.003  0.00  0.00    -0.208 NA
ATOM     42  C   UNL A   1     -27.543   0.849  25.079  0.00  0.00    +0.253 C 
ATOM     43  C   UNL A   1     -26.354   0.576  25.777  0.00  0.00    +0.193 C 
ATOM     44  F   UNL A   1     -25.860  -0.681  25.795  0.00  0.00    -0.199 F 
BRANCH  42  45
ATOM     45  O   UNL A   1     -28.193  -0.208  24.477  0.00  0.00    -0.456 OA
BRANCH  45  46
ATOM     46  C   UNL A   1     -29.460   0.005  23.866  0.00  0.00    +0.243 C 
BRANCH  46  47
ATOM     47  C   UNL A   1     -30.065  -1.377  23.573  0.00  0.00    +0.229 C 
ATOM     48  O   UNL A   1     -30.729  -1.878  24.721  0.00  0.00    -0.216 OA
ENDBRANCH  46  47
ENDBRANCH  45  46
ENDBRANCH  42  45
ENDBRANCH  35  39
ENDBRANCH  34  35
ENDBRANCH   5  34
TORSDOF 9
