REMARK  Name = outputs/IAG933/test6/raw/output_6685_IAG933_linker_design_.xyz
REMARK  20 active torsions:
REMARK  status: ('A' for Active; 'I' for Inactive)
REMARK    1  A    between atoms: C_1  and  C_2
REMARK    2  A    between atoms: C_1  and  C_8
REMARK    3  A    between atoms: C_1  and  C_41
REMARK    4  A    between atoms: C_13  and  C_28
REMARK    5  A    between atoms: C_14  and  C_15
REMARK    6  A    between atoms: C_21  and  O_22
REMARK    7  A    between atoms: O_22  and  C_23
REMARK    8  A    between atoms: C_23  and  C_24
REMARK    9  A    between atoms: C_28  and  N_29
REMARK   10  A    between atoms: C_28  and  C_43
REMARK   11  A    between atoms: N_29  and  C_41
REMARK   12  A    between atoms: C_31  and  N_38
REMARK   13  A    between atoms: C_32  and  C_36
REMARK   14  A    between atoms: C_32  and  C_41
REMARK   15  A    between atoms: O_35  and  C_40
REMARK   16  A    between atoms: C_36  and  C_39
REMARK   17  A    between atoms: C_37  and  C_43
REMARK   18  A    between atoms: N_38  and  C_42
REMARK   19  A    between atoms: C_39  and  C_42
REMARK   20  A    between atoms: C_40  and  C_43
REMARK                            x       y       z     vdW  Elec       q    Type
REMARK                         _______ _______ _______ _____ _____    ______ ____
ROOT
ATOM      1  C   UNL A   1     -24.836   1.278  27.543  0.00  0.00    +0.105 C 
ENDROOT
BRANCH   1   2
ATOM      2  C   UNL A   1     -25.688   1.614  26.461  0.00  0.00    +0.088 C 
ATOM      3  C   UNL A   1     -26.250   2.920  26.395  0.00  0.00    +0.056 C 
ATOM      4  C   UNL A   1     -27.438   3.091  25.645  0.00  0.00    +0.102 C 
ATOM      5  N   UNL A   1     -28.075   2.089  25.003  0.00  0.00    -0.212 NA
ATOM      6  C   UNL A   1     -27.543   0.849  25.079  0.00  0.00    +0.234 C 
ATOM      7  C   UNL A   1     -26.354   0.576  25.777  0.00  0.00    +0.241 C 
ATOM      8  F   UNL A   1     -25.860  -0.681  25.795  0.00  0.00    -0.227 F 
BRANCH   3   9
ATOM      9  C   UNL A   1     -25.642   4.093  27.123  0.00  0.00    +0.263 C 
ATOM     10  N   UNL A   1     -25.614   5.252  26.449  0.00  0.00    -0.200 NA
ATOM     11  C   UNL A   1     -25.026   6.479  26.963  0.00  0.00    +0.139 C 
ATOM     12  O   UNL A   1     -25.143   3.966  28.243  0.00  0.00    -0.269 OA
ENDBRANCH   3   9
BRANCH   6  13
ATOM     13  O   UNL A   1     -28.193  -0.208  24.477  0.00  0.00    -0.459 OA
BRANCH  13  14
ATOM     14  C   UNL A   1     -29.460   0.005  23.866  0.00  0.00    +0.242 C 
BRANCH  14  15
ATOM     15  C   UNL A   1     -30.065  -1.377  23.573  0.00  0.00    +0.229 C 
ATOM     16  O   UNL A   1     -30.729  -1.878  24.721  0.00  0.00    -0.216 OA
ENDBRANCH  14  15
ENDBRANCH  13  14
ENDBRANCH   6  13
ENDBRANCH   1   2
BRANCH   1  17
ATOM     17  N   UNL A   1     -25.521   0.999  28.720  0.00  0.00    -0.218 NA
BRANCH  17  18
ATOM     18  C   UNL A   1     -25.930  -0.405  29.104  0.00  0.00    +0.078 C 
BRANCH  18  19
ATOM     19  C   UNL A   1     -24.855  -1.012  30.143  0.00  0.00    +0.054 C 
BRANCH  19  20
ATOM     20  C   UNL A   1     -24.973  -2.505  29.788  0.00  0.00    -0.020 C 
ATOM     21  C   UNL A   1     -23.906  -3.173  29.146  0.00  0.00    -0.004 C 
ATOM     22  C   UNL A   1     -23.989  -4.549  28.853  0.00  0.00    -0.000 C 
ATOM     23  C   UNL A   1     -25.137  -5.280  29.205  0.00  0.00    -0.000 C 
ATOM     24  C   UNL A   1     -26.232  -4.611  29.784  0.00  0.00    -0.000 C 
ATOM     25  C   UNL A   1     -26.155  -3.232  30.065  0.00  0.00    -0.004 C 
ENDBRANCH  19  20
BRANCH  19  26
ATOM     26  C   UNL A   1     -25.387  -0.679  31.571  0.00  0.00    +0.078 C 
ATOM     27  C   UNL A   1     -25.189   0.773  32.028  0.00  0.00    +0.019 C 
ATOM     28  C   UNL A   1     -25.336   0.684  33.544  0.00  0.00    +0.020 C 
ATOM     29  C   UNL A   1     -24.829  -0.715  33.905  0.00  0.00    +0.089 C 
ATOM     30  N   UNL A   1     -24.758  -1.481  32.646  0.00  0.00    -0.219 NA
ENDBRANCH  19  26
ENDBRANCH  18  19
BRANCH  18  31
ATOM     31  C   UNL A   1     -27.516  -0.418  29.054  0.00  0.00    +0.018 C 
BRANCH  31  32
ATOM     32  C   UNL A   1     -28.058   0.899  29.658  0.00  0.00    +0.003 C 
BRANCH  32  33
ATOM     33  C   UNL A   1     -29.438   1.337  29.203  0.00  0.00    +0.024 C 
BRANCH  33  34
ATOM     34  C   UNL A   1     -29.881   2.271  30.334  0.00  0.00    +0.125 C 
BRANCH  34  35
ATOM     35  N   UNL A   1     -30.591   3.419  30.082  0.00  0.00    -0.167 NA
BRANCH  35  36
ATOM     36  C   UNL A   1     -31.525   3.803  30.891  0.00  0.00    +0.188 C 
ATOM     37  N   UNL A   1     -32.404   4.206  31.646  0.00  0.00    -0.173 NA
ENDBRANCH  35  36
ENDBRANCH  34  35
ENDBRANCH  33  34
ENDBRANCH  32  33
ENDBRANCH  31  32
ENDBRANCH  18  31
ENDBRANCH  17  18
ENDBRANCH   1  17
BRANCH   1  38
ATOM     38  C   UNL A   1     -23.377   1.490  27.201  0.00  0.00    +0.206 C 
BRANCH  38  40
ATOM     39  O   UNL A   1     -20.921   1.734  27.759  0.00  0.00    -0.249 OA
ATOM     40  C   UNL A   1     -22.209   1.044  28.116  0.00  0.00    +0.333 C 
BRANCH  40  42
ATOM     41  C   UNL A   1     -22.460  -0.380  29.892  0.00  0.00    +0.256 C 
ATOM     42  O   UNL A   1     -22.925   0.824  29.360  0.00  0.00    -0.444 OA
ENDBRANCH  40  42
ENDBRANCH  38  40
BRANCH  38  43
ATOM     43  C   UNL A   1     -22.915   2.226  25.997  0.00  0.00    +0.085 C 
ATOM     44  N   UNL A   1     -22.515   2.920  25.113  0.00  0.00    -0.195 NA
ENDBRANCH  38  43
ENDBRANCH   1  38
TORSDOF 20
