REMARK  Name = outputs/IAG933/test6/raw/output_6686_IAG933_linker_design_.xyz
REMARK  8 active torsions:
REMARK  status: ('A' for Active; 'I' for Inactive)
REMARK    1  A    between atoms: C_1  and  C_2
REMARK    2  A    between atoms: C_13  and  N_40
REMARK    3  A    between atoms: C_14  and  C_15
REMARK    4  A    between atoms: C_21  and  O_22
REMARK    5  A    between atoms: O_22  and  C_23
REMARK    6  A    between atoms: C_23  and  C_24
REMARK    7  A    between atoms: C_33  and  C_35
REMARK    8  A    between atoms: C_34  and  C_36
REMARK                            x       y       z     vdW  Elec       q    Type
REMARK                         _______ _______ _______ _____ _____    ______ ____
ROOT
ATOM      1  C   UNL A   1     -22.241   1.762  27.562  0.00  0.00    +0.182 C 
ATOM      2  F   UNL A   1     -21.073   2.248  27.162  0.00  0.00    -0.200 F 
ATOM      3  C   UNL A   1     -24.644   0.725  28.535  0.00  0.00    +0.109 C 
ATOM      4  C   UNL A   1     -23.420   0.601  29.176  0.00  0.00    -0.004 C 
ATOM      5  C   UNL A   1     -22.228   1.113  28.737  0.00  0.00    +0.030 C 
ATOM      6  N   UNL A   1     -24.582   1.390  27.307  0.00  0.00    -0.258 N 
ATOM      7  F   UNL A   1     -23.382   2.568  25.700  0.00  0.00    -0.185 F 
ATOM      8  C   UNL A   1     -23.421   1.919  26.867  0.00  0.00    +0.224 C 
ENDROOT
BRANCH   3  17
ATOM      9  C   UNL A   1     -24.855  -1.012  30.143  0.00  0.00    +0.047 C 
ATOM     10  C   UNL A   1     -25.387  -0.679  31.571  0.00  0.00    +0.078 C 
ATOM     11  C   UNL A   1     -25.189   0.773  32.028  0.00  0.00    +0.030 C 
ATOM     12  C   UNL A   1     -25.336   0.684  33.544  0.00  0.00    +0.021 C 
ATOM     13  C   UNL A   1     -24.829  -0.715  33.905  0.00  0.00    +0.089 C 
ATOM     14  N   UNL A   1     -24.758  -1.481  32.646  0.00  0.00    -0.219 NA
ATOM     15  O   UNL A   1     -27.709   1.287  29.996  0.00  0.00    -0.296 OA
ATOM     16  C   UNL A   1     -25.966   1.639  31.262  0.00  0.00    +0.099 C 
ATOM     17  C   UNL A   1     -25.757  -0.021  29.317  0.00  0.00    +0.086 C 
ATOM     18  C   UNL A   1     -26.525   1.082  30.210  0.00  0.00    +0.158 C 
BRANCH   9  19
ATOM     19  C   UNL A   1     -24.973  -2.505  29.788  0.00  0.00    -0.021 C 
ATOM     20  C   UNL A   1     -23.906  -3.173  29.146  0.00  0.00    -0.004 C 
ATOM     21  C   UNL A   1     -23.989  -4.549  28.853  0.00  0.00    -0.000 C 
ATOM     22  C   UNL A   1     -25.137  -5.280  29.205  0.00  0.00    -0.000 C 
ATOM     23  C   UNL A   1     -26.232  -4.611  29.784  0.00  0.00    -0.000 C 
ATOM     24  C   UNL A   1     -26.155  -3.232  30.065  0.00  0.00    -0.004 C 
ENDBRANCH   9  19
BRANCH  16  27
ATOM     25  O   UNL A   1     -24.899   5.183  32.978  0.00  0.00    -0.449 OA
ATOM     26  C   UNL A   1     -25.980   4.195  31.148  0.00  0.00    +0.055 C 
ATOM     27  C   UNL A   1     -25.835   2.936  31.765  0.00  0.00    +0.067 C 
ATOM     28  N   UNL A   1     -25.354   2.926  32.953  0.00  0.00    -0.231 NA
ATOM     29  C   UNL A   1     -25.015   4.041  33.606  0.00  0.00    +0.337 C 
ATOM     30  C   UNL A   1     -25.428   5.300  31.768  0.00  0.00    +0.176 C 
ENDBRANCH  16  27
ENDBRANCH   3  17
BRANCH   6  31
ATOM     31  C   UNL A   1     -25.688   1.614  26.461  0.00  0.00    +0.092 C 
ATOM     32  C   UNL A   1     -26.250   2.920  26.395  0.00  0.00    +0.090 C 
ATOM     33  C   UNL A   1     -27.438   3.091  25.645  0.00  0.00    +0.108 C 
ATOM     34  N   UNL A   1     -28.075   2.089  25.003  0.00  0.00    -0.208 NA
ATOM     35  C   UNL A   1     -27.543   0.849  25.079  0.00  0.00    +0.255 C 
ATOM     36  C   UNL A   1     -26.354   0.576  25.777  0.00  0.00    +0.207 C 
ATOM     37  F   UNL A   1     -25.860  -0.681  25.795  0.00  0.00    -0.198 F 
BRANCH  32  38
ATOM     38  C   UNL A   1     -25.642   4.093  27.123  0.00  0.00    +0.268 C 
ATOM     39  N   UNL A   1     -25.614   5.252  26.449  0.00  0.00    -0.200 NA
ATOM     40  C   UNL A   1     -25.026   6.479  26.963  0.00  0.00    +0.139 C 
ATOM     41  O   UNL A   1     -25.143   3.966  28.243  0.00  0.00    -0.268 OA
ENDBRANCH  32  38
BRANCH  35  42
ATOM     42  O   UNL A   1     -28.193  -0.208  24.477  0.00  0.00    -0.456 OA
BRANCH  42  43
ATOM     43  C   UNL A   1     -29.460   0.005  23.866  0.00  0.00    +0.243 C 
BRANCH  43  44
ATOM     44  C   UNL A   1     -30.065  -1.377  23.573  0.00  0.00    +0.229 C 
ATOM     45  O   UNL A   1     -30.729  -1.878  24.721  0.00  0.00    -0.216 OA
ENDBRANCH  43  44
ENDBRANCH  42  43
ENDBRANCH  35  42
ENDBRANCH   6  31
TORSDOF 8
