REMARK  Name = outputs/IAG933/test6/raw/output_6688_IAG933_linker_design_.xyz
REMARK  10 active torsions:
REMARK  status: ('A' for Active; 'I' for Inactive)
REMARK    1  A    between atoms: C_1  and  C_2
REMARK    2  A    between atoms: C_1  and  C_8
REMARK    3  A    between atoms: C_1  and  N_35
REMARK    4  A    between atoms: C_13  and  N_28
REMARK    5  A    between atoms: C_14  and  C_15
REMARK    6  A    between atoms: C_21  and  O_22
REMARK    7  A    between atoms: O_22  and  C_23
REMARK    8  A    between atoms: C_23  and  C_24
REMARK    9  A    between atoms: N_28  and  C_31
REMARK   10  A    between atoms: C_32  and  N_35
REMARK                            x       y       z     vdW  Elec       q    Type
REMARK                         _______ _______ _______ _____ _____    ______ ____
ROOT
ATOM      1  C   UNL A   1     -20.767   0.852  27.862  0.00  0.00    +0.001 C 
ATOM      2  C   UNL A   1     -21.854   1.417  27.192  0.00  0.00    +0.018 C 
ATOM      3  C   UNL A   1     -23.161   1.032  27.549  0.00  0.00    +0.083 C 
ATOM      4  C   UNL A   1     -23.390   0.222  28.676  0.00  0.00    +0.100 C 
ATOM      5  C   UNL A   1     -22.319  -0.333  29.333  0.00  0.00    +0.021 C 
ATOM      6  C   UNL A   1     -20.988  -0.108  28.871  0.00  0.00    +0.002 C 
ENDROOT
BRANCH   4   8
ATOM      7  O   UNL A   1     -25.946   0.371  28.709  0.00  0.00    -0.084 OA
ATOM      8  N   UNL A   1     -24.704  -0.105  29.149  0.00  0.00    -0.202 N 
BRANCH   8   9
ATOM      9  C   UNL A   1     -24.855  -1.012  30.143  0.00  0.00    +0.150 C 
BRANCH   9  10
ATOM     10  C   UNL A   1     -24.973  -2.505  29.788  0.00  0.00    +0.002 C 
ATOM     11  C   UNL A   1     -23.906  -3.173  29.146  0.00  0.00    -0.002 C 
ATOM     12  C   UNL A   1     -23.989  -4.549  28.853  0.00  0.00    -0.000 C 
ATOM     13  C   UNL A   1     -25.137  -5.280  29.205  0.00  0.00    -0.000 C 
ATOM     14  C   UNL A   1     -26.232  -4.611  29.784  0.00  0.00    -0.000 C 
ATOM     15  C   UNL A   1     -26.155  -3.232  30.065  0.00  0.00    -0.002 C 
ENDBRANCH   9  10
BRANCH   9  16
ATOM     16  C   UNL A   1     -25.387  -0.679  31.571  0.00  0.00    +0.100 C 
ATOM     17  C   UNL A   1     -25.189   0.773  32.028  0.00  0.00    +0.021 C 
ATOM     18  C   UNL A   1     -25.336   0.684  33.544  0.00  0.00    +0.020 C 
ATOM     19  C   UNL A   1     -24.829  -0.715  33.905  0.00  0.00    +0.089 C 
ATOM     20  N   UNL A   1     -24.758  -1.481  32.646  0.00  0.00    -0.217 NA
ENDBRANCH   9  16
ENDBRANCH   8   9
ENDBRANCH   4   8
BRANCH   3  21
ATOM     21  N   UNL A   1     -24.251   1.486  26.699  0.00  0.00    -0.230 NA
BRANCH  21  22
ATOM     22  C   UNL A   1     -25.688   1.614  26.461  0.00  0.00    +0.162 C 
ATOM     23  C   UNL A   1     -26.250   2.920  26.395  0.00  0.00    +0.075 C 
ATOM     24  C   UNL A   1     -27.438   3.091  25.645  0.00  0.00    +0.104 C 
ATOM     25  N   UNL A   1     -28.075   2.089  25.003  0.00  0.00    -0.212 NA
ATOM     26  C   UNL A   1     -27.543   0.849  25.079  0.00  0.00    +0.236 C 
ATOM     27  C   UNL A   1     -26.354   0.576  25.777  0.00  0.00    +0.260 C 
ATOM     28  F   UNL A   1     -25.860  -0.681  25.795  0.00  0.00    -0.225 F 
BRANCH  23  29
ATOM     29  C   UNL A   1     -25.642   4.093  27.123  0.00  0.00    +0.264 C 
ATOM     30  N   UNL A   1     -25.614   5.252  26.449  0.00  0.00    -0.200 NA
ATOM     31  C   UNL A   1     -25.026   6.479  26.963  0.00  0.00    +0.139 C 
ATOM     32  O   UNL A   1     -25.143   3.966  28.243  0.00  0.00    -0.269 OA
ENDBRANCH  23  29
BRANCH  26  33
ATOM     33  O   UNL A   1     -28.193  -0.208  24.477  0.00  0.00    -0.459 OA
BRANCH  33  34
ATOM     34  C   UNL A   1     -29.460   0.005  23.866  0.00  0.00    +0.242 C 
BRANCH  34  35
ATOM     35  C   UNL A   1     -30.065  -1.377  23.573  0.00  0.00    +0.229 C 
ATOM     36  O   UNL A   1     -30.729  -1.878  24.721  0.00  0.00    -0.216 OA
ENDBRANCH  34  35
ENDBRANCH  33  34
ENDBRANCH  26  33
ENDBRANCH  21  22
ENDBRANCH   3  21
TORSDOF 10
