MODEL 668
MODEL 1
REMARK VINA RESULT:    -5.191      0.000      0.000
REMARK INTER + INTRA:          -5.191
REMARK INTER:                  -5.191
REMARK INTRA:                   0.000
REMARK UNBOUND:                 0.000
REMARK  Name = No_668-gen_results/8p0m/2024-11-27-11-27-31/
REMARK  0 active torsions:
REMARK  status: ('A' for Active; 'I' for Inactive)
REMARK                            x       y       z     vdW  Elec       q    Type
REMARK                         _______ _______ _______ _____ _____    ______ ____
ROOT
ATOM      1  C   UNL A   1     -25.778  -1.322  30.164  0.00  0.00    +0.099 A 
ATOM      2  C   UNL A   1     -25.550  -2.441  29.767  0.00  0.00    +0.019 A 
ATOM      3  C   UNL A   1     -26.413  -3.505  29.943  0.00  0.00    +0.002 A 
ATOM      4  C   UNL A   1     -26.153  -4.879  29.555  0.00  0.00    +0.000 A 
ATOM      5  C   UNL A   1     -24.924  -5.188  28.931  0.00  0.00    +0.000 A 
ATOM      6  C   UNL A   1     -24.009  -4.089  28.754  0.00  0.00    +0.000 A 
ATOM      7  C   UNL A   1     -24.262  -2.801  29.163  0.00  0.00    +0.003 A 
ATOM      8  N   UNL A   1     -24.788  -0.301  29.934  0.00  0.00    -0.242 NA
ATOM      9  C   UNL A   1     -23.520  -0.599  29.558  0.00  0.00    +0.099 A 
ATOM     10  C   UNL A   1     -23.237  -1.872  29.099  0.00  0.00    +0.021 A 
ENDROOT
TORSDOF 0
ENDMDL
ENDMDL
