REMARK  Name = outputs/IAG933/test6/raw/output_6695_IAG933_linker_design_.xyz
REMARK  10 active torsions:
REMARK  status: ('A' for Active; 'I' for Inactive)
REMARK    1  A    between atoms: C_1  and  C_2
REMARK    2  A    between atoms: C_1  and  C_8
REMARK    3  A    between atoms: C_1  and  N_30
REMARK    4  A    between atoms: C_13  and  C_29
REMARK    5  A    between atoms: C_14  and  C_15
REMARK    6  A    between atoms: C_21  and  O_22
REMARK    7  A    between atoms: O_22  and  C_23
REMARK    8  A    between atoms: C_23  and  C_24
REMARK    9  A    between atoms: C_32  and  O_34
REMARK   10  A    between atoms: O_34  and  C_42
REMARK                            x       y       z     vdW  Elec       q    Type
REMARK                         _______ _______ _______ _____ _____    ______ ____
ROOT
ATOM      1  C   UNL A   1     -20.554   0.804  28.111  0.00  0.00    +0.081 C 
ATOM      2  C   UNL A   1     -24.565   1.181  27.470  0.00  0.00    +0.109 C 
ATOM      3  N   UNL A   1     -24.541  -0.078  29.254  0.00  0.00    -0.242 N 
ATOM      4  C   UNL A   1     -21.753   1.139  27.317  0.00  0.00    +0.128 C 
ATOM      5  O   UNL A   1     -23.182   2.106  30.056  0.00  0.00    -0.186 OA
ATOM      6  N   UNL A   1     -22.418  -0.016  29.827  0.00  0.00    -0.146 NA
ATOM      7  O   UNL A   1     -26.166  -0.622  27.879  0.00  0.00    -0.274 OA
ATOM      8  C   UNL A   1     -25.071   0.085  28.283  0.00  0.00    +0.232 C 
ATOM      9  O   UNL A   1     -21.145  -1.273  28.924  0.00  0.00    -0.203 OA
ATOM     10  C   UNL A   1     -23.121   1.081  28.104  0.00  0.00    +0.102 C 
ATOM     11  C   UNL A   1     -21.072  -0.490  29.174  0.00  0.00    +0.231 C 
ATOM     12  C   UNL A   1     -23.193   1.230  29.330  0.00  0.00    +0.257 C 
ENDROOT
BRANCH   2  13
ATOM     13  C   UNL A   1     -25.688   1.614  26.461  0.00  0.00    +0.025 C 
ATOM     14  C   UNL A   1     -26.250   2.920  26.395  0.00  0.00    +0.073 C 
ATOM     15  C   UNL A   1     -27.438   3.091  25.645  0.00  0.00    +0.106 C 
ATOM     16  N   UNL A   1     -28.075   2.089  25.003  0.00  0.00    -0.208 NA
ATOM     17  C   UNL A   1     -27.543   0.849  25.079  0.00  0.00    +0.253 C 
ATOM     18  C   UNL A   1     -26.354   0.576  25.777  0.00  0.00    +0.190 C 
ATOM     19  F   UNL A   1     -25.860  -0.681  25.795  0.00  0.00    -0.200 F 
BRANCH  14  20
ATOM     20  C   UNL A   1     -25.642   4.093  27.123  0.00  0.00    +0.266 C 
ATOM     21  N   UNL A   1     -25.614   5.252  26.449  0.00  0.00    -0.200 NA
ATOM     22  C   UNL A   1     -25.026   6.479  26.963  0.00  0.00    +0.139 C 
ATOM     23  O   UNL A   1     -25.143   3.966  28.243  0.00  0.00    -0.268 OA
ENDBRANCH  14  20
BRANCH  17  24
ATOM     24  O   UNL A   1     -28.193  -0.208  24.477  0.00  0.00    -0.456 OA
BRANCH  24  25
ATOM     25  C   UNL A   1     -29.460   0.005  23.866  0.00  0.00    +0.243 C 
BRANCH  25  26
ATOM     26  C   UNL A   1     -30.065  -1.377  23.573  0.00  0.00    +0.229 C 
ATOM     27  O   UNL A   1     -30.729  -1.878  24.721  0.00  0.00    -0.216 OA
ENDBRANCH  25  26
ENDBRANCH  24  25
ENDBRANCH  17  24
ENDBRANCH   2  13
BRANCH   3  28
ATOM     28  C   UNL A   1     -24.855  -1.012  30.143  0.00  0.00    +0.117 C 
BRANCH  28  29
ATOM     29  C   UNL A   1     -24.973  -2.505  29.788  0.00  0.00    -0.003 C 
ATOM     30  C   UNL A   1     -23.906  -3.173  29.146  0.00  0.00    -0.003 C 
ATOM     31  C   UNL A   1     -23.989  -4.549  28.853  0.00  0.00    -0.000 C 
ATOM     32  C   UNL A   1     -25.137  -5.280  29.205  0.00  0.00    -0.000 C 
ATOM     33  C   UNL A   1     -26.232  -4.611  29.784  0.00  0.00    -0.000 C 
ATOM     34  C   UNL A   1     -26.155  -3.232  30.065  0.00  0.00    -0.003 C 
ENDBRANCH  28  29
BRANCH  28  35
ATOM     35  C   UNL A   1     -25.387  -0.679  31.571  0.00  0.00    +0.095 C 
ATOM     36  C   UNL A   1     -25.189   0.773  32.028  0.00  0.00    +0.021 C 
ATOM     37  C   UNL A   1     -25.336   0.684  33.544  0.00  0.00    +0.020 C 
ATOM     38  C   UNL A   1     -24.829  -0.715  33.905  0.00  0.00    +0.089 C 
ATOM     39  N   UNL A   1     -24.758  -1.481  32.646  0.00  0.00    -0.217 NA
ENDBRANCH  28  35
ENDBRANCH   3  28
BRANCH   4  40
ATOM     40  O   UNL A   1     -21.360   1.674  26.090  0.00  0.00    -0.327 OA
BRANCH  40  42
ATOM     41  O   UNL A   1     -23.404   2.853  25.334  0.00  0.00    -0.184 OA
ATOM     42  C   UNL A   1     -22.511   2.311  25.597  0.00  0.00    +0.329 C 
ENDBRANCH  40  42
ENDBRANCH   4  40
TORSDOF 10
