REMARK  Name = outputs/IAG933/test6/raw/output_6696_IAG933_linker_design_.xyz
REMARK  11 active torsions:
REMARK  status: ('A' for Active; 'I' for Inactive)
REMARK    1  A    between atoms: C_1  and  C_2
REMARK    2  A    between atoms: C_1  and  C_8
REMARK    3  A    between atoms: C_1  and  C_29
REMARK    4  A    between atoms: C_13  and  C_28
REMARK    5  A    between atoms: C_14  and  C_15
REMARK    6  A    between atoms: C_21  and  O_22
REMARK    7  A    between atoms: O_22  and  C_23
REMARK    8  A    between atoms: C_23  and  C_24
REMARK    9  A    between atoms: C_29  and  C_30
REMARK   10  A    between atoms: C_29  and  N_36
REMARK   11  A    between atoms: C_31  and  C_37
REMARK                            x       y       z     vdW  Elec       q    Type
REMARK                         _______ _______ _______ _____ _____    ______ ____
ROOT
ATOM      1  C   UNL A   1     -24.335   1.397  26.990  0.00  0.00    -0.001 C 
ATOM      2  C   UNL A   1     -24.146   0.682  28.215  0.00  0.00    +0.094 C 
ATOM      3 CL   UNL A   1     -22.648   2.684  25.004  0.00  0.00    -0.083 Cl
ATOM      4  C   UNL A   1     -23.003   1.815  26.512  0.00  0.00    +0.056 C 
ATOM      5  C   UNL A   1     -22.775   0.730  28.464  0.00  0.00    +0.124 C 
ATOM      6  F   UNL A   1     -22.262   0.200  29.565  0.00  0.00    -0.208 F 
ATOM      7  C   UNL A   1     -22.071   1.421  27.488  0.00  0.00    +0.037 C 
ENDROOT
BRANCH   1   8
ATOM      8  C   UNL A   1     -25.688   1.614  26.461  0.00  0.00    +0.035 C 
ATOM      9  C   UNL A   1     -26.250   2.920  26.395  0.00  0.00    +0.076 C 
ATOM     10  C   UNL A   1     -27.438   3.091  25.645  0.00  0.00    +0.107 C 
ATOM     11  N   UNL A   1     -28.075   2.089  25.003  0.00  0.00    -0.208 NA
ATOM     12  C   UNL A   1     -27.543   0.849  25.079  0.00  0.00    +0.253 C 
ATOM     13  C   UNL A   1     -26.354   0.576  25.777  0.00  0.00    +0.193 C 
ATOM     14  F   UNL A   1     -25.860  -0.681  25.795  0.00  0.00    -0.199 F 
BRANCH   9  15
ATOM     15  C   UNL A   1     -25.642   4.093  27.123  0.00  0.00    +0.266 C 
ATOM     16  N   UNL A   1     -25.614   5.252  26.449  0.00  0.00    -0.200 NA
ATOM     17  C   UNL A   1     -25.026   6.479  26.963  0.00  0.00    +0.139 C 
ATOM     18  O   UNL A   1     -25.143   3.966  28.243  0.00  0.00    -0.268 OA
ENDBRANCH   9  15
BRANCH  12  19
ATOM     19  O   UNL A   1     -28.193  -0.208  24.477  0.00  0.00    -0.456 OA
BRANCH  19  20
ATOM     20  C   UNL A   1     -29.460   0.005  23.866  0.00  0.00    +0.243 C 
BRANCH  20  21
ATOM     21  C   UNL A   1     -30.065  -1.377  23.573  0.00  0.00    +0.229 C 
ATOM     22  O   UNL A   1     -30.729  -1.878  24.721  0.00  0.00    -0.216 OA
ENDBRANCH  20  21
ENDBRANCH  19  20
ENDBRANCH  12  19
ENDBRANCH   1   8
BRANCH   2  23
ATOM     23  C   UNL A   1     -25.191  -0.073  28.962  0.00  0.00    +0.111 C 
BRANCH  23  25
ATOM     24  C   UNL A   1     -27.177   1.253  29.279  0.00  0.00    +0.241 C 
ATOM     25  N   UNL A   1     -25.911   1.031  29.606  0.00  0.00    -0.206 NA
ATOM     26  O   UNL A   1     -27.886   0.692  28.418  0.00  0.00    -0.273 OA
BRANCH  24  27
ATOM     27  C   UNL A   1     -27.745   2.407  30.056  0.00  0.00    +0.087 C 
ATOM     28  C   UNL A   1     -28.880   1.868  30.940  0.00  0.00    +0.010 C 
ENDBRANCH  24  27
ENDBRANCH  23  25
BRANCH  23  29
ATOM     29  C   UNL A   1     -24.855  -1.012  30.143  0.00  0.00    +0.059 C 
BRANCH  29  30
ATOM     30  C   UNL A   1     -24.973  -2.505  29.788  0.00  0.00    -0.019 C 
ATOM     31  C   UNL A   1     -23.906  -3.173  29.146  0.00  0.00    -0.004 C 
ATOM     32  C   UNL A   1     -23.989  -4.549  28.853  0.00  0.00    -0.000 C 
ATOM     33  C   UNL A   1     -25.137  -5.280  29.205  0.00  0.00    -0.000 C 
ATOM     34  C   UNL A   1     -26.232  -4.611  29.784  0.00  0.00    -0.000 C 
ATOM     35  C   UNL A   1     -26.155  -3.232  30.065  0.00  0.00    -0.004 C 
ENDBRANCH  29  30
BRANCH  29  36
ATOM     36  C   UNL A   1     -25.387  -0.679  31.571  0.00  0.00    +0.079 C 
ATOM     37  C   UNL A   1     -25.189   0.773  32.028  0.00  0.00    +0.019 C 
ATOM     38  C   UNL A   1     -25.336   0.684  33.544  0.00  0.00    +0.020 C 
ATOM     39  C   UNL A   1     -24.829  -0.715  33.905  0.00  0.00    +0.089 C 
ATOM     40  N   UNL A   1     -24.758  -1.481  32.646  0.00  0.00    -0.219 NA
ENDBRANCH  29  36
ENDBRANCH  23  29
ENDBRANCH   2  23
TORSDOF 11
