MODEL 669
MODEL 1
REMARK VINA RESULT:    -7.703      0.000      0.000
REMARK INTER + INTRA:          -9.921
REMARK INTER:                  -9.054
REMARK INTRA:                  -0.867
REMARK UNBOUND:                -0.867
REMARK  Name = No_669-gen_results/8p0m/2024-11-27-11-27-31/
REMARK  3 active torsions:
REMARK  status: ('A' for Active; 'I' for Inactive)
REMARK    1  A    between atoms: N_3  and  C_7
REMARK    2  A    between atoms: C_6  and  C_13
REMARK    3  A    between atoms: C_13  and  C_14
REMARK                            x       y       z     vdW  Elec       q    Type
REMARK                         _______ _______ _______ _____ _____    ______ ____
ROOT
ATOM      1  C   UNL A   1     -22.508  -0.727  29.321  0.00  0.00    +0.091 C 
ATOM      2  C   UNL A   1     -21.961  -0.019  28.764  0.00  0.00    +0.021 C 
ATOM      3  N   UNL A   1     -23.731  -1.105  28.790  0.00  0.00    -0.307 N 
ATOM      4  C   UNL A   1     -24.659  -0.202  28.425  0.00  0.00    +0.091 C 
ATOM      5  C   UNL A   1     -22.630   1.345  28.449  0.00  0.00    +0.004 C 
ATOM      6  C   UNL A   1     -23.945   1.002  27.858  0.00  0.00    +0.024 C 
ENDROOT
BRANCH   3   7
ATOM      7  C   UNL A   1     -24.170  -2.528  28.878  0.00  0.00    +0.048 A 
ATOM      8  C   UNL A   1     -23.788  -3.431  28.612  0.00  0.00    +0.015 A 
ATOM      9  C   UNL A   1     -25.604  -2.663  29.497  0.00  0.00    +0.015 A 
ATOM     10  C   UNL A   1     -26.132  -3.913  29.673  0.00  0.00    +0.001 A 
ATOM     11  C   UNL A   1     -24.227  -4.822  28.692  0.00  0.00    +0.001 A 
ATOM     12  C   UNL A   1     -25.446  -5.013  29.301  0.00  0.00    +0.000 A 
ENDBRANCH   3   7
BRANCH   6  13
ATOM     13  C   UNL A   1     -23.927   0.965  26.381  0.00  0.00    +0.028 C 
BRANCH  13  14
ATOM     14  C   UNL A   1     -24.854   1.056  25.654  0.00  0.00    -0.022 A 
ATOM     15  C   UNL A   1     -25.231  -0.047  24.817  0.00  0.00    -0.004 A 
ATOM     16  C   UNL A   1     -26.505  -0.231  24.475  0.00  0.00    -0.000 A 
ATOM     17  C   UNL A   1     -27.406   0.904  24.485  0.00  0.00    -0.000 A 
ATOM     18  C   UNL A   1     -27.087   2.027  25.191  0.00  0.00    -0.000 A 
ATOM     19  C   UNL A   1     -25.859   2.094  25.849  0.00  0.00    -0.004 A 
ENDBRANCH  13  14
ENDBRANCH   6  13
TORSDOF 3
ENDMDL
ENDMDL
