REMARK  Name = outputs/IAG933/test6/raw/output_6706_IAG933_linker_design_.xyz
REMARK  11 active torsions:
REMARK  status: ('A' for Active; 'I' for Inactive)
REMARK    1  A    between atoms: C_1  and  C_2
REMARK    2  A    between atoms: C_1  and  C_8
REMARK    3  A    between atoms: C_1  and  N_32
REMARK    4  A    between atoms: C_13  and  C_35
REMARK    5  A    between atoms: C_14  and  C_15
REMARK    6  A    between atoms: C_21  and  O_22
REMARK    7  A    between atoms: O_22  and  C_23
REMARK    8  A    between atoms: C_23  and  C_24
REMARK    9  A    between atoms: C_29  and  C_37
REMARK   10  A    between atoms: N_32  and  C_36
REMARK   11  A    between atoms: C_37  and  N_38
REMARK                            x       y       z     vdW  Elec       q    Type
REMARK                         _______ _______ _______ _____ _____    ______ ____
ROOT
ATOM      1  N   UNL A   1     -24.834   0.070  29.015  0.00  0.00    -0.239 N 
ATOM      2  O   UNL A   1     -27.024   0.478  28.689  0.00  0.00    -0.250 OA
ATOM      3  N   UNL A   1     -25.828   2.067  29.749  0.00  0.00    -0.183 NA
ATOM      4  C   UNL A   1     -26.004   0.919  29.129  0.00  0.00    +0.327 C 
ENDROOT
BRANCH   1   9
ATOM      5  C   UNL A   1     -21.248   1.494  27.961  0.00  0.00    +0.012 C 
ATOM      6  C   UNL A   1     -21.156   2.091  26.703  0.00  0.00    -0.002 C 
ATOM      7  C   UNL A   1     -22.540   0.883  28.495  0.00  0.00    +0.209 C 
ATOM      8  C   UNL A   1     -24.294   1.310  26.790  0.00  0.00    -0.003 C 
ATOM      9  C   UNL A   1     -23.854   0.795  28.083  0.00  0.00    +0.064 C 
ATOM     10  O   UNL A   1     -22.272   0.275  29.703  0.00  0.00    -0.212 OA
ATOM     11  C   UNL A   1     -23.389   1.807  25.671  0.00  0.00    -0.003 C 
ATOM     12  C   UNL A   1     -22.084   2.112  25.668  0.00  0.00    -0.001 C 
BRANCH   8  13
ATOM     13  C   UNL A   1     -25.688   1.614  26.461  0.00  0.00    +0.093 C 
ATOM     14  C   UNL A   1     -26.250   2.920  26.395  0.00  0.00    +0.059 C 
ATOM     15  C   UNL A   1     -27.438   3.091  25.645  0.00  0.00    +0.102 C 
ATOM     16  N   UNL A   1     -28.075   2.089  25.003  0.00  0.00    -0.212 NA
ATOM     17  C   UNL A   1     -27.543   0.849  25.079  0.00  0.00    +0.234 C 
ATOM     18  C   UNL A   1     -26.354   0.576  25.777  0.00  0.00    +0.244 C 
ATOM     19  F   UNL A   1     -25.860  -0.681  25.795  0.00  0.00    -0.227 F 
BRANCH  14  20
ATOM     20  C   UNL A   1     -25.642   4.093  27.123  0.00  0.00    +0.263 C 
ATOM     21  N   UNL A   1     -25.614   5.252  26.449  0.00  0.00    -0.200 NA
ATOM     22  C   UNL A   1     -25.026   6.479  26.963  0.00  0.00    +0.139 C 
ATOM     23  O   UNL A   1     -25.143   3.966  28.243  0.00  0.00    -0.269 OA
ENDBRANCH  14  20
BRANCH  17  24
ATOM     24  O   UNL A   1     -28.193  -0.208  24.477  0.00  0.00    -0.459 OA
BRANCH  24  25
ATOM     25  C   UNL A   1     -29.460   0.005  23.866  0.00  0.00    +0.242 C 
BRANCH  25  26
ATOM     26  C   UNL A   1     -30.065  -1.377  23.573  0.00  0.00    +0.229 C 
ATOM     27  O   UNL A   1     -30.729  -1.878  24.721  0.00  0.00    -0.216 OA
ENDBRANCH  25  26
ENDBRANCH  24  25
ENDBRANCH  17  24
ENDBRANCH   8  13
ENDBRANCH   1   9
BRANCH   1  28
ATOM     28  C   UNL A   1     -24.855  -1.012  30.143  0.00  0.00    +0.119 C 
BRANCH  28  29
ATOM     29  C   UNL A   1     -24.973  -2.505  29.788  0.00  0.00    -0.003 C 
ATOM     30  C   UNL A   1     -23.906  -3.173  29.146  0.00  0.00    -0.003 C 
ATOM     31  C   UNL A   1     -23.989  -4.549  28.853  0.00  0.00    -0.000 C 
ATOM     32  C   UNL A   1     -25.137  -5.280  29.205  0.00  0.00    -0.000 C 
ATOM     33  C   UNL A   1     -26.232  -4.611  29.784  0.00  0.00    -0.000 C 
ATOM     34  C   UNL A   1     -26.155  -3.232  30.065  0.00  0.00    -0.003 C 
ENDBRANCH  28  29
BRANCH  28  35
ATOM     35  C   UNL A   1     -25.387  -0.679  31.571  0.00  0.00    +0.096 C 
ATOM     36  C   UNL A   1     -25.189   0.773  32.028  0.00  0.00    +0.021 C 
ATOM     37  C   UNL A   1     -25.336   0.684  33.544  0.00  0.00    +0.020 C 
ATOM     38  C   UNL A   1     -24.829  -0.715  33.905  0.00  0.00    +0.089 C 
ATOM     39  N   UNL A   1     -24.758  -1.481  32.646  0.00  0.00    -0.217 NA
ENDBRANCH  28  35
ENDBRANCH   1  28
BRANCH   3  40
ATOM     40  C   UNL A   1     -26.618   2.932  30.604  0.00  0.00    +0.143 C 
BRANCH  40  41
ATOM     41  C   UNL A   1     -25.832   3.899  31.518  0.00  0.00    -0.001 C 
ATOM     42  C   UNL A   1     -25.721   6.066  32.568  0.00  0.00    -0.000 C 
ATOM     43  C   UNL A   1     -26.423   5.146  31.781  0.00  0.00    -0.003 C 
ATOM     44  C   UNL A   1     -23.833   4.581  32.797  0.00  0.00    -0.000 C 
ATOM     45  C   UNL A   1     -24.450   5.777  33.063  0.00  0.00    -0.000 C 
ATOM     46  C   UNL A   1     -24.536   3.640  32.049  0.00  0.00    -0.003 C 
ENDBRANCH  40  41
ENDBRANCH   3  40
TORSDOF 11
