MODEL 670
MODEL 1
REMARK VINA RESULT:    -6.188      0.000      0.000
REMARK INTER + INTRA:         -11.480
REMARK INTER:                  -8.720
REMARK INTRA:                  -2.760
REMARK UNBOUND:                -2.760
REMARK  Name = No_670-gen_results/8p0m/2024-11-27-11-27-31/
REMARK  7 active torsions:
REMARK  status: ('A' for Active; 'I' for Inactive)
REMARK    1  A    between atoms: C_2  and  C_21
REMARK    2  A    between atoms: C_3  and  C_7
REMARK    3  A    between atoms: C_6  and  C_18
REMARK    4  A    between atoms: C_7  and  O_9
REMARK    5  A    between atoms: O_9  and  C_10
REMARK    6  A    between atoms: C_10  and  C_11
REMARK    7  A    between atoms: C_11  and  C_12
REMARK                            x       y       z     vdW  Elec       q    Type
REMARK                         _______ _______ _______ _____ _____    ______ ____
ROOT
ATOM      1  C   UNL A   1     -23.078  -0.282  30.734  0.00  0.00    +0.013 A 
ATOM      2  C   UNL A   1     -23.983  -0.690  31.088  0.00  0.00    +0.080 A 
ATOM      3  C   UNL A   1     -22.588  -0.922  29.508  0.00  0.00    +0.076 A 
ATOM      4  C   UNL A   1     -23.140  -2.029  29.007  0.00  0.00    +0.013 A 
ATOM      5  C   UNL A   1     -24.739  -1.868  30.737  0.00  0.00    +0.013 A 
ATOM      6  C   UNL A   1     -24.253  -2.463  29.610  0.00  0.00    +0.080 A 
ENDROOT
BRANCH   6   7
ATOM      7  C   UNL A   1     -24.953  -3.742  29.094  0.00  0.00    +0.388 C 
ATOM      8  O   UNL A   1     -25.908  -4.110  29.398  0.00  0.00    -0.241 OA
ATOM      9  O   UNL A   1     -23.979  -4.593  28.552  0.00  0.00    -0.241 OA
ENDBRANCH   6   7
BRANCH   2  10
ATOM     10  C   UNL A   1     -24.682   0.001  32.433  0.00  0.00    +0.388 C 
ATOM     11  O   UNL A   1     -25.103   1.037  32.444  0.00  0.00    -0.241 OA
ATOM     12  O   UNL A   1     -24.475  -0.719  33.486  0.00  0.00    -0.241 OA
ENDBRANCH   2  10
BRANCH   3  13
ATOM     13  C   UNL A   1     -21.341  -0.293  28.882  0.00  0.00    +0.341 C 
ATOM     14  O   UNL A   1     -20.493  -0.818  28.482  0.00  0.00    -0.245 OA
BRANCH  13  15
ATOM     15  O   UNL A   1     -21.529   1.080  28.565  0.00  0.00    -0.445 OA
BRANCH  15  16
ATOM     16  C   UNL A   1     -21.676   1.539  27.344  0.00  0.00    +0.213 C 
BRANCH  16  17
ATOM     17  C   UNL A   1     -22.984   2.204  27.135  0.00  0.00    +0.074 C 
BRANCH  17  18
ATOM     18  C   UNL A   1     -24.201   1.562  27.316  0.00  0.00    -0.018 A 
ATOM     19  C   UNL A   1     -25.001   1.924  28.379  0.00  0.00    -0.004 A 
ATOM     20  C   UNL A   1     -26.130   1.129  28.683  0.00  0.00    -0.000 A 
ATOM     21  C   UNL A   1     -26.359  -0.074  27.947  0.00  0.00    -0.000 A 
ATOM     22  C   UNL A   1     -25.606  -0.301  26.784  0.00  0.00    -0.000 A 
ATOM     23  C   UNL A   1     -24.482   0.482  26.531  0.00  0.00    -0.004 A 
ENDBRANCH  17  18
ENDBRANCH  16  17
ENDBRANCH  15  16
ENDBRANCH  13  15
ENDBRANCH   3  13
TORSDOF 7
ENDMDL
ENDMDL
