REMARK  Name = outputs/IAG933/test6/raw/output_6710_IAG933_linker_design_.xyz
REMARK  12 active torsions:
REMARK  status: ('A' for Active; 'I' for Inactive)
REMARK    1  A    between atoms: C_1  and  C_2
REMARK    2  A    between atoms: C_1  and  C_8
REMARK    3  A    between atoms: C_1  and  C_41
REMARK    4  A    between atoms: C_13  and  C_34
REMARK    5  A    between atoms: C_14  and  C_15
REMARK    6  A    between atoms: C_21  and  O_22
REMARK    7  A    between atoms: O_22  and  C_23
REMARK    8  A    between atoms: C_23  and  C_24
REMARK    9  A    between atoms: C_31  and  C_45
REMARK   10  A    between atoms: N_35  and  C_45
REMARK   11  A    between atoms: C_41  and  N_43
REMARK   12  A    between atoms: C_41  and  N_46
REMARK                            x       y       z     vdW  Elec       q    Type
REMARK                         _______ _______ _______ _____ _____    ______ ____
ROOT
ATOM      1  C   UNL A   1     -25.390   0.004  29.122  0.00  0.00    +0.148 C 
ENDROOT
BRANCH   1   9
ATOM      2  C   UNL A   1     -27.747   2.713  30.112  0.00  0.00    +0.075 C 
ATOM      3  C   UNL A   1     -26.627   2.046  29.684  0.00  0.00    +0.075 C 
ATOM      4  N   UNL A   1     -28.853   0.624  30.329  0.00  0.00    -0.210 N 
ATOM      5  O   UNL A   1     -30.090   2.529  30.037  0.00  0.00    -0.269 OA
ATOM      6  C   UNL A   1     -27.895   0.049  29.442  0.00  0.00    +0.318 C 
ATOM      7  O   UNL A   1     -28.237  -0.886  28.759  0.00  0.00    -0.252 OA
ATOM      8  C   UNL A   1     -29.016   1.983  30.172  0.00  0.00    +0.257 C 
ATOM      9  N   UNL A   1     -26.645   0.700  29.349  0.00  0.00    -0.229 N 
BRANCH   4  10
ATOM     10  C   UNL A   1     -29.594  -0.007  31.459  0.00  0.00    +0.103 C 
BRANCH  10  11
ATOM     11  C   UNL A   1     -31.168  -0.042  31.313  0.00  0.00    +0.022 C 
ATOM     12  C   UNL A   1     -31.931   0.166  29.960  0.00  0.00    +0.002 C 
ENDBRANCH  10  11
ENDBRANCH   4  10
ENDBRANCH   1   9
BRANCH   1  19
ATOM     13  F   UNL A   1     -20.983   1.351  27.393  0.00  0.00    -0.205 F 
ATOM     14  C   UNL A   1     -22.361   1.117  27.483  0.00  0.00    +0.159 C 
ATOM     15  F   UNL A   1     -22.695   2.092  25.552  0.00  0.00    -0.205 F 
ATOM     16  C   UNL A   1     -24.373   1.292  27.124  0.00  0.00    +0.137 C 
ATOM     17  C   UNL A   1     -23.173   1.599  26.590  0.00  0.00    +0.161 C 
ATOM     18  C   UNL A   1     -22.957   0.624  28.675  0.00  0.00    +0.133 C 
ATOM     19  N   UNL A   1     -24.274   0.575  28.341  0.00  0.00    -0.243 NA
BRANCH  16  20
ATOM     20  C   UNL A   1     -25.688   1.614  26.461  0.00  0.00    +0.037 C 
ATOM     21  C   UNL A   1     -26.250   2.920  26.395  0.00  0.00    +0.074 C 
ATOM     22  C   UNL A   1     -27.438   3.091  25.645  0.00  0.00    +0.106 C 
ATOM     23  N   UNL A   1     -28.075   2.089  25.003  0.00  0.00    -0.208 NA
ATOM     24  C   UNL A   1     -27.543   0.849  25.079  0.00  0.00    +0.253 C 
ATOM     25  C   UNL A   1     -26.354   0.576  25.777  0.00  0.00    +0.191 C 
ATOM     26  F   UNL A   1     -25.860  -0.681  25.795  0.00  0.00    -0.200 F 
BRANCH  21  27
ATOM     27  C   UNL A   1     -25.642   4.093  27.123  0.00  0.00    +0.266 C 
ATOM     28  N   UNL A   1     -25.614   5.252  26.449  0.00  0.00    -0.200 NA
ATOM     29  C   UNL A   1     -25.026   6.479  26.963  0.00  0.00    +0.139 C 
ATOM     30  O   UNL A   1     -25.143   3.966  28.243  0.00  0.00    -0.268 OA
ENDBRANCH  21  27
BRANCH  24  31
ATOM     31  O   UNL A   1     -28.193  -0.208  24.477  0.00  0.00    -0.456 OA
BRANCH  31  32
ATOM     32  C   UNL A   1     -29.460   0.005  23.866  0.00  0.00    +0.243 C 
BRANCH  32  33
ATOM     33  C   UNL A   1     -30.065  -1.377  23.573  0.00  0.00    +0.229 C 
ATOM     34  O   UNL A   1     -30.729  -1.878  24.721  0.00  0.00    -0.216 OA
ENDBRANCH  32  33
ENDBRANCH  31  32
ENDBRANCH  24  31
ENDBRANCH  16  20
ENDBRANCH   1  19
BRANCH   1  35
ATOM     35  C   UNL A   1     -24.855  -1.012  30.143  0.00  0.00    +0.072 C 
BRANCH  35  36
ATOM     36  C   UNL A   1     -24.973  -2.505  29.788  0.00  0.00    -0.018 C 
ATOM     37  C   UNL A   1     -23.906  -3.173  29.146  0.00  0.00    -0.004 C 
ATOM     38  C   UNL A   1     -23.989  -4.549  28.853  0.00  0.00    -0.000 C 
ATOM     39  C   UNL A   1     -25.137  -5.280  29.205  0.00  0.00    -0.000 C 
ATOM     40  C   UNL A   1     -26.232  -4.611  29.784  0.00  0.00    -0.000 C 
ATOM     41  C   UNL A   1     -26.155  -3.232  30.065  0.00  0.00    -0.004 C 
ENDBRANCH  35  36
BRANCH  35  42
ATOM     42  C   UNL A   1     -25.387  -0.679  31.571  0.00  0.00    +0.080 C 
ATOM     43  C   UNL A   1     -25.189   0.773  32.028  0.00  0.00    +0.019 C 
ATOM     44  C   UNL A   1     -25.336   0.684  33.544  0.00  0.00    +0.020 C 
ATOM     45  C   UNL A   1     -24.829  -0.715  33.905  0.00  0.00    +0.089 C 
ATOM     46  N   UNL A   1     -24.758  -1.481  32.646  0.00  0.00    -0.219 NA
ENDBRANCH  35  42
ENDBRANCH   1  35
TORSDOF 12
