REMARK  Name = outputs/IAG933/test6/raw/output_6711_IAG933_linker_design_.xyz
REMARK  12 active torsions:
REMARK  status: ('A' for Active; 'I' for Inactive)
REMARK    1  A    between atoms: C_1  and  C_2
REMARK    2  A    between atoms: C_1  and  C_8
REMARK    3  A    between atoms: C_1  and  C_36
REMARK    4  A    between atoms: C_13  and  C_43
REMARK    5  A    between atoms: C_14  and  C_15
REMARK    6  A    between atoms: C_21  and  O_22
REMARK    7  A    between atoms: O_22  and  C_23
REMARK    8  A    between atoms: C_23  and  C_24
REMARK    9  A    between atoms: O_29  and  C_30
REMARK   10  A    between atoms: O_29  and  C_36
REMARK   11  A    between atoms: C_33  and  C_36
REMARK   12  A    between atoms: O_37  and  C_42
REMARK                            x       y       z     vdW  Elec       q    Type
REMARK                         _______ _______ _______ _____ _____    ______ ____
ROOT
ATOM      1  C   UNL A   1     -23.300   0.435  29.000  0.00  0.00    +0.025 C 
ATOM      2  F   UNL A   1     -19.968   2.031  27.498  0.00  0.00    -0.229 F 
ATOM      3  C   UNL A   1     -24.318   0.580  28.365  0.00  0.00    -0.017 C 
ATOM      4  C   UNL A   1     -23.391   1.537  26.570  0.00  0.00    +0.035 C 
ATOM      5  C   UNL A   1     -22.195  -0.239  28.993  0.00  0.00    +0.008 C 
ATOM      6  C   UNL A   1     -20.992   1.243  27.530  0.00  0.00    +0.217 C 
ATOM      7  C   UNL A   1     -20.979   0.192  28.501  0.00  0.00    +0.043 C 
ATOM      8  C   UNL A   1     -22.043   1.490  26.684  0.00  0.00    +0.148 C 
ATOM      9  C   UNL A   1     -24.463   1.282  27.134  0.00  0.00    -0.000 C 
ENDROOT
BRANCH   9  10
ATOM     10  C   UNL A   1     -25.688   1.614  26.461  0.00  0.00    +0.038 C 
ATOM     11  C   UNL A   1     -26.250   2.920  26.395  0.00  0.00    +0.076 C 
ATOM     12  C   UNL A   1     -27.438   3.091  25.645  0.00  0.00    +0.107 C 
ATOM     13  N   UNL A   1     -28.075   2.089  25.003  0.00  0.00    -0.208 NA
ATOM     14  C   UNL A   1     -27.543   0.849  25.079  0.00  0.00    +0.253 C 
ATOM     15  C   UNL A   1     -26.354   0.576  25.777  0.00  0.00    +0.193 C 
ATOM     16  F   UNL A   1     -25.860  -0.681  25.795  0.00  0.00    -0.199 F 
BRANCH  11  17
ATOM     17  C   UNL A   1     -25.642   4.093  27.123  0.00  0.00    +0.266 C 
ATOM     18  N   UNL A   1     -25.614   5.252  26.449  0.00  0.00    -0.200 NA
ATOM     19  C   UNL A   1     -25.026   6.479  26.963  0.00  0.00    +0.139 C 
ATOM     20  O   UNL A   1     -25.143   3.966  28.243  0.00  0.00    -0.268 OA
ENDBRANCH  11  17
BRANCH  14  21
ATOM     21  O   UNL A   1     -28.193  -0.208  24.477  0.00  0.00    -0.456 OA
BRANCH  21  22
ATOM     22  C   UNL A   1     -29.460   0.005  23.866  0.00  0.00    +0.243 C 
BRANCH  22  23
ATOM     23  C   UNL A   1     -30.065  -1.377  23.573  0.00  0.00    +0.229 C 
ATOM     24  O   UNL A   1     -30.729  -1.878  24.721  0.00  0.00    -0.216 OA
ENDBRANCH  22  23
ENDBRANCH  21  22
ENDBRANCH  14  21
ENDBRANCH   9  10
BRANCH   8  26
ATOM     25  C   UNL A   1     -22.654   2.361  24.435  0.00  0.00    +0.252 C 
ATOM     26  O   UNL A   1     -21.897   1.842  25.486  0.00  0.00    -0.473 OA
ENDBRANCH   8  26
BRANCH   3  27
ATOM     27  C   UNL A   1     -25.419  -0.070  29.053  0.00  0.00    +0.141 C 
BRANCH  27  28
ATOM     28  C   UNL A   1     -24.855  -1.012  30.143  0.00  0.00    +0.070 C 
BRANCH  28  29
ATOM     29  C   UNL A   1     -24.973  -2.505  29.788  0.00  0.00    -0.018 C 
ATOM     30  C   UNL A   1     -23.906  -3.173  29.146  0.00  0.00    -0.004 C 
ATOM     31  C   UNL A   1     -23.989  -4.549  28.853  0.00  0.00    -0.000 C 
ATOM     32  C   UNL A   1     -25.137  -5.280  29.205  0.00  0.00    -0.000 C 
ATOM     33  C   UNL A   1     -26.232  -4.611  29.784  0.00  0.00    -0.000 C 
ATOM     34  C   UNL A   1     -26.155  -3.232  30.065  0.00  0.00    -0.004 C 
ENDBRANCH  28  29
BRANCH  28  35
ATOM     35  C   UNL A   1     -25.387  -0.679  31.571  0.00  0.00    +0.080 C 
ATOM     36  C   UNL A   1     -25.189   0.773  32.028  0.00  0.00    +0.019 C 
ATOM     37  C   UNL A   1     -25.336   0.684  33.544  0.00  0.00    +0.020 C 
ATOM     38  C   UNL A   1     -24.829  -0.715  33.905  0.00  0.00    +0.089 C 
ATOM     39  N   UNL A   1     -24.758  -1.481  32.646  0.00  0.00    -0.219 NA
ENDBRANCH  28  35
ENDBRANCH  27  28
BRANCH  27  40
ATOM     40  O   UNL A   1     -26.137   1.091  29.442  0.00  0.00    -0.326 OA
BRANCH  40  41
ATOM     41  C   UNL A   1     -27.553   1.256  29.304  0.00  0.00    +0.269 C 
ATOM     42  O   UNL A   1     -28.243  -0.001  29.267  0.00  0.00    -0.190 OA
ATOM     43  C   UNL A   1     -27.746   2.417  30.327  0.00  0.00    +0.070 C 
ENDBRANCH  40  41
ENDBRANCH  27  40
ENDBRANCH   3  27
TORSDOF 12
