REMARK  Name = outputs/IAG933/test6/raw/output_6714_IAG933_linker_design_.xyz
REMARK  13 active torsions:
REMARK  status: ('A' for Active; 'I' for Inactive)
REMARK    1  A    between atoms: C_1  and  C_2
REMARK    2  A    between atoms: C_1  and  C_8
REMARK    3  A    between atoms: C_1  and  N_29
REMARK    4  A    between atoms: C_13  and  C_28
REMARK    5  A    between atoms: C_14  and  C_15
REMARK    6  A    between atoms: C_21  and  O_22
REMARK    7  A    between atoms: O_22  and  C_23
REMARK    8  A    between atoms: C_23  and  C_24
REMARK    9  A    between atoms: N_29  and  C_36
REMARK   10  A    between atoms: N_29  and  C_42
REMARK   11  A    between atoms: C_30  and  C_35
REMARK   12  A    between atoms: C_33  and  C_42
REMARK   13  A    between atoms: O_38  and  C_41
REMARK                            x       y       z     vdW  Elec       q    Type
REMARK                         _______ _______ _______ _____ _____    ______ ____
ROOT
ATOM      1  C   UNL A   1     -24.581   1.309  27.296  0.00  0.00    +0.028 C 
ATOM      2  C   UNL A   1     -23.316   1.593  26.759  0.00  0.00    +0.120 C 
ATOM      3  C   UNL A   1     -24.438   0.729  28.554  0.00  0.00    +0.190 C 
ATOM      4  N   UNL A   1     -23.049   0.861  28.931  0.00  0.00    -0.218 NA
ATOM      5  C   UNL A   1     -22.415   1.257  27.772  0.00  0.00    +0.227 C 
ENDROOT
BRANCH   1   6
ATOM      6  C   UNL A   1     -25.688   1.614  26.461  0.00  0.00    +0.038 C 
ATOM      7  C   UNL A   1     -26.250   2.920  26.395  0.00  0.00    +0.076 C 
ATOM      8  C   UNL A   1     -27.438   3.091  25.645  0.00  0.00    +0.107 C 
ATOM      9  N   UNL A   1     -28.075   2.089  25.003  0.00  0.00    -0.208 NA
ATOM     10  C   UNL A   1     -27.543   0.849  25.079  0.00  0.00    +0.253 C 
ATOM     11  C   UNL A   1     -26.354   0.576  25.777  0.00  0.00    +0.193 C 
ATOM     12  F   UNL A   1     -25.860  -0.681  25.795  0.00  0.00    -0.199 F 
BRANCH   7  13
ATOM     13  C   UNL A   1     -25.642   4.093  27.123  0.00  0.00    +0.266 C 
ATOM     14  N   UNL A   1     -25.614   5.252  26.449  0.00  0.00    -0.200 NA
ATOM     15  C   UNL A   1     -25.026   6.479  26.963  0.00  0.00    +0.139 C 
ATOM     16  O   UNL A   1     -25.143   3.966  28.243  0.00  0.00    -0.268 OA
ENDBRANCH   7  13
BRANCH  10  17
ATOM     17  O   UNL A   1     -28.193  -0.208  24.477  0.00  0.00    -0.456 OA
BRANCH  17  18
ATOM     18  C   UNL A   1     -29.460   0.005  23.866  0.00  0.00    +0.243 C 
BRANCH  18  19
ATOM     19  C   UNL A   1     -30.065  -1.377  23.573  0.00  0.00    +0.229 C 
ATOM     20  O   UNL A   1     -30.729  -1.878  24.721  0.00  0.00    -0.216 OA
ENDBRANCH  18  19
ENDBRANCH  17  18
ENDBRANCH  10  17
ENDBRANCH   1   6
BRANCH   2  21
ATOM     21  C   UNL A   1     -23.104   1.963  25.364  0.00  0.00    +0.338 C 
ATOM     22  F   UNL A   1     -23.465   1.027  24.430  0.00  0.00    -0.158 F 
ATOM     23  O   UNL A   1     -22.628   2.999  25.023  0.00  0.00    -0.254 OA
ENDBRANCH   2  21
BRANCH   5  25
ATOM     24  C   UNL A   1     -20.161   1.802  27.936  0.00  0.00    +0.254 C 
ATOM     25  O   UNL A   1     -21.139   1.005  27.383  0.00  0.00    -0.456 OA
ENDBRANCH   5  25
BRANCH   3  26
ATOM     26  N   UNL A   1     -25.327  -0.113  29.145  0.00  0.00    -0.245 NA
BRANCH  26  27
ATOM     27  C   UNL A   1     -24.855  -1.012  30.143  0.00  0.00    +0.098 C 
BRANCH  27  28
ATOM     28  C   UNL A   1     -24.973  -2.505  29.788  0.00  0.00    -0.006 C 
ATOM     29  C   UNL A   1     -23.906  -3.173  29.146  0.00  0.00    -0.003 C 
ATOM     30  C   UNL A   1     -23.989  -4.549  28.853  0.00  0.00    -0.000 C 
ATOM     31  C   UNL A   1     -25.137  -5.280  29.205  0.00  0.00    -0.000 C 
ATOM     32  C   UNL A   1     -26.232  -4.611  29.784  0.00  0.00    -0.000 C 
ATOM     33  C   UNL A   1     -26.155  -3.232  30.065  0.00  0.00    -0.003 C 
ENDBRANCH  27  28
BRANCH  27  34
ATOM     34  C   UNL A   1     -25.387  -0.679  31.571  0.00  0.00    +0.092 C 
ATOM     35  C   UNL A   1     -25.189   0.773  32.028  0.00  0.00    +0.021 C 
ATOM     36  C   UNL A   1     -25.336   0.684  33.544  0.00  0.00    +0.020 C 
ATOM     37  C   UNL A   1     -24.829  -0.715  33.905  0.00  0.00    +0.089 C 
ATOM     38  N   UNL A   1     -24.758  -1.481  32.646  0.00  0.00    -0.218 NA
ENDBRANCH  27  34
ENDBRANCH  26  27
BRANCH  26  39
ATOM     39  C   UNL A   1     -26.710  -0.308  28.667  0.00  0.00    +0.107 C 
BRANCH  39  41
ATOM     40  O   UNL A   1     -29.063   0.415  29.292  0.00  0.00    -0.222 OA
ATOM     41  C   UNL A   1     -27.678   0.469  29.540  0.00  0.00    +0.168 C 
ATOM     42  C   UNL A   1     -27.420   1.975  29.680  0.00  0.00    +0.037 C 
ENDBRANCH  39  41
ENDBRANCH  26  39
ENDBRANCH   3  26
TORSDOF 13
