REMARK  Name = outputs/IAG933/test6/raw/output_6716_IAG933_linker_design_.xyz
REMARK  11 active torsions:
REMARK  status: ('A' for Active; 'I' for Inactive)
REMARK    1  A    between atoms: C_1  and  C_2
REMARK    2  A    between atoms: C_1  and  C_8
REMARK    3  A    between atoms: C_1  and  C_35
REMARK    4  A    between atoms: C_13  and  C_28
REMARK    5  A    between atoms: C_14  and  C_15
REMARK    6  A    between atoms: C_21  and  O_22
REMARK    7  A    between atoms: O_22  and  C_23
REMARK    8  A    between atoms: C_23  and  C_24
REMARK    9  A    between atoms: C_31  and  C_39
REMARK   10  A    between atoms: C_33  and  N_37
REMARK   11  A    between atoms: C_39  and  C_41
REMARK                            x       y       z     vdW  Elec       q    Type
REMARK                         _______ _______ _______ _____ _____    ______ ____
ROOT
ATOM      1  C   UNL A   1     -24.668   1.368  27.295  0.00  0.00    +0.030 C 
ATOM      2  C   UNL A   1     -23.322   1.551  26.980  0.00  0.00    +0.086 C 
ATOM      3 CL   UNL A   1     -22.822   2.470  25.549  0.00  0.00    -0.080 Cl
ATOM      4  C   UNL A   1     -25.080   0.856  28.583  0.00  0.00    +0.071 C 
ATOM      5  C   UNL A   1     -22.781   0.185  28.908  0.00  0.00    +0.028 C 
ATOM      6  C   UNL A   1     -24.185   0.043  29.211  0.00  0.00    +0.001 C 
ATOM      7  C   UNL A   1     -22.359   1.023  27.871  0.00  0.00    +0.150 C 
ATOM      8  F   UNL A   1     -21.055   1.415  27.713  0.00  0.00    -0.203 F 
ENDROOT
BRANCH   1   9
ATOM      9  C   UNL A   1     -25.688   1.614  26.461  0.00  0.00    +0.040 C 
ATOM     10  C   UNL A   1     -26.250   2.920  26.395  0.00  0.00    +0.077 C 
ATOM     11  C   UNL A   1     -27.438   3.091  25.645  0.00  0.00    +0.107 C 
ATOM     12  N   UNL A   1     -28.075   2.089  25.003  0.00  0.00    -0.208 NA
ATOM     13  C   UNL A   1     -27.543   0.849  25.079  0.00  0.00    +0.253 C 
ATOM     14  C   UNL A   1     -26.354   0.576  25.777  0.00  0.00    +0.193 C 
ATOM     15  F   UNL A   1     -25.860  -0.681  25.795  0.00  0.00    -0.199 F 
BRANCH  10  16
ATOM     16  C   UNL A   1     -25.642   4.093  27.123  0.00  0.00    +0.266 C 
ATOM     17  N   UNL A   1     -25.614   5.252  26.449  0.00  0.00    -0.200 NA
ATOM     18  C   UNL A   1     -25.026   6.479  26.963  0.00  0.00    +0.139 C 
ATOM     19  O   UNL A   1     -25.143   3.966  28.243  0.00  0.00    -0.268 OA
ENDBRANCH  10  16
BRANCH  13  20
ATOM     20  O   UNL A   1     -28.193  -0.208  24.477  0.00  0.00    -0.456 OA
BRANCH  20  21
ATOM     21  C   UNL A   1     -29.460   0.005  23.866  0.00  0.00    +0.243 C 
BRANCH  21  22
ATOM     22  C   UNL A   1     -30.065  -1.377  23.573  0.00  0.00    +0.229 C 
ATOM     23  O   UNL A   1     -30.729  -1.878  24.721  0.00  0.00    -0.216 OA
ENDBRANCH  21  22
ENDBRANCH  20  21
ENDBRANCH  13  20
ENDBRANCH   1   9
BRANCH   4  26
ATOM     24  C   UNL A   1     -27.440   0.485  29.174  0.00  0.00    +0.248 C 
ATOM     25  O   UNL A   1     -27.589  -0.643  28.664  0.00  0.00    -0.273 OA
ATOM     26  N   UNL A   1     -26.314   1.246  29.119  0.00  0.00    -0.179 NA
BRANCH  24  27
ATOM     27  C   UNL A   1     -28.546   1.021  29.950  0.00  0.00    +0.120 C 
BRANCH  27  29
ATOM     28  O   UNL A   1     -29.933   1.093  27.970  0.00  0.00    -0.223 OA
ATOM     29  C   UNL A   1     -29.814   1.658  29.300  0.00  0.00    +0.161 C 
ATOM     30  C   UNL A   1     -31.119   1.568  30.104  0.00  0.00    +0.036 C 
ENDBRANCH  27  29
ENDBRANCH  24  27
ENDBRANCH   4  26
BRANCH   6  31
ATOM     31  C   UNL A   1     -24.855  -1.012  30.143  0.00  0.00    +0.062 C 
BRANCH  31  32
ATOM     32  C   UNL A   1     -24.973  -2.505  29.788  0.00  0.00    -0.017 C 
ATOM     33  C   UNL A   1     -23.906  -3.173  29.146  0.00  0.00    -0.004 C 
ATOM     34  C   UNL A   1     -23.989  -4.549  28.853  0.00  0.00    -0.000 C 
ATOM     35  C   UNL A   1     -25.137  -5.280  29.205  0.00  0.00    -0.000 C 
ATOM     36  C   UNL A   1     -26.232  -4.611  29.784  0.00  0.00    -0.000 C 
ATOM     37  C   UNL A   1     -26.155  -3.232  30.065  0.00  0.00    -0.004 C 
ENDBRANCH  31  32
BRANCH  31  38
ATOM     38  C   UNL A   1     -25.387  -0.679  31.571  0.00  0.00    +0.081 C 
ATOM     39  C   UNL A   1     -25.189   0.773  32.028  0.00  0.00    +0.019 C 
ATOM     40  C   UNL A   1     -25.336   0.684  33.544  0.00  0.00    +0.020 C 
ATOM     41  C   UNL A   1     -24.829  -0.715  33.905  0.00  0.00    +0.089 C 
ATOM     42  N   UNL A   1     -24.758  -1.481  32.646  0.00  0.00    -0.219 NA
ENDBRANCH  31  38
ENDBRANCH   6  31
TORSDOF 11
