MODEL 671
MODEL 1
REMARK VINA RESULT:    -4.108      0.000      0.000
REMARK INTER + INTRA:          -4.776
REMARK INTER:                  -4.588
REMARK INTRA:                  -0.188
REMARK UNBOUND:                -0.188
REMARK  Name = No_671-gen_results/8p0m/2024-11-27-11-27-31/
REMARK  2 active torsions:
REMARK  status: ('A' for Active; 'I' for Inactive)
REMARK    1  A    between atoms: C_2  and  C_3
REMARK    2  A    between atoms: C_3  and  C_4
REMARK                            x       y       z     vdW  Elec       q    Type
REMARK                         _______ _______ _______ _____ _____    ______ ____
ROOT
ATOM      1  C   UNL A   1      -8.315  -9.779  19.937  0.00  0.00    +0.103 C 
ENDROOT
BRANCH   1   2
ATOM      2  C   UNL A   1      -9.604  -9.423  19.477  0.00  0.00    -0.017 C 
ATOM      3  C   UNL A   1     -10.082  -9.872  18.227  0.00  0.00    -0.029 C 
ATOM      4  C   UNL A   1      -9.134 -10.665  17.478  0.00  0.00    +0.030 C 
ENDBRANCH   1   2
BRANCH   1   6
ATOM      5  C   UNL A   1      -6.955  -7.900  19.507  0.00  0.00    -0.014 C 
ATOM      6  C   UNL A   1      -7.208  -8.930  20.087  0.00  0.00    -0.073 C 
ENDBRANCH   1   6
TORSDOF 2
ENDMDL
ENDMDL
