REMARK  Name = outputs/IAG933/test6/raw/output_672_IAG933_linker_design_.xyz
REMARK  18 active torsions:
REMARK  status: ('A' for Active; 'I' for Inactive)
REMARK    1  A    between atoms: C_1  and  C_2
REMARK    2  A    between atoms: C_1  and  C_8
REMARK    3  A    between atoms: C_1  and  C_34
REMARK    4  A    between atoms: C_13  and  N_30
REMARK    5  A    between atoms: C_14  and  C_15
REMARK    6  A    between atoms: C_21  and  O_22
REMARK    7  A    between atoms: O_22  and  C_23
REMARK    8  A    between atoms: C_23  and  C_24
REMARK    9  A    between atoms: C_28  and  C_35
REMARK   10  A    between atoms: C_28  and  O_43
REMARK   11  A    between atoms: C_29  and  C_39
REMARK   12  A    between atoms: N_30  and  C_37
REMARK   13  A    between atoms: N_31  and  C_34
REMARK   14  A    between atoms: N_31  and  C_39
REMARK   15  A    between atoms: C_32  and  C_41
REMARK   16  A    between atoms: C_34  and  C_37
REMARK   17  A    between atoms: C_35  and  C_37
REMARK   18  A    between atoms: C_39  and  C_41
REMARK                            x       y       z     vdW  Elec       q    Type
REMARK                         _______ _______ _______ _____ _____    ______ ____
ROOT
ATOM      1  C   UNL A   1     -24.547   0.660  28.324  0.00  0.00    +0.149 C 
ENDROOT
BRANCH   1   2
ATOM      2  C   UNL A   1     -23.226   0.640  28.383  0.00  0.00    +0.194 C 
ATOM      3  O   UNL A   1     -22.577   0.050  29.219  0.00  0.00    -0.292 OA
BRANCH   2   4
ATOM      4  C   UNL A   1     -22.570   1.478  27.317  0.00  0.00    +0.174 C 
ATOM      5  C   UNL A   1     -21.057   1.386  27.428  0.00  0.00    +0.040 C 
BRANCH   4   7
ATOM      6  C   UNL A   1     -22.166   1.939  25.052  0.00  0.00    +0.175 C 
ATOM      7  O   UNL A   1     -22.927   1.244  26.022  0.00  0.00    -0.346 OA
ENDBRANCH   4   7
ENDBRANCH   2   4
ENDBRANCH   1   2
BRANCH   1   8
ATOM      8  N   UNL A   1     -24.934   1.077  27.367  0.00  0.00    -0.204 NA
BRANCH   8   9
ATOM      9  C   UNL A   1     -25.688   1.614  26.461  0.00  0.00    +0.143 C 
ATOM     10  C   UNL A   1     -26.250   2.920  26.395  0.00  0.00    +0.071 C 
ATOM     11  C   UNL A   1     -27.438   3.091  25.645  0.00  0.00    +0.103 C 
ATOM     12  N   UNL A   1     -28.075   2.089  25.003  0.00  0.00    -0.212 NA
ATOM     13  C   UNL A   1     -27.543   0.849  25.079  0.00  0.00    +0.236 C 
ATOM     14  C   UNL A   1     -26.354   0.576  25.777  0.00  0.00    +0.256 C 
ATOM     15  F   UNL A   1     -25.860  -0.681  25.795  0.00  0.00    -0.225 F 
BRANCH  10  16
ATOM     16  C   UNL A   1     -25.642   4.093  27.123  0.00  0.00    +0.264 C 
ATOM     17  N   UNL A   1     -25.614   5.252  26.449  0.00  0.00    -0.200 NA
ATOM     18  C   UNL A   1     -25.026   6.479  26.963  0.00  0.00    +0.139 C 
ATOM     19  O   UNL A   1     -25.143   3.966  28.243  0.00  0.00    -0.269 OA
ENDBRANCH  10  16
BRANCH  13  20
ATOM     20  O   UNL A   1     -28.193  -0.208  24.477  0.00  0.00    -0.459 OA
BRANCH  20  21
ATOM     21  C   UNL A   1     -29.460   0.005  23.866  0.00  0.00    +0.242 C 
BRANCH  21  22
ATOM     22  C   UNL A   1     -30.065  -1.377  23.573  0.00  0.00    +0.229 C 
ATOM     23  O   UNL A   1     -30.729  -1.878  24.721  0.00  0.00    -0.216 OA
ENDBRANCH  21  22
ENDBRANCH  20  21
ENDBRANCH  13  20
ENDBRANCH   8   9
ENDBRANCH   1   8
BRANCH   1  24
ATOM     24  C   UNL A   1     -25.479   0.113  29.265  0.00  0.00    +0.101 C 
BRANCH  24  25
ATOM     25  C   UNL A   1     -24.855  -1.012  30.143  0.00  0.00    +0.056 C 
BRANCH  25  26
ATOM     26  C   UNL A   1     -24.973  -2.505  29.788  0.00  0.00    -0.020 C 
ATOM     27  C   UNL A   1     -23.906  -3.173  29.146  0.00  0.00    -0.004 C 
ATOM     28  C   UNL A   1     -23.989  -4.549  28.853  0.00  0.00    -0.000 C 
ATOM     29  C   UNL A   1     -25.137  -5.280  29.205  0.00  0.00    -0.000 C 
ATOM     30  C   UNL A   1     -26.232  -4.611  29.784  0.00  0.00    -0.000 C 
ATOM     31  C   UNL A   1     -26.155  -3.232  30.065  0.00  0.00    -0.004 C 
ENDBRANCH  25  26
BRANCH  25  32
ATOM     32  C   UNL A   1     -25.387  -0.679  31.571  0.00  0.00    +0.078 C 
ATOM     33  C   UNL A   1     -25.189   0.773  32.028  0.00  0.00    +0.019 C 
ATOM     34  C   UNL A   1     -25.336   0.684  33.544  0.00  0.00    +0.020 C 
ATOM     35  C   UNL A   1     -24.829  -0.715  33.905  0.00  0.00    +0.089 C 
ATOM     36  N   UNL A   1     -24.758  -1.481  32.646  0.00  0.00    -0.219 NA
ENDBRANCH  25  32
ENDBRANCH  24  25
BRANCH  24  37
ATOM     37  N   UNL A   1     -26.688   0.626  29.354  0.00  0.00    -0.219 NA
BRANCH  37  38
ATOM     38  C   UNL A   1     -27.973   0.382  28.624  0.00  0.00    +0.075 C 
BRANCH  38  39
ATOM     39  C   UNL A   1     -28.862   1.663  28.521  0.00  0.00    +0.018 C 
ATOM     40  C   UNL A   1     -29.077   2.377  29.849  0.00  0.00    +0.002 C 
ENDBRANCH  38  39
BRANCH  38  41
ATOM     41  C   UNL A   1     -28.546  -0.772  29.459  0.00  0.00    +0.053 C 
BRANCH  41  42
ATOM     42  C   UNL A   1     -29.715  -0.680  28.769  0.00  0.00    +0.183 C 
ATOM     43  O   UNL A   1     -29.705  -0.581  27.443  0.00  0.00    -0.220 OA
ENDBRANCH  41  42
ENDBRANCH  38  41
ENDBRANCH  37  38
ENDBRANCH  24  37
ENDBRANCH   1  24
TORSDOF 18
