REMARK  Name = outputs/IAG933/test6/raw/output_6720_IAG933_linker_design_.xyz
REMARK  13 active torsions:
REMARK  status: ('A' for Active; 'I' for Inactive)
REMARK    1  A    between atoms: C_1  and  C_2
REMARK    2  A    between atoms: C_1  and  C_8
REMARK    3  A    between atoms: C_1  and  C_40
REMARK    4  A    between atoms: C_13  and  C_29
REMARK    5  A    between atoms: C_14  and  C_15
REMARK    6  A    between atoms: C_21  and  O_22
REMARK    7  A    between atoms: O_22  and  C_23
REMARK    8  A    between atoms: C_23  and  C_24
REMARK    9  A    between atoms: C_33  and  C_37
REMARK   10  A    between atoms: C_35  and  C_42
REMARK   11  A    between atoms: C_37  and  O_45
REMARK   12  A    between atoms: C_40  and  C_47
REMARK   13  A    between atoms: C_43  and  O_45
REMARK                            x       y       z     vdW  Elec       q    Type
REMARK                         _______ _______ _______ _____ _____    ______ ____
ROOT
ATOM      1  C   UNL A   1     -25.302  -0.000  29.315  0.00  0.00    +0.037 C 
ATOM      2  C   UNL A   1     -26.497   0.382  29.208  0.00  0.00    +0.170 C 
ENDROOT
BRANCH   1  10
ATOM      3  C   UNL A   1     -23.271   1.729  26.805  0.00  0.00    +0.088 C 
ATOM      4  C   UNL A   1     -24.463   1.281  27.272  0.00  0.00    +0.033 C 
ATOM      5  N   UNL A   1     -23.127   0.414  29.208  0.00  0.00    -0.242 NA
ATOM      6 CL   UNL A   1     -23.137   2.637  25.348  0.00  0.00    -0.080 Cl
ATOM      7  C   UNL A   1     -21.996   0.921  28.698  0.00  0.00    +0.129 C 
ATOM      8  C   UNL A   1     -22.105   1.500  27.459  0.00  0.00    +0.170 C 
ATOM      9  F   UNL A   1     -20.987   1.846  26.860  0.00  0.00    -0.202 F 
ATOM     10  C   UNL A   1     -24.309   0.579  28.568  0.00  0.00    +0.082 C 
BRANCH   4  11
ATOM     11  C   UNL A   1     -25.688   1.614  26.461  0.00  0.00    +0.040 C 
ATOM     12  C   UNL A   1     -26.250   2.920  26.395  0.00  0.00    +0.077 C 
ATOM     13  C   UNL A   1     -27.438   3.091  25.645  0.00  0.00    +0.107 C 
ATOM     14  N   UNL A   1     -28.075   2.089  25.003  0.00  0.00    -0.208 NA
ATOM     15  C   UNL A   1     -27.543   0.849  25.079  0.00  0.00    +0.253 C 
ATOM     16  C   UNL A   1     -26.354   0.576  25.777  0.00  0.00    +0.193 C 
ATOM     17  F   UNL A   1     -25.860  -0.681  25.795  0.00  0.00    -0.199 F 
BRANCH  12  18
ATOM     18  C   UNL A   1     -25.642   4.093  27.123  0.00  0.00    +0.266 C 
ATOM     19  N   UNL A   1     -25.614   5.252  26.449  0.00  0.00    -0.200 NA
ATOM     20  C   UNL A   1     -25.026   6.479  26.963  0.00  0.00    +0.139 C 
ATOM     21  O   UNL A   1     -25.143   3.966  28.243  0.00  0.00    -0.268 OA
ENDBRANCH  12  18
BRANCH  15  22
ATOM     22  O   UNL A   1     -28.193  -0.208  24.477  0.00  0.00    -0.456 OA
BRANCH  22  23
ATOM     23  C   UNL A   1     -29.460   0.005  23.866  0.00  0.00    +0.243 C 
BRANCH  23  24
ATOM     24  C   UNL A   1     -30.065  -1.377  23.573  0.00  0.00    +0.229 C 
ATOM     25  O   UNL A   1     -30.729  -1.878  24.721  0.00  0.00    -0.216 OA
ENDBRANCH  23  24
ENDBRANCH  22  23
ENDBRANCH  15  22
ENDBRANCH   4  11
ENDBRANCH   1  10
BRANCH   1  26
ATOM     26  C   UNL A   1     -24.855  -1.012  30.143  0.00  0.00    +0.065 C 
BRANCH  26  27
ATOM     27  C   UNL A   1     -24.973  -2.505  29.788  0.00  0.00    -0.017 C 
ATOM     28  C   UNL A   1     -23.906  -3.173  29.146  0.00  0.00    -0.004 C 
ATOM     29  C   UNL A   1     -23.989  -4.549  28.853  0.00  0.00    -0.000 C 
ATOM     30  C   UNL A   1     -25.137  -5.280  29.205  0.00  0.00    -0.000 C 
ATOM     31  C   UNL A   1     -26.232  -4.611  29.784  0.00  0.00    -0.000 C 
ATOM     32  C   UNL A   1     -26.155  -3.232  30.065  0.00  0.00    -0.004 C 
ENDBRANCH  26  27
BRANCH  26  33
ATOM     33  C   UNL A   1     -25.387  -0.679  31.571  0.00  0.00    +0.081 C 
ATOM     34  C   UNL A   1     -25.189   0.773  32.028  0.00  0.00    +0.019 C 
ATOM     35  C   UNL A   1     -25.336   0.684  33.544  0.00  0.00    +0.020 C 
ATOM     36  C   UNL A   1     -24.829  -0.715  33.905  0.00  0.00    +0.089 C 
ATOM     37  N   UNL A   1     -24.758  -1.481  32.646  0.00  0.00    -0.219 NA
ENDBRANCH  26  33
ENDBRANCH   1  26
BRANCH   2  38
ATOM     38  O   UNL A   1     -27.226   1.208  28.552  0.00  0.00    -0.473 OA
BRANCH  38  39
ATOM     39  C   UNL A   1     -28.507   1.678  28.892  0.00  0.00    +0.208 C 
BRANCH  39  41
ATOM     40  C   UNL A   1     -29.278  -0.591  27.835  0.00  0.00    +0.177 C 
ATOM     41  C   UNL A   1     -29.112   0.537  29.822  0.00  0.00    +0.081 C 
ATOM     42  F   UNL A   1     -29.540  -1.877  29.737  0.00  0.00    -0.234 F 
ATOM     43  C   UNL A   1     -31.294   0.107  28.867  0.00  0.00    +0.142 C 
ATOM     44  C   UNL A   1     -30.676   0.778  29.868  0.00  0.00    +0.036 C 
ATOM     45  O   UNL A   1     -30.588  -0.668  27.871  0.00  0.00    -0.351 OA
ATOM     46  C   UNL A   1     -28.756  -0.779  29.309  0.00  0.00    +0.194 C 
BRANCH  44  47
ATOM     47  C   UNL A   1     -30.855   2.285  30.112  0.00  0.00    +0.003 C 
ATOM     48  C   UNL A   1     -30.736   2.909  31.535  0.00  0.00    +0.000 C 
ENDBRANCH  44  47
ENDBRANCH  39  41
ENDBRANCH  38  39
ENDBRANCH   2  38
TORSDOF 13
