REMARK  Name = outputs/IAG933/test6/raw/output_6722_IAG933_linker_design_.xyz
REMARK  18 active torsions:
REMARK  status: ('A' for Active; 'I' for Inactive)
REMARK    1  A    between atoms: C_1  and  C_2
REMARK    2  A    between atoms: C_1  and  C_8
REMARK    3  A    between atoms: C_1  and  N_42
REMARK    4  A    between atoms: C_14  and  C_15
REMARK    5  A    between atoms: C_15  and  O_18
REMARK    6  A    between atoms: O_18  and  C_32
REMARK    7  A    between atoms: C_21  and  O_22
REMARK    8  A    between atoms: O_22  and  C_23
REMARK    9  A    between atoms: C_23  and  C_24
REMARK   10  A    between atoms: O_30  and  C_44
REMARK   11  A    between atoms: O_30  and  N_46
REMARK   12  A    between atoms: C_31  and  N_42
REMARK   13  A    between atoms: C_31  and  N_46
REMARK   14  A    between atoms: C_32  and  C_33
REMARK   15  A    between atoms: C_32  and  C_34
REMARK   16  A    between atoms: C_32  and  C_37
REMARK   17  A    between atoms: C_37  and  O_38
REMARK   18  A    between atoms: C_44  and  C_47
REMARK                            x       y       z     vdW  Elec       q    Type
REMARK                         _______ _______ _______ _____ _____    ______ ____
ROOT
ATOM      1  C   UNL A   1     -25.483   3.724  29.792  0.00  0.00    +0.187 C 
ENDROOT
BRANCH   1   4
ATOM      2  C   UNL A   1     -30.550   1.626  28.277  0.00  0.00    +0.000 C 
ATOM      3  C   UNL A   1     -30.503   2.867  27.370  0.00  0.00    +0.000 C 
ATOM      4  C   UNL A   1     -26.925   3.070  29.747  0.00  0.00    +0.044 C 
ATOM      5  C   UNL A   1     -29.374   1.980  29.085  0.00  0.00    +0.000 C 
ATOM      6  C   UNL A   1     -28.243   1.084  29.064  0.00  0.00    +0.000 C 
ATOM      7  C   UNL A   1     -27.900   4.072  29.348  0.00  0.00    +0.004 C 
ATOM      8  C   UNL A   1     -29.803   3.939  27.860  0.00  0.00    +0.000 C 
ATOM      9  C   UNL A   1     -27.125   1.724  29.625  0.00  0.00    +0.004 C 
ATOM     10  C   UNL A   1     -29.036   3.434  28.816  0.00  0.00    +0.000 C 
ENDBRANCH   1   4
BRANCH   1  12
ATOM     11  C   UNL A   1     -23.147   0.593  29.497  0.00  0.00    +0.431 C 
ATOM     12  C   UNL A   1     -24.278   2.827  30.240  0.00  0.00    +0.064 C 
ATOM     13  C   UNL A   1     -23.617   1.835  29.714  0.00  0.00    -0.008 C 
BRANCH  11  14
ATOM     14  N   UNL A   1     -23.909  -0.333  29.739  0.00  0.00    -0.020 NA
BRANCH  14  15
ATOM     15  C   UNL A   1     -24.855  -1.012  30.143  0.00  0.00    +0.244 C 
BRANCH  15  16
ATOM     16  C   UNL A   1     -24.973  -2.505  29.788  0.00  0.00    +0.025 C 
ATOM     17  C   UNL A   1     -23.906  -3.173  29.146  0.00  0.00    -0.000 C 
ATOM     18  C   UNL A   1     -23.989  -4.549  28.853  0.00  0.00    -0.000 C 
ATOM     19  C   UNL A   1     -25.137  -5.280  29.205  0.00  0.00    -0.000 C 
ATOM     20  C   UNL A   1     -26.232  -4.611  29.784  0.00  0.00    -0.000 C 
ATOM     21  C   UNL A   1     -26.155  -3.232  30.065  0.00  0.00    -0.000 C 
ENDBRANCH  15  16
BRANCH  15  22
ATOM     22  C   UNL A   1     -25.387  -0.679  31.571  0.00  0.00    +0.124 C 
ATOM     23  C   UNL A   1     -25.189   0.773  32.028  0.00  0.00    +0.024 C 
ATOM     24  C   UNL A   1     -25.336   0.684  33.544  0.00  0.00    +0.020 C 
ATOM     25  C   UNL A   1     -24.829  -0.715  33.905  0.00  0.00    +0.089 C 
ATOM     26  N   UNL A   1     -24.758  -1.481  32.646  0.00  0.00    -0.215 NA
ENDBRANCH  15  22
ENDBRANCH  14  15
ENDBRANCH  11  14
BRANCH  11  27
ATOM     27  N   UNL A   1     -21.921   0.390  29.014  0.00  0.00    +0.120 NA
BRANCH  27  28
ATOM     28  O   UNL A   1     -21.334   0.832  28.023  0.00  0.00    -0.119 OA
BRANCH  28  29
ATOM     29  C   UNL A   1     -22.041   1.605  27.445  0.00  0.00    +0.308 C 
BRANCH  29  31
ATOM     30  N   UNL A   1     -22.001   2.487  25.151  0.00  0.00    -0.193 NA
ATOM     31  C   UNL A   1     -22.098   2.149  26.288  0.00  0.00    +0.112 C 
ENDBRANCH  29  31
ENDBRANCH  28  29
ENDBRANCH  27  28
ENDBRANCH  11  27
ENDBRANCH   1  12
BRANCH   1  32
ATOM     32  O   UNL A   1     -25.143   3.966  28.243  0.00  0.00    -0.460 OA
BRANCH  32  33
ATOM     33  C   UNL A   1     -25.642   4.093  27.123  0.00  0.00    +0.222 C 
ATOM     34  N   UNL A   1     -25.614   5.252  26.449  0.00  0.00    -0.236 NA
ATOM     35  C   UNL A   1     -25.026   6.479  26.963  0.00  0.00    +0.155 C 
BRANCH  33  37
ATOM     36  C   UNL A   1     -25.688   1.614  26.461  0.00  0.00    +0.041 C 
ATOM     37  C   UNL A   1     -26.250   2.920  26.395  0.00  0.00    +0.074 C 
ATOM     38  C   UNL A   1     -27.438   3.091  25.645  0.00  0.00    +0.107 C 
ATOM     39  N   UNL A   1     -28.075   2.089  25.003  0.00  0.00    -0.208 NA
ATOM     40  C   UNL A   1     -27.543   0.849  25.079  0.00  0.00    +0.253 C 
ATOM     41  C   UNL A   1     -26.354   0.576  25.777  0.00  0.00    +0.193 C 
ATOM     42  F   UNL A   1     -25.860  -0.681  25.795  0.00  0.00    -0.199 F 
BRANCH  40  43
ATOM     43  O   UNL A   1     -28.193  -0.208  24.477  0.00  0.00    -0.456 OA
BRANCH  43  44
ATOM     44  C   UNL A   1     -29.460   0.005  23.866  0.00  0.00    +0.243 C 
BRANCH  44  45
ATOM     45  C   UNL A   1     -30.065  -1.377  23.573  0.00  0.00    +0.229 C 
ATOM     46  O   UNL A   1     -30.729  -1.878  24.721  0.00  0.00    -0.216 OA
ENDBRANCH  44  45
ENDBRANCH  43  44
ENDBRANCH  40  43
ENDBRANCH  33  37
ENDBRANCH  32  33
ENDBRANCH   1  32
BRANCH   1  47
ATOM     47  C   UNL A   1     -25.630   4.736  31.054  0.00  0.00    +0.187 C 
BRANCH  47  48
ATOM     48  O   UNL A   1     -25.490   4.140  32.375  0.00  0.00    -0.347 OA
ATOM     49  C   UNL A   1     -26.144   4.613  33.520  0.00  0.00    +0.174 C 
ENDBRANCH  47  48
ENDBRANCH   1  47
TORSDOF 18
