REMARK  Name = outputs/IAG933/test6/raw/output_6723_IAG933_linker_design_.xyz
REMARK  14 active torsions:
REMARK  status: ('A' for Active; 'I' for Inactive)
REMARK    1  A    between atoms: C_1  and  C_2
REMARK    2  A    between atoms: C_1  and  C_8
REMARK    3  A    between atoms: C_1  and  N_30
REMARK    4  A    between atoms: C_9  and  C_43
REMARK    5  A    between atoms: C_13  and  N_42
REMARK    6  A    between atoms: C_14  and  C_15
REMARK    7  A    between atoms: C_21  and  O_22
REMARK    8  A    between atoms: O_22  and  C_23
REMARK    9  A    between atoms: C_23  and  C_24
REMARK   10  A    between atoms: C_32  and  C_38
REMARK   11  A    between atoms: C_32  and  C_39
REMARK   12  A    between atoms: C_33  and  C_38
REMARK   13  A    between atoms: C_39  and  C_40
REMARK   14  A    between atoms: C_43  and  N_44
REMARK                            x       y       z     vdW  Elec       q    Type
REMARK                         _______ _______ _______ _____ _____    ______ ____
ROOT
ATOM      1  F   UNL A   1     -20.915   2.029  27.591  0.00  0.00    -0.200 F 
ATOM      2  N   UNL A   1     -24.089  -0.135  29.336  0.00  0.00    -0.208 N 
ATOM      3  C   UNL A   1     -24.731   0.191  28.097  0.00  0.00    +0.210 C 
ATOM      4  N   UNL A   1     -22.697  -0.027  29.664  0.00  0.00    -0.176 NA
ATOM      5  C   UNL A   1     -21.903   0.870  28.960  0.00  0.00    +0.149 C 
ATOM      6 CL   UNL A   1     -23.014   2.393  25.462  0.00  0.00    -0.063 Cl
ATOM      7  N   UNL A   1     -24.546   1.264  27.191  0.00  0.00    -0.255 N 
ATOM      8  C   UNL A   1     -22.100   1.595  27.869  0.00  0.00    +0.185 C 
ATOM      9  C   UNL A   1     -23.292   1.782  26.906  0.00  0.00    +0.141 C 
ENDROOT
BRANCH   7  10
ATOM     10  C   UNL A   1     -25.688   1.614  26.461  0.00  0.00    +0.092 C 
ATOM     11  C   UNL A   1     -26.250   2.920  26.395  0.00  0.00    +0.090 C 
ATOM     12  C   UNL A   1     -27.438   3.091  25.645  0.00  0.00    +0.108 C 
ATOM     13  N   UNL A   1     -28.075   2.089  25.003  0.00  0.00    -0.208 NA
ATOM     14  C   UNL A   1     -27.543   0.849  25.079  0.00  0.00    +0.255 C 
ATOM     15  C   UNL A   1     -26.354   0.576  25.777  0.00  0.00    +0.207 C 
ATOM     16  F   UNL A   1     -25.860  -0.681  25.795  0.00  0.00    -0.198 F 
BRANCH  11  17
ATOM     17  C   UNL A   1     -25.642   4.093  27.123  0.00  0.00    +0.268 C 
ATOM     18  N   UNL A   1     -25.614   5.252  26.449  0.00  0.00    -0.200 NA
ATOM     19  C   UNL A   1     -25.026   6.479  26.963  0.00  0.00    +0.139 C 
ATOM     20  O   UNL A   1     -25.143   3.966  28.243  0.00  0.00    -0.268 OA
ENDBRANCH  11  17
BRANCH  14  21
ATOM     21  O   UNL A   1     -28.193  -0.208  24.477  0.00  0.00    -0.456 OA
BRANCH  21  22
ATOM     22  C   UNL A   1     -29.460   0.005  23.866  0.00  0.00    +0.243 C 
BRANCH  22  23
ATOM     23  C   UNL A   1     -30.065  -1.377  23.573  0.00  0.00    +0.229 C 
ATOM     24  O   UNL A   1     -30.729  -1.878  24.721  0.00  0.00    -0.216 OA
ENDBRANCH  22  23
ENDBRANCH  21  22
ENDBRANCH  14  21
ENDBRANCH   7  10
BRANCH   2  25
ATOM     25  C   UNL A   1     -24.855  -1.012  30.143  0.00  0.00    +0.131 C 
BRANCH  25  26
ATOM     26  C   UNL A   1     -24.973  -2.505  29.788  0.00  0.00    -0.001 C 
ATOM     27  C   UNL A   1     -23.906  -3.173  29.146  0.00  0.00    -0.003 C 
ATOM     28  C   UNL A   1     -23.989  -4.549  28.853  0.00  0.00    -0.000 C 
ATOM     29  C   UNL A   1     -25.137  -5.280  29.205  0.00  0.00    -0.000 C 
ATOM     30  C   UNL A   1     -26.232  -4.611  29.784  0.00  0.00    -0.000 C 
ATOM     31  C   UNL A   1     -26.155  -3.232  30.065  0.00  0.00    -0.003 C 
ENDBRANCH  25  26
BRANCH  25  32
ATOM     32  C   UNL A   1     -25.387  -0.679  31.571  0.00  0.00    +0.098 C 
ATOM     33  C   UNL A   1     -25.189   0.773  32.028  0.00  0.00    +0.041 C 
ATOM     34  C   UNL A   1     -25.336   0.684  33.544  0.00  0.00    +0.022 C 
ATOM     35  C   UNL A   1     -24.829  -0.715  33.905  0.00  0.00    +0.089 C 
ATOM     36  N   UNL A   1     -24.758  -1.481  32.646  0.00  0.00    -0.217 NA
BRANCH  33  37
ATOM     37  C   UNL A   1     -25.732   1.461  30.931  0.00  0.00    +0.117 C 
BRANCH  37  40
ATOM     38  O   UNL A   1     -25.684   3.921  32.518  0.00  0.00    -0.273 OA
ATOM     39  C   UNL A   1     -26.607   3.735  31.804  0.00  0.00    +0.241 C 
ATOM     40  N   UNL A   1     -26.609   2.749  30.888  0.00  0.00    -0.205 NA
BRANCH  39  41
ATOM     41  C   UNL A   1     -27.931   4.349  31.422  0.00  0.00    +0.087 C 
BRANCH  41  42
ATOM     42  C   UNL A   1     -27.641   5.741  30.798  0.00  0.00    +0.021 C 
BRANCH  42  43
ATOM     43  C   UNL A   1     -26.995   6.500  31.938  0.00  0.00    +0.115 C 
BRANCH  43  45
ATOM     44  O   UNL A   1     -24.602   6.869  31.248  0.00  0.00    -0.246 OA
ATOM     45  C   UNL A   1     -25.751   7.436  31.347  0.00  0.00    +0.365 C 
ATOM     46  O   UNL A   1     -26.029   8.587  31.134  0.00  0.00    -0.246 OA
ENDBRANCH  43  45
ENDBRANCH  42  43
ENDBRANCH  41  42
ENDBRANCH  39  41
ENDBRANCH  37  40
ENDBRANCH  33  37
ENDBRANCH  25  32
ENDBRANCH   2  25
TORSDOF 14
