REMARK  Name = outputs/IAG933/test6/raw/output_6725_IAG933_linker_design_.xyz
REMARK  18 active torsions:
REMARK  status: ('A' for Active; 'I' for Inactive)
REMARK    1  A    between atoms: C_1  and  C_2
REMARK    2  A    between atoms: C_1  and  C_8
REMARK    3  A    between atoms: C_1  and  N_36
REMARK    4  A    between atoms: C_13  and  C_40
REMARK    5  A    between atoms: C_14  and  C_15
REMARK    6  A    between atoms: C_21  and  O_22
REMARK    7  A    between atoms: O_22  and  C_23
REMARK    8  A    between atoms: C_23  and  C_24
REMARK    9  A    between atoms: C_28  and  C_31
REMARK   10  A    between atoms: C_28  and  C_38
REMARK   11  A    between atoms: C_28  and  C_44
REMARK   12  A    between atoms: C_29  and  N_36
REMARK   13  A    between atoms: C_30  and  C_43
REMARK   14  A    between atoms: C_30  and  C_46
REMARK   15  A    between atoms: C_31  and  C_46
REMARK   16  A    between atoms: C_32  and  N_36
REMARK   17  A    between atoms: C_32  and  C_38
REMARK   18  A    between atoms: C_37  and  C_43
REMARK                            x       y       z     vdW  Elec       q    Type
REMARK                         _______ _______ _______ _____ _____    ______ ____
ROOT
ATOM      1  N   UNL A   1     -25.505  -0.126  29.155  0.00  0.00    -0.189 N 
ENDROOT
BRANCH   1   2
ATOM      2  C   UNL A   1     -24.506   0.390  28.361  0.00  0.00    +0.324 C 
ATOM      3  F   UNL A   1     -20.941   2.163  27.094  0.00  0.00    -0.200 F 
ATOM      4  N   UNL A   1     -23.167   0.078  28.915  0.00  0.00    -0.034 NA
ATOM      5  C   UNL A   1     -23.263   1.765  26.762  0.00  0.00    +0.041 C 
ATOM      6  C   UNL A   1     -24.490   1.274  27.250  0.00  0.00    +0.087 C 
ATOM      7  C   UNL A   1     -22.077   1.541  27.503  0.00  0.00    +0.187 C 
ATOM      8  C   UNL A   1     -22.029   0.701  28.592  0.00  0.00    +0.265 C 
BRANCH   6   9
ATOM      9  C   UNL A   1     -25.688   1.614  26.461  0.00  0.00    +0.045 C 
ATOM     10  C   UNL A   1     -26.250   2.920  26.395  0.00  0.00    +0.077 C 
ATOM     11  C   UNL A   1     -27.438   3.091  25.645  0.00  0.00    +0.107 C 
ATOM     12  N   UNL A   1     -28.075   2.089  25.003  0.00  0.00    -0.208 NA
ATOM     13  C   UNL A   1     -27.543   0.849  25.079  0.00  0.00    +0.253 C 
ATOM     14  C   UNL A   1     -26.354   0.576  25.777  0.00  0.00    +0.193 C 
ATOM     15  F   UNL A   1     -25.860  -0.681  25.795  0.00  0.00    -0.199 F 
BRANCH  10  16
ATOM     16  C   UNL A   1     -25.642   4.093  27.123  0.00  0.00    +0.266 C 
ATOM     17  N   UNL A   1     -25.614   5.252  26.449  0.00  0.00    -0.200 NA
ATOM     18  C   UNL A   1     -25.026   6.479  26.963  0.00  0.00    +0.139 C 
ATOM     19  O   UNL A   1     -25.143   3.966  28.243  0.00  0.00    -0.268 OA
ENDBRANCH  10  16
BRANCH  13  20
ATOM     20  O   UNL A   1     -28.193  -0.208  24.477  0.00  0.00    -0.456 OA
BRANCH  20  21
ATOM     21  C   UNL A   1     -29.460   0.005  23.866  0.00  0.00    +0.243 C 
BRANCH  21  22
ATOM     22  C   UNL A   1     -30.065  -1.377  23.573  0.00  0.00    +0.229 C 
ATOM     23  O   UNL A   1     -30.729  -1.878  24.721  0.00  0.00    -0.216 OA
ENDBRANCH  21  22
ENDBRANCH  20  21
ENDBRANCH  13  20
ENDBRANCH   6   9
ENDBRANCH   1   2
BRANCH   1  24
ATOM     24  C   UNL A   1     -24.855  -1.012  30.143  0.00  0.00    +0.198 C 
BRANCH  24  25
ATOM     25  C   UNL A   1     -24.973  -2.505  29.788  0.00  0.00    +0.021 C 
ATOM     26  C   UNL A   1     -23.906  -3.173  29.146  0.00  0.00    -0.000 C 
ATOM     27  C   UNL A   1     -23.989  -4.549  28.853  0.00  0.00    -0.000 C 
ATOM     28  C   UNL A   1     -25.137  -5.280  29.205  0.00  0.00    -0.000 C 
ATOM     29  C   UNL A   1     -26.232  -4.611  29.784  0.00  0.00    -0.000 C 
ATOM     30  C   UNL A   1     -26.155  -3.232  30.065  0.00  0.00    -0.000 C 
ENDBRANCH  24  25
BRANCH  24  31
ATOM     31  C   UNL A   1     -25.387  -0.679  31.571  0.00  0.00    +0.120 C 
ATOM     32  C   UNL A   1     -25.189   0.773  32.028  0.00  0.00    +0.023 C 
ATOM     33  C   UNL A   1     -25.336   0.684  33.544  0.00  0.00    +0.020 C 
ATOM     34  C   UNL A   1     -24.829  -0.715  33.905  0.00  0.00    +0.089 C 
ATOM     35  N   UNL A   1     -24.758  -1.481  32.646  0.00  0.00    -0.215 NA
ENDBRANCH  24  31
ENDBRANCH   1  24
BRANCH   1  36
ATOM     36  C   UNL A   1     -26.950  -0.050  28.808  0.00  0.00    +0.203 C 
BRANCH  36  37
ATOM     37  C   UNL A   1     -28.128   0.560  29.269  0.00  0.00    +0.053 C 
BRANCH  37  38
ATOM     38  C   UNL A   1     -28.296   2.014  30.021  0.00  0.00    +0.037 C 
BRANCH  38  39
ATOM     39  C   UNL A   1     -27.274   2.953  30.298  0.00  0.00    +0.182 C 
ATOM     40  O   UNL A   1     -26.426   3.703  30.515  0.00  0.00    -0.220 OA
ENDBRANCH  38  39
BRANCH  38  41
ATOM     41  C   UNL A   1     -29.444   2.823  29.326  0.00  0.00    +0.003 C 
BRANCH  41  42
ATOM     42  C   UNL A   1     -29.983   4.023  30.129  0.00  0.00    +0.001 C 
BRANCH  42  43
ATOM     43  C   UNL A   1     -31.472   4.274  30.421  0.00  0.00    +0.010 C 
BRANCH  43  44
ATOM     44  C   UNL A   1     -32.336   3.185  30.298  0.00  0.00    +0.088 C 
BRANCH  44  46
ATOM     45  O   UNL A   1     -34.379   4.559  30.558  0.00  0.00    -0.272 OA
ATOM     46  C   UNL A   1     -33.800   3.526  30.112  0.00  0.00    +0.261 C 
ATOM     47  N   UNL A   1     -34.450   2.662  29.378  0.00  0.00    -0.088 NA
ENDBRANCH  44  46
ENDBRANCH  43  44
ENDBRANCH  42  43
ENDBRANCH  41  42
ENDBRANCH  38  41
ENDBRANCH  37  38
ENDBRANCH  36  37
ENDBRANCH   1  36
TORSDOF 18
