MODEL 672
MODEL 1
REMARK VINA RESULT:    -6.608      0.000      0.000
REMARK INTER + INTRA:          -6.608
REMARK INTER:                  -6.608
REMARK INTRA:                   0.000
REMARK UNBOUND:                 0.000
REMARK  Name = No_672-gen_results/8p0m/2024-11-27-11-27-31/
REMARK  0 active torsions:
REMARK  status: ('A' for Active; 'I' for Inactive)
REMARK                            x       y       z     vdW  Elec       q    Type
REMARK                         _______ _______ _______ _____ _____    ______ ____
ROOT
ATOM      1  C   UNL A   1     -24.183  -5.071  28.603  0.00  0.00    -0.000 A 
ATOM      2  C   UNL A   1     -23.908  -3.895  28.531  0.00  0.00    -0.000 A 
ATOM      3  C   UNL A   1     -24.711  -2.882  29.052  0.00  0.00    -0.004 A 
ATOM      4  C   UNL A   1     -25.978  -3.231  29.667  0.00  0.00    -0.000 A 
ATOM      5  C   UNL A   1     -26.235  -4.620  29.706  0.00  0.00    -0.000 A 
ATOM      6  C   UNL A   1     -25.420  -5.500  29.183  0.00  0.00    -0.000 A 
ATOM      7  C   UNL A   1     -24.585  -1.393  29.178  0.00  0.00    -0.020 A 
ATOM      8  C   UNL A   1     -25.331  -0.536  29.762  0.00  0.00    -0.004 A 
ATOM      9  C   UNL A   1     -26.499  -1.101  30.423  0.00  0.00    -0.003 A 
ATOM     10  C   UNL A   1     -26.798  -2.351  30.381  0.00  0.00    -0.000 A 
ATOM     11  C   UNL A   1     -25.067   0.874  29.883  0.00  0.00    +0.138 C 
ATOM     12  N   UNL A   1     -24.299   1.510  30.101  0.00  0.00    -0.232 NA
ATOM     13  C   UNL A   1     -22.987   1.208  29.597  0.00  0.00    +0.076 C 
ATOM     14  C   UNL A   1     -22.536   0.102  29.236  0.00  0.00    -0.004 C 
ATOM     15  C   UNL A   1     -23.104  -1.044  28.924  0.00  0.00    +0.053 C 
ENDROOT
TORSDOF 0
ENDMDL
ENDMDL
