REMARK  Name = outputs/IAG933/test6/raw/output_6730_IAG933_linker_design_.xyz
REMARK  14 active torsions:
REMARK  status: ('A' for Active; 'I' for Inactive)
REMARK    1  A    between atoms: C_1  and  C_2
REMARK    2  A    between atoms: C_1  and  C_8
REMARK    3  A    between atoms: C_9  and  N_31
REMARK    4  A    between atoms: C_13  and  C_34
REMARK    5  A    between atoms: C_14  and  C_15
REMARK    6  A    between atoms: C_15  and  O_18
REMARK    7  A    between atoms: O_18  and  C_42
REMARK    8  A    between atoms: C_21  and  O_22
REMARK    9  A    between atoms: O_22  and  C_23
REMARK   10  A    between atoms: C_23  and  C_24
REMARK   11  A    between atoms: C_35  and  C_39
REMARK   12  A    between atoms: C_35  and  C_41
REMARK   13  A    between atoms: CA_36  and  C_41
REMARK   14  A    between atoms: C_41  and  C_42
REMARK                            x       y       z     vdW  Elec       q    Type
REMARK                         _______ _______ _______ _____ _____    ______ ____
ROOT
ATOM      1  O   UNL A   1     -25.143   3.966  28.243  0.00  0.00    -0.461 OA
ENDROOT
BRANCH   1   2
ATOM      2  C   UNL A   1     -25.642   4.093  27.123  0.00  0.00    +0.218 C 
ATOM      3  N   UNL A   1     -25.614   5.252  26.449  0.00  0.00    -0.236 NA
ATOM      4  C   UNL A   1     -25.026   6.479  26.963  0.00  0.00    +0.155 C 
BRANCH   2   6
ATOM      5  C   UNL A   1     -25.688   1.614  26.461  0.00  0.00    +0.092 C 
ATOM      6  C   UNL A   1     -26.250   2.920  26.395  0.00  0.00    +0.057 C 
ATOM      7  C   UNL A   1     -27.438   3.091  25.645  0.00  0.00    +0.102 C 
ATOM      8  N   UNL A   1     -28.075   2.089  25.003  0.00  0.00    -0.212 NA
ATOM      9  C   UNL A   1     -27.543   0.849  25.079  0.00  0.00    +0.234 C 
ATOM     10  C   UNL A   1     -26.354   0.576  25.777  0.00  0.00    +0.244 C 
ATOM     11  F   UNL A   1     -25.860  -0.681  25.795  0.00  0.00    -0.227 F 
BRANCH   5  16
ATOM     12  C   UNL A   1     -23.207   2.005  25.770  0.00  0.00    -0.004 C 
ATOM     13  C   UNL A   1     -21.461   1.554  27.259  0.00  0.00    +0.018 C 
ATOM     14  C   UNL A   1     -22.424   1.266  28.242  0.00  0.00    +0.089 C 
ATOM     15  N   UNL A   1     -22.181   0.618  29.436  0.00  0.00    -0.128 NA
ATOM     16  C   UNL A   1     -24.009   1.700  26.785  0.00  0.00    -0.014 C 
ATOM     17  C   UNL A   1     -21.850   2.005  26.012  0.00  0.00    +0.001 C 
ATOM     18  C   UNL A   1     -23.641   1.512  27.973  0.00  0.00    +0.014 C 
ENDBRANCH   5  16
BRANCH   9  19
ATOM     19  O   UNL A   1     -28.193  -0.208  24.477  0.00  0.00    -0.459 OA
BRANCH  19  20
ATOM     20  C   UNL A   1     -29.460   0.005  23.866  0.00  0.00    +0.242 C 
BRANCH  20  21
ATOM     21  C   UNL A   1     -30.065  -1.377  23.573  0.00  0.00    +0.229 C 
ATOM     22  O   UNL A   1     -30.729  -1.878  24.721  0.00  0.00    -0.216 OA
ENDBRANCH  20  21
ENDBRANCH  19  20
ENDBRANCH   9  19
ENDBRANCH   2   6
ENDBRANCH   1   2
BRANCH   1  23
ATOM     23  C   UNL A   1     -25.410   3.848  29.346  0.00  0.00    +0.209 C 
BRANCH  23  24
ATOM     24  C   UNL A   1     -25.930   4.073  30.645  0.00  0.00    +0.073 C 
BRANCH  24  26
ATOM     25  N   UNL A   1     -25.692   1.965  31.368  0.00  0.00    -0.244 NA
ATOM     26  CA  UNL A   1     -26.553   3.151  31.351  0.00  0.00    +0.110 C 
ATOM     27  C   UNL A   1     -27.261   2.036  31.217  0.00  0.00    +0.228 C 
ATOM     28  O   UNL A   1     -27.574   0.950  30.345  0.00  0.00    -0.203 OA
BRANCH  25  30
ATOM     29  C   UNL A   1     -25.387  -0.679  31.571  0.00  0.00    +0.092 C 
ATOM     30  C   UNL A   1     -25.189   0.773  32.028  0.00  0.00    +0.077 C 
ATOM     31  C   UNL A   1     -25.336   0.684  33.544  0.00  0.00    +0.036 C 
ATOM     32  C   UNL A   1     -24.829  -0.715  33.905  0.00  0.00    +0.090 C 
ATOM     33  N   UNL A   1     -24.758  -1.481  32.646  0.00  0.00    -0.218 NA
BRANCH  29  34
ATOM     34  C   UNL A   1     -24.855  -1.012  30.143  0.00  0.00    +0.045 C 
BRANCH  34  35
ATOM     35  C   UNL A   1     -24.973  -2.505  29.788  0.00  0.00    -0.021 C 
ATOM     36  C   UNL A   1     -23.906  -3.173  29.146  0.00  0.00    -0.004 C 
ATOM     37  C   UNL A   1     -23.989  -4.549  28.853  0.00  0.00    -0.000 C 
ATOM     38  C   UNL A   1     -25.137  -5.280  29.205  0.00  0.00    -0.000 C 
ATOM     39  C   UNL A   1     -26.232  -4.611  29.784  0.00  0.00    -0.000 C 
ATOM     40  C   UNL A   1     -26.155  -3.232  30.065  0.00  0.00    -0.004 C 
ENDBRANCH  34  35
ENDBRANCH  29  34
ENDBRANCH  25  30
ENDBRANCH  24  26
BRANCH  24  41
ATOM     41  C   UNL A   1     -25.800   5.239  31.370  0.00  0.00    +0.106 C 
BRANCH  41  43
ATOM     42  O   UNL A   1     -23.778   4.965  32.478  0.00  0.00    -0.259 OA
ATOM     43  C   UNL A   1     -25.054   4.921  32.506  0.00  0.00    +0.311 C 
ATOM     44  F   UNL A   1     -25.552   4.324  33.581  0.00  0.00    -0.164 F 
ENDBRANCH  41  43
ENDBRANCH  24  41
ENDBRANCH  23  24
ENDBRANCH   1  23
TORSDOF 14
