REMARK  Name = outputs/IAG933/test6/raw/output_6734_IAG933_linker_design_.xyz
REMARK  16 active torsions:
REMARK  status: ('A' for Active; 'I' for Inactive)
REMARK    1  A    between atoms: C_1  and  C_2
REMARK    2  A    between atoms: C_1  and  C_8
REMARK    3  A    between atoms: C_1  and  C_38
REMARK    4  A    between atoms: C_13  and  N_34
REMARK    5  A    between atoms: C_14  and  C_15
REMARK    6  A    between atoms: C_21  and  O_22
REMARK    7  A    between atoms: O_22  and  C_23
REMARK    8  A    between atoms: C_23  and  C_24
REMARK    9  A    between atoms: C_28  and  C_29
REMARK   10  A    between atoms: C_28  and  C_30
REMARK   11  A    between atoms: C_29  and  N_34
REMARK   12  A    between atoms: C_32  and  C_33
REMARK   13  A    between atoms: C_32  and  C_39
REMARK   14  A    between atoms: N_34  and  C_38
REMARK   15  A    between atoms: C_36  and  C_42
REMARK   16  A    between atoms: C_38  and  C_39
REMARK                            x       y       z     vdW  Elec       q    Type
REMARK                         _______ _______ _______ _____ _____    ______ ____
ROOT
ATOM      1  C   UNL A   1     -25.257   0.152  28.748  0.00  0.00    +0.063 C 
ENDROOT
BRANCH   1   2
ATOM      2  C   UNL A   1     -24.855  -1.012  30.143  0.00  0.00    +0.053 C 
BRANCH   2   3
ATOM      3  C   UNL A   1     -24.973  -2.505  29.788  0.00  0.00    -0.020 C 
ATOM      4  C   UNL A   1     -23.906  -3.173  29.146  0.00  0.00    -0.004 C 
ATOM      5  C   UNL A   1     -23.989  -4.549  28.853  0.00  0.00    -0.000 C 
ATOM      6  C   UNL A   1     -25.137  -5.280  29.205  0.00  0.00    -0.000 C 
ATOM      7  C   UNL A   1     -26.232  -4.611  29.784  0.00  0.00    -0.000 C 
ATOM      8  C   UNL A   1     -26.155  -3.232  30.065  0.00  0.00    -0.004 C 
ENDBRANCH   2   3
BRANCH   2   9
ATOM      9  C   UNL A   1     -25.387  -0.679  31.571  0.00  0.00    +0.078 C 
ATOM     10  C   UNL A   1     -25.189   0.773  32.028  0.00  0.00    +0.019 C 
ATOM     11  C   UNL A   1     -25.336   0.684  33.544  0.00  0.00    +0.020 C 
ATOM     12  C   UNL A   1     -24.829  -0.715  33.905  0.00  0.00    +0.089 C 
ATOM     13  N   UNL A   1     -24.758  -1.481  32.646  0.00  0.00    -0.219 NA
ENDBRANCH   2   9
ENDBRANCH   1   2
BRANCH   1  14
ATOM     14  N   UNL A   1     -24.919   1.363  27.632  0.00  0.00    -0.266 NA
BRANCH  14  15
ATOM     15  C   UNL A   1     -25.688   1.614  26.461  0.00  0.00    +0.128 C 
ATOM     16  C   UNL A   1     -26.250   2.920  26.395  0.00  0.00    +0.070 C 
ATOM     17  C   UNL A   1     -27.438   3.091  25.645  0.00  0.00    +0.103 C 
ATOM     18  N   UNL A   1     -28.075   2.089  25.003  0.00  0.00    -0.212 NA
ATOM     19  C   UNL A   1     -27.543   0.849  25.079  0.00  0.00    +0.235 C 
ATOM     20  C   UNL A   1     -26.354   0.576  25.777  0.00  0.00    +0.255 C 
ATOM     21  F   UNL A   1     -25.860  -0.681  25.795  0.00  0.00    -0.225 F 
BRANCH  16  22
ATOM     22  C   UNL A   1     -25.642   4.093  27.123  0.00  0.00    +0.264 C 
ATOM     23  N   UNL A   1     -25.614   5.252  26.449  0.00  0.00    -0.200 NA
ATOM     24  C   UNL A   1     -25.026   6.479  26.963  0.00  0.00    +0.139 C 
ATOM     25  O   UNL A   1     -25.143   3.966  28.243  0.00  0.00    -0.269 OA
ENDBRANCH  16  22
BRANCH  19  26
ATOM     26  O   UNL A   1     -28.193  -0.208  24.477  0.00  0.00    -0.459 OA
BRANCH  26  27
ATOM     27  C   UNL A   1     -29.460   0.005  23.866  0.00  0.00    +0.242 C 
BRANCH  27  28
ATOM     28  C   UNL A   1     -30.065  -1.377  23.573  0.00  0.00    +0.229 C 
ATOM     29  O   UNL A   1     -30.729  -1.878  24.721  0.00  0.00    -0.216 OA
ENDBRANCH  27  28
ENDBRANCH  26  27
ENDBRANCH  19  26
ENDBRANCH  14  15
BRANCH  14  30
ATOM     30  C   UNL A   1     -23.698   0.979  27.075  0.00  0.00    +0.108 C 
BRANCH  30  31
ATOM     31  C   UNL A   1     -22.769   0.931  28.143  0.00  0.00    +0.201 C 
ATOM     32  O   UNL A   1     -22.581  -0.146  28.837  0.00  0.00    -0.219 OA
BRANCH  31  33
ATOM     33  C   UNL A   1     -21.663   1.749  27.564  0.00  0.00    +0.216 C 
ATOM     34  O   UNL A   1     -20.418   1.102  27.773  0.00  0.00    -0.217 OA
ENDBRANCH  31  33
ENDBRANCH  30  31
ENDBRANCH  14  30
ENDBRANCH   1  14
BRANCH   1  35
ATOM     35  C   UNL A   1     -26.756   0.537  29.057  0.00  0.00    +0.017 C 
BRANCH  35  36
ATOM     36  C   UNL A   1     -27.855  -0.522  28.877  0.00  0.00    +0.006 C 
BRANCH  36  37
ATOM     37  C   UNL A   1     -29.027   0.043  29.547  0.00  0.00    +0.063 C 
ATOM     38  C   UNL A   1     -30.271  -0.182  29.227  0.00  0.00    +0.183 C 
ATOM     39  O   UNL A   1     -30.035   1.779  30.125  0.00  0.00    -0.352 OA
ATOM     40  C   UNL A   1     -30.935   0.926  29.815  0.00  0.00    +0.164 C 
ATOM     41  O   UNL A   1     -30.630  -1.375  28.679  0.00  0.00    -0.220 OA
ATOM     42  C   UNL A   1     -29.013   1.514  29.334  0.00  0.00    +0.145 C 
BRANCH  40  44
ATOM     43  N   UNL A   1     -32.221   1.716  31.680  0.00  0.00    -0.129 NA
ATOM     44  C   UNL A   1     -32.308   1.248  30.268  0.00  0.00    +0.141 C 
ENDBRANCH  40  44
ENDBRANCH  36  37
ENDBRANCH  35  36
ENDBRANCH   1  35
TORSDOF 16
