REMARK  Name = outputs/IAG933/test6/raw/output_6738_IAG933_linker_design_.xyz
REMARK  17 active torsions:
REMARK  status: ('A' for Active; 'I' for Inactive)
REMARK    1  A    between atoms: C_1  and  C_2
REMARK    2  A    between atoms: C_1  and  C_8
REMARK    3  A    between atoms: C_1  and  C_37
REMARK    4  A    between atoms: C_13  and  C_36
REMARK    5  A    between atoms: C_14  and  C_15
REMARK    6  A    between atoms: C_21  and  O_22
REMARK    7  A    between atoms: O_22  and  C_23
REMARK    8  A    between atoms: C_23  and  C_24
REMARK    9  A    between atoms: C_29  and  C_31
REMARK   10  A    between atoms: C_29  and  N_32
REMARK   11  A    between atoms: C_33  and  C_36
REMARK   12  A    between atoms: C_33  and  C_37
REMARK   13  A    between atoms: C_33  and  C_39
REMARK   14  A    between atoms: C_37  and  C_46
REMARK   15  A    between atoms: C_38  and  N_47
REMARK   16  A    between atoms: C_41  and  N_44
REMARK   17  A    between atoms: C_46  and  N_47
REMARK                            x       y       z     vdW  Elec       q    Type
REMARK                         _______ _______ _______ _____ _____    ______ ____
ROOT
ATOM      1  C   UNL A   1     -25.017  -0.078  28.960  0.00  0.00    +0.034 C 
ENDROOT
BRANCH   1   2
ATOM      2  C   UNL A   1     -24.855  -1.012  30.143  0.00  0.00    +0.040 C 
BRANCH   2   3
ATOM      3  C   UNL A   1     -24.973  -2.505  29.788  0.00  0.00    -0.021 C 
ATOM      4  C   UNL A   1     -23.906  -3.173  29.146  0.00  0.00    -0.004 C 
ATOM      5  C   UNL A   1     -23.989  -4.549  28.853  0.00  0.00    -0.000 C 
ATOM      6  C   UNL A   1     -25.137  -5.280  29.205  0.00  0.00    -0.000 C 
ATOM      7  C   UNL A   1     -26.232  -4.611  29.784  0.00  0.00    -0.000 C 
ATOM      8  C   UNL A   1     -26.155  -3.232  30.065  0.00  0.00    -0.004 C 
ENDBRANCH   2   3
BRANCH   2   9
ATOM      9  C   UNL A   1     -25.387  -0.679  31.571  0.00  0.00    +0.077 C 
ATOM     10  C   UNL A   1     -25.189   0.773  32.028  0.00  0.00    +0.019 C 
ATOM     11  C   UNL A   1     -25.336   0.684  33.544  0.00  0.00    +0.020 C 
ATOM     12  C   UNL A   1     -24.829  -0.715  33.905  0.00  0.00    +0.089 C 
ATOM     13  N   UNL A   1     -24.758  -1.481  32.646  0.00  0.00    -0.219 NA
ENDBRANCH   2   9
ENDBRANCH   1   2
BRANCH   1  14
ATOM     14  C   UNL A   1     -26.533  -0.066  28.657  0.00  0.00    +0.113 C 
BRANCH  14  15
ATOM     15  N   UNL A   1     -26.973   1.201  29.292  0.00  0.00    -0.234 NA
BRANCH  15  18
ATOM     16  O   UNL A   1     -30.047  -0.477  27.117  0.00  0.00    -0.291 OA
ATOM     17  C   UNL A   1     -30.695   0.410  29.358  0.00  0.00    +0.279 C 
ATOM     18  C   UNL A   1     -28.083   0.838  29.606  0.00  0.00    +0.130 C 
ATOM     19  C   UNL A   1     -28.599  -0.485  28.899  0.00  0.00    +0.119 C 
ATOM     20  C   UNL A   1     -29.035   1.582  30.378  0.00  0.00    +0.321 C 
ATOM     21  C   UNL A   1     -29.902  -0.289  28.241  0.00  0.00    +0.204 C 
ATOM     22  N   UNL A   1     -30.195   0.939  30.490  0.00  0.00    -0.031 NA
BRANCH  20  25
ATOM     23  C   UNL A   1     -29.192   3.042  32.147  0.00  0.00    +0.254 C 
ATOM     24  C   UNL A   1     -28.339   3.818  29.909  0.00  0.00    +0.254 C 
ATOM     25  N   UNL A   1     -28.933   2.817  30.737  0.00  0.00    -0.184 N 
ENDBRANCH  20  25
BRANCH  17  26
ATOM     26  C   UNL A   1     -32.149   0.675  29.092  0.00  0.00    +0.147 C 
BRANCH  26  28
ATOM     27  C   UNL A   1     -32.942  -1.504  28.405  0.00  0.00    +0.108 C 
ATOM     28  N   UNL A   1     -32.737  -0.166  27.955  0.00  0.00    -0.212 NA
ENDBRANCH  26  28
ENDBRANCH  17  26
ENDBRANCH  15  18
ENDBRANCH  14  15
ENDBRANCH   1  14
BRANCH   1  29
ATOM     29  C   UNL A   1     -24.103   0.942  28.167  0.00  0.00    +0.060 C 
BRANCH  29  31
ATOM     30  C   UNL A   1     -21.621   1.474  27.633  0.00  0.00    +0.072 C 
ATOM     31  C   UNL A   1     -22.616   0.619  28.414  0.00  0.00    +0.151 C 
ATOM     32  O   UNL A   1     -22.186  -0.348  29.116  0.00  0.00    -0.296 OA
ENDBRANCH  29  31
BRANCH  29  33
ATOM     33  C   UNL A   1     -24.207   1.414  26.609  0.00  0.00    +0.015 C 
BRANCH  33  34
ATOM     34  C   UNL A   1     -25.688   1.614  26.461  0.00  0.00    +0.071 C 
ATOM     35  C   UNL A   1     -26.250   2.920  26.395  0.00  0.00    +0.055 C 
ATOM     36  C   UNL A   1     -27.438   3.091  25.645  0.00  0.00    +0.102 C 
ATOM     37  N   UNL A   1     -28.075   2.089  25.003  0.00  0.00    -0.212 NA
ATOM     38  C   UNL A   1     -27.543   0.849  25.079  0.00  0.00    +0.234 C 
ATOM     39  C   UNL A   1     -26.354   0.576  25.777  0.00  0.00    +0.240 C 
ATOM     40  F   UNL A   1     -25.860  -0.681  25.795  0.00  0.00    -0.227 F 
BRANCH  35  41
ATOM     41  C   UNL A   1     -25.642   4.093  27.123  0.00  0.00    +0.262 C 
ATOM     42  N   UNL A   1     -25.614   5.252  26.449  0.00  0.00    -0.200 NA
ATOM     43  C   UNL A   1     -25.026   6.479  26.963  0.00  0.00    +0.139 C 
ATOM     44  O   UNL A   1     -25.143   3.966  28.243  0.00  0.00    -0.269 OA
ENDBRANCH  35  41
BRANCH  38  45
ATOM     45  O   UNL A   1     -28.193  -0.208  24.477  0.00  0.00    -0.459 OA
BRANCH  45  46
ATOM     46  C   UNL A   1     -29.460   0.005  23.866  0.00  0.00    +0.242 C 
BRANCH  46  47
ATOM     47  C   UNL A   1     -30.065  -1.377  23.573  0.00  0.00    +0.229 C 
ATOM     48  O   UNL A   1     -30.729  -1.878  24.721  0.00  0.00    -0.216 OA
ENDBRANCH  46  47
ENDBRANCH  45  46
ENDBRANCH  38  45
ENDBRANCH  33  34
ENDBRANCH  29  33
ENDBRANCH   1  29
TORSDOF 17
