MODEL 673
MODEL 1
REMARK VINA RESULT:    -7.492      0.000      0.000
REMARK INTER + INTRA:         -16.315
REMARK INTER:                 -11.434
REMARK INTRA:                  -4.880
REMARK UNBOUND:                -4.880
REMARK  Name = No_673-gen_results/8p0m/2024-11-27-11-27-31/
REMARK  9 active torsions:
REMARK  status: ('A' for Active; 'I' for Inactive)
REMARK    1  A    between atoms: C_1  and  C_18
REMARK    2  A    between atoms: C_3  and  C_4
REMARK    3  A    between atoms: C_11  and  O_22
REMARK    4  A    between atoms: O_22  and  C_23
REMARK    5  A    between atoms: C_23  and  C_24
REMARK    6  A    between atoms: C_24  and  C_25
REMARK    7  A    between atoms: C_30  and  C_31
REMARK    8  A    between atoms: C_31  and  C_32
REMARK    9  A    between atoms: C_33  and  C_34
REMARK                            x       y       z     vdW  Elec       q    Type
REMARK                         _______ _______ _______ _____ _____    ______ ____
ROOT
ATOM      1  C   UNL A   1     -23.986  -1.301  28.945  0.00  0.00    +0.002 A 
ATOM      2  C   UNL A   1     -22.979  -0.775  29.730  0.00  0.00    +0.000 A 
ATOM      3  C   UNL A   1     -24.337  -0.547  27.717  0.00  0.00    +0.003 A 
ATOM      4  C   UNL A   1     -25.302  -0.749  26.839  0.00  0.00    +0.037 A 
ATOM      5  C   UNL A   1     -25.387   0.091  25.693  0.00  0.00    +0.139 A 
ATOM      6  C   UNL A   1     -24.625   1.212  25.643  0.00  0.00    +0.037 A 
ATOM      7  C   UNL A   1     -23.468   0.630  27.460  0.00  0.00    +0.000 A 
ATOM      8  C   UNL A   1     -23.591   1.448  26.390  0.00  0.00    +0.003 A 
ATOM      9  C   UNL A   1     -22.409   0.889  28.440  0.00  0.00    +0.000 A 
ATOM     10  C   UNL A   1     -22.177   0.157  29.501  0.00  0.00    +0.000 A 
ENDROOT
BRANCH   1  13
ATOM     11  C   UNL A   1     -26.856  -3.204  30.088  0.00  0.00    +0.082 A 
ATOM     12  C   UNL A   1     -26.181  -2.274  29.711  0.00  0.00    +0.009 A 
ATOM     13  C   UNL A   1     -24.858  -2.395  29.330  0.00  0.00    +0.030 A 
ATOM     14  C   UNL A   1     -26.500  -4.507  29.710  0.00  0.00    +0.038 A 
ATOM     15  C   UNL A   1     -25.267  -4.738  29.235  0.00  0.00    +0.168 A 
ATOM     16  C   UNL A   1     -24.360  -3.667  28.942  0.00  0.00    +0.167 A 
ATOM     17  F   UNL A   1     -25.011  -6.002  28.875  0.00  0.00    -0.202 F 
ATOM     18  F   UNL A   1     -23.250  -3.931  28.453  0.00  0.00    -0.202 F 
BRANCH  11  19
ATOM     19  C   UNL A   1     -28.271  -2.993  30.652  0.00  0.00    +0.388 C 
ATOM     20  O   UNL A   1     -28.938  -2.051  30.195  0.00  0.00    -0.241 OA
ATOM     21  O   UNL A   1     -28.707  -3.700  31.574  0.00  0.00    -0.241 OA
ENDBRANCH  11  19
ENDBRANCH   1  13
BRANCH   5  22
ATOM     22  O   UNL A   1     -26.408  -0.132  24.795  0.00  0.00    -0.475 OA
BRANCH  22  23
ATOM     23  C   UNL A   1     -27.453   0.743  24.750  0.00  0.00    +0.210 C 
BRANCH  23  24
ATOM     24  C   UNL A   1     -28.084   1.141  25.845  0.00  0.00    +0.073 C 
BRANCH  24  25
ATOM     25  C   UNL A   1     -28.174   2.570  26.135  0.00  0.00    -0.022 A 
ATOM     26  C   UNL A   1     -28.720   3.362  25.162  0.00  0.00    -0.004 A 
ATOM     27  C   UNL A   1     -28.795   4.762  25.581  0.00  0.00    -0.000 A 
ATOM     28  C   UNL A   1     -28.263   5.265  26.770  0.00  0.00    -0.000 A 
ATOM     29  C   UNL A   1     -27.667   4.397  27.689  0.00  0.00    -0.004 A 
ATOM     30  C   UNL A   1     -27.620   3.058  27.391  0.00  0.00    -0.022 A 
BRANCH  30  31
ATOM     31  C   UNL A   1     -26.997   2.166  28.358  0.00  0.00    +0.052 C 
BRANCH  31  32
ATOM     32  C   UNL A   1     -25.871   2.678  29.073  0.00  0.00    -0.021 C 
ATOM     33  C   UNL A   1     -25.486   2.083  30.243  0.00  0.00    -0.004 C 
BRANCH  33  34
ATOM     34  C   UNL A   1     -25.996   1.281  30.697  0.00  0.00    -0.000 C 
ATOM     35  C   UNL A   1     -25.584   0.612  31.959  0.00  0.00    -0.000 C 
ENDBRANCH  33  34
ENDBRANCH  31  32
ENDBRANCH  30  31
ENDBRANCH  24  25
ENDBRANCH  23  24
ENDBRANCH  22  23
ENDBRANCH   5  22
TORSDOF 9
ENDMDL
ENDMDL
