REMARK  Name = outputs/IAG933/test6/raw/output_674_IAG933_linker_design_.xyz
REMARK  12 active torsions:
REMARK  status: ('A' for Active; 'I' for Inactive)
REMARK    1  A    between atoms: C_1  and  C_2
REMARK    2  A    between atoms: C_1  and  C_8
REMARK    3  A    between atoms: C_1  and  C_35
REMARK    4  A    between atoms: C_13  and  C_29
REMARK    5  A    between atoms: C_14  and  C_15
REMARK    6  A    between atoms: C_21  and  O_22
REMARK    7  A    between atoms: O_22  and  C_23
REMARK    8  A    between atoms: C_23  and  C_24
REMARK    9  A    between atoms: C_28  and  C_31
REMARK   10  A    between atoms: C_29  and  N_39
REMARK   11  A    between atoms: C_35  and  N_39
REMARK   12  A    between atoms: C_35  and  N_41
REMARK                            x       y       z     vdW  Elec       q    Type
REMARK                         _______ _______ _______ _____ _____    ______ ____
ROOT
ATOM      1  C   UNL A   1     -25.501  -0.288  28.930  0.00  0.00    +0.192 C 
ENDROOT
BRANCH   1   4
ATOM      2  C   UNL A   1     -27.851   0.142  29.581  0.00  0.00    +0.266 C 
ATOM      3  O   UNL A   1     -28.153  -0.954  29.119  0.00  0.00    -0.268 OA
ATOM      4  N   UNL A   1     -26.613   0.627  29.179  0.00  0.00    -0.181 NA
BRANCH   2   6
ATOM      5  C   UNL A   1     -29.646   0.872  31.338  0.00  0.00    +0.011 C 
ATOM      6  C   UNL A   1     -28.544   1.087  30.526  0.00  0.00    +0.056 C 
ATOM      7  C   UNL A   1     -29.810   1.762  32.433  0.00  0.00    +0.035 C 
ATOM      8  C   UNL A   1     -28.913   2.758  32.713  0.00  0.00    +0.007 C 
ATOM      9  C   UNL A   1     -28.002   3.094  31.796  0.00  0.00    +0.001 C 
ATOM     10  C   UNL A   1     -27.916   2.320  30.658  0.00  0.00    +0.005 C 
ATOM     11 BR   UNL A   1     -31.166   1.685  33.901  0.00  0.00    -0.049 Br
ENDBRANCH   2   6
ENDBRANCH   1   4
BRANCH   1  12
ATOM     12  C   UNL A   1     -24.855  -1.012  30.143  0.00  0.00    +0.079 C 
BRANCH  12  13
ATOM     13  C   UNL A   1     -24.973  -2.505  29.788  0.00  0.00    -0.018 C 
ATOM     14  C   UNL A   1     -23.906  -3.173  29.146  0.00  0.00    -0.004 C 
ATOM     15  C   UNL A   1     -23.989  -4.549  28.853  0.00  0.00    -0.000 C 
ATOM     16  C   UNL A   1     -25.137  -5.280  29.205  0.00  0.00    -0.000 C 
ATOM     17  C   UNL A   1     -26.232  -4.611  29.784  0.00  0.00    -0.000 C 
ATOM     18  C   UNL A   1     -26.155  -3.232  30.065  0.00  0.00    -0.004 C 
ENDBRANCH  12  13
BRANCH  12  19
ATOM     19  C   UNL A   1     -25.387  -0.679  31.571  0.00  0.00    +0.080 C 
ATOM     20  C   UNL A   1     -25.189   0.773  32.028  0.00  0.00    +0.019 C 
ATOM     21  C   UNL A   1     -25.336   0.684  33.544  0.00  0.00    +0.020 C 
ATOM     22  C   UNL A   1     -24.829  -0.715  33.905  0.00  0.00    +0.089 C 
ATOM     23  N   UNL A   1     -24.758  -1.481  32.646  0.00  0.00    -0.219 NA
ENDBRANCH  12  19
ENDBRANCH   1  12
BRANCH   1  24
ATOM     24  N   UNL A   1     -24.511   0.640  28.358  0.00  0.00    -0.217 NA
BRANCH  24  25
ATOM     25  C   UNL A   1     -24.451   1.287  27.251  0.00  0.00    +0.065 C 
ATOM     26  C   UNL A   1     -21.877   1.653  27.696  0.00  0.00    +0.032 C 
ATOM     27  C   UNL A   1     -23.111   1.965  26.837  0.00  0.00    -0.010 C 
BRANCH  25  28
ATOM     28  C   UNL A   1     -25.688   1.614  26.461  0.00  0.00    +0.053 C 
ATOM     29  C   UNL A   1     -26.250   2.920  26.395  0.00  0.00    +0.078 C 
ATOM     30  C   UNL A   1     -27.438   3.091  25.645  0.00  0.00    +0.107 C 
ATOM     31  N   UNL A   1     -28.075   2.089  25.003  0.00  0.00    -0.208 NA
ATOM     32  C   UNL A   1     -27.543   0.849  25.079  0.00  0.00    +0.253 C 
ATOM     33  C   UNL A   1     -26.354   0.576  25.777  0.00  0.00    +0.194 C 
ATOM     34  F   UNL A   1     -25.860  -0.681  25.795  0.00  0.00    -0.199 F 
BRANCH  29  35
ATOM     35  C   UNL A   1     -25.642   4.093  27.123  0.00  0.00    +0.267 C 
ATOM     36  N   UNL A   1     -25.614   5.252  26.449  0.00  0.00    -0.200 NA
ATOM     37  C   UNL A   1     -25.026   6.479  26.963  0.00  0.00    +0.139 C 
ATOM     38  O   UNL A   1     -25.143   3.966  28.243  0.00  0.00    -0.268 OA
ENDBRANCH  29  35
BRANCH  32  39
ATOM     39  O   UNL A   1     -28.193  -0.208  24.477  0.00  0.00    -0.456 OA
BRANCH  39  40
ATOM     40  C   UNL A   1     -29.460   0.005  23.866  0.00  0.00    +0.243 C 
BRANCH  40  41
ATOM     41  C   UNL A   1     -30.065  -1.377  23.573  0.00  0.00    +0.229 C 
ATOM     42  O   UNL A   1     -30.729  -1.878  24.721  0.00  0.00    -0.216 OA
ENDBRANCH  40  41
ENDBRANCH  39  40
ENDBRANCH  32  39
ENDBRANCH  25  28
ENDBRANCH  24  25
ENDBRANCH   1  24
TORSDOF 12
