REMARK  Name = outputs/IAG933/test6/raw/output_6745_IAG933_linker_design_.xyz
REMARK  9 active torsions:
REMARK  status: ('A' for Active; 'I' for Inactive)
REMARK    1  A    between atoms: C_1  and  C_2
REMARK    2  A    between atoms: C_1  and  C_8
REMARK    3  A    between atoms: C_1  and  C_44
REMARK    4  A    between atoms: C_13  and  C_43
REMARK    5  A    between atoms: C_14  and  C_15
REMARK    6  A    between atoms: C_21  and  O_22
REMARK    7  A    between atoms: O_22  and  C_23
REMARK    8  A    between atoms: C_23  and  C_24
REMARK    9  A    between atoms: C_32  and  C_44
REMARK                            x       y       z     vdW  Elec       q    Type
REMARK                         _______ _______ _______ _____ _____    ______ ____
ROOT
ATOM      1  C   UNL A   1     -19.130   1.932  26.875  0.00  0.00    +0.341 C 
ATOM      2  C   UNL A   1     -22.730   1.021  28.955  0.00  0.00    +0.314 C 
ATOM      3  C   UNL A   1     -21.325   1.593  27.937  0.00  0.00    +0.216 C 
ATOM      4  F   UNL A   1     -22.172   1.888  24.337  0.00  0.00    -0.167 F 
ATOM      5  C   UNL A   1     -24.003   0.373  28.149  0.00  0.00    +0.129 C 
ATOM      6  O   UNL A   1     -19.969   1.771  28.161  0.00  0.00    -0.439 OA
ATOM      7  O   UNL A   1     -23.303   2.081  29.623  0.00  0.00    -0.182 OA
ATOM      8  C   UNL A   1     -17.928   2.579  27.139  0.00  0.00    +0.100 C 
ATOM      9  F   UNL A   1     -23.274   3.236  25.566  0.00  0.00    -0.167 F 
ATOM     10  F   UNL A   1     -22.189   0.149  29.777  0.00  0.00    -0.198 F 
ATOM     11  O   UNL A   1     -20.076   1.935  25.904  0.00  0.00    -0.436 OA
ATOM     12  C   UNL A   1     -22.427   2.097  25.718  0.00  0.00    +0.421 C 
ATOM     13  C   UNL A   1     -21.495   1.817  26.603  0.00  0.00    +0.244 C 
ATOM     14  O   UNL A   1     -23.382   1.142  26.017  0.00  0.00    -0.298 OA
ATOM     15  C   UNL A   1     -24.334   1.389  27.051  0.00  0.00    +0.154 C 
ENDROOT
BRANCH  15  16
ATOM     16  C   UNL A   1     -25.688   1.614  26.461  0.00  0.00    +0.043 C 
ATOM     17  C   UNL A   1     -26.250   2.920  26.395  0.00  0.00    +0.075 C 
ATOM     18  C   UNL A   1     -27.438   3.091  25.645  0.00  0.00    +0.106 C 
ATOM     19  N   UNL A   1     -28.075   2.089  25.003  0.00  0.00    -0.208 NA
ATOM     20  C   UNL A   1     -27.543   0.849  25.079  0.00  0.00    +0.253 C 
ATOM     21  C   UNL A   1     -26.354   0.576  25.777  0.00  0.00    +0.191 C 
ATOM     22  F   UNL A   1     -25.860  -0.681  25.795  0.00  0.00    -0.200 F 
BRANCH  17  23
ATOM     23  C   UNL A   1     -25.642   4.093  27.123  0.00  0.00    +0.266 C 
ATOM     24  N   UNL A   1     -25.614   5.252  26.449  0.00  0.00    -0.200 NA
ATOM     25  C   UNL A   1     -25.026   6.479  26.963  0.00  0.00    +0.139 C 
ATOM     26  O   UNL A   1     -25.143   3.966  28.243  0.00  0.00    -0.268 OA
ENDBRANCH  17  23
BRANCH  20  27
ATOM     27  O   UNL A   1     -28.193  -0.208  24.477  0.00  0.00    -0.456 OA
BRANCH  27  28
ATOM     28  C   UNL A   1     -29.460   0.005  23.866  0.00  0.00    +0.243 C 
BRANCH  28  29
ATOM     29  C   UNL A   1     -30.065  -1.377  23.573  0.00  0.00    +0.229 C 
ATOM     30  O   UNL A   1     -30.729  -1.878  24.721  0.00  0.00    -0.216 OA
ENDBRANCH  28  29
ENDBRANCH  27  28
ENDBRANCH  20  27
ENDBRANCH  15  16
BRANCH   5  32
ATOM     31  O   UNL A   1     -26.511  -0.407  28.604  0.00  0.00    -0.223 OA
ATOM     32  C   UNL A   1     -25.221  -0.271  28.899  0.00  0.00    +0.166 C 
BRANCH  32  33
ATOM     33  C   UNL A   1     -24.855  -1.012  30.143  0.00  0.00    +0.069 C 
BRANCH  33  34
ATOM     34  C   UNL A   1     -24.973  -2.505  29.788  0.00  0.00    -0.019 C 
ATOM     35  C   UNL A   1     -23.906  -3.173  29.146  0.00  0.00    -0.004 C 
ATOM     36  C   UNL A   1     -23.989  -4.549  28.853  0.00  0.00    -0.000 C 
ATOM     37  C   UNL A   1     -25.137  -5.280  29.205  0.00  0.00    -0.000 C 
ATOM     38  C   UNL A   1     -26.232  -4.611  29.784  0.00  0.00    -0.000 C 
ATOM     39  C   UNL A   1     -26.155  -3.232  30.065  0.00  0.00    -0.004 C 
ENDBRANCH  33  34
BRANCH  33  40
ATOM     40  C   UNL A   1     -25.387  -0.679  31.571  0.00  0.00    +0.079 C 
ATOM     41  C   UNL A   1     -25.189   0.773  32.028  0.00  0.00    +0.019 C 
ATOM     42  C   UNL A   1     -25.336   0.684  33.544  0.00  0.00    +0.020 C 
ATOM     43  C   UNL A   1     -24.829  -0.715  33.905  0.00  0.00    +0.089 C 
ATOM     44  N   UNL A   1     -24.758  -1.481  32.646  0.00  0.00    -0.219 NA
ENDBRANCH  33  40
ENDBRANCH  32  33
ENDBRANCH   5  32
TORSDOF 9
