REMARK  Name = outputs/IAG933/test6/raw/output_6746_IAG933_linker_design_.xyz
REMARK  13 active torsions:
REMARK  status: ('A' for Active; 'I' for Inactive)
REMARK    1  A    between atoms: C_1  and  C_2
REMARK    2  A    between atoms: C_1  and  C_8
REMARK    3  A    between atoms: C_9  and  C_42
REMARK    4  A    between atoms: C_13  and  C_33
REMARK    5  A    between atoms: C_14  and  C_15
REMARK    6  A    between atoms: C_21  and  O_22
REMARK    7  A    between atoms: O_22  and  C_23
REMARK    8  A    between atoms: C_23  and  C_24
REMARK    9  A    between atoms: C_28  and  O_47
REMARK   10  A    between atoms: O_31  and  C_35
REMARK   11  A    between atoms: O_31  and  C_42
REMARK   12  A    between atoms: C_37  and  C_39
REMARK   13  A    between atoms: N_38  and  C_42
REMARK                            x       y       z     vdW  Elec       q    Type
REMARK                         _______ _______ _______ _____ _____    ______ ____
ROOT
ATOM      1  C   UNL A   1     -24.224   1.488  30.992  0.00  0.00    +0.264 C 
ENDROOT
BRANCH   1   3
ATOM      2  C   UNL A   1     -25.387  -0.679  31.571  0.00  0.00    +0.082 C 
ATOM      3  C   UNL A   1     -25.189   0.773  32.028  0.00  0.00    +0.080 C 
ATOM      4  C   UNL A   1     -25.336   0.684  33.544  0.00  0.00    +0.026 C 
ATOM      5  C   UNL A   1     -24.829  -0.715  33.905  0.00  0.00    +0.089 C 
ATOM      6  N   UNL A   1     -24.758  -1.481  32.646  0.00  0.00    -0.219 NA
BRANCH   2   7
ATOM      7  C   UNL A   1     -24.855  -1.012  30.143  0.00  0.00    +0.044 C 
BRANCH   7   8
ATOM      8  C   UNL A   1     -24.973  -2.505  29.788  0.00  0.00    -0.021 C 
ATOM      9  C   UNL A   1     -23.906  -3.173  29.146  0.00  0.00    -0.004 C 
ATOM     10  C   UNL A   1     -23.989  -4.549  28.853  0.00  0.00    -0.000 C 
ATOM     11  C   UNL A   1     -25.137  -5.280  29.205  0.00  0.00    -0.000 C 
ATOM     12  C   UNL A   1     -26.232  -4.611  29.784  0.00  0.00    -0.000 C 
ATOM     13  C   UNL A   1     -26.155  -3.232  30.065  0.00  0.00    -0.004 C 
ENDBRANCH   7   8
ENDBRANCH   2   7
ENDBRANCH   1   3
BRANCH   1  15
ATOM     14  C   UNL A   1     -25.832   3.195  31.396  0.00  0.00    +0.244 C 
ATOM     15  N   UNL A   1     -24.655   2.897  30.910  0.00  0.00    -0.166 NA
ATOM     16  O   UNL A   1     -26.834   2.658  31.018  0.00  0.00    -0.273 OA
BRANCH  14  21
ATOM     17  C   UNL A   1     -24.628   5.959  33.326  0.00  0.00    +0.116 C 
ATOM     18  C   UNL A   1     -26.313   4.607  33.673  0.00  0.00    +0.011 C 
ATOM     19  C   UNL A   1     -24.418   4.835  32.530  0.00  0.00    +0.039 C 
ATOM     20  C   UNL A   1     -25.791   5.915  33.929  0.00  0.00    +0.030 C 
ATOM     21  C   UNL A   1     -25.655   4.218  32.540  0.00  0.00    +0.081 C 
ATOM     22  C   UNL A   1     -27.093   3.960  34.790  0.00  0.00    +0.001 C 
BRANCH  17  24
ATOM     23  C   UNL A   1     -22.287   6.626  33.011  0.00  0.00    +0.174 C 
ATOM     24  O   UNL A   1     -23.607   6.921  33.544  0.00  0.00    -0.354 OA
ENDBRANCH  17  24
ENDBRANCH  14  21
ENDBRANCH   1  15
BRANCH   1  25
ATOM     25  O   UNL A   1     -24.221   1.444  29.324  0.00  0.00    -0.456 OA
BRANCH  25  28
ATOM     26  C   UNL A   1     -24.232   1.658  26.755  0.00  0.00    +0.022 C 
ATOM     27  C   UNL A   1     -21.417   1.488  26.969  0.00  0.00    +0.045 C 
ATOM     28  C   UNL A   1     -23.616   1.347  28.031  0.00  0.00    +0.176 C 
ATOM     29  O   UNL A   1     -21.871   0.134  28.935  0.00  0.00    -0.283 OA
ATOM     30  C   UNL A   1     -22.258   0.973  28.013  0.00  0.00    +0.229 C 
ATOM     31  C   UNL A   1     -21.997   2.064  25.818  0.00  0.00    +0.003 C 
ATOM     32  C   UNL A   1     -23.396   2.105  25.670  0.00  0.00    -0.001 C 
BRANCH  26  33
ATOM     33  C   UNL A   1     -25.688   1.614  26.461  0.00  0.00    +0.095 C 
ATOM     34  C   UNL A   1     -26.250   2.920  26.395  0.00  0.00    +0.059 C 
ATOM     35  C   UNL A   1     -27.438   3.091  25.645  0.00  0.00    +0.102 C 
ATOM     36  N   UNL A   1     -28.075   2.089  25.003  0.00  0.00    -0.212 NA
ATOM     37  C   UNL A   1     -27.543   0.849  25.079  0.00  0.00    +0.234 C 
ATOM     38  C   UNL A   1     -26.354   0.576  25.777  0.00  0.00    +0.244 C 
ATOM     39  F   UNL A   1     -25.860  -0.681  25.795  0.00  0.00    -0.227 F 
BRANCH  34  40
ATOM     40  C   UNL A   1     -25.642   4.093  27.123  0.00  0.00    +0.263 C 
ATOM     41  N   UNL A   1     -25.614   5.252  26.449  0.00  0.00    -0.200 NA
ATOM     42  C   UNL A   1     -25.026   6.479  26.963  0.00  0.00    +0.139 C 
ATOM     43  O   UNL A   1     -25.143   3.966  28.243  0.00  0.00    -0.269 OA
ENDBRANCH  34  40
BRANCH  37  44
ATOM     44  O   UNL A   1     -28.193  -0.208  24.477  0.00  0.00    -0.459 OA
BRANCH  44  45
ATOM     45  C   UNL A   1     -29.460   0.005  23.866  0.00  0.00    +0.242 C 
BRANCH  45  46
ATOM     46  C   UNL A   1     -30.065  -1.377  23.573  0.00  0.00    +0.229 C 
ATOM     47  O   UNL A   1     -30.729  -1.878  24.721  0.00  0.00    -0.216 OA
ENDBRANCH  45  46
ENDBRANCH  44  45
ENDBRANCH  37  44
ENDBRANCH  26  33
ENDBRANCH  25  28
ENDBRANCH   1  25
TORSDOF 13
