REMARK  Name = outputs/IAG933/test6/raw/output_6748_IAG933_linker_design_.xyz
REMARK  15 active torsions:
REMARK  status: ('A' for Active; 'I' for Inactive)
REMARK    1  A    between atoms: C_1  and  C_2
REMARK    2  A    between atoms: C_1  and  C_8
REMARK    3  A    between atoms: C_1  and  C_29
REMARK    4  A    between atoms: C_13  and  C_41
REMARK    5  A    between atoms: C_14  and  C_15
REMARK    6  A    between atoms: C_21  and  O_22
REMARK    7  A    between atoms: O_22  and  C_23
REMARK    8  A    between atoms: C_23  and  C_24
REMARK    9  A    between atoms: C_29  and  N_47
REMARK   10  A    between atoms: C_31  and  C_45
REMARK   11  A    between atoms: C_38  and  C_41
REMARK   12  A    between atoms: C_41  and  N_47
REMARK   13  A    between atoms: C_42  and  N_47
REMARK   14  A    between atoms: C_44  and  C_46
REMARK   15  A    between atoms: C_45  and  C_48
REMARK                            x       y       z     vdW  Elec       q    Type
REMARK                         _______ _______ _______ _____ _____    ______ ____
ROOT
ATOM      1  C   UNL A   1     -25.610  -0.267  29.003  0.00  0.00    +0.066 C 
ATOM      2  C   UNL A   1     -27.042  -0.037  28.878  0.00  0.00    -0.092 C 
ATOM      3  C   UNL A   1     -28.316   0.730  28.696  0.00  0.00    +0.062 C 
ENDROOT
BRANCH   3   5
ATOM      4  O   UNL A   1     -29.636   0.451  30.959  0.00  0.00    -0.203 OA
ATOM      5  C   UNL A   1     -29.291   1.351  29.905  0.00  0.00    +0.245 C 
BRANCH   5   6
ATOM      6  C   UNL A   1     -28.440   2.522  30.468  0.00  0.00    -0.049 C 
ATOM      7  C   UNL A   1     -27.590   3.321  30.954  0.00  0.00    -0.062 C 
BRANCH   7  14
ATOM      8  C   UNL A   1     -25.929   5.832  33.042  0.00  0.00    +0.012 C 
ATOM      9  C   UNL A   1     -24.249   4.340  32.135  0.00  0.00    +0.012 C 
ATOM     10  C   UNL A   1     -26.942   5.198  32.351  0.00  0.00    +0.009 C 
ATOM     11 CL   UNL A   1     -23.343   6.212  33.690  0.00  0.00    -0.082 Cl
ATOM     12  C   UNL A   1     -25.233   3.705  31.359  0.00  0.00    +0.009 C 
ATOM     13  C   UNL A   1     -24.562   5.448  32.896  0.00  0.00    +0.058 C 
ATOM     14  C   UNL A   1     -26.655   4.069  31.479  0.00  0.00    +0.042 C 
ENDBRANCH   7  14
ENDBRANCH   5   6
ENDBRANCH   3   5
BRANCH   1  15
ATOM     15  C   UNL A   1     -24.855  -1.012  30.143  0.00  0.00    +0.081 C 
BRANCH  15  16
ATOM     16  C   UNL A   1     -24.973  -2.505  29.788  0.00  0.00    -0.015 C 
ATOM     17  C   UNL A   1     -23.906  -3.173  29.146  0.00  0.00    -0.004 C 
ATOM     18  C   UNL A   1     -23.989  -4.549  28.853  0.00  0.00    -0.000 C 
ATOM     19  C   UNL A   1     -25.137  -5.280  29.205  0.00  0.00    -0.000 C 
ATOM     20  C   UNL A   1     -26.232  -4.611  29.784  0.00  0.00    -0.000 C 
ATOM     21  C   UNL A   1     -26.155  -3.232  30.065  0.00  0.00    -0.004 C 
ENDBRANCH  15  16
BRANCH  15  22
ATOM     22  C   UNL A   1     -25.387  -0.679  31.571  0.00  0.00    +0.083 C 
ATOM     23  C   UNL A   1     -25.189   0.773  32.028  0.00  0.00    +0.020 C 
ATOM     24  C   UNL A   1     -25.336   0.684  33.544  0.00  0.00    +0.020 C 
ATOM     25  C   UNL A   1     -24.829  -0.715  33.905  0.00  0.00    +0.089 C 
ATOM     26  N   UNL A   1     -24.758  -1.481  32.646  0.00  0.00    -0.219 NA
ENDBRANCH  15  22
ENDBRANCH   1  15
BRANCH   1  27
ATOM     27  N   UNL A   1     -24.521   0.509  28.382  0.00  0.00    -0.285 N 
BRANCH  27  29
ATOM     28  N   UNL A   1     -23.390   1.842  29.836  0.00  0.00    -0.107 NA
ATOM     29  C   UNL A   1     -23.537   0.636  29.054  0.00  0.00    +0.203 C 
ENDBRANCH  27  29
BRANCH  27  30
ATOM     30  C   UNL A   1     -24.468   1.207  27.187  0.00  0.00    +0.114 C 
BRANCH  30  31
ATOM     31  C   UNL A   1     -25.688   1.614  26.461  0.00  0.00    +0.035 C 
ATOM     32  C   UNL A   1     -26.250   2.920  26.395  0.00  0.00    +0.074 C 
ATOM     33  C   UNL A   1     -27.438   3.091  25.645  0.00  0.00    +0.106 C 
ATOM     34  N   UNL A   1     -28.075   2.089  25.003  0.00  0.00    -0.208 NA
ATOM     35  C   UNL A   1     -27.543   0.849  25.079  0.00  0.00    +0.253 C 
ATOM     36  C   UNL A   1     -26.354   0.576  25.777  0.00  0.00    +0.191 C 
ATOM     37  F   UNL A   1     -25.860  -0.681  25.795  0.00  0.00    -0.200 F 
BRANCH  32  38
ATOM     38  C   UNL A   1     -25.642   4.093  27.123  0.00  0.00    +0.266 C 
ATOM     39  N   UNL A   1     -25.614   5.252  26.449  0.00  0.00    -0.200 NA
ATOM     40  C   UNL A   1     -25.026   6.479  26.963  0.00  0.00    +0.139 C 
ATOM     41  O   UNL A   1     -25.143   3.966  28.243  0.00  0.00    -0.268 OA
ENDBRANCH  32  38
BRANCH  35  42
ATOM     42  O   UNL A   1     -28.193  -0.208  24.477  0.00  0.00    -0.456 OA
BRANCH  42  43
ATOM     43  C   UNL A   1     -29.460   0.005  23.866  0.00  0.00    +0.243 C 
BRANCH  43  44
ATOM     44  C   UNL A   1     -30.065  -1.377  23.573  0.00  0.00    +0.229 C 
ATOM     45  O   UNL A   1     -30.729  -1.878  24.721  0.00  0.00    -0.216 OA
ENDBRANCH  43  44
ENDBRANCH  42  43
ENDBRANCH  35  42
ENDBRANCH  30  31
BRANCH  30  47
ATOM     46 CL   UNL A   1     -23.130   2.729  25.298  0.00  0.00    -0.113 Cl
ATOM     47  C   UNL A   1     -23.082   2.111  27.003  0.00  0.00    +0.102 C 
ATOM     48  C   UNL A   1     -21.281   1.905  27.425  0.00  0.00    +0.020 C 
ENDBRANCH  30  47
ENDBRANCH  27  30
ENDBRANCH   1  27
TORSDOF 15
