MODEL 674
MODEL 1
REMARK VINA RESULT:    -5.294      0.000      0.000
REMARK INTER + INTRA:          -5.724
REMARK INTER:                  -5.604
REMARK INTRA:                  -0.120
REMARK UNBOUND:                -0.120
REMARK  Name = No_674-gen_results/8p0m/2024-11-27-11-27-31/
REMARK  1 active torsions:
REMARK  status: ('A' for Active; 'I' for Inactive)
REMARK    1  A    between atoms: C_5  and  N_7
REMARK                            x       y       z     vdW  Elec       q    Type
REMARK                         _______ _______ _______ _____ _____    ______ ____
ROOT
ATOM      1  C   UNL A   1     -25.171  -5.209  29.130  0.00  0.00    +0.002 A 
ATOM      2  C   UNL A   1     -26.187  -4.722  29.570  0.00  0.00    +0.000 A 
ATOM      3  C   UNL A   1     -26.339  -3.398  29.942  0.00  0.00    +0.002 A 
ATOM      4  C   UNL A   1     -25.215  -2.540  29.763  0.00  0.00    +0.019 A 
ATOM      5  C   UNL A   1     -24.151  -3.079  29.132  0.00  0.00    +0.081 A 
ATOM      6  C   UNL A   1     -24.141  -4.353  28.734  0.00  0.00    +0.019 A 
ENDROOT
BRANCH   5   7
ATOM      7  N   UNL A   1     -23.090  -2.208  28.921  0.00  0.00    -0.248 NA
ATOM      8  C   UNL A   1     -22.903  -1.152  29.298  0.00  0.00    +0.073 C 
ATOM      9  C   UNL A   1     -21.673  -0.387  29.000  0.00  0.00    +0.053 C 
ENDBRANCH   5   7
TORSDOF 1
ENDMDL
ENDMDL
