REMARK  Name = outputs/IAG933/test6/raw/output_6755_IAG933_linker_design_.xyz
REMARK  11 active torsions:
REMARK  status: ('A' for Active; 'I' for Inactive)
REMARK    1  A    between atoms: C_1  and  C_2
REMARK    2  A    between atoms: C_1  and  C_8
REMARK    3  A    between atoms: C_9  and  C_43
REMARK    4  A    between atoms: C_13  and  C_45
REMARK    5  A    between atoms: C_14  and  C_15
REMARK    6  A    between atoms: C_21  and  O_22
REMARK    7  A    between atoms: O_22  and  C_23
REMARK    8  A    between atoms: C_23  and  C_24
REMARK    9  A    between atoms: C_28  and  C_32
REMARK   10  A    between atoms: C_39  and  C_45
REMARK   11  A    between atoms: N_42  and  C_45
REMARK                            x       y       z     vdW  Elec       q    Type
REMARK                         _______ _______ _______ _____ _____    ______ ____
ROOT
ATOM      1  O   UNL A   1     -24.576   4.259  31.930  0.00  0.00    -0.242 OA
ATOM      2  C   UNL A   1     -25.581   4.247  31.243  0.00  0.00    +0.337 C 
ATOM      3  N   UNL A   1     -26.177   3.183  30.767  0.00  0.00    -0.130 N 
ATOM      4  C   UNL A   1     -25.736   2.259  29.978  0.00  0.00    +0.346 C 
ATOM      5  N   UNL A   1     -25.180   1.285  28.955  0.00  0.00    -0.058 NA
ATOM      6  C   UNL A   1     -25.957   1.796  31.084  0.00  0.00    +0.273 C 
ENDROOT
BRANCH   2   7
ATOM      7  C   UNL A   1     -26.336   5.443  30.789  0.00  0.00    +0.078 C 
ATOM      8  C   UNL A   1     -25.598   6.574  30.381  0.00  0.00    +0.007 C 
ATOM      9  C   UNL A   1     -28.380   6.487  29.920  0.00  0.00    +0.000 C 
ATOM     10  C   UNL A   1     -27.748   5.449  30.663  0.00  0.00    +0.007 C 
ATOM     11  C   UNL A   1     -27.582   7.530  29.383  0.00  0.00    +0.000 C 
ATOM     12  C   UNL A   1     -26.210   7.587  29.641  0.00  0.00    +0.000 C 
ENDBRANCH   2   7
BRANCH   6  14
ATOM     13  C   UNL A   1     -25.387  -0.679  31.571  0.00  0.00    +0.082 C 
ATOM     14  C   UNL A   1     -25.189   0.773  32.028  0.00  0.00    +0.073 C 
ATOM     15  C   UNL A   1     -25.336   0.684  33.544  0.00  0.00    +0.025 C 
ATOM     16  C   UNL A   1     -24.829  -0.715  33.905  0.00  0.00    +0.089 C 
ATOM     17  N   UNL A   1     -24.758  -1.481  32.646  0.00  0.00    -0.219 NA
BRANCH  13  18
ATOM     18  C   UNL A   1     -24.855  -1.012  30.143  0.00  0.00    +0.044 C 
BRANCH  18  19
ATOM     19  C   UNL A   1     -24.973  -2.505  29.788  0.00  0.00    -0.021 C 
ATOM     20  C   UNL A   1     -23.906  -3.173  29.146  0.00  0.00    -0.004 C 
ATOM     21  C   UNL A   1     -23.989  -4.549  28.853  0.00  0.00    -0.000 C 
ATOM     22  C   UNL A   1     -25.137  -5.280  29.205  0.00  0.00    -0.000 C 
ATOM     23  C   UNL A   1     -26.232  -4.611  29.784  0.00  0.00    -0.000 C 
ATOM     24  C   UNL A   1     -26.155  -3.232  30.065  0.00  0.00    -0.004 C 
ENDBRANCH  18  19
ENDBRANCH  13  18
ENDBRANCH   6  14
BRANCH   5  25
ATOM     25  C   UNL A   1     -24.595   1.410  27.468  0.00  0.00    +0.284 C 
BRANCH  25  26
ATOM     26  C   UNL A   1     -25.688   1.614  26.461  0.00  0.00    +0.070 C 
ATOM     27  C   UNL A   1     -26.250   2.920  26.395  0.00  0.00    +0.077 C 
ATOM     28  C   UNL A   1     -27.438   3.091  25.645  0.00  0.00    +0.107 C 
ATOM     29  N   UNL A   1     -28.075   2.089  25.003  0.00  0.00    -0.208 NA
ATOM     30  C   UNL A   1     -27.543   0.849  25.079  0.00  0.00    +0.253 C 
ATOM     31  C   UNL A   1     -26.354   0.576  25.777  0.00  0.00    +0.194 C 
ATOM     32  F   UNL A   1     -25.860  -0.681  25.795  0.00  0.00    -0.199 F 
BRANCH  27  33
ATOM     33  C   UNL A   1     -25.642   4.093  27.123  0.00  0.00    +0.266 C 
ATOM     34  N   UNL A   1     -25.614   5.252  26.449  0.00  0.00    -0.200 NA
ATOM     35  C   UNL A   1     -25.026   6.479  26.963  0.00  0.00    +0.139 C 
ATOM     36  O   UNL A   1     -25.143   3.966  28.243  0.00  0.00    -0.268 OA
ENDBRANCH  27  33
BRANCH  30  37
ATOM     37  O   UNL A   1     -28.193  -0.208  24.477  0.00  0.00    -0.456 OA
BRANCH  37  38
ATOM     38  C   UNL A   1     -29.460   0.005  23.866  0.00  0.00    +0.243 C 
BRANCH  38  39
ATOM     39  C   UNL A   1     -30.065  -1.377  23.573  0.00  0.00    +0.229 C 
ATOM     40  O   UNL A   1     -30.729  -1.878  24.721  0.00  0.00    -0.216 OA
ENDBRANCH  38  39
ENDBRANCH  37  38
ENDBRANCH  30  37
ENDBRANCH  25  26
BRANCH  25  44
ATOM     41  N   UNL A   1     -22.442   1.888  26.079  0.00  0.00    -0.084 NA
ATOM     42  O   UNL A   1     -21.105   1.612  27.756  0.00  0.00    -0.305 OA
ATOM     43  C   UNL A   1     -22.316   1.393  28.267  0.00  0.00    +0.244 C 
ATOM     44  C   UNL A   1     -23.148   1.518  27.267  0.00  0.00    +0.183 C 
ATOM     45  O   UNL A   1     -21.170   1.958  26.446  0.00  0.00    -0.034 OA
ENDBRANCH  25  44
ENDBRANCH   5  25
TORSDOF 11
