REMARK  Name = outputs/IAG933/test6/raw/output_6756_IAG933_linker_design_.xyz
REMARK  13 active torsions:
REMARK  status: ('A' for Active; 'I' for Inactive)
REMARK    1  A    between atoms: C_1  and  C_2
REMARK    2  A    between atoms: C_1  and  C_8
REMARK    3  A    between atoms: C_1  and  O_35
REMARK    4  A    between atoms: C_9  and  C_34
REMARK    5  A    between atoms: C_13  and  C_33
REMARK    6  A    between atoms: C_14  and  C_15
REMARK    7  A    between atoms: C_21  and  O_22
REMARK    8  A    between atoms: O_22  and  C_23
REMARK    9  A    between atoms: C_23  and  C_24
REMARK   10  A    between atoms: C_34  and  C_37
REMARK   11  A    between atoms: O_35  and  C_41
REMARK   12  A    between atoms: O_36  and  C_37
REMARK   13  A    between atoms: O_36  and  C_42
REMARK                            x       y       z     vdW  Elec       q    Type
REMARK                         _______ _______ _______ _____ _____    ______ ____
ROOT
ATOM      1  C   UNL A   1     -22.132   1.620  27.576  0.00  0.00    +0.151 C 
ATOM      2  C   UNL A   1     -22.290   1.103  28.831  0.00  0.00    +0.034 C 
ATOM      3  F   UNL A   1     -20.896   1.918  27.211  0.00  0.00    -0.203 F 
ATOM      4  C   UNL A   1     -23.277   1.773  26.797  0.00  0.00    +0.088 C 
ATOM      5 CL   UNL A   1     -23.133   2.420  25.270  0.00  0.00    -0.080 Cl
ATOM      6  C   UNL A   1     -24.545   1.356  27.197  0.00  0.00    +0.049 C 
ATOM      7  C   UNL A   1     -23.595   0.751  29.170  0.00  0.00    +0.039 C 
ATOM      8  C   UNL A   1     -24.646   0.697  28.436  0.00  0.00    +0.140 C 
ENDROOT
BRANCH   6   9
ATOM      9  C   UNL A   1     -25.688   1.614  26.461  0.00  0.00    +0.042 C 
ATOM     10  C   UNL A   1     -26.250   2.920  26.395  0.00  0.00    +0.077 C 
ATOM     11  C   UNL A   1     -27.438   3.091  25.645  0.00  0.00    +0.107 C 
ATOM     12  N   UNL A   1     -28.075   2.089  25.003  0.00  0.00    -0.208 NA
ATOM     13  C   UNL A   1     -27.543   0.849  25.079  0.00  0.00    +0.253 C 
ATOM     14  C   UNL A   1     -26.354   0.576  25.777  0.00  0.00    +0.193 C 
ATOM     15  F   UNL A   1     -25.860  -0.681  25.795  0.00  0.00    -0.199 F 
BRANCH  10  16
ATOM     16  C   UNL A   1     -25.642   4.093  27.123  0.00  0.00    +0.266 C 
ATOM     17  N   UNL A   1     -25.614   5.252  26.449  0.00  0.00    -0.200 NA
ATOM     18  C   UNL A   1     -25.026   6.479  26.963  0.00  0.00    +0.139 C 
ATOM     19  O   UNL A   1     -25.143   3.966  28.243  0.00  0.00    -0.268 OA
ENDBRANCH  10  16
BRANCH  13  20
ATOM     20  O   UNL A   1     -28.193  -0.208  24.477  0.00  0.00    -0.456 OA
BRANCH  20  21
ATOM     21  C   UNL A   1     -29.460   0.005  23.866  0.00  0.00    +0.243 C 
BRANCH  21  22
ATOM     22  C   UNL A   1     -30.065  -1.377  23.573  0.00  0.00    +0.229 C 
ATOM     23  O   UNL A   1     -30.729  -1.878  24.721  0.00  0.00    -0.216 OA
ENDBRANCH  21  22
ENDBRANCH  20  21
ENDBRANCH  13  20
ENDBRANCH   6   9
BRANCH   8  24
ATOM     24  O   UNL A   1     -25.524  -0.205  29.070  0.00  0.00    -0.473 OA
BRANCH  24  25
ATOM     25  C   UNL A   1     -24.855  -1.012  30.143  0.00  0.00    +0.204 C 
BRANCH  25  26
ATOM     26  C   UNL A   1     -24.973  -2.505  29.788  0.00  0.00    +0.019 C 
ATOM     27  C   UNL A   1     -23.906  -3.173  29.146  0.00  0.00    -0.001 C 
ATOM     28  C   UNL A   1     -23.989  -4.549  28.853  0.00  0.00    -0.000 C 
ATOM     29  C   UNL A   1     -25.137  -5.280  29.205  0.00  0.00    -0.000 C 
ATOM     30  C   UNL A   1     -26.232  -4.611  29.784  0.00  0.00    -0.000 C 
ATOM     31  C   UNL A   1     -26.155  -3.232  30.065  0.00  0.00    -0.001 C 
ENDBRANCH  25  26
BRANCH  25  32
ATOM     32  C   UNL A   1     -25.387  -0.679  31.571  0.00  0.00    +0.117 C 
ATOM     33  C   UNL A   1     -25.189   0.773  32.028  0.00  0.00    +0.025 C 
ATOM     34  C   UNL A   1     -25.336   0.684  33.544  0.00  0.00    +0.020 C 
ATOM     35  C   UNL A   1     -24.829  -0.715  33.905  0.00  0.00    +0.089 C 
ATOM     36  N   UNL A   1     -24.758  -1.481  32.646  0.00  0.00    -0.215 NA
BRANCH  33  37
ATOM     37  C   UNL A   1     -25.613   2.099  31.385  0.00  0.00    +0.049 C 
BRANCH  37  38
ATOM     38  C   UNL A   1     -25.269   3.356  32.182  0.00  0.00    +0.207 C 
BRANCH  38  39
ATOM     39  O   UNL A   1     -25.204   4.604  31.495  0.00  0.00    -0.462 OA
BRANCH  39  42
ATOM     40  N   UNL A   1     -25.571   6.892  31.855  0.00  0.00    -0.112 NA
ATOM     41  C   UNL A   1     -24.533   5.633  33.602  0.00  0.00    +0.096 C 
ATOM     42  C   UNL A   1     -25.136   5.711  32.275  0.00  0.00    +0.220 C 
ENDBRANCH  39  42
ENDBRANCH  38  39
ENDBRANCH  37  38
ENDBRANCH  33  37
ENDBRANCH  25  32
ENDBRANCH  24  25
ENDBRANCH   8  24
TORSDOF 13
