REMARK  Name = outputs/IAG933/test6/raw/output_6758_IAG933_linker_design_.xyz
REMARK  12 active torsions:
REMARK  status: ('A' for Active; 'I' for Inactive)
REMARK    1  A    between atoms: C_1  and  C_2
REMARK    2  A    between atoms: C_1  and  C_8
REMARK    3  A    between atoms: C_1  and  C_33
REMARK    4  A    between atoms: C_13  and  C_34
REMARK    5  A    between atoms: C_14  and  C_15
REMARK    6  A    between atoms: C_21  and  O_22
REMARK    7  A    between atoms: O_22  and  C_23
REMARK    8  A    between atoms: C_23  and  C_24
REMARK    9  A    between atoms: O_30  and  C_41
REMARK   10  A    between atoms: O_31  and  C_39
REMARK   11  A    between atoms: N_32  and  C_33
REMARK   12  A    between atoms: C_33  and  C_42
REMARK                            x       y       z     vdW  Elec       q    Type
REMARK                         _______ _______ _______ _____ _____    ______ ____
ROOT
ATOM      1  N   UNL A   1     -24.291   0.633  28.216  0.00  0.00    -0.298 N 
ATOM      2  C   UNL A   1     -24.653   1.302  27.107  0.00  0.00    +0.102 A 
ATOM      3  C   UNL A   1     -22.904   0.778  28.330  0.00  0.00    +0.245 A 
ATOM      4  C   UNL A   1     -23.453   1.631  26.414  0.00  0.00    +0.196 A 
ATOM      5  F   UNL A   1     -22.329   0.277  29.337  0.00  0.00    -0.181 F 
ATOM      6  C   UNL A   1     -22.328   1.415  27.213  0.00  0.00    +0.268 A 
ENDROOT
BRANCH   2   7
ATOM      7  C   UNL A   1     -25.688   1.614  26.461  0.00  0.00    +0.057 C 
ATOM      8  C   UNL A   1     -26.250   2.920  26.395  0.00  0.00    +0.078 C 
ATOM      9  C   UNL A   1     -27.438   3.091  25.645  0.00  0.00    +0.107 C 
ATOM     10  N   UNL A   1     -28.075   2.089  25.003  0.00  0.00    -0.208 NA
ATOM     11  C   UNL A   1     -27.543   0.849  25.079  0.00  0.00    +0.253 C 
ATOM     12  C   UNL A   1     -26.354   0.576  25.777  0.00  0.00    +0.195 C 
ATOM     13  F   UNL A   1     -25.860  -0.681  25.795  0.00  0.00    -0.199 F 
BRANCH   8  14
ATOM     14  C   UNL A   1     -25.642   4.093  27.123  0.00  0.00    +0.267 C 
ATOM     15  N   UNL A   1     -25.614   5.252  26.449  0.00  0.00    -0.200 NA
ATOM     16  C   UNL A   1     -25.026   6.479  26.963  0.00  0.00    +0.139 C 
ATOM     17  O   UNL A   1     -25.143   3.966  28.243  0.00  0.00    -0.268 OA
ENDBRANCH   8  14
BRANCH  11  18
ATOM     18  O   UNL A   1     -28.193  -0.208  24.477  0.00  0.00    -0.456 OA
BRANCH  18  19
ATOM     19  C   UNL A   1     -29.460   0.005  23.866  0.00  0.00    +0.243 C 
BRANCH  19  20
ATOM     20  C   UNL A   1     -30.065  -1.377  23.573  0.00  0.00    +0.229 C 
ATOM     21  O   UNL A   1     -30.729  -1.878  24.721  0.00  0.00    -0.216 OA
ENDBRANCH  19  20
ENDBRANCH  18  19
ENDBRANCH  11  18
ENDBRANCH   2   7
BRANCH   4  23
ATOM     22  C   UNL A   1     -22.031   2.461  25.095  0.00  0.00    +0.253 C 
ATOM     23  O   UNL A   1     -23.233   2.059  25.241  0.00  0.00    -0.467 OA
ENDBRANCH   4  23
BRANCH   6  24
ATOM     24  O   UNL A   1     -21.273   1.801  26.509  0.00  0.00    -0.285 OA
ATOM     25  F   UNL A   1     -20.439   1.399  27.700  0.00  0.00    +0.014 F 
ENDBRANCH   6  24
BRANCH   1  26
ATOM     26  C   UNL A   1     -25.155  -0.209  28.961  0.00  0.00    +0.120 C 
BRANCH  26  30
ATOM     27  C   UNL A   1     -27.665  -0.293  28.665  0.00  0.00    +0.034 C 
ATOM     28  O   UNL A   1     -26.608   1.659  29.386  0.00  0.00    -0.354 OA
ATOM     29  C   UNL A   1     -28.009   1.814  30.001  0.00  0.00    +0.142 C 
ATOM     30  C   UNL A   1     -26.513   0.285  28.924  0.00  0.00    +0.136 C 
ATOM     31  C   UNL A   1     -28.753   0.653  29.331  0.00  0.00    +0.035 C 
ENDBRANCH  26  30
BRANCH  26  32
ATOM     32  C   UNL A   1     -24.855  -1.012  30.143  0.00  0.00    +0.061 C 
BRANCH  32  33
ATOM     33  C   UNL A   1     -24.973  -2.505  29.788  0.00  0.00    -0.019 C 
ATOM     34  C   UNL A   1     -23.906  -3.173  29.146  0.00  0.00    -0.004 C 
ATOM     35  C   UNL A   1     -23.989  -4.549  28.853  0.00  0.00    -0.000 C 
ATOM     36  C   UNL A   1     -25.137  -5.280  29.205  0.00  0.00    -0.000 C 
ATOM     37  C   UNL A   1     -26.232  -4.611  29.784  0.00  0.00    -0.000 C 
ATOM     38  C   UNL A   1     -26.155  -3.232  30.065  0.00  0.00    -0.004 C 
ENDBRANCH  32  33
BRANCH  32  39
ATOM     39  C   UNL A   1     -25.387  -0.679  31.571  0.00  0.00    +0.079 C 
ATOM     40  C   UNL A   1     -25.189   0.773  32.028  0.00  0.00    +0.019 C 
ATOM     41  C   UNL A   1     -25.336   0.684  33.544  0.00  0.00    +0.020 C 
ATOM     42  C   UNL A   1     -24.829  -0.715  33.905  0.00  0.00    +0.089 C 
ATOM     43  N   UNL A   1     -24.758  -1.481  32.646  0.00  0.00    -0.219 NA
ENDBRANCH  32  39
ENDBRANCH  26  32
ENDBRANCH   1  26
TORSDOF 12
