MODEL 675
MODEL 1
REMARK VINA RESULT:    -7.709      0.000      0.000
REMARK INTER + INTRA:         -15.741
REMARK INTER:                 -11.314
REMARK INTRA:                  -4.427
REMARK UNBOUND:                -4.427
REMARK  Name = No_675-gen_results/8p0m/2024-11-27-11-27-31/
REMARK  8 active torsions:
REMARK  status: ('A' for Active; 'I' for Inactive)
REMARK    1  A    between atoms: C_2  and  C_15
REMARK    2  A    between atoms: C_3  and  C_4
REMARK    3  A    between atoms: C_9  and  C_20
REMARK    4  A    between atoms: C_11  and  C_12
REMARK    5  A    between atoms: C_20  and  C_21
REMARK    6  A    between atoms: C_21  and  C_22
REMARK    7  A    between atoms: C_21  and  C_28
REMARK    8  A    between atoms: C_28  and  C_29
REMARK                            x       y       z     vdW  Elec       q    Type
REMARK                         _______ _______ _______ _____ _____    ______ ____
ROOT
ATOM      1  C   UNL A   1     -26.172   0.454  26.977  0.00  0.00    +0.044 C 
ATOM      2  C   UNL A   1     -26.722  -0.299  27.998  0.00  0.00    -0.026 C 
ATOM      3  C   UNL A   1     -27.102   0.156  29.075  0.00  0.00    -0.026 C 
ATOM      4  C   UNL A   1     -27.097   1.626  29.308  0.00  0.00    -0.002 C 
ATOM      5  C   UNL A   1     -27.513   2.421  28.514  0.00  0.00    +0.057 C 
ATOM      6  C   UNL A   1     -27.651   2.110  27.028  0.00  0.00    +0.034 C 
ATOM      7  C   UNL A   1     -26.951   1.294  26.266  0.00  0.00    +0.014 C 
ENDROOT
BRANCH   1  10
ATOM      8  C   UNL A   1     -23.699   0.185  27.848  0.00  0.00    +0.003 A 
ATOM      9  C   UNL A   1     -22.767   0.675  27.840  0.00  0.00    +0.080 A 
ATOM     10  C   UNL A   1     -24.784   0.837  27.019  0.00  0.00    -0.018 A 
ATOM     11  C   UNL A   1     -22.237   1.761  27.004  0.00  0.00    +0.007 A 
ATOM     12  C   UNL A   1     -23.162   2.389  26.198  0.00  0.00    -0.000 A 
ATOM     13  C   UNL A   1     -24.456   1.938  26.148  0.00  0.00    -0.004 A 
BRANCH   9  14
ATOM     14  C   UNL A   1     -21.613   0.044  28.748  0.00  0.00    +0.388 C 
ATOM     15  O   UNL A   1     -21.752  -0.451  29.771  0.00  0.00    -0.241 OA
ATOM     16  O   UNL A   1     -20.412   0.225  28.256  0.00  0.00    -0.241 OA
ENDBRANCH   9  14
ENDBRANCH   1  10
BRANCH   5  17
ATOM     17  C   UNL A   1     -27.670   3.884  28.743  0.00  0.00    +0.384 C 
ATOM     18  O   UNL A   1     -28.095   4.611  27.821  0.00  0.00    -0.241 OA
ATOM     19  O   UNL A   1     -26.800   4.346  29.608  0.00  0.00    -0.241 OA
ENDBRANCH   5  17
BRANCH   3  20
ATOM     20  C   UNL A   1     -27.142  -0.708  30.300  0.00  0.00    +0.031 C 
BRANCH  20  21
ATOM     21  C   UNL A   1     -26.122  -1.430  30.745  0.00  0.00    +0.031 C 
BRANCH  21  22
ATOM     22  C   UNL A   1     -25.705  -2.565  30.037  0.00  0.00    -0.022 A 
ATOM     23  C   UNL A   1     -26.462  -3.760  30.067  0.00  0.00    -0.004 A 
ATOM     24  C   UNL A   1     -26.148  -4.914  29.345  0.00  0.00    -0.000 A 
ATOM     25  C   UNL A   1     -24.827  -4.986  28.916  0.00  0.00    -0.000 A 
ATOM     26  C   UNL A   1     -23.952  -3.869  29.023  0.00  0.00    -0.000 A 
ATOM     27  C   UNL A   1     -24.398  -2.700  29.583  0.00  0.00    -0.004 A 
ENDBRANCH  21  22
BRANCH  21  28
ATOM     28  C   UNL A   1     -25.375  -1.049  31.939  0.00  0.00    +0.031 C 
BRANCH  28  29
ATOM     29  C   UNL A   1     -25.234   0.276  32.191  0.00  0.00    -0.022 A 
ATOM     30  C   UNL A   1     -25.933   1.114  32.937  0.00  0.00    -0.004 A 
ATOM     31  C   UNL A   1     -25.773   2.483  33.036  0.00  0.00    -0.000 A 
ATOM     32  C   UNL A   1     -24.822   3.093  32.217  0.00  0.00    -0.000 A 
ATOM     33  C   UNL A   1     -24.043   2.335  31.349  0.00  0.00    -0.000 A 
ATOM     34  C   UNL A   1     -24.229   0.972  31.290  0.00  0.00    -0.004 A 
ENDBRANCH  28  29
ENDBRANCH  21  28
ENDBRANCH  20  21
ENDBRANCH   3  20
TORSDOF 8
ENDMDL
ENDMDL
