REMARK  Name = outputs/IAG933/test6/raw/output_6763_IAG933_linker_design_.xyz
REMARK  19 active torsions:
REMARK  status: ('A' for Active; 'I' for Inactive)
REMARK    1  A    between atoms: C_1  and  C_2
REMARK    2  A    between atoms: C_1  and  C_8
REMARK    3  A    between atoms: C_9  and  N_33
REMARK    4  A    between atoms: C_13  and  C_32
REMARK    5  A    between atoms: C_14  and  C_15
REMARK    6  A    between atoms: C_21  and  O_22
REMARK    7  A    between atoms: O_22  and  C_23
REMARK    8  A    between atoms: C_23  and  C_24
REMARK    9  A    between atoms: C_29  and  CA_36
REMARK   10  A    between atoms: C_30  and  C_31
REMARK   11  A    between atoms: C_30  and  C_35
REMARK   12  A    between atoms: C_31  and  C_38
REMARK   13  A    between atoms: C_32  and  N_39
REMARK   14  A    between atoms: N_33  and  C_38
REMARK   15  A    between atoms: N_33  and  C_41
REMARK   16  A    between atoms: O_34  and  C_35
REMARK   17  A    between atoms: CA_36  and  C_37
REMARK   18  A    between atoms: CA_36  and  N_39
REMARK   19  A    between atoms: C_37  and  C_41
REMARK                            x       y       z     vdW  Elec       q    Type
REMARK                         _______ _______ _______ _____ _____    ______ ____
ROOT
ATOM      1  C   UNL A   1     -22.530   1.198  29.662  0.00  0.00    +0.037 C 
ENDROOT
BRANCH   1   2
ATOM      2  C   UNL A   1     -23.641   2.170  30.392  0.00  0.00    +0.074 C 
BRANCH   2   3
ATOM      3  N   UNL A   1     -25.027   1.810  31.110  0.00  0.00    -0.273 NA
BRANCH   3   5
ATOM      4  C   UNL A   1     -25.387  -0.679  31.571  0.00  0.00    +0.092 C 
ATOM      5  C   UNL A   1     -25.189   0.773  32.028  0.00  0.00    +0.075 C 
ATOM      6  C   UNL A   1     -25.336   0.684  33.544  0.00  0.00    +0.036 C 
ATOM      7  C   UNL A   1     -24.829  -0.715  33.905  0.00  0.00    +0.090 C 
ATOM      8  N   UNL A   1     -24.758  -1.481  32.646  0.00  0.00    -0.218 NA
BRANCH   4   9
ATOM      9  C   UNL A   1     -24.855  -1.012  30.143  0.00  0.00    +0.045 C 
BRANCH   9  10
ATOM     10  C   UNL A   1     -24.973  -2.505  29.788  0.00  0.00    -0.021 C 
ATOM     11  C   UNL A   1     -23.906  -3.173  29.146  0.00  0.00    -0.004 C 
ATOM     12  C   UNL A   1     -23.989  -4.549  28.853  0.00  0.00    -0.000 C 
ATOM     13  C   UNL A   1     -25.137  -5.280  29.205  0.00  0.00    -0.000 C 
ATOM     14  C   UNL A   1     -26.232  -4.611  29.784  0.00  0.00    -0.000 C 
ATOM     15  C   UNL A   1     -26.155  -3.232  30.065  0.00  0.00    -0.004 C 
ENDBRANCH   9  10
ENDBRANCH   4   9
ENDBRANCH   3   5
BRANCH   3  16
ATOM     16  C   UNL A   1     -25.747   2.928  31.750  0.00  0.00    +0.072 C 
BRANCH  16  17
ATOM     17  C   UNL A   1     -24.530   3.785  32.156  0.00  0.00    +0.021 C 
BRANCH  17  18
ATOM     18  C   UNL A   1     -24.988   5.141  31.878  0.00  0.00    +0.051 C 
BRANCH  18  19
ATOM     19  C   UNL A   1     -25.772   6.083  32.446  0.00  0.00    +0.206 C 
ATOM     20  N   UNL A   1     -27.035   5.671  32.817  0.00  0.00    -0.100 NA
BRANCH  19  21
ATOM     21  O   UNL A   1     -25.544   7.314  32.763  0.00  0.00    -0.336 OA
ATOM     22  C   UNL A   1     -24.192   7.665  32.536  0.00  0.00    +0.176 C 
ENDBRANCH  19  21
ENDBRANCH  18  19
ENDBRANCH  17  18
ENDBRANCH  16  17
ENDBRANCH   3  16
ENDBRANCH   2   3
ENDBRANCH   1   2
BRANCH   1  23
ATOM     23  CA  UNL A   1     -22.788   1.789  28.284  0.00  0.00    +0.107 C 
BRANCH  23  25
ATOM     24  O   UNL A   1     -20.392   1.192  27.958  0.00  0.00    -0.219 OA
ATOM     25  C   UNL A   1     -21.488   1.909  27.406  0.00  0.00    +0.199 C 
ENDBRANCH  23  25
BRANCH  23  26
ATOM     26  N   UNL A   1     -23.909   1.218  27.758  0.00  0.00    -0.216 NA
BRANCH  26  27
ATOM     27  C   UNL A   1     -24.340   1.375  26.678  0.00  0.00    +0.097 C 
BRANCH  27  28
ATOM     28  C   UNL A   1     -25.688   1.614  26.461  0.00  0.00    +0.087 C 
ATOM     29  C   UNL A   1     -26.250   2.920  26.395  0.00  0.00    +0.056 C 
ATOM     30  C   UNL A   1     -27.438   3.091  25.645  0.00  0.00    +0.102 C 
ATOM     31  N   UNL A   1     -28.075   2.089  25.003  0.00  0.00    -0.212 NA
ATOM     32  C   UNL A   1     -27.543   0.849  25.079  0.00  0.00    +0.234 C 
ATOM     33  C   UNL A   1     -26.354   0.576  25.777  0.00  0.00    +0.241 C 
ATOM     34  F   UNL A   1     -25.860  -0.681  25.795  0.00  0.00    -0.227 F 
BRANCH  29  35
ATOM     35  C   UNL A   1     -25.642   4.093  27.123  0.00  0.00    +0.263 C 
ATOM     36  N   UNL A   1     -25.614   5.252  26.449  0.00  0.00    -0.200 NA
ATOM     37  C   UNL A   1     -25.026   6.479  26.963  0.00  0.00    +0.139 C 
ATOM     38  O   UNL A   1     -25.143   3.966  28.243  0.00  0.00    -0.269 OA
ENDBRANCH  29  35
BRANCH  32  39
ATOM     39  O   UNL A   1     -28.193  -0.208  24.477  0.00  0.00    -0.459 OA
BRANCH  39  40
ATOM     40  C   UNL A   1     -29.460   0.005  23.866  0.00  0.00    +0.242 C 
BRANCH  40  41
ATOM     41  C   UNL A   1     -30.065  -1.377  23.573  0.00  0.00    +0.229 C 
ATOM     42  O   UNL A   1     -30.729  -1.878  24.721  0.00  0.00    -0.216 OA
ENDBRANCH  40  41
ENDBRANCH  39  40
ENDBRANCH  32  39
ENDBRANCH  27  28
ENDBRANCH  26  27
ENDBRANCH  23  26
ENDBRANCH   1  23
TORSDOF 19
