REMARK  Name = outputs/IAG933/test6/raw/output_6764_IAG933_linker_design_.xyz
REMARK  13 active torsions:
REMARK  status: ('A' for Active; 'I' for Inactive)
REMARK    1  A    between atoms: C_1  and  C_2
REMARK    2  A    between atoms: C_1  and  C_8
REMARK    3  A    between atoms: C_1  and  C_28
REMARK    4  A    between atoms: C_13  and  C_29
REMARK    5  A    between atoms: C_14  and  C_15
REMARK    6  A    between atoms: C_21  and  O_22
REMARK    7  A    between atoms: O_22  and  C_23
REMARK    8  A    between atoms: C_23  and  C_24
REMARK    9  A    between atoms: C_28  and  C_36
REMARK   10  A    between atoms: C_28  and  C_50
REMARK   11  A    between atoms: C_30  and  O_42
REMARK   12  A    between atoms: C_33  and  C_44
REMARK   13  A    between atoms: C_36  and  C_46
REMARK                            x       y       z     vdW  Elec       q    Type
REMARK                         _______ _______ _______ _____ _____    ______ ____
ROOT
ATOM      1  C   UNL A   1     -25.246   0.082  29.163  0.00  0.00    +0.006 C 
ENDROOT
BRANCH   1   7
ATOM      2  C   UNL A   1     -24.415   1.365  27.071  0.00  0.00    +0.028 C 
ATOM      3  C   UNL A   1     -22.907   1.163  28.595  0.00  0.00    +0.036 C 
ATOM      4  C   UNL A   1     -22.414   1.575  27.396  0.00  0.00    +0.161 C 
ATOM      5  C   UNL A   1     -23.361   1.627  26.362  0.00  0.00    +0.040 C 
ATOM      6  F   UNL A   1     -21.099   1.855  27.089  0.00  0.00    -0.237 F 
ATOM      7  C   UNL A   1     -24.261   0.857  28.372  0.00  0.00    +0.007 C 
BRANCH   2   8
ATOM      8  C   UNL A   1     -25.688   1.614  26.461  0.00  0.00    +0.016 C 
ATOM      9  C   UNL A   1     -26.250   2.920  26.395  0.00  0.00    +0.073 C 
ATOM     10  C   UNL A   1     -27.438   3.091  25.645  0.00  0.00    +0.106 C 
ATOM     11  N   UNL A   1     -28.075   2.089  25.003  0.00  0.00    -0.208 NA
ATOM     12  C   UNL A   1     -27.543   0.849  25.079  0.00  0.00    +0.253 C 
ATOM     13  C   UNL A   1     -26.354   0.576  25.777  0.00  0.00    +0.189 C 
ATOM     14  F   UNL A   1     -25.860  -0.681  25.795  0.00  0.00    -0.200 F 
BRANCH   9  15
ATOM     15  C   UNL A   1     -25.642   4.093  27.123  0.00  0.00    +0.266 C 
ATOM     16  N   UNL A   1     -25.614   5.252  26.449  0.00  0.00    -0.200 NA
ATOM     17  C   UNL A   1     -25.026   6.479  26.963  0.00  0.00    +0.139 C 
ATOM     18  O   UNL A   1     -25.143   3.966  28.243  0.00  0.00    -0.268 OA
ENDBRANCH   9  15
BRANCH  12  19
ATOM     19  O   UNL A   1     -28.193  -0.208  24.477  0.00  0.00    -0.456 OA
BRANCH  19  20
ATOM     20  C   UNL A   1     -29.460   0.005  23.866  0.00  0.00    +0.243 C 
BRANCH  20  21
ATOM     21  C   UNL A   1     -30.065  -1.377  23.573  0.00  0.00    +0.229 C 
ATOM     22  O   UNL A   1     -30.729  -1.878  24.721  0.00  0.00    -0.216 OA
ENDBRANCH  20  21
ENDBRANCH  19  20
ENDBRANCH  12  19
ENDBRANCH   2   8
ENDBRANCH   1   7
BRANCH   1  23
ATOM     23  C   UNL A   1     -24.855  -1.012  30.143  0.00  0.00    +0.038 C 
BRANCH  23  24
ATOM     24  C   UNL A   1     -24.973  -2.505  29.788  0.00  0.00    -0.021 C 
ATOM     25  C   UNL A   1     -23.906  -3.173  29.146  0.00  0.00    -0.004 C 
ATOM     26  C   UNL A   1     -23.989  -4.549  28.853  0.00  0.00    -0.000 C 
ATOM     27  C   UNL A   1     -25.137  -5.280  29.205  0.00  0.00    -0.000 C 
ATOM     28  C   UNL A   1     -26.232  -4.611  29.784  0.00  0.00    -0.000 C 
ATOM     29  C   UNL A   1     -26.155  -3.232  30.065  0.00  0.00    -0.004 C 
ENDBRANCH  23  24
BRANCH  23  30
ATOM     30  C   UNL A   1     -25.387  -0.679  31.571  0.00  0.00    +0.077 C 
ATOM     31  C   UNL A   1     -25.189   0.773  32.028  0.00  0.00    +0.019 C 
ATOM     32  C   UNL A   1     -25.336   0.684  33.544  0.00  0.00    +0.020 C 
ATOM     33  C   UNL A   1     -24.829  -0.715  33.905  0.00  0.00    +0.089 C 
ATOM     34  N   UNL A   1     -24.758  -1.481  32.646  0.00  0.00    -0.219 NA
ENDBRANCH  23  30
ENDBRANCH   1  23
BRANCH   1  35
ATOM     35  C   UNL A   1     -26.676   0.226  28.936  0.00  0.00    +0.004 C 
BRANCH  35  39
ATOM     36  C   UNL A   1     -29.887  -0.166  29.747  0.00  0.00    +0.176 C 
ATOM     37  C   UNL A   1     -28.546   1.827  29.834  0.00  0.00    -0.038 C 
ATOM     38  C   UNL A   1     -28.626   0.319  27.947  0.00  0.00    +0.007 C 
ATOM     39  C   UNL A   1     -27.795   0.893  28.947  0.00  0.00    +0.019 C 
ATOM     40  C   UNL A   1     -29.490  -0.568  28.487  0.00  0.00    +0.038 C 
ATOM     41  C   UNL A   1     -29.679   1.128  30.293  0.00  0.00    -0.002 C 
BRANCH  37  43
ATOM     42  O   UNL A   1     -26.930   2.794  31.918  0.00  0.00    -0.273 OA
ATOM     43  C   UNL A   1     -28.261   3.398  30.085  0.00  0.00    +0.096 C 
ATOM     44  C   UNL A   1     -28.684   5.641  31.322  0.00  0.00    +0.024 C 
ATOM     45  C   UNL A   1     -27.277   5.843  30.686  0.00  0.00    +0.115 C 
ATOM     46  N   UNL A   1     -26.358   4.719  30.851  0.00  0.00    -0.205 NA
ATOM     47  C   UNL A   1     -27.128   3.574  31.012  0.00  0.00    +0.245 C 
ATOM     48  C   UNL A   1     -29.329   4.372  30.705  0.00  0.00    +0.015 C 
ENDBRANCH  37  43
BRANCH  36  50
ATOM     49  O   UNL A   1     -29.973  -2.473  30.019  0.00  0.00    -0.034 OA
ATOM     50  O   UNL A   1     -30.293  -1.217  30.524  0.00  0.00    -0.187 OA
ENDBRANCH  36  50
ENDBRANCH  35  39
ENDBRANCH   1  35
TORSDOF 13
