REMARK  Name = outputs/IAG933/test6/raw/output_6769_IAG933_linker_design_.xyz
REMARK  16 active torsions:
REMARK  status: ('A' for Active; 'I' for Inactive)
REMARK    1  A    between atoms: C_1  and  C_2
REMARK    2  A    between atoms: C_1  and  C_8
REMARK    3  A    between atoms: C_1  and  N_29
REMARK    4  A    between atoms: C_14  and  C_15
REMARK    5  A    between atoms: C_21  and  O_22
REMARK    6  A    between atoms: O_22  and  C_23
REMARK    7  A    between atoms: C_23  and  C_24
REMARK    8  A    between atoms: C_28  and  C_34
REMARK    9  A    between atoms: C_28  and  N_37
REMARK   10  A    between atoms: C_28  and  C_42
REMARK   11  A    between atoms: C_30  and  C_35
REMARK   12  A    between atoms: C_30  and  C_40
REMARK   13  A    between atoms: C_33  and  N_38
REMARK   14  A    between atoms: C_35  and  O_36
REMARK   15  A    between atoms: O_36  and  C_42
REMARK   16  A    between atoms: N_38  and  C_40
REMARK                            x       y       z     vdW  Elec       q    Type
REMARK                         _______ _______ _______ _____ _____    ______ ____
ROOT
ATOM      1  C   UNL A   1     -25.688   1.614  26.461  0.00  0.00    +0.060 C 
ATOM      2  C   UNL A   1     -26.250   2.920  26.395  0.00  0.00    +0.080 C 
ATOM      3  C   UNL A   1     -27.438   3.091  25.645  0.00  0.00    +0.107 C 
ATOM      4  N   UNL A   1     -28.075   2.089  25.003  0.00  0.00    -0.211 NA
ATOM      5  C   UNL A   1     -27.543   0.849  25.079  0.00  0.00    +0.239 C 
ATOM      6  C   UNL A   1     -26.354   0.576  25.777  0.00  0.00    +0.265 C 
ATOM      7  F   UNL A   1     -25.860  -0.681  25.795  0.00  0.00    -0.222 F 
ATOM      8  N   UNL A   1     -24.114   0.063  29.455  0.00  0.00    -0.282 N 
ATOM      9  C   UNL A   1     -24.858   1.065  27.471  0.00  0.00    -0.089 C 
ATOM     10  C   UNL A   1     -23.256  -0.036  29.011  0.00  0.00    +0.193 C 
ATOM     11  C   UNL A   1     -24.192   0.449  28.497  0.00  0.00    +0.097 C 
ENDROOT
BRANCH   2  12
ATOM     12  C   UNL A   1     -25.642   4.093  27.123  0.00  0.00    +0.267 C 
ATOM     13  N   UNL A   1     -25.614   5.252  26.449  0.00  0.00    -0.200 NA
ATOM     14  C   UNL A   1     -25.026   6.479  26.963  0.00  0.00    +0.139 C 
ATOM     15  O   UNL A   1     -25.143   3.966  28.243  0.00  0.00    -0.268 OA
ENDBRANCH   2  12
BRANCH   8  16
ATOM     16  C   UNL A   1     -24.855  -1.012  30.143  0.00  0.00    +0.113 C 
BRANCH  16  17
ATOM     17  C   UNL A   1     -24.973  -2.505  29.788  0.00  0.00    -0.003 C 
ATOM     18  C   UNL A   1     -23.906  -3.173  29.146  0.00  0.00    -0.003 C 
ATOM     19  C   UNL A   1     -23.989  -4.549  28.853  0.00  0.00    -0.000 C 
ATOM     20  C   UNL A   1     -25.137  -5.280  29.205  0.00  0.00    -0.000 C 
ATOM     21  C   UNL A   1     -26.232  -4.611  29.784  0.00  0.00    -0.000 C 
ATOM     22  C   UNL A   1     -26.155  -3.232  30.065  0.00  0.00    -0.003 C 
ENDBRANCH  16  17
BRANCH  16  23
ATOM     23  C   UNL A   1     -25.387  -0.679  31.571  0.00  0.00    +0.095 C 
ATOM     24  C   UNL A   1     -25.189   0.773  32.028  0.00  0.00    +0.021 C 
ATOM     25  C   UNL A   1     -25.336   0.684  33.544  0.00  0.00    +0.020 C 
ATOM     26  C   UNL A   1     -24.829  -0.715  33.905  0.00  0.00    +0.089 C 
ATOM     27  N   UNL A   1     -24.758  -1.481  32.646  0.00  0.00    -0.217 NA
ENDBRANCH  16  23
ENDBRANCH   8  16
BRANCH  10  28
ATOM     28  N   UNL A   1     -21.971  -0.510  29.230  0.00  0.00    -0.195 NA
BRANCH  28  29
ATOM     29  C   UNL A   1     -20.870  -0.311  28.652  0.00  0.00    +0.093 C 
BRANCH  29  30
ATOM     30  C   UNL A   1     -20.487   0.671  27.838  0.00  0.00    +0.051 C 
BRANCH  30  31
ATOM     31  C   UNL A   1     -21.591   1.396  27.496  0.00  0.00    +0.144 C 
BRANCH  31  32
ATOM     32  O   UNL A   1     -22.116   2.219  27.362  0.00  0.00    -0.352 OA
BRANCH  32  33
ATOM     33  C   UNL A   1     -22.838   1.727  26.558  0.00  0.00    +0.165 C 
BRANCH  33  34
ATOM     34  C   UNL A   1     -23.364   1.426  25.728  0.00  0.00    +0.168 C 
BRANCH  34  36
ATOM     35  O   UNL A   1     -22.424   3.195  24.372  0.00  0.00    -0.100 OA
ATOM     36  N   UNL A   1     -22.405   1.986  25.058  0.00  0.00    -0.044 NA
ENDBRANCH  34  36
BRANCH  34  37
ATOM     37  C   UNL A   1     -23.538   0.309  24.792  0.00  0.00    +0.205 C 
ATOM     38  O   UNL A   1     -23.530   0.564  23.400  0.00  0.00    -0.219 OA
ENDBRANCH  34  37
ENDBRANCH  33  34
ENDBRANCH  32  33
ENDBRANCH  31  32
ENDBRANCH  30  31
ENDBRANCH  29  30
ENDBRANCH  28  29
ENDBRANCH  10  28
BRANCH   5  39
ATOM     39  O   UNL A   1     -28.193  -0.208  24.477  0.00  0.00    -0.458 OA
BRANCH  39  40
ATOM     40  C   UNL A   1     -29.460   0.005  23.866  0.00  0.00    +0.242 C 
BRANCH  40  41
ATOM     41  C   UNL A   1     -30.065  -1.377  23.573  0.00  0.00    +0.229 C 
ATOM     42  O   UNL A   1     -30.729  -1.878  24.721  0.00  0.00    -0.216 OA
ENDBRANCH  40  41
ENDBRANCH  39  40
ENDBRANCH   5  39
TORSDOF 16
