MODEL 676
MODEL 1
REMARK VINA RESULT:    -5.245      0.000      0.000
REMARK INTER + INTRA:          -5.245
REMARK INTER:                  -5.245
REMARK INTRA:                   0.000
REMARK UNBOUND:                 0.000
REMARK  Name = No_676-gen_results/8p0m/2024-11-27-11-27-31/
REMARK  0 active torsions:
REMARK  status: ('A' for Active; 'I' for Inactive)
REMARK                            x       y       z     vdW  Elec       q    Type
REMARK                         _______ _______ _______ _____ _____    ______ ____
ROOT
ATOM      1  C   UNL A   1     -24.693  -2.132  28.527  0.00  0.00    +0.000 A 
ATOM      2  C   UNL A   1     -23.713  -2.123  29.235  0.00  0.00    +0.000 A 
ATOM      3  C   UNL A   1     -22.746  -1.133  29.246  0.00  0.00    +0.000 A 
ATOM      4  C   UNL A   1     -22.943  -0.025  28.371  0.00  0.00    +0.000 A 
ATOM      5  C   UNL A   1     -24.116   0.006  27.707  0.00  0.00    +0.000 A 
ATOM      6  C   UNL A   1     -25.023  -0.964  27.836  0.00  0.00    +0.000 A 
ATOM      7  C   UNL A   1     -24.128   1.253  26.837  0.00  0.00    +0.000 A 
ATOM      8  C   UNL A   1     -23.121   1.878  26.471  0.00  0.00    +0.000 A 
ATOM      9  C   UNL A   1     -21.867   1.780  27.271  0.00  0.00    +0.000 A 
ATOM     10  C   UNL A   1     -21.759   0.728  28.167  0.00  0.00    +0.000 A 
ENDROOT
TORSDOF 0
ENDMDL
ENDMDL
