REMARK  Name = outputs/IAG933/test6/raw/output_6771_IAG933_linker_design_.xyz
REMARK  17 active torsions:
REMARK  status: ('A' for Active; 'I' for Inactive)
REMARK    1  A    between atoms: C_1  and  C_2
REMARK    2  A    between atoms: C_1  and  C_8
REMARK    3  A    between atoms: C_9  and  N_31
REMARK    4  A    between atoms: C_14  and  C_15
REMARK    5  A    between atoms: C_15  and  O_18
REMARK    6  A    between atoms: O_18  and  C_37
REMARK    7  A    between atoms: C_21  and  O_22
REMARK    8  A    between atoms: O_22  and  C_23
REMARK    9  A    between atoms: C_23  and  C_24
REMARK   10  A    between atoms: C_29  and  C_34
REMARK   11  A    between atoms: C_30  and  C_39
REMARK   12  A    between atoms: C_30  and  O_42
REMARK   13  A    between atoms: N_31  and  C_34
REMARK   14  A    between atoms: C_34  and  C_37
REMARK   15  A    between atoms: C_37  and  O_38
REMARK   16  A    between atoms: O_38  and  C_39
REMARK   17  A    between atoms: O_42  and  C_43
REMARK                            x       y       z     vdW  Elec       q    Type
REMARK                         _______ _______ _______ _____ _____    ______ ____
ROOT
ATOM      1  C   UNL A   1     -24.980   3.021  29.391  0.00  0.00    +0.310 C 
ENDROOT
BRANCH   1   2
ATOM      2  O   UNL A   1     -25.143   3.966  28.243  0.00  0.00    -0.435 OA
BRANCH   2   3
ATOM      3  C   UNL A   1     -25.642   4.093  27.123  0.00  0.00    +0.224 C 
ATOM      4  N   UNL A   1     -25.614   5.252  26.449  0.00  0.00    -0.236 NA
ATOM      5  C   UNL A   1     -25.026   6.479  26.963  0.00  0.00    +0.155 C 
BRANCH   3   7
ATOM      6  C   UNL A   1     -25.688   1.614  26.461  0.00  0.00    +0.041 C 
ATOM      7  C   UNL A   1     -26.250   2.920  26.395  0.00  0.00    +0.074 C 
ATOM      8  C   UNL A   1     -27.438   3.091  25.645  0.00  0.00    +0.107 C 
ATOM      9  N   UNL A   1     -28.075   2.089  25.003  0.00  0.00    -0.208 NA
ATOM     10  C   UNL A   1     -27.543   0.849  25.079  0.00  0.00    +0.253 C 
ATOM     11  C   UNL A   1     -26.354   0.576  25.777  0.00  0.00    +0.193 C 
ATOM     12  F   UNL A   1     -25.860  -0.681  25.795  0.00  0.00    -0.199 F 
BRANCH  10  13
ATOM     13  O   UNL A   1     -28.193  -0.208  24.477  0.00  0.00    -0.456 OA
BRANCH  13  14
ATOM     14  C   UNL A   1     -29.460   0.005  23.866  0.00  0.00    +0.243 C 
BRANCH  14  15
ATOM     15  C   UNL A   1     -30.065  -1.377  23.573  0.00  0.00    +0.229 C 
ATOM     16  O   UNL A   1     -30.729  -1.878  24.721  0.00  0.00    -0.216 OA
ENDBRANCH  14  15
ENDBRANCH  13  14
ENDBRANCH  10  13
ENDBRANCH   3   7
ENDBRANCH   2   3
ENDBRANCH   1   2
BRANCH   1  17
ATOM     17  C   UNL A   1     -26.182   2.850  30.490  0.00  0.00    +0.165 C 
BRANCH  17  19
ATOM     18  C   UNL A   1     -31.072   2.390  29.013  0.00  0.00    +0.031 C 
ATOM     19  C   UNL A   1     -27.485   3.301  29.899  0.00  0.00    -0.001 C 
ATOM     20  C   UNL A   1     -29.659   4.353  28.564  0.00  0.00    -0.004 C 
ATOM     21  C   UNL A   1     -29.778   3.116  29.211  0.00  0.00    -0.022 C 
ATOM     22  C   UNL A   1     -28.703   2.570  29.940  0.00  0.00    -0.007 C 
ATOM     23  C   UNL A   1     -27.346   4.537  29.279  0.00  0.00    -0.003 C 
ATOM     24  C   UNL A   1     -28.436   5.026  28.560  0.00  0.00    -0.001 C 
ENDBRANCH  17  19
BRANCH  17  25
ATOM     25  N   UNL A   1     -26.027   1.741  31.462  0.00  0.00    -0.209 NA
BRANCH  25  27
ATOM     26  C   UNL A   1     -25.387  -0.679  31.571  0.00  0.00    +0.093 C 
ATOM     27  C   UNL A   1     -25.189   0.773  32.028  0.00  0.00    +0.091 C 
ATOM     28  C   UNL A   1     -25.336   0.684  33.544  0.00  0.00    +0.038 C 
ATOM     29  C   UNL A   1     -24.829  -0.715  33.905  0.00  0.00    +0.090 C 
ATOM     30  N   UNL A   1     -24.758  -1.481  32.646  0.00  0.00    -0.218 NA
BRANCH  26  31
ATOM     31  C   UNL A   1     -24.855  -1.012  30.143  0.00  0.00    +0.045 C 
BRANCH  31  32
ATOM     32  C   UNL A   1     -24.973  -2.505  29.788  0.00  0.00    -0.021 C 
ATOM     33  C   UNL A   1     -23.906  -3.173  29.146  0.00  0.00    -0.004 C 
ATOM     34  C   UNL A   1     -23.989  -4.549  28.853  0.00  0.00    -0.000 C 
ATOM     35  C   UNL A   1     -25.137  -5.280  29.205  0.00  0.00    -0.000 C 
ATOM     36  C   UNL A   1     -26.232  -4.611  29.784  0.00  0.00    -0.000 C 
ATOM     37  C   UNL A   1     -26.155  -3.232  30.065  0.00  0.00    -0.004 C 
ENDBRANCH  31  32
ENDBRANCH  26  31
ENDBRANCH  25  27
ENDBRANCH  17  25
ENDBRANCH   1  17
BRANCH   1  38
ATOM     38  O   UNL A   1     -24.099   1.933  29.923  0.00  0.00    -0.317 OA
BRANCH  38  39
ATOM     39  C   UNL A   1     -22.991   1.195  29.584  0.00  0.00    +0.178 C 
BRANCH  39  40
ATOM     40  C   UNL A   1     -22.262   0.551  28.399  0.00  0.00    +0.174 C 
BRANCH  40  41
ATOM     41  O   UNL A   1     -22.668   1.191  27.248  0.00  0.00    -0.351 OA
BRANCH  41  43
ATOM     42  C   UNL A   1     -22.089   2.179  25.209  0.00  0.00    +0.035 C 
ATOM     43  C   UNL A   1     -21.536   1.739  26.576  0.00  0.00    +0.142 C 
ENDBRANCH  41  43
ENDBRANCH  40  41
ENDBRANCH  39  40
ENDBRANCH  38  39
ENDBRANCH   1  38
TORSDOF 17
