REMARK  Name = outputs/IAG933/test6/raw/output_6773_IAG933_linker_design_.xyz
REMARK  12 active torsions:
REMARK  status: ('A' for Active; 'I' for Inactive)
REMARK    1  A    between atoms: C_1  and  C_2
REMARK    2  A    between atoms: C_1  and  C_8
REMARK    3  A    between atoms: C_1  and  C_43
REMARK    4  A    between atoms: C_13  and  C_39
REMARK    5  A    between atoms: C_14  and  C_15
REMARK    6  A    between atoms: C_21  and  O_22
REMARK    7  A    between atoms: O_22  and  C_23
REMARK    8  A    between atoms: C_23  and  C_24
REMARK    9  A    between atoms: C_28  and  C_33
REMARK   10  A    between atoms: C_28  and  C_36
REMARK   11  A    between atoms: C_35  and  C_43
REMARK   12  A    between atoms: N_37  and  C_43
REMARK                            x       y       z     vdW  Elec       q    Type
REMARK                         _______ _______ _______ _____ _____    ______ ____
ROOT
ATOM      1  C   UNL A   1     -24.605   0.152  29.015  0.00  0.00    +0.115 C 
ENDROOT
BRANCH   1   3
ATOM      2  C   UNL A   1     -23.067   2.039  26.233  0.00  0.00    +0.074 C 
ATOM      3  C   UNL A   1     -23.742   0.785  27.885  0.00  0.00    +0.080 C 
ATOM      4  C   UNL A   1     -24.307   1.382  26.751  0.00  0.00    +0.040 C 
ATOM      5  N   UNL A   1     -22.611   1.346  27.790  0.00  0.00    -0.271 NA
ATOM      6  C   UNL A   1     -21.182   1.292  27.702  0.00  0.00    +0.090 C 
BRANCH   4   7
ATOM      7  C   UNL A   1     -25.688   1.614  26.461  0.00  0.00    +0.073 C 
ATOM      8  C   UNL A   1     -26.250   2.920  26.395  0.00  0.00    +0.055 C 
ATOM      9  C   UNL A   1     -27.438   3.091  25.645  0.00  0.00    +0.102 C 
ATOM     10  N   UNL A   1     -28.075   2.089  25.003  0.00  0.00    -0.212 NA
ATOM     11  C   UNL A   1     -27.543   0.849  25.079  0.00  0.00    +0.234 C 
ATOM     12  C   UNL A   1     -26.354   0.576  25.777  0.00  0.00    +0.240 C 
ATOM     13  F   UNL A   1     -25.860  -0.681  25.795  0.00  0.00    -0.227 F 
BRANCH   8  14
ATOM     14  C   UNL A   1     -25.642   4.093  27.123  0.00  0.00    +0.262 C 
ATOM     15  N   UNL A   1     -25.614   5.252  26.449  0.00  0.00    -0.200 NA
ATOM     16  C   UNL A   1     -25.026   6.479  26.963  0.00  0.00    +0.139 C 
ATOM     17  O   UNL A   1     -25.143   3.966  28.243  0.00  0.00    -0.269 OA
ENDBRANCH   8  14
BRANCH  11  18
ATOM     18  O   UNL A   1     -28.193  -0.208  24.477  0.00  0.00    -0.459 OA
BRANCH  18  19
ATOM     19  C   UNL A   1     -29.460   0.005  23.866  0.00  0.00    +0.242 C 
BRANCH  19  20
ATOM     20  C   UNL A   1     -30.065  -1.377  23.573  0.00  0.00    +0.229 C 
ATOM     21  O   UNL A   1     -30.729  -1.878  24.721  0.00  0.00    -0.216 OA
ENDBRANCH  19  20
ENDBRANCH  18  19
ENDBRANCH  11  18
ENDBRANCH   4   7
ENDBRANCH   1   3
BRANCH   1  24
ATOM     22  O   UNL A   1     -27.476  -0.752  28.979  0.00  0.00    -0.273 OA
ATOM     23  C   UNL A   1     -27.108   0.451  29.095  0.00  0.00    +0.246 C 
ATOM     24  N   UNL A   1     -25.886   0.977  28.944  0.00  0.00    -0.205 NA
BRANCH  23  25
ATOM     25  C   UNL A   1     -28.264   1.338  29.500  0.00  0.00    +0.113 C 
BRANCH  25  28
ATOM     26  C   UNL A   1     -27.164   3.103  30.802  0.00  0.00    -0.004 C 
ATOM     27  C   UNL A   1     -29.379   3.506  29.681  0.00  0.00    -0.004 C 
ATOM     28  C   UNL A   1     -28.298   2.640  30.014  0.00  0.00    -0.013 C 
ATOM     29  C   UNL A   1     -27.042   4.488  31.067  0.00  0.00    -0.000 C 
ATOM     30  C   UNL A   1     -29.285   4.867  30.029  0.00  0.00    -0.000 C 
ATOM     31  C   UNL A   1     -28.108   5.334  30.689  0.00  0.00    -0.000 C 
ENDBRANCH  25  28
ENDBRANCH  23  25
ENDBRANCH   1  24
BRANCH   1  32
ATOM     32  C   UNL A   1     -24.855  -1.012  30.143  0.00  0.00    +0.060 C 
BRANCH  32  33
ATOM     33  C   UNL A   1     -24.973  -2.505  29.788  0.00  0.00    -0.019 C 
ATOM     34  C   UNL A   1     -23.906  -3.173  29.146  0.00  0.00    -0.004 C 
ATOM     35  C   UNL A   1     -23.989  -4.549  28.853  0.00  0.00    -0.000 C 
ATOM     36  C   UNL A   1     -25.137  -5.280  29.205  0.00  0.00    -0.000 C 
ATOM     37  C   UNL A   1     -26.232  -4.611  29.784  0.00  0.00    -0.000 C 
ATOM     38  C   UNL A   1     -26.155  -3.232  30.065  0.00  0.00    -0.004 C 
ENDBRANCH  32  33
BRANCH  32  39
ATOM     39  C   UNL A   1     -25.387  -0.679  31.571  0.00  0.00    +0.079 C 
ATOM     40  C   UNL A   1     -25.189   0.773  32.028  0.00  0.00    +0.019 C 
ATOM     41  C   UNL A   1     -25.336   0.684  33.544  0.00  0.00    +0.020 C 
ATOM     42  C   UNL A   1     -24.829  -0.715  33.905  0.00  0.00    +0.089 C 
ATOM     43  N   UNL A   1     -24.758  -1.481  32.646  0.00  0.00    -0.219 NA
ENDBRANCH  32  39
ENDBRANCH   1  32
TORSDOF 12
