REMARK  Name = outputs/IAG933/test6/raw/output_6780_IAG933_linker_design_.xyz
REMARK  9 active torsions:
REMARK  status: ('A' for Active; 'I' for Inactive)
REMARK    1  A    between atoms: C_1  and  C_2
REMARK    2  A    between atoms: C_13  and  C_35
REMARK    3  A    between atoms: C_14  and  C_15
REMARK    4  A    between atoms: C_21  and  O_22
REMARK    5  A    between atoms: O_22  and  C_23
REMARK    6  A    between atoms: C_23  and  C_24
REMARK    7  A    between atoms: C_29  and  C_31
REMARK    8  A    between atoms: C_36  and  C_40
REMARK    9  A    between atoms: C_41  and  C_42
REMARK                            x       y       z     vdW  Elec       q    Type
REMARK                         _______ _______ _______ _____ _____    ______ ____
ROOT
ATOM      1  C   UNL A   1     -22.033   1.113  27.710  0.00  0.00    +0.150 C 
ATOM      2  O   UNL A   1     -22.207  -0.356  29.552  0.00  0.00    -0.211 OA
ATOM      3  C   UNL A   1     -24.356   1.310  27.037  0.00  0.00    +0.002 C 
ATOM      4  C   UNL A   1     -22.938   1.561  26.645  0.00  0.00    +0.039 C 
ATOM      5  C   UNL A   1     -22.791   0.418  28.607  0.00  0.00    +0.223 C 
ATOM      6  F   UNL A   1     -20.703   1.093  27.666  0.00  0.00    -0.206 F 
ATOM      7  C   UNL A   1     -24.215   0.557  28.309  0.00  0.00    +0.035 C 
ENDROOT
BRANCH   7  17
ATOM      8  C   UNL A   1     -24.855  -1.012  30.143  0.00  0.00    +0.086 C 
ATOM      9  C   UNL A   1     -25.387  -0.679  31.571  0.00  0.00    +0.082 C 
ATOM     10  C   UNL A   1     -25.189   0.773  32.028  0.00  0.00    +0.034 C 
ATOM     11  C   UNL A   1     -25.336   0.684  33.544  0.00  0.00    +0.022 C 
ATOM     12  C   UNL A   1     -24.829  -0.715  33.905  0.00  0.00    +0.089 C 
ATOM     13  N   UNL A   1     -24.758  -1.481  32.646  0.00  0.00    -0.219 NA
ATOM     14  C   UNL A   1     -25.068   1.888  30.969  0.00  0.00    +0.077 C 
ATOM     15  O   UNL A   1     -26.439  -0.412  28.488  0.00  0.00    -0.203 OA
ATOM     16  N   UNL A   1     -25.639   1.429  29.740  0.00  0.00    -0.190 NA
ATOM     17  C   UNL A   1     -25.248   0.106  29.152  0.00  0.00    +0.209 C 
BRANCH   8  18
ATOM     18  C   UNL A   1     -24.973  -2.505  29.788  0.00  0.00    -0.017 C 
ATOM     19  C   UNL A   1     -23.906  -3.173  29.146  0.00  0.00    -0.004 C 
ATOM     20  C   UNL A   1     -23.989  -4.549  28.853  0.00  0.00    -0.000 C 
ATOM     21  C   UNL A   1     -25.137  -5.280  29.205  0.00  0.00    -0.000 C 
ATOM     22  C   UNL A   1     -26.232  -4.611  29.784  0.00  0.00    -0.000 C 
ATOM     23  C   UNL A   1     -26.155  -3.232  30.065  0.00  0.00    -0.004 C 
ENDBRANCH   8  18
BRANCH  14  24
ATOM     24  C   UNL A   1     -26.223   2.968  31.069  0.00  0.00    +0.018 C 
ATOM     25  C   UNL A   1     -27.539   3.130  30.392  0.00  0.00    +0.002 C 
ENDBRANCH  14  24
ENDBRANCH   7  17
BRANCH   3  26
ATOM     26  C   UNL A   1     -25.688   1.614  26.461  0.00  0.00    +0.037 C 
ATOM     27  C   UNL A   1     -26.250   2.920  26.395  0.00  0.00    +0.076 C 
ATOM     28  C   UNL A   1     -27.438   3.091  25.645  0.00  0.00    +0.107 C 
ATOM     29  N   UNL A   1     -28.075   2.089  25.003  0.00  0.00    -0.208 NA
ATOM     30  C   UNL A   1     -27.543   0.849  25.079  0.00  0.00    +0.253 C 
ATOM     31  C   UNL A   1     -26.354   0.576  25.777  0.00  0.00    +0.193 C 
ATOM     32  F   UNL A   1     -25.860  -0.681  25.795  0.00  0.00    -0.199 F 
BRANCH  27  33
ATOM     33  C   UNL A   1     -25.642   4.093  27.123  0.00  0.00    +0.266 C 
ATOM     34  N   UNL A   1     -25.614   5.252  26.449  0.00  0.00    -0.200 NA
ATOM     35  C   UNL A   1     -25.026   6.479  26.963  0.00  0.00    +0.139 C 
ATOM     36  O   UNL A   1     -25.143   3.966  28.243  0.00  0.00    -0.268 OA
ENDBRANCH  27  33
BRANCH  30  37
ATOM     37  O   UNL A   1     -28.193  -0.208  24.477  0.00  0.00    -0.456 OA
BRANCH  37  38
ATOM     38  C   UNL A   1     -29.460   0.005  23.866  0.00  0.00    +0.243 C 
BRANCH  38  39
ATOM     39  C   UNL A   1     -30.065  -1.377  23.573  0.00  0.00    +0.229 C 
ATOM     40  O   UNL A   1     -30.729  -1.878  24.721  0.00  0.00    -0.216 OA
ENDBRANCH  38  39
ENDBRANCH  37  38
ENDBRANCH  30  37
ENDBRANCH   3  26
BRANCH   4  42
ATOM     41  F   UNL A   1     -23.157   1.156  24.352  0.00  0.00    -0.229 F 
ATOM     42  C   UNL A   1     -22.737   2.034  25.350  0.00  0.00    +0.222 C 
ENDBRANCH   4  42
TORSDOF 9
