REMARK  Name = outputs/IAG933/test6/raw/output_6785_IAG933_linker_design_.xyz
REMARK  14 active torsions:
REMARK  status: ('A' for Active; 'I' for Inactive)
REMARK    1  A    between atoms: C_1  and  C_2
REMARK    2  A    between atoms: C_1  and  C_8
REMARK    3  A    between atoms: C_1  and  C_47
REMARK    4  A    between atoms: C_13  and  N_44
REMARK    5  A    between atoms: C_14  and  C_15
REMARK    6  A    between atoms: C_21  and  O_22
REMARK    7  A    between atoms: O_22  and  C_23
REMARK    8  A    between atoms: C_23  and  C_24
REMARK    9  A    between atoms: C_32  and  O_48
REMARK   10  A    between atoms: C_33  and  C_47
REMARK   11  A    between atoms: O_39  and  C_41
REMARK   12  A    between atoms: C_41  and  O_48
REMARK   13  A    between atoms: C_41  and  N_49
REMARK   14  A    between atoms: C_47  and  N_49
REMARK                            x       y       z     vdW  Elec       q    Type
REMARK                         _______ _______ _______ _____ _____    ______ ____
ROOT
ATOM      1  C   UNL A   1     -25.319  -0.095  28.978  0.00  0.00    +0.101 C 
ENDROOT
BRANCH   1   5
ATOM      2  C   UNL A   1     -22.943   0.363  28.434  0.00  0.00    +0.021 C 
ATOM      3  C   UNL A   1     -21.844   1.667  26.624  0.00  0.00    +0.021 C 
ATOM      4  C   UNL A   1     -23.220   2.115  26.060  0.00  0.00    +0.091 C 
ATOM      5  C   UNL A   1     -24.358   1.078  28.291  0.00  0.00    +0.089 C 
ATOM      6  C   UNL A   1     -21.694   1.218  28.076  0.00  0.00    +0.004 C 
ATOM      7  N   UNL A   1     -24.347   1.576  26.985  0.00  0.00    -0.306 N 
BRANCH   7   8
ATOM      8  C   UNL A   1     -25.688   1.614  26.461  0.00  0.00    +0.086 C 
ATOM      9  C   UNL A   1     -26.250   2.920  26.395  0.00  0.00    +0.090 C 
ATOM     10  C   UNL A   1     -27.438   3.091  25.645  0.00  0.00    +0.108 C 
ATOM     11  N   UNL A   1     -28.075   2.089  25.003  0.00  0.00    -0.208 NA
ATOM     12  C   UNL A   1     -27.543   0.849  25.079  0.00  0.00    +0.255 C 
ATOM     13  C   UNL A   1     -26.354   0.576  25.777  0.00  0.00    +0.206 C 
ATOM     14  F   UNL A   1     -25.860  -0.681  25.795  0.00  0.00    -0.198 F 
BRANCH   9  15
ATOM     15  C   UNL A   1     -25.642   4.093  27.123  0.00  0.00    +0.268 C 
ATOM     16  N   UNL A   1     -25.614   5.252  26.449  0.00  0.00    -0.200 NA
ATOM     17  C   UNL A   1     -25.026   6.479  26.963  0.00  0.00    +0.139 C 
ATOM     18  O   UNL A   1     -25.143   3.966  28.243  0.00  0.00    -0.268 OA
ENDBRANCH   9  15
BRANCH  12  19
ATOM     19  O   UNL A   1     -28.193  -0.208  24.477  0.00  0.00    -0.456 OA
BRANCH  19  20
ATOM     20  C   UNL A   1     -29.460   0.005  23.866  0.00  0.00    +0.243 C 
BRANCH  20  21
ATOM     21  C   UNL A   1     -30.065  -1.377  23.573  0.00  0.00    +0.229 C 
ATOM     22  O   UNL A   1     -30.729  -1.878  24.721  0.00  0.00    -0.216 OA
ENDBRANCH  20  21
ENDBRANCH  19  20
ENDBRANCH  12  19
ENDBRANCH   7   8
ENDBRANCH   1   5
BRANCH   1  23
ATOM     23  C   UNL A   1     -24.855  -1.012  30.143  0.00  0.00    +0.056 C 
BRANCH  23  24
ATOM     24  C   UNL A   1     -24.973  -2.505  29.788  0.00  0.00    -0.020 C 
ATOM     25  C   UNL A   1     -23.906  -3.173  29.146  0.00  0.00    -0.004 C 
ATOM     26  C   UNL A   1     -23.989  -4.549  28.853  0.00  0.00    -0.000 C 
ATOM     27  C   UNL A   1     -25.137  -5.280  29.205  0.00  0.00    -0.000 C 
ATOM     28  C   UNL A   1     -26.232  -4.611  29.784  0.00  0.00    -0.000 C 
ATOM     29  C   UNL A   1     -26.155  -3.232  30.065  0.00  0.00    -0.004 C 
ENDBRANCH  23  24
BRANCH  23  30
ATOM     30  C   UNL A   1     -25.387  -0.679  31.571  0.00  0.00    +0.078 C 
ATOM     31  C   UNL A   1     -25.189   0.773  32.028  0.00  0.00    +0.019 C 
ATOM     32  C   UNL A   1     -25.336   0.684  33.544  0.00  0.00    +0.020 C 
ATOM     33  C   UNL A   1     -24.829  -0.715  33.905  0.00  0.00    +0.089 C 
ATOM     34  N   UNL A   1     -24.758  -1.481  32.646  0.00  0.00    -0.219 NA
ENDBRANCH  23  30
ENDBRANCH   1  23
BRANCH   1  35
ATOM     35  N   UNL A   1     -26.736  -0.458  28.491  0.00  0.00    -0.164 NA
BRANCH  35  36
ATOM     36  C   UNL A   1     -27.848  -0.006  29.213  0.00  0.00    +0.324 C 
BRANCH  36  38
ATOM     37  C   UNL A   1     -28.547   1.596  30.892  0.00  0.00    +0.178 C 
ATOM     38  O   UNL A   1     -27.756   1.214  29.821  0.00  0.00    -0.314 OA
ENDBRANCH  36  38
BRANCH  36  39
ATOM     39  O   UNL A   1     -29.058  -0.553  29.547  0.00  0.00    -0.290 OA
BRANCH  39  40
ATOM     40  C   UNL A   1     -30.096   0.336  29.093  0.00  0.00    +0.260 C 
ATOM     41  C   UNL A   1     -34.952  -0.360  27.936  0.00  0.00    +0.095 C 
ATOM     42  C   UNL A   1     -31.583   0.701  26.196  0.00  0.00    +0.051 C 
ATOM     43  C   UNL A   1     -33.786   0.264  28.705  0.00  0.00    +0.228 C 
ATOM     44  C   UNL A   1     -31.632  -0.311  27.319  0.00  0.00    +0.158 C 
ATOM     45  O   UNL A   1     -34.121   1.035  29.618  0.00  0.00    -0.275 OA
ATOM     46  N   UNL A   1     -32.417  -0.018  28.490  0.00  0.00    -0.255 N 
ATOM     47  C   UNL A   1     -31.489  -0.011  29.648  0.00  0.00    +0.157 C 
ATOM     48  C   UNL A   1     -31.871  -1.629  26.799  0.00  0.00    +0.051 C 
ATOM     49  O   UNL A   1     -30.034  -0.258  27.712  0.00  0.00    -0.317 OA
ENDBRANCH  39  40
ENDBRANCH  36  39
ENDBRANCH  35  36
ENDBRANCH   1  35
TORSDOF 14
