MODEL 678
MODEL 1
REMARK VINA RESULT:    -5.319      0.000      0.000
REMARK INTER + INTRA:          -5.780
REMARK INTER:                  -5.630
REMARK INTRA:                  -0.150
REMARK UNBOUND:                -0.150
REMARK  Name = No_678-gen_results/8p0m/2024-11-27-11-27-31/
REMARK  1 active torsions:
REMARK  status: ('A' for Active; 'I' for Inactive)
REMARK    1  A    between atoms: C_4  and  C_7
REMARK                            x       y       z     vdW  Elec       q    Type
REMARK                         _______ _______ _______ _____ _____    ______ ____
ROOT
ATOM      1  C   UNL A   1     -26.608  -3.994  29.846  0.00  0.00    -0.000 A 
ATOM      2  C   UNL A   1     -26.097  -4.887  29.615  0.00  0.00    -0.000 A 
ATOM      3  C   UNL A   1     -25.831  -2.720  29.600  0.00  0.00    -0.000 A 
ATOM      4  C   UNL A   1     -24.574  -2.788  28.964  0.00  0.00    -0.000 A 
ATOM      5  C   UNL A   1     -24.831  -5.228  28.929  0.00  0.00    -0.000 A 
ATOM      6  C   UNL A   1     -24.092  -4.079  28.681  0.00  0.00    -0.000 A 
ENDROOT
BRANCH   4   7
ATOM      7  C   UNL A   1     -23.792  -1.624  28.724  0.00  0.00    -0.005 C 
ATOM      8  C   UNL A   1     -22.722  -1.349  29.346  0.00  0.00    -0.026 C 
ATOM      9  C   UNL A   1     -21.851  -0.214  28.992  0.00  0.00    +0.031 C 
ENDBRANCH   4   7
TORSDOF 1
ENDMDL
ENDMDL
