REMARK  Name = outputs/IAG933/test6/raw/output_6790_IAG933_linker_design_.xyz
REMARK  9 active torsions:
REMARK  status: ('A' for Active; 'I' for Inactive)
REMARK    1  A    between atoms: C_1  and  C_2
REMARK    2  A    between atoms: C_1  and  C_8
REMARK    3  A    between atoms: C_1  and  N_36
REMARK    4  A    between atoms: C_13  and  C_30
REMARK    5  A    between atoms: C_14  and  C_15
REMARK    6  A    between atoms: C_21  and  O_22
REMARK    7  A    between atoms: O_22  and  C_23
REMARK    8  A    between atoms: C_23  and  C_24
REMARK    9  A    between atoms: C_29  and  CA_37
REMARK                            x       y       z     vdW  Elec       q    Type
REMARK                         _______ _______ _______ _____ _____    ______ ____
ROOT
ATOM      1  C   UNL A   1     -22.032   0.131  29.328  0.00  0.00    +0.188 A 
ATOM      2  C   UNL A   1     -24.769   1.001  27.397  0.00  0.00    +0.160 A 
ATOM      3  C   UNL A   1     -23.515   0.915  27.820  0.00  0.00    +0.071 A 
ATOM      4  C   UNL A   1     -23.379   0.178  28.937  0.00  0.00    +0.132 A 
ATOM      5  N   UNL A   1     -21.531  -0.550  30.437  0.00  0.00    -0.106 NA
ATOM      6  O   UNL A   1     -25.437   0.087  28.311  0.00  0.00    -0.379 OA
ATOM      7  N   UNL A   1     -24.494  -0.251  29.253  0.00  0.00    -0.189 N 
ATOM      8  CA  UNL A   1     -22.350   1.428  27.462  0.00  0.00    +0.098 A 
ATOM      9  N   UNL A   1     -21.313   0.875  28.343  0.00  0.00    -0.228 NA
ENDROOT
BRANCH   2  10
ATOM     10  C   UNL A   1     -25.688   1.614  26.461  0.00  0.00    +0.130 C 
ATOM     11  C   UNL A   1     -26.250   2.920  26.395  0.00  0.00    +0.062 C 
ATOM     12  C   UNL A   1     -27.438   3.091  25.645  0.00  0.00    +0.103 C 
ATOM     13  N   UNL A   1     -28.075   2.089  25.003  0.00  0.00    -0.212 NA
ATOM     14  C   UNL A   1     -27.543   0.849  25.079  0.00  0.00    +0.234 C 
ATOM     15  C   UNL A   1     -26.354   0.576  25.777  0.00  0.00    +0.247 C 
ATOM     16  F   UNL A   1     -25.860  -0.681  25.795  0.00  0.00    -0.226 F 
BRANCH  11  17
ATOM     17  C   UNL A   1     -25.642   4.093  27.123  0.00  0.00    +0.263 C 
ATOM     18  N   UNL A   1     -25.614   5.252  26.449  0.00  0.00    -0.200 NA
ATOM     19  C   UNL A   1     -25.026   6.479  26.963  0.00  0.00    +0.139 C 
ATOM     20  O   UNL A   1     -25.143   3.966  28.243  0.00  0.00    -0.269 OA
ENDBRANCH  11  17
BRANCH  14  21
ATOM     21  O   UNL A   1     -28.193  -0.208  24.477  0.00  0.00    -0.459 OA
BRANCH  21  22
ATOM     22  C   UNL A   1     -29.460   0.005  23.866  0.00  0.00    +0.242 C 
BRANCH  22  23
ATOM     23  C   UNL A   1     -30.065  -1.377  23.573  0.00  0.00    +0.229 C 
ATOM     24  O   UNL A   1     -30.729  -1.878  24.721  0.00  0.00    -0.216 OA
ENDBRANCH  22  23
ENDBRANCH  21  22
ENDBRANCH  14  21
ENDBRANCH   2  10
BRANCH   8  25
ATOM     25  C   UNL A   1     -22.355   2.454  26.532  0.00  0.00    +0.228 C 
ATOM     26  O   UNL A   1     -23.139   2.667  25.528  0.00  0.00    -0.213 OA
ENDBRANCH   8  25
BRANCH   7  27
ATOM     27  C   UNL A   1     -24.855  -1.012  30.143  0.00  0.00    +0.159 C 
BRANCH  27  28
ATOM     28  C   UNL A   1     -24.973  -2.505  29.788  0.00  0.00    +0.003 C 
ATOM     29  C   UNL A   1     -23.906  -3.173  29.146  0.00  0.00    -0.002 C 
ATOM     30  C   UNL A   1     -23.989  -4.549  28.853  0.00  0.00    -0.000 C 
ATOM     31  C   UNL A   1     -25.137  -5.280  29.205  0.00  0.00    -0.000 C 
ATOM     32  C   UNL A   1     -26.232  -4.611  29.784  0.00  0.00    -0.000 C 
ATOM     33  C   UNL A   1     -26.155  -3.232  30.065  0.00  0.00    -0.002 C 
ENDBRANCH  27  28
BRANCH  27  34
ATOM     34  C   UNL A   1     -25.387  -0.679  31.571  0.00  0.00    +0.101 C 
ATOM     35  C   UNL A   1     -25.189   0.773  32.028  0.00  0.00    +0.021 C 
ATOM     36  C   UNL A   1     -25.336   0.684  33.544  0.00  0.00    +0.020 C 
ATOM     37  C   UNL A   1     -24.829  -0.715  33.905  0.00  0.00    +0.089 C 
ATOM     38  N   UNL A   1     -24.758  -1.481  32.646  0.00  0.00    -0.217 NA
ENDBRANCH  27  34
ENDBRANCH   7  27
TORSDOF 9
