REMARK  Name = outputs/IAG933/test6/raw/output_6791_IAG933_linker_design_.xyz
REMARK  9 active torsions:
REMARK  status: ('A' for Active; 'I' for Inactive)
REMARK    1  A    between atoms: C_1  and  C_2
REMARK    2  A    between atoms: C_1  and  C_8
REMARK    3  A    between atoms: C_1  and  O_37
REMARK    4  A    between atoms: C_13  and  C_35
REMARK    5  A    between atoms: C_14  and  C_15
REMARK    6  A    between atoms: C_21  and  O_22
REMARK    7  A    between atoms: O_22  and  C_23
REMARK    8  A    between atoms: C_23  and  C_24
REMARK    9  A    between atoms: C_31  and  O_37
REMARK                            x       y       z     vdW  Elec       q    Type
REMARK                         _______ _______ _______ _____ _____    ______ ____
ROOT
ATOM      1  C   UNL A   1     -21.224   0.160  29.020  0.00  0.00    +0.078 C 
ATOM      2  O   UNL A   1     -23.407   1.807  29.448  0.00  0.00    -0.268 OA
ATOM      3  C   UNL A   1     -23.467   0.710  28.406  0.00  0.00    +0.394 C 
ATOM      4  C   UNL A   1     -22.641  -0.353  29.187  0.00  0.00    +0.206 C 
ATOM      5  C   UNL A   1     -22.368   2.529  24.977  0.00  0.00    -0.001 C 
ATOM      6  C   UNL A   1     -21.021   1.181  28.133  0.00  0.00    +0.186 C 
ATOM      7  C   UNL A   1     -21.457   2.193  25.977  0.00  0.00    -0.002 C 
ATOM      8  C   UNL A   1     -24.192   1.647  26.319  0.00  0.00    -0.012 C 
ATOM      9  F   UNL A   1     -19.852   1.858  28.255  0.00  0.00    -0.232 F 
ATOM     10  C   UNL A   1     -23.318   1.263  27.271  0.00  0.00    +0.058 C 
ATOM     11  C   UNL A   1     -21.915   1.591  27.113  0.00  0.00    +0.013 C 
ATOM     12  C   UNL A   1     -23.716   2.238  25.146  0.00  0.00    -0.004 C 
ATOM     13  O   UNL A   1     -24.610  -0.035  28.082  0.00  0.00    -0.268 OA
ENDROOT
BRANCH   8  14
ATOM     14  C   UNL A   1     -25.688   1.614  26.461  0.00  0.00    +0.092 C 
ATOM     15  C   UNL A   1     -26.250   2.920  26.395  0.00  0.00    +0.059 C 
ATOM     16  C   UNL A   1     -27.438   3.091  25.645  0.00  0.00    +0.102 C 
ATOM     17  N   UNL A   1     -28.075   2.089  25.003  0.00  0.00    -0.212 NA
ATOM     18  C   UNL A   1     -27.543   0.849  25.079  0.00  0.00    +0.234 C 
ATOM     19  C   UNL A   1     -26.354   0.576  25.777  0.00  0.00    +0.244 C 
ATOM     20  F   UNL A   1     -25.860  -0.681  25.795  0.00  0.00    -0.227 F 
BRANCH  15  21
ATOM     21  C   UNL A   1     -25.642   4.093  27.123  0.00  0.00    +0.263 C 
ATOM     22  N   UNL A   1     -25.614   5.252  26.449  0.00  0.00    -0.200 NA
ATOM     23  C   UNL A   1     -25.026   6.479  26.963  0.00  0.00    +0.139 C 
ATOM     24  O   UNL A   1     -25.143   3.966  28.243  0.00  0.00    -0.269 OA
ENDBRANCH  15  21
BRANCH  18  25
ATOM     25  O   UNL A   1     -28.193  -0.208  24.477  0.00  0.00    -0.459 OA
BRANCH  25  26
ATOM     26  C   UNL A   1     -29.460   0.005  23.866  0.00  0.00    +0.242 C 
BRANCH  26  27
ATOM     27  C   UNL A   1     -30.065  -1.377  23.573  0.00  0.00    +0.229 C 
ATOM     28  O   UNL A   1     -30.729  -1.878  24.721  0.00  0.00    -0.216 OA
ENDBRANCH  26  27
ENDBRANCH  25  26
ENDBRANCH  18  25
ENDBRANCH   8  14
BRANCH   4  29
ATOM     29  O   UNL A   1     -23.442  -0.723  30.358  0.00  0.00    -0.345 OA
BRANCH  29  30
ATOM     30  C   UNL A   1     -24.855  -1.012  30.143  0.00  0.00    +0.153 C 
BRANCH  30  31
ATOM     31  C   UNL A   1     -24.973  -2.505  29.788  0.00  0.00    +0.006 C 
ATOM     32  C   UNL A   1     -23.906  -3.173  29.146  0.00  0.00    -0.002 C 
ATOM     33  C   UNL A   1     -23.989  -4.549  28.853  0.00  0.00    -0.000 C 
ATOM     34  C   UNL A   1     -25.137  -5.280  29.205  0.00  0.00    -0.000 C 
ATOM     35  C   UNL A   1     -26.232  -4.611  29.784  0.00  0.00    -0.000 C 
ATOM     36  C   UNL A   1     -26.155  -3.232  30.065  0.00  0.00    -0.002 C 
ENDBRANCH  30  31
BRANCH  30  37
ATOM     37  C   UNL A   1     -25.387  -0.679  31.571  0.00  0.00    +0.104 C 
ATOM     38  C   UNL A   1     -25.189   0.773  32.028  0.00  0.00    +0.022 C 
ATOM     39  C   UNL A   1     -25.336   0.684  33.544  0.00  0.00    +0.020 C 
ATOM     40  C   UNL A   1     -24.829  -0.715  33.905  0.00  0.00    +0.089 C 
ATOM     41  N   UNL A   1     -24.758  -1.481  32.646  0.00  0.00    -0.217 NA
ENDBRANCH  30  37
ENDBRANCH  29  30
ENDBRANCH   4  29
TORSDOF 9
