REMARK  Name = outputs/IAG933/test6/raw/output_6797_IAG933_linker_design_.xyz
REMARK  10 active torsions:
REMARK  status: ('A' for Active; 'I' for Inactive)
REMARK    1  A    between atoms: C_1  and  C_2
REMARK    2  A    between atoms: C_1  and  C_8
REMARK    3  A    between atoms: C_1  and  C_31
REMARK    4  A    between atoms: C_13  and  C_35
REMARK    5  A    between atoms: C_14  and  C_15
REMARK    6  A    between atoms: C_21  and  O_22
REMARK    7  A    between atoms: O_22  and  C_23
REMARK    8  A    between atoms: C_23  and  C_24
REMARK    9  A    between atoms: N_33  and  C_43
REMARK   10  A    between atoms: C_39  and  C_45
REMARK                            x       y       z     vdW  Elec       q    Type
REMARK                         _______ _______ _______ _____ _____    ______ ____
ROOT
ATOM      1  F   UNL A   1     -21.137   1.551  27.731  0.00  0.00    -0.203 F 
ATOM      2  C   UNL A   1     -24.230  -0.003  29.197  0.00  0.00    +0.003 C 
ATOM      3  C   UNL A   1     -22.848   0.367  29.087  0.00  0.00    +0.028 C 
ATOM      4  C   UNL A   1     -24.756   1.230  27.306  0.00  0.00    +0.033 C 
ATOM      5  C   UNL A   1     -22.449   1.164  27.987  0.00  0.00    +0.150 C 
ATOM      6 CL   UNL A   1     -22.903   2.262  25.532  0.00  0.00    -0.080 Cl
ATOM      7  C   UNL A   1     -23.423   1.541  27.056  0.00  0.00    +0.086 C 
ATOM      8  C   UNL A   1     -25.240   0.454  28.375  0.00  0.00    +0.078 C 
ENDROOT
BRANCH   8  11
ATOM      9  C   UNL A   1     -28.662   3.206  29.117  0.00  0.00    +0.006 C 
ATOM     10  C   UNL A   1     -29.047   0.366  29.003  0.00  0.00    +0.047 C 
ATOM     11  N   UNL A   1     -26.617   0.127  28.537  0.00  0.00    -0.254 NA
ATOM     12  C   UNL A   1     -27.488   2.227  29.304  0.00  0.00    +0.041 C 
ATOM     13  C   UNL A   1     -30.333   1.133  28.634  0.00  0.00    +0.109 C 
ATOM     14  C   UNL A   1     -29.242  -1.116  29.559  0.00  0.00    +0.006 C 
ATOM     15  C   UNL A   1     -27.684   0.935  28.926  0.00  0.00    +0.037 C 
ATOM     16  C   UNL A   1     -29.977   2.514  29.630  0.00  0.00    +0.012 C 
BRANCH  13  19
ATOM     17  O   UNL A   1     -30.157  -0.622  26.898  0.00  0.00    -0.246 OA
ATOM     18  O   UNL A   1     -31.858  -0.886  28.241  0.00  0.00    -0.246 OA
ATOM     19  C   UNL A   1     -30.915  -0.304  27.802  0.00  0.00    +0.365 C 
ENDBRANCH  13  19
ENDBRANCH   8  11
BRANCH   4  20
ATOM     20  C   UNL A   1     -25.688   1.614  26.461  0.00  0.00    +0.040 C 
ATOM     21  C   UNL A   1     -26.250   2.920  26.395  0.00  0.00    +0.077 C 
ATOM     22  C   UNL A   1     -27.438   3.091  25.645  0.00  0.00    +0.107 C 
ATOM     23  N   UNL A   1     -28.075   2.089  25.003  0.00  0.00    -0.208 NA
ATOM     24  C   UNL A   1     -27.543   0.849  25.079  0.00  0.00    +0.253 C 
ATOM     25  C   UNL A   1     -26.354   0.576  25.777  0.00  0.00    +0.193 C 
ATOM     26  F   UNL A   1     -25.860  -0.681  25.795  0.00  0.00    -0.199 F 
BRANCH  21  27
ATOM     27  C   UNL A   1     -25.642   4.093  27.123  0.00  0.00    +0.266 C 
ATOM     28  N   UNL A   1     -25.614   5.252  26.449  0.00  0.00    -0.200 NA
ATOM     29  C   UNL A   1     -25.026   6.479  26.963  0.00  0.00    +0.139 C 
ATOM     30  O   UNL A   1     -25.143   3.966  28.243  0.00  0.00    -0.268 OA
ENDBRANCH  21  27
BRANCH  24  31
ATOM     31  O   UNL A   1     -28.193  -0.208  24.477  0.00  0.00    -0.456 OA
BRANCH  31  32
ATOM     32  C   UNL A   1     -29.460   0.005  23.866  0.00  0.00    +0.243 C 
BRANCH  32  33
ATOM     33  C   UNL A   1     -30.065  -1.377  23.573  0.00  0.00    +0.229 C 
ATOM     34  O   UNL A   1     -30.729  -1.878  24.721  0.00  0.00    -0.216 OA
ENDBRANCH  32  33
ENDBRANCH  31  32
ENDBRANCH  24  31
ENDBRANCH   4  20
BRANCH   2  35
ATOM     35  C   UNL A   1     -24.855  -1.012  30.143  0.00  0.00    +0.062 C 
BRANCH  35  36
ATOM     36  C   UNL A   1     -24.973  -2.505  29.788  0.00  0.00    -0.017 C 
ATOM     37  C   UNL A   1     -23.906  -3.173  29.146  0.00  0.00    -0.004 C 
ATOM     38  C   UNL A   1     -23.989  -4.549  28.853  0.00  0.00    -0.000 C 
ATOM     39  C   UNL A   1     -25.137  -5.280  29.205  0.00  0.00    -0.000 C 
ATOM     40  C   UNL A   1     -26.232  -4.611  29.784  0.00  0.00    -0.000 C 
ATOM     41  C   UNL A   1     -26.155  -3.232  30.065  0.00  0.00    -0.004 C 
ENDBRANCH  35  36
BRANCH  35  42
ATOM     42  C   UNL A   1     -25.387  -0.679  31.571  0.00  0.00    +0.081 C 
ATOM     43  C   UNL A   1     -25.189   0.773  32.028  0.00  0.00    +0.019 C 
ATOM     44  C   UNL A   1     -25.336   0.684  33.544  0.00  0.00    +0.020 C 
ATOM     45  C   UNL A   1     -24.829  -0.715  33.905  0.00  0.00    +0.089 C 
ATOM     46  N   UNL A   1     -24.758  -1.481  32.646  0.00  0.00    -0.219 NA
ENDBRANCH  35  42
ENDBRANCH   2  35
TORSDOF 10
