REMARK  Name = outputs/IAG933/test6/raw/output_6799_IAG933_linker_design_.xyz
REMARK  17 active torsions:
REMARK  status: ('A' for Active; 'I' for Inactive)
REMARK    1  A    between atoms: C_1  and  C_2
REMARK    2  A    between atoms: C_1  and  C_8
REMARK    3  A    between atoms: C_9  and  N_34
REMARK    4  A    between atoms: C_13  and  C_44
REMARK    5  A    between atoms: C_14  and  C_15
REMARK    6  A    between atoms: C_21  and  O_22
REMARK    7  A    between atoms: O_22  and  C_23
REMARK    8  A    between atoms: C_23  and  C_24
REMARK    9  A    between atoms: C_29  and  C_31
REMARK   10  A    between atoms: C_29  and  C_43
REMARK   11  A    between atoms: C_31  and  C_35
REMARK   12  A    between atoms: N_34  and  O_40
REMARK   13  A    between atoms: N_34  and  C_41
REMARK   14  A    between atoms: C_35  and  C_44
REMARK   15  A    between atoms: C_38  and  O_40
REMARK   16  A    between atoms: C_38  and  N_46
REMARK   17  A    between atoms: C_45  and  N_46
REMARK                            x       y       z     vdW  Elec       q    Type
REMARK                         _______ _______ _______ _____ _____    ______ ____
ROOT
ATOM      1  N   UNL A   1     -24.776   1.853  31.170  0.00  0.00    -0.237 N 
ENDROOT
BRANCH   1   3
ATOM      2  C   UNL A   1     -25.387  -0.679  31.571  0.00  0.00    +0.100 C 
ATOM      3  C   UNL A   1     -25.189   0.773  32.028  0.00  0.00    +0.127 C 
ATOM      4  C   UNL A   1     -25.336   0.684  33.544  0.00  0.00    +0.045 C 
ATOM      5  C   UNL A   1     -24.829  -0.715  33.905  0.00  0.00    +0.091 C 
ATOM      6  N   UNL A   1     -24.758  -1.481  32.646  0.00  0.00    -0.217 NA
BRANCH   2   7
ATOM      7  C   UNL A   1     -24.855  -1.012  30.143  0.00  0.00    +0.046 C 
BRANCH   7   8
ATOM      8  C   UNL A   1     -24.973  -2.505  29.788  0.00  0.00    -0.021 C 
ATOM      9  C   UNL A   1     -23.906  -3.173  29.146  0.00  0.00    -0.004 C 
ATOM     10  C   UNL A   1     -23.989  -4.549  28.853  0.00  0.00    -0.000 C 
ATOM     11  C   UNL A   1     -25.137  -5.280  29.205  0.00  0.00    -0.000 C 
ATOM     12  C   UNL A   1     -26.232  -4.611  29.784  0.00  0.00    -0.000 C 
ATOM     13  C   UNL A   1     -26.155  -3.232  30.065  0.00  0.00    -0.004 C 
ENDBRANCH   7   8
ENDBRANCH   2   7
ENDBRANCH   1   3
BRANCH   1  14
ATOM     14  C   UNL A   1     -23.609   1.807  30.204  0.00  0.00    +0.095 C 
ATOM     15  C   UNL A   1     -22.972   0.627  29.344  0.00  0.00    -0.005 C 
BRANCH  15  16
ATOM     16  C   UNL A   1     -21.921   0.736  28.389  0.00  0.00    +0.028 C 
BRANCH  16  17
ATOM     17  C   UNL A   1     -21.932   1.925  27.433  0.00  0.00    +0.005 C 
BRANCH  17  18
ATOM     18  C   UNL A   1     -23.177   2.028  26.444  0.00  0.00    +0.005 C 
BRANCH  18  19
ATOM     19  C   UNL A   1     -24.408   1.359  26.998  0.00  0.00    +0.029 C 
BRANCH  19  20
ATOM     20  C   UNL A   1     -25.688   1.614  26.461  0.00  0.00    +0.016 C 
ATOM     21  C   UNL A   1     -26.250   2.920  26.395  0.00  0.00    +0.073 C 
ATOM     22  C   UNL A   1     -27.438   3.091  25.645  0.00  0.00    +0.106 C 
ATOM     23  N   UNL A   1     -28.075   2.089  25.003  0.00  0.00    -0.208 NA
ATOM     24  C   UNL A   1     -27.543   0.849  25.079  0.00  0.00    +0.253 C 
ATOM     25  C   UNL A   1     -26.354   0.576  25.777  0.00  0.00    +0.189 C 
ATOM     26  F   UNL A   1     -25.860  -0.681  25.795  0.00  0.00    -0.200 F 
BRANCH  21  27
ATOM     27  C   UNL A   1     -25.642   4.093  27.123  0.00  0.00    +0.266 C 
ATOM     28  N   UNL A   1     -25.614   5.252  26.449  0.00  0.00    -0.200 NA
ATOM     29  C   UNL A   1     -25.026   6.479  26.963  0.00  0.00    +0.139 C 
ATOM     30  O   UNL A   1     -25.143   3.966  28.243  0.00  0.00    -0.268 OA
ENDBRANCH  21  27
BRANCH  24  31
ATOM     31  O   UNL A   1     -28.193  -0.208  24.477  0.00  0.00    -0.456 OA
BRANCH  31  32
ATOM     32  C   UNL A   1     -29.460   0.005  23.866  0.00  0.00    +0.243 C 
BRANCH  32  33
ATOM     33  C   UNL A   1     -30.065  -1.377  23.573  0.00  0.00    +0.229 C 
ATOM     34  O   UNL A   1     -30.729  -1.878  24.721  0.00  0.00    -0.216 OA
ENDBRANCH  32  33
ENDBRANCH  31  32
ENDBRANCH  24  31
ENDBRANCH  19  20
ENDBRANCH  18  19
ENDBRANCH  17  18
ENDBRANCH  16  17
ENDBRANCH  15  16
ENDBRANCH   1  14
BRANCH   1  35
ATOM     35  O   UNL A   1     -25.829   2.785  30.831  0.00  0.00    -0.235 OA
BRANCH  35  36
ATOM     36  C   UNL A   1     -26.720   3.330  31.807  0.00  0.00    +0.270 C 
BRANCH  36  38
ATOM     37  C   UNL A   1     -27.917   4.800  30.025  0.00  0.00    +0.115 C 
ATOM     38  N   UNL A   1     -26.947   4.671  31.140  0.00  0.00    -0.276 N 
BRANCH  38  46
ATOM     39  C   UNL A   1     -24.940   7.963  33.422  0.00  0.00    +0.000 C 
ATOM     40  N   UNL A   1     -22.813   7.272  34.199  0.00  0.00    -0.123 NA
ATOM     41  C   UNL A   1     -23.955   6.979  33.538  0.00  0.00    +0.136 C 
ATOM     42  C   UNL A   1     -26.608   7.095  31.807  0.00  0.00    +0.209 C 
ATOM     43  C   UNL A   1     -25.073   5.260  32.279  0.00  0.00    +0.015 C 
ATOM     44  C   UNL A   1     -24.087   5.679  33.086  0.00  0.00    -0.002 C 
ATOM     45  C   UNL A   1     -26.083   8.037  32.743  0.00  0.00    +0.041 C 
ATOM     46  C   UNL A   1     -26.245   5.761  31.778  0.00  0.00    +0.089 C 
ATOM     47  O   UNL A   1     -27.392   7.682  30.905  0.00  0.00    -0.285 OA
ENDBRANCH  38  46
ENDBRANCH  36  38
ENDBRANCH  35  36
ENDBRANCH   1  35
TORSDOF 17
