MODEL 679
MODEL 1
REMARK VINA RESULT:    -7.184      0.000      0.000
REMARK INTER + INTRA:          -7.780
REMARK INTER:                  -7.604
REMARK INTRA:                  -0.176
REMARK UNBOUND:                -0.176
REMARK  Name = No_679-gen_results/8p0m/2024-11-27-11-27-31/
REMARK  1 active torsions:
REMARK  status: ('A' for Active; 'I' for Inactive)
REMARK    1  A    between atoms: C_2  and  C_17
REMARK                            x       y       z     vdW  Elec       q    Type
REMARK                         _______ _______ _______ _____ _____    ______ ____
ROOT
ATOM      1  C   UNL A   1     -23.443  -1.745  28.944  0.00  0.00    +0.151 A 
ATOM      2  C   UNL A   1     -24.077  -2.288  29.587  0.00  0.00    +0.114 A 
ATOM      3  C   UNL A   1     -22.697  -0.596  29.585  0.00  0.00    +0.035 A 
ATOM      4  C   UNL A   1     -21.890   0.384  28.902  0.00  0.00    -0.001 C 
ATOM      5  C   UNL A   1     -24.220  -2.291  31.049  0.00  0.00    +0.010 A 
ATOM      6  C   UNL A   1     -23.545  -1.287  31.709  0.00  0.00    +0.000 A 
ATOM      7  C   UNL A   1     -22.737  -0.423  31.016  0.00  0.00    +0.003 A 
ATOM      8  C   UNL A   1     -22.356   0.999  27.755  0.00  0.00    -0.019 C 
ATOM      9  C   UNL A   1     -21.595   2.027  27.167  0.00  0.00    +0.031 C 
ATOM     10  C   UNL A   1     -23.554   0.606  27.144  0.00  0.00    +0.031 A 
ATOM     11  C   UNL A   1     -23.856   1.160  25.871  0.00  0.00    +0.003 A 
ATOM     12  C   UNL A   1     -25.153   0.990  25.524  0.00  0.00    +0.000 A 
ATOM     13  C   UNL A   1     -26.028   0.146  26.135  0.00  0.00    +0.003 A 
ATOM     14  C   UNL A   1     -25.659  -0.423  27.324  0.00  0.00    +0.037 A 
ATOM     15  C   UNL A   1     -24.534  -0.127  27.886  0.00  0.00    +0.145 A 
ATOM     16  O   UNL A   1     -24.364  -0.465  29.147  0.00  0.00    -0.453 OA
ENDROOT
BRANCH   2  17
ATOM     17  C   UNL A   1     -24.832  -3.566  29.191  0.00  0.00    +0.391 C 
ATOM     18  O   UNL A   1     -25.981  -3.725  29.347  0.00  0.00    -0.240 OA
ATOM     19  O   UNL A   1     -24.102  -4.407  28.457  0.00  0.00    -0.240 OA
ENDBRANCH   2  17
TORSDOF 1
ENDMDL
ENDMDL
