REMARK  Name = outputs/IAG933/test6/raw/output_6802_IAG933_linker_design_.xyz
REMARK  11 active torsions:
REMARK  status: ('A' for Active; 'I' for Inactive)
REMARK    1  A    between atoms: C_1  and  C_2
REMARK    2  A    between atoms: C_1  and  C_8
REMARK    3  A    between atoms: C_1  and  N_30
REMARK    4  A    between atoms: C_13  and  O_29
REMARK    5  A    between atoms: C_14  and  C_15
REMARK    6  A    between atoms: C_21  and  O_22
REMARK    7  A    between atoms: O_22  and  C_23
REMARK    8  A    between atoms: C_23  and  C_24
REMARK    9  A    between atoms: C_28  and  C_36
REMARK   10  A    between atoms: O_29  and  N_39
REMARK   11  A    between atoms: N_30  and  C_36
REMARK                            x       y       z     vdW  Elec       q    Type
REMARK                         _______ _______ _______ _____ _____    ______ ____
ROOT
ATOM      1  C   UNL A   1     -22.799   1.729  26.727  0.00  0.00    +0.429 C 
ATOM      2  C   UNL A   1     -21.030  -0.046  28.637  0.00  0.00    +0.051 C 
ATOM      3  O   UNL A   1     -23.069   2.136  25.614  0.00  0.00    -0.224 OA
ATOM      4  C   UNL A   1     -23.278   0.889  29.040  0.00  0.00    +0.227 C 
ATOM      5  O   UNL A   1     -21.528   1.662  27.250  0.00  0.00    -0.434 OA
ATOM      6  C   UNL A   1     -21.698   0.941  28.575  0.00  0.00    +0.208 C 
ATOM      7  N   UNL A   1     -23.704   1.281  27.704  0.00  0.00    -0.115 N 
ENDROOT
BRANCH   4   8
ATOM      8  C   UNL A   1     -23.951   2.014  30.078  0.00  0.00    +0.224 C 
ATOM      9  O   UNL A   1     -23.059   2.606  30.670  0.00  0.00    -0.217 OA
ENDBRANCH   4   8
BRANCH   4  10
ATOM     10  N   UNL A   1     -23.535  -0.420  29.808  0.00  0.00    -0.106 NA
ATOM     11  O   UNL A   1     -22.501  -0.870  30.587  0.00  0.00    -0.116 OA
BRANCH  10  12
ATOM     12  C   UNL A   1     -24.855  -1.012  30.143  0.00  0.00    +0.127 C 
BRANCH  12  13
ATOM     13  C   UNL A   1     -24.973  -2.505  29.788  0.00  0.00    -0.004 C 
ATOM     14  C   UNL A   1     -23.906  -3.173  29.146  0.00  0.00    -0.003 C 
ATOM     15  C   UNL A   1     -23.989  -4.549  28.853  0.00  0.00    -0.000 C 
ATOM     16  C   UNL A   1     -25.137  -5.280  29.205  0.00  0.00    -0.000 C 
ATOM     17  C   UNL A   1     -26.232  -4.611  29.784  0.00  0.00    -0.000 C 
ATOM     18  C   UNL A   1     -26.155  -3.232  30.065  0.00  0.00    -0.003 C 
ENDBRANCH  12  13
BRANCH  12  19
ATOM     19  C   UNL A   1     -25.387  -0.679  31.571  0.00  0.00    +0.094 C 
ATOM     20  C   UNL A   1     -25.189   0.773  32.028  0.00  0.00    +0.021 C 
ATOM     21  C   UNL A   1     -25.336   0.684  33.544  0.00  0.00    +0.020 C 
ATOM     22  C   UNL A   1     -24.829  -0.715  33.905  0.00  0.00    +0.089 C 
ATOM     23  N   UNL A   1     -24.758  -1.481  32.646  0.00  0.00    -0.218 NA
ENDBRANCH  12  19
ENDBRANCH  10  12
ENDBRANCH   4  10
BRANCH   7  24
ATOM     24  O   UNL A   1     -24.923   1.215  27.436  0.00  0.00    -0.254 OA
BRANCH  24  25
ATOM     25  C   UNL A   1     -25.688   1.614  26.461  0.00  0.00    +0.212 C 
ATOM     26  C   UNL A   1     -26.250   2.920  26.395  0.00  0.00    +0.084 C 
ATOM     27  C   UNL A   1     -27.438   3.091  25.645  0.00  0.00    +0.105 C 
ATOM     28  N   UNL A   1     -28.075   2.089  25.003  0.00  0.00    -0.212 NA
ATOM     29  C   UNL A   1     -27.543   0.849  25.079  0.00  0.00    +0.237 C 
ATOM     30  C   UNL A   1     -26.354   0.576  25.777  0.00  0.00    +0.269 C 
ATOM     31  F   UNL A   1     -25.860  -0.681  25.795  0.00  0.00    -0.224 F 
BRANCH  26  32
ATOM     32  C   UNL A   1     -25.642   4.093  27.123  0.00  0.00    +0.265 C 
ATOM     33  N   UNL A   1     -25.614   5.252  26.449  0.00  0.00    -0.200 NA
ATOM     34  C   UNL A   1     -25.026   6.479  26.963  0.00  0.00    +0.139 C 
ATOM     35  O   UNL A   1     -25.143   3.966  28.243  0.00  0.00    -0.269 OA
ENDBRANCH  26  32
BRANCH  29  36
ATOM     36  O   UNL A   1     -28.193  -0.208  24.477  0.00  0.00    -0.459 OA
BRANCH  36  37
ATOM     37  C   UNL A   1     -29.460   0.005  23.866  0.00  0.00    +0.242 C 
BRANCH  37  38
ATOM     38  C   UNL A   1     -30.065  -1.377  23.573  0.00  0.00    +0.229 C 
ATOM     39  O   UNL A   1     -30.729  -1.878  24.721  0.00  0.00    -0.216 OA
ENDBRANCH  37  38
ENDBRANCH  36  37
ENDBRANCH  29  36
ENDBRANCH  24  25
ENDBRANCH   7  24
TORSDOF 11
