REMARK  Name = outputs/IAG933/test6/raw/output_6803_IAG933_linker_design_.xyz
REMARK  14 active torsions:
REMARK  status: ('A' for Active; 'I' for Inactive)
REMARK    1  A    between atoms: C_1  and  C_2
REMARK    2  A    between atoms: C_1  and  C_8
REMARK    3  A    between atoms: C_1  and  C_32
REMARK    4  A    between atoms: C_13  and  C_29
REMARK    5  A    between atoms: C_14  and  C_15
REMARK    6  A    between atoms: C_21  and  O_22
REMARK    7  A    between atoms: O_22  and  C_23
REMARK    8  A    between atoms: C_23  and  C_24
REMARK    9  A    between atoms: O_28  and  C_34
REMARK   10  A    between atoms: C_29  and  C_38
REMARK   11  A    between atoms: C_32  and  N_37
REMARK   12  A    between atoms: C_33  and  C_38
REMARK   13  A    between atoms: C_34  and  C_36
REMARK   14  A    between atoms: C_36  and  N_37
REMARK                            x       y       z     vdW  Elec       q    Type
REMARK                         _______ _______ _______ _____ _____    ______ ____
ROOT
ATOM      1  C   UNL A   1     -25.151  -0.069  28.938  0.00  0.00    +0.044 C 
ATOM      2  C   UNL A   1     -23.576   0.284  28.549  0.00  0.00    -0.014 C 
ENDROOT
BRANCH   2   4
ATOM      3  C   UNL A   1     -21.704   1.715  27.593  0.00  0.00    +0.005 C 
ATOM      4  C   UNL A   1     -22.920   0.890  27.226  0.00  0.00    +0.023 C 
BRANCH   4   5
ATOM      5  C   UNL A   1     -24.044   1.587  26.415  0.00  0.00    +0.012 C 
BRANCH   5   6
ATOM      6  C   UNL A   1     -25.688   1.614  26.461  0.00  0.00    +0.070 C 
ATOM      7  C   UNL A   1     -26.250   2.920  26.395  0.00  0.00    +0.055 C 
ATOM      8  C   UNL A   1     -27.438   3.091  25.645  0.00  0.00    +0.102 C 
ATOM      9  N   UNL A   1     -28.075   2.089  25.003  0.00  0.00    -0.212 NA
ATOM     10  C   UNL A   1     -27.543   0.849  25.079  0.00  0.00    +0.234 C 
ATOM     11  C   UNL A   1     -26.354   0.576  25.777  0.00  0.00    +0.240 C 
ATOM     12  F   UNL A   1     -25.860  -0.681  25.795  0.00  0.00    -0.227 F 
BRANCH   7  13
ATOM     13  C   UNL A   1     -25.642   4.093  27.123  0.00  0.00    +0.262 C 
ATOM     14  N   UNL A   1     -25.614   5.252  26.449  0.00  0.00    -0.200 NA
ATOM     15  C   UNL A   1     -25.026   6.479  26.963  0.00  0.00    +0.139 C 
ATOM     16  O   UNL A   1     -25.143   3.966  28.243  0.00  0.00    -0.269 OA
ENDBRANCH   7  13
BRANCH  10  17
ATOM     17  O   UNL A   1     -28.193  -0.208  24.477  0.00  0.00    -0.459 OA
BRANCH  17  18
ATOM     18  C   UNL A   1     -29.460   0.005  23.866  0.00  0.00    +0.242 C 
BRANCH  18  19
ATOM     19  C   UNL A   1     -30.065  -1.377  23.573  0.00  0.00    +0.229 C 
ATOM     20  O   UNL A   1     -30.729  -1.878  24.721  0.00  0.00    -0.216 OA
ENDBRANCH  18  19
ENDBRANCH  17  18
ENDBRANCH  10  17
ENDBRANCH   5   6
ENDBRANCH   4   5
ENDBRANCH   2   4
BRANCH   1  21
ATOM     21  C   UNL A   1     -24.855  -1.012  30.143  0.00  0.00    +0.075 C 
BRANCH  21  22
ATOM     22  C   UNL A   1     -24.973  -2.505  29.788  0.00  0.00    -0.016 C 
ATOM     23  C   UNL A   1     -23.906  -3.173  29.146  0.00  0.00    -0.004 C 
ATOM     24  C   UNL A   1     -23.989  -4.549  28.853  0.00  0.00    -0.000 C 
ATOM     25  C   UNL A   1     -25.137  -5.280  29.205  0.00  0.00    -0.000 C 
ATOM     26  C   UNL A   1     -26.232  -4.611  29.784  0.00  0.00    -0.000 C 
ATOM     27  C   UNL A   1     -26.155  -3.232  30.065  0.00  0.00    -0.004 C 
ENDBRANCH  21  22
BRANCH  21  28
ATOM     28  C   UNL A   1     -25.387  -0.679  31.571  0.00  0.00    +0.082 C 
ATOM     29  C   UNL A   1     -25.189   0.773  32.028  0.00  0.00    +0.020 C 
ATOM     30  C   UNL A   1     -25.336   0.684  33.544  0.00  0.00    +0.020 C 
ATOM     31  C   UNL A   1     -24.829  -0.715  33.905  0.00  0.00    +0.089 C 
ATOM     32  N   UNL A   1     -24.758  -1.481  32.646  0.00  0.00    -0.219 NA
ENDBRANCH  21  28
ENDBRANCH   1  21
BRANCH   1  33
ATOM     33  N   UNL A   1     -26.711  -0.303  28.797  0.00  0.00    -0.243 NA
BRANCH  33  35
ATOM     34  C   UNL A   1     -28.475   1.214  30.001  0.00  0.00    +0.024 C 
ATOM     35  C   UNL A   1     -27.867   0.571  28.932  0.00  0.00    +0.104 C 
ATOM     36  C   UNL A   1     -27.994   1.675  29.109  0.00  0.00    +0.024 C 
BRANCH  35  37
ATOM     37  C   UNL A   1     -28.993  -0.041  27.907  0.00  0.00    +0.173 C 
ATOM     38  C   UNL A   1     -30.204   0.804  27.500  0.00  0.00    +0.037 C 
BRANCH  37  39
ATOM     39  O   UNL A   1     -29.579  -1.015  28.766  0.00  0.00    -0.190 OA
ATOM     40  O   UNL A   1     -30.639  -1.687  28.175  0.00  0.00    -0.035 OA
ENDBRANCH  37  39
ENDBRANCH  35  37
ENDBRANCH  33  35
ENDBRANCH   1  33
TORSDOF 14
