REMARK  Name = outputs/IAG933/test6/raw/output_6808_IAG933_linker_design_.xyz
REMARK  9 active torsions:
REMARK  status: ('A' for Active; 'I' for Inactive)
REMARK    1  A    between atoms: C_1  and  C_2
REMARK    2  A    between atoms: C_1  and  C_8
REMARK    3  A    between atoms: C_1  and  C_41
REMARK    4  A    between atoms: C_13  and  C_33
REMARK    5  A    between atoms: C_14  and  C_15
REMARK    6  A    between atoms: C_21  and  O_22
REMARK    7  A    between atoms: O_22  and  C_23
REMARK    8  A    between atoms: C_23  and  C_24
REMARK    9  A    between atoms: C_32  and  C_39
REMARK                            x       y       z     vdW  Elec       q    Type
REMARK                         _______ _______ _______ _____ _____    ______ ____
ROOT
ATOM      1 CL   UNL A   1     -21.231   1.757  27.046  0.00  0.00    -0.076 Cl
ATOM      2  C   UNL A   1     -25.329   0.653  28.558  0.00  0.00    +0.020 C 
ATOM      3  C   UNL A   1     -24.927   1.300  27.497  0.00  0.00    +0.061 C 
ATOM      4  C   UNL A   1     -22.704   1.146  27.865  0.00  0.00    +0.233 C 
ATOM      5  S   UNL A   1     -22.639   0.193  29.123  0.00  0.00    -0.078 S 
ATOM      6  C   UNL A   1     -24.440   0.073  29.306  0.00  0.00    +0.010 C 
ATOM      7  N   UNL A   1     -23.677   1.610  27.362  0.00  0.00    -0.249 NA
ENDROOT
BRANCH   2  15
ATOM      8  C   UNL A   1     -29.323   1.469  30.183  0.00  0.00    +0.030 C 
ATOM      9  C   UNL A   1     -29.799  -0.160  28.497  0.00  0.00    +0.003 C 
ATOM     10  C   UNL A   1     -29.009  -0.000  29.810  0.00  0.00    +0.005 C 
ATOM     11  C   UNL A   1     -28.940   2.063  28.824  0.00  0.00    +0.116 C 
ATOM     12  O   UNL A   1     -27.523   1.950  28.659  0.00  0.00    -0.354 OA
ATOM     13  C   UNL A   1     -27.773  -0.169  29.623  0.00  0.00    +0.034 C 
ATOM     14  C   UNL A   1     -29.594   1.166  27.799  0.00  0.00    +0.030 C 
ATOM     15  C   UNL A   1     -26.922   0.582  28.607  0.00  0.00    +0.139 C 
ENDBRANCH   2  15
BRANCH   3  16
ATOM     16  C   UNL A   1     -25.688   1.614  26.461  0.00  0.00    +0.110 C 
ATOM     17  C   UNL A   1     -26.250   2.920  26.395  0.00  0.00    +0.060 C 
ATOM     18  C   UNL A   1     -27.438   3.091  25.645  0.00  0.00    +0.102 C 
ATOM     19  N   UNL A   1     -28.075   2.089  25.003  0.00  0.00    -0.212 NA
ATOM     20  C   UNL A   1     -27.543   0.849  25.079  0.00  0.00    +0.234 C 
ATOM     21  C   UNL A   1     -26.354   0.576  25.777  0.00  0.00    +0.245 C 
ATOM     22  F   UNL A   1     -25.860  -0.681  25.795  0.00  0.00    -0.227 F 
BRANCH  17  23
ATOM     23  C   UNL A   1     -25.642   4.093  27.123  0.00  0.00    +0.263 C 
ATOM     24  N   UNL A   1     -25.614   5.252  26.449  0.00  0.00    -0.200 NA
ATOM     25  C   UNL A   1     -25.026   6.479  26.963  0.00  0.00    +0.139 C 
ATOM     26  O   UNL A   1     -25.143   3.966  28.243  0.00  0.00    -0.269 OA
ENDBRANCH  17  23
BRANCH  20  27
ATOM     27  O   UNL A   1     -28.193  -0.208  24.477  0.00  0.00    -0.459 OA
BRANCH  27  28
ATOM     28  C   UNL A   1     -29.460   0.005  23.866  0.00  0.00    +0.242 C 
BRANCH  28  29
ATOM     29  C   UNL A   1     -30.065  -1.377  23.573  0.00  0.00    +0.229 C 
ATOM     30  O   UNL A   1     -30.729  -1.878  24.721  0.00  0.00    -0.216 OA
ENDBRANCH  28  29
ENDBRANCH  27  28
ENDBRANCH  20  27
ENDBRANCH   3  16
BRANCH   6  31
ATOM     31  C   UNL A   1     -24.855  -1.012  30.143  0.00  0.00    +0.066 C 
BRANCH  31  32
ATOM     32  C   UNL A   1     -24.973  -2.505  29.788  0.00  0.00    -0.017 C 
ATOM     33  C   UNL A   1     -23.906  -3.173  29.146  0.00  0.00    -0.004 C 
ATOM     34  C   UNL A   1     -23.989  -4.549  28.853  0.00  0.00    -0.000 C 
ATOM     35  C   UNL A   1     -25.137  -5.280  29.205  0.00  0.00    -0.000 C 
ATOM     36  C   UNL A   1     -26.232  -4.611  29.784  0.00  0.00    -0.000 C 
ATOM     37  C   UNL A   1     -26.155  -3.232  30.065  0.00  0.00    -0.004 C 
ENDBRANCH  31  32
BRANCH  31  38
ATOM     38  C   UNL A   1     -25.387  -0.679  31.571  0.00  0.00    +0.081 C 
ATOM     39  C   UNL A   1     -25.189   0.773  32.028  0.00  0.00    +0.019 C 
ATOM     40  C   UNL A   1     -25.336   0.684  33.544  0.00  0.00    +0.020 C 
ATOM     41  C   UNL A   1     -24.829  -0.715  33.905  0.00  0.00    +0.089 C 
ATOM     42  N   UNL A   1     -24.758  -1.481  32.646  0.00  0.00    -0.219 NA
ENDBRANCH  31  38
ENDBRANCH   6  31
TORSDOF 9
