REMARK  Name = outputs/IAG933/test6/raw/output_6809_IAG933_linker_design_.xyz
REMARK  14 active torsions:
REMARK  status: ('A' for Active; 'I' for Inactive)
REMARK    1  A    between atoms: C_1  and  C_2
REMARK    2  A    between atoms: C_1  and  C_8
REMARK    3  A    between atoms: C_1  and  N_34
REMARK    4  A    between atoms: C_13  and  C_30
REMARK    5  A    between atoms: C_14  and  C_15
REMARK    6  A    between atoms: C_21  and  O_22
REMARK    7  A    between atoms: O_22  and  C_23
REMARK    8  A    between atoms: C_23  and  C_24
REMARK    9  A    between atoms: C_28  and  C_33
REMARK   10  A    between atoms: C_29  and  C_37
REMARK   11  A    between atoms: C_31  and  N_34
REMARK   12  A    between atoms: N_34  and  C_38
REMARK   13  A    between atoms: C_37  and  C_39
REMARK   14  A    between atoms: C_39  and  C_40
REMARK                            x       y       z     vdW  Elec       q    Type
REMARK                         _______ _______ _______ _____ _____    ______ ____
ROOT
ATOM      1  C   UNL A   1     -23.313   0.983  27.650  0.00  0.00    -0.010 C 
ATOM      2  C   UNL A   1     -24.546   1.246  27.206  0.00  0.00    -0.004 C 
ATOM      3  C   UNL A   1     -24.331   0.818  28.349  0.00  0.00    +0.104 C 
ENDROOT
BRANCH   2   4
ATOM      4  C   UNL A   1     -25.688   1.614  26.461  0.00  0.00    +0.035 C 
ATOM      5  C   UNL A   1     -26.250   2.920  26.395  0.00  0.00    +0.076 C 
ATOM      6  C   UNL A   1     -27.438   3.091  25.645  0.00  0.00    +0.107 C 
ATOM      7  N   UNL A   1     -28.075   2.089  25.003  0.00  0.00    -0.208 NA
ATOM      8  C   UNL A   1     -27.543   0.849  25.079  0.00  0.00    +0.253 C 
ATOM      9  C   UNL A   1     -26.354   0.576  25.777  0.00  0.00    +0.193 C 
ATOM     10  F   UNL A   1     -25.860  -0.681  25.795  0.00  0.00    -0.199 F 
BRANCH   5  11
ATOM     11  C   UNL A   1     -25.642   4.093  27.123  0.00  0.00    +0.266 C 
ATOM     12  N   UNL A   1     -25.614   5.252  26.449  0.00  0.00    -0.200 NA
ATOM     13  C   UNL A   1     -25.026   6.479  26.963  0.00  0.00    +0.139 C 
ATOM     14  O   UNL A   1     -25.143   3.966  28.243  0.00  0.00    -0.268 OA
ENDBRANCH   5  11
BRANCH   8  15
ATOM     15  O   UNL A   1     -28.193  -0.208  24.477  0.00  0.00    -0.456 OA
BRANCH  15  16
ATOM     16  C   UNL A   1     -29.460   0.005  23.866  0.00  0.00    +0.243 C 
BRANCH  16  17
ATOM     17  C   UNL A   1     -30.065  -1.377  23.573  0.00  0.00    +0.229 C 
ATOM     18  O   UNL A   1     -30.729  -1.878  24.721  0.00  0.00    -0.216 OA
ENDBRANCH  16  17
ENDBRANCH  15  16
ENDBRANCH   8  15
ENDBRANCH   2   4
BRANCH   1  20
ATOM     19  C   UNL A   1     -21.018   0.361  28.113  0.00  0.00    +0.005 C 
ATOM     20  C   UNL A   1     -21.916   0.990  27.228  0.00  0.00    -0.021 C 
BRANCH  19  21
ATOM     21  C   UNL A   1     -21.657  -0.484  29.387  0.00  0.00    +0.208 C 
ATOM     22  O   UNL A   1     -22.495   0.548  29.995  0.00  0.00    -0.215 OA
ENDBRANCH  19  21
BRANCH  20  23
ATOM     23  C   UNL A   1     -21.552   1.570  26.001  0.00  0.00    +0.096 C 
BRANCH  23  25
ATOM     24  F   UNL A   1     -23.253   0.960  24.546  0.00  0.00    -0.201 F 
ATOM     25  C   UNL A   1     -22.602   1.893  25.196  0.00  0.00    +0.314 C 
ATOM     26  O   UNL A   1     -23.017   3.111  25.078  0.00  0.00    -0.184 OA
ENDBRANCH  23  25
ENDBRANCH  20  23
ENDBRANCH   1  20
BRANCH   3  27
ATOM     27  N   UNL A   1     -25.130  -0.001  29.100  0.00  0.00    -0.235 NA
BRANCH  27  28
ATOM     28  C   UNL A   1     -26.349  -0.111  28.632  0.00  0.00    +0.260 C 
ATOM     29  O   UNL A   1     -27.263  -0.572  28.217  0.00  0.00    -0.201 OA
ENDBRANCH  27  28
BRANCH  27  30
ATOM     30  C   UNL A   1     -24.855  -1.012  30.143  0.00  0.00    +0.099 C 
BRANCH  30  31
ATOM     31  C   UNL A   1     -24.973  -2.505  29.788  0.00  0.00    -0.006 C 
ATOM     32  C   UNL A   1     -23.906  -3.173  29.146  0.00  0.00    -0.003 C 
ATOM     33  C   UNL A   1     -23.989  -4.549  28.853  0.00  0.00    -0.000 C 
ATOM     34  C   UNL A   1     -25.137  -5.280  29.205  0.00  0.00    -0.000 C 
ATOM     35  C   UNL A   1     -26.232  -4.611  29.784  0.00  0.00    -0.000 C 
ATOM     36  C   UNL A   1     -26.155  -3.232  30.065  0.00  0.00    -0.003 C 
ENDBRANCH  30  31
BRANCH  30  37
ATOM     37  C   UNL A   1     -25.387  -0.679  31.571  0.00  0.00    +0.092 C 
ATOM     38  C   UNL A   1     -25.189   0.773  32.028  0.00  0.00    +0.021 C 
ATOM     39  C   UNL A   1     -25.336   0.684  33.544  0.00  0.00    +0.020 C 
ATOM     40  C   UNL A   1     -24.829  -0.715  33.905  0.00  0.00    +0.089 C 
ATOM     41  N   UNL A   1     -24.758  -1.481  32.646  0.00  0.00    -0.218 NA
ENDBRANCH  30  37
ENDBRANCH  27  30
ENDBRANCH   3  27
TORSDOF 14
