MODEL 680
MODEL 1
REMARK VINA RESULT:    -4.238      0.000      0.000
REMARK INTER + INTRA:          -4.238
REMARK INTER:                  -4.238
REMARK INTRA:                   0.000
REMARK UNBOUND:                 0.000
REMARK  Name = No_680-gen_results/8p0m/2024-11-27-11-27-31/
REMARK  0 active torsions:
REMARK  status: ('A' for Active; 'I' for Inactive)
REMARK                            x       y       z     vdW  Elec       q    Type
REMARK                         _______ _______ _______ _____ _____    ______ ____
ROOT
ATOM      1  C   UNL A   1     -24.109  -4.850  28.639  0.00  0.00    +0.000 A 
ATOM      2  C   UNL A   1     -25.002  -5.307  28.963  0.00  0.00    +0.000 A 
ATOM      3  C   UNL A   1     -24.053  -3.382  28.724  0.00  0.00    +0.000 A 
ATOM      4  C   UNL A   1     -25.105  -2.651  29.347  0.00  0.00    +0.000 A 
ATOM      5  C   UNL A   1     -26.197  -4.795  29.688  0.00  0.00    +0.000 A 
ATOM      6  C   UNL A   1     -26.185  -3.435  29.778  0.00  0.00    +0.000 A 
ENDROOT
TORSDOF 0
ENDMDL
ENDMDL
