REMARK  Name = outputs/IAG933/test6/raw/output_6812_IAG933_linker_design_.xyz
REMARK  16 active torsions:
REMARK  status: ('A' for Active; 'I' for Inactive)
REMARK    1  A    between atoms: C_1  and  C_2
REMARK    2  A    between atoms: C_1  and  C_8
REMARK    3  A    between atoms: C_9  and  C_38
REMARK    4  A    between atoms: C_13  and  N_42
REMARK    5  A    between atoms: C_14  and  C_15
REMARK    6  A    between atoms: C_21  and  O_22
REMARK    7  A    between atoms: O_22  and  C_23
REMARK    8  A    between atoms: C_23  and  C_24
REMARK    9  A    between atoms: C_28  and  O_29
REMARK   10  A    between atoms: O_29  and  C_39
REMARK   11  A    between atoms: C_31  and  N_36
REMARK   12  A    between atoms: C_31  and  N_42
REMARK   13  A    between atoms: N_36  and  C_43
REMARK   14  A    between atoms: C_38  and  C_39
REMARK   15  A    between atoms: C_38  and  C_41
REMARK   16  A    between atoms: C_39  and  N_47
REMARK                            x       y       z     vdW  Elec       q    Type
REMARK                         _______ _______ _______ _____ _____    ______ ____
ROOT
ATOM      1  C   UNL A   1     -25.578   2.318  31.581  0.00  0.00    +0.088 C 
ENDROOT
BRANCH   1   3
ATOM      2  C   UNL A   1     -25.387  -0.679  31.571  0.00  0.00    +0.078 C 
ATOM      3  C   UNL A   1     -25.189   0.773  32.028  0.00  0.00    +0.027 C 
ATOM      4  C   UNL A   1     -25.336   0.684  33.544  0.00  0.00    +0.021 C 
ATOM      5  C   UNL A   1     -24.829  -0.715  33.905  0.00  0.00    +0.089 C 
ATOM      6  N   UNL A   1     -24.758  -1.481  32.646  0.00  0.00    -0.219 NA
BRANCH   2   7
ATOM      7  C   UNL A   1     -24.855  -1.012  30.143  0.00  0.00    +0.044 C 
BRANCH   7   8
ATOM      8  C   UNL A   1     -24.973  -2.505  29.788  0.00  0.00    -0.021 C 
ATOM      9  C   UNL A   1     -23.906  -3.173  29.146  0.00  0.00    -0.004 C 
ATOM     10  C   UNL A   1     -23.989  -4.549  28.853  0.00  0.00    -0.000 C 
ATOM     11  C   UNL A   1     -25.137  -5.280  29.205  0.00  0.00    -0.000 C 
ATOM     12  C   UNL A   1     -26.232  -4.611  29.784  0.00  0.00    -0.000 C 
ATOM     13  C   UNL A   1     -26.155  -3.232  30.065  0.00  0.00    -0.004 C 
ENDBRANCH   7   8
ENDBRANCH   2   7
ENDBRANCH   1   3
BRANCH   1  14
ATOM     14  C   UNL A   1     -24.853   2.711  30.742  0.00  0.00    +0.021 C 
ATOM     15  C   UNL A   1     -22.767   1.008  29.480  0.00  0.00    +0.109 C 
ATOM     16  C   UNL A   1     -23.861   1.921  30.030  0.00  0.00    -0.089 C 
BRANCH  15  17
ATOM     17  N   UNL A   1     -22.415   0.832  28.036  0.00  0.00    -0.260 N 
ATOM     18  C   UNL A   1     -21.010   1.258  27.866  0.00  0.00    +0.120 C 
BRANCH  17  19
ATOM     19  C   UNL A   1     -23.274   1.419  27.058  0.00  0.00    +0.163 C 
ATOM     20  S   UNL A   1     -22.750   2.236  25.631  0.00  0.00    -0.016 S 
BRANCH  19  21
ATOM     21  N   UNL A   1     -24.573   1.296  27.360  0.00  0.00    -0.189 NA
BRANCH  21  22
ATOM     22  C   UNL A   1     -25.688   1.614  26.461  0.00  0.00    +0.110 C 
ATOM     23  C   UNL A   1     -26.250   2.920  26.395  0.00  0.00    +0.092 C 
ATOM     24  C   UNL A   1     -27.438   3.091  25.645  0.00  0.00    +0.108 C 
ATOM     25  N   UNL A   1     -28.075   2.089  25.003  0.00  0.00    -0.208 NA
ATOM     26  C   UNL A   1     -27.543   0.849  25.079  0.00  0.00    +0.255 C 
ATOM     27  C   UNL A   1     -26.354   0.576  25.777  0.00  0.00    +0.208 C 
ATOM     28  F   UNL A   1     -25.860  -0.681  25.795  0.00  0.00    -0.198 F 
BRANCH  23  29
ATOM     29  C   UNL A   1     -25.642   4.093  27.123  0.00  0.00    +0.268 C 
ATOM     30  N   UNL A   1     -25.614   5.252  26.449  0.00  0.00    -0.200 NA
ATOM     31  C   UNL A   1     -25.026   6.479  26.963  0.00  0.00    +0.139 C 
ATOM     32  O   UNL A   1     -25.143   3.966  28.243  0.00  0.00    -0.268 OA
ENDBRANCH  23  29
BRANCH  26  33
ATOM     33  O   UNL A   1     -28.193  -0.208  24.477  0.00  0.00    -0.456 OA
BRANCH  33  34
ATOM     34  C   UNL A   1     -29.460   0.005  23.866  0.00  0.00    +0.243 C 
BRANCH  34  35
ATOM     35  C   UNL A   1     -30.065  -1.377  23.573  0.00  0.00    +0.229 C 
ATOM     36  O   UNL A   1     -30.729  -1.878  24.721  0.00  0.00    -0.216 OA
ENDBRANCH  34  35
ENDBRANCH  33  34
ENDBRANCH  26  33
ENDBRANCH  21  22
ENDBRANCH  19  21
ENDBRANCH  17  19
ENDBRANCH  15  17
ENDBRANCH   1  14
BRANCH   1  37
ATOM     37  C   UNL A   1     -26.648   3.376  32.281  0.00  0.00    +0.236 C 
BRANCH  37  43
ATOM     38  C   UNL A   1     -25.948   6.455  29.997  0.00  0.00    +0.022 C 
ATOM     39  C   UNL A   1     -25.442   5.425  32.290  0.00  0.00    +0.190 C 
ATOM     40  O   UNL A   1     -24.270   4.855  32.814  0.00  0.00    -0.207 OA
ATOM     41  C   UNL A   1     -25.069   6.900  32.504  0.00  0.00    +0.052 C 
ATOM     42  C   UNL A   1     -26.347   5.495  31.148  0.00  0.00    +0.105 C 
ATOM     43  N   UNL A   1     -26.364   4.745  32.266  0.00  0.00    -0.214 NA
ENDBRANCH  37  43
BRANCH  37  44
ATOM     44  O   UNL A   1     -27.541   3.205  33.102  0.00  0.00    -0.449 OA
BRANCH  44  45
ATOM     45  C   UNL A   1     -28.213   4.108  33.931  0.00  0.00    +0.221 C 
ATOM     46  C   UNL A   1     -28.964   3.870  35.046  0.00  0.00    +0.096 C 
ATOM     47  N   UNL A   1     -27.932   5.141  33.490  0.00  0.00    -0.112 NA
ENDBRANCH  44  45
ENDBRANCH  37  44
ENDBRANCH   1  37
TORSDOF 16
