REMARK  Name = outputs/IAG933/test6/raw/output_6815_IAG933_linker_design_.xyz
REMARK  10 active torsions:
REMARK  status: ('A' for Active; 'I' for Inactive)
REMARK    1  A    between atoms: C_1  and  C_2
REMARK    2  A    between atoms: C_1  and  C_8
REMARK    3  A    between atoms: C_1  and  C_31
REMARK    4  A    between atoms: C_13  and  N_28
REMARK    5  A    between atoms: C_14  and  C_15
REMARK    6  A    between atoms: C_21  and  O_22
REMARK    7  A    between atoms: O_22  and  C_23
REMARK    8  A    between atoms: C_23  and  C_24
REMARK    9  A    between atoms: N_28  and  C_29
REMARK   10  A    between atoms: C_31  and  C_32
REMARK                            x       y       z     vdW  Elec       q    Type
REMARK                         _______ _______ _______ _____ _____    ______ ____
ROOT
ATOM      1  C   UNL A   1     -23.376   1.208  27.476  0.00  0.00    +0.101 C 
ATOM      2  F   UNL A   1     -21.913   2.466  26.017  0.00  0.00    -0.203 F 
ATOM      3  C   UNL A   1     -23.549   0.269  28.573  0.00  0.00    +0.052 C 
ATOM      4  C   UNL A   1     -22.397  -0.163  29.195  0.00  0.00    +0.004 C 
ATOM      5  C   UNL A   1     -21.130   0.251  28.752  0.00  0.00    +0.003 C 
ATOM      6  C   UNL A   1     -22.105   1.648  27.053  0.00  0.00    +0.155 C 
ATOM      7  C   UNL A   1     -20.964   1.177  27.713  0.00  0.00    +0.031 C 
ENDROOT
BRANCH   3   8
ATOM      8  C   UNL A   1     -24.802  -0.276  29.000  0.00  0.00    +0.179 C 
ATOM      9  O   UNL A   1     -25.864  -0.292  28.393  0.00  0.00    -0.291 OA
BRANCH   8  10
ATOM     10  C   UNL A   1     -24.855  -1.012  30.143  0.00  0.00    +0.100 C 
BRANCH  10  11
ATOM     11  C   UNL A   1     -24.973  -2.505  29.788  0.00  0.00    -0.014 C 
ATOM     12  C   UNL A   1     -23.906  -3.173  29.146  0.00  0.00    -0.004 C 
ATOM     13  C   UNL A   1     -23.989  -4.549  28.853  0.00  0.00    -0.000 C 
ATOM     14  C   UNL A   1     -25.137  -5.280  29.205  0.00  0.00    -0.000 C 
ATOM     15  C   UNL A   1     -26.232  -4.611  29.784  0.00  0.00    -0.000 C 
ATOM     16  C   UNL A   1     -26.155  -3.232  30.065  0.00  0.00    -0.004 C 
ENDBRANCH  10  11
BRANCH  10  17
ATOM     17  C   UNL A   1     -25.387  -0.679  31.571  0.00  0.00    +0.084 C 
ATOM     18  C   UNL A   1     -25.189   0.773  32.028  0.00  0.00    +0.020 C 
ATOM     19  C   UNL A   1     -25.336   0.684  33.544  0.00  0.00    +0.020 C 
ATOM     20  C   UNL A   1     -24.829  -0.715  33.905  0.00  0.00    +0.089 C 
ATOM     21  N   UNL A   1     -24.758  -1.481  32.646  0.00  0.00    -0.219 NA
ENDBRANCH  10  17
ENDBRANCH   8  10
ENDBRANCH   3   8
BRANCH   1  22
ATOM     22  N   UNL A   1     -24.389   1.555  26.991  0.00  0.00    -0.207 NA
BRANCH  22  23
ATOM     23  C   UNL A   1     -25.688   1.614  26.461  0.00  0.00    +0.108 C 
ATOM     24  C   UNL A   1     -26.250   2.920  26.395  0.00  0.00    +0.092 C 
ATOM     25  C   UNL A   1     -27.438   3.091  25.645  0.00  0.00    +0.108 C 
ATOM     26  N   UNL A   1     -28.075   2.089  25.003  0.00  0.00    -0.208 NA
ATOM     27  C   UNL A   1     -27.543   0.849  25.079  0.00  0.00    +0.255 C 
ATOM     28  C   UNL A   1     -26.354   0.576  25.777  0.00  0.00    +0.208 C 
ATOM     29  F   UNL A   1     -25.860  -0.681  25.795  0.00  0.00    -0.198 F 
BRANCH  24  30
ATOM     30  C   UNL A   1     -25.642   4.093  27.123  0.00  0.00    +0.268 C 
ATOM     31  N   UNL A   1     -25.614   5.252  26.449  0.00  0.00    -0.200 NA
ATOM     32  C   UNL A   1     -25.026   6.479  26.963  0.00  0.00    +0.139 C 
ATOM     33  O   UNL A   1     -25.143   3.966  28.243  0.00  0.00    -0.268 OA
ENDBRANCH  24  30
BRANCH  27  34
ATOM     34  O   UNL A   1     -28.193  -0.208  24.477  0.00  0.00    -0.456 OA
BRANCH  34  35
ATOM     35  C   UNL A   1     -29.460   0.005  23.866  0.00  0.00    +0.243 C 
BRANCH  35  36
ATOM     36  C   UNL A   1     -30.065  -1.377  23.573  0.00  0.00    +0.229 C 
ATOM     37  O   UNL A   1     -30.729  -1.878  24.721  0.00  0.00    -0.216 OA
ENDBRANCH  35  36
ENDBRANCH  34  35
ENDBRANCH  27  34
ENDBRANCH  22  23
ENDBRANCH   1  22
TORSDOF 10
