REMARK  Name = outputs/IAG933/test6/raw/output_6816_IAG933_linker_design_.xyz
REMARK  11 active torsions:
REMARK  status: ('A' for Active; 'I' for Inactive)
REMARK    1  A    between atoms: C_1  and  C_2
REMARK    2  A    between atoms: C_1  and  C_8
REMARK    3  A    between atoms: C_1  and  N_39
REMARK    4  A    between atoms: C_13  and  N_33
REMARK    5  A    between atoms: C_14  and  C_15
REMARK    6  A    between atoms: C_21  and  O_22
REMARK    7  A    between atoms: O_22  and  C_23
REMARK    8  A    between atoms: C_23  and  C_24
REMARK    9  A    between atoms: N_34  and  C_37
REMARK   10  A    between atoms: N_34  and  N_39
REMARK   11  A    between atoms: N_39  and  C_41
REMARK                            x       y       z     vdW  Elec       q    Type
REMARK                         _______ _______ _______ _____ _____    ______ ____
ROOT
ATOM      1  C   UNL A   1     -22.711   0.566  28.017  0.00  0.00    +0.183 C 
ATOM      2  F   UNL A   1     -22.325  -0.232  29.056  0.00  0.00    -0.203 F 
ATOM      3  F   UNL A   1     -20.495   1.402  27.748  0.00  0.00    -0.200 F 
ATOM      4  C   UNL A   1     -22.144   2.130  26.310  0.00  0.00    +0.211 C 
ATOM      5  N   UNL A   1     -24.394   1.576  26.717  0.00  0.00    -0.259 N 
ATOM      6  F   UNL A   1     -23.923   3.192  25.068  0.00  0.00    -0.185 F 
ATOM      7  C   UNL A   1     -24.044   0.683  27.624  0.00  0.00    +0.220 C 
ATOM      8  C   UNL A   1     -21.793   1.359  27.364  0.00  0.00    +0.197 C 
ATOM      9  F   UNL A   1     -21.180   2.475  25.451  0.00  0.00    -0.198 F 
ATOM     10  C   UNL A   1     -23.469   2.401  26.034  0.00  0.00    +0.224 C 
ENDROOT
BRANCH   5  11
ATOM     11  C   UNL A   1     -25.688   1.614  26.461  0.00  0.00    +0.146 C 
ATOM     12  C   UNL A   1     -26.250   2.920  26.395  0.00  0.00    +0.073 C 
ATOM     13  C   UNL A   1     -27.438   3.091  25.645  0.00  0.00    +0.104 C 
ATOM     14  N   UNL A   1     -28.075   2.089  25.003  0.00  0.00    -0.212 NA
ATOM     15  C   UNL A   1     -27.543   0.849  25.079  0.00  0.00    +0.236 C 
ATOM     16  C   UNL A   1     -26.354   0.576  25.777  0.00  0.00    +0.258 C 
ATOM     17  F   UNL A   1     -25.860  -0.681  25.795  0.00  0.00    -0.225 F 
BRANCH  12  18
ATOM     18  C   UNL A   1     -25.642   4.093  27.123  0.00  0.00    +0.264 C 
ATOM     19  N   UNL A   1     -25.614   5.252  26.449  0.00  0.00    -0.200 NA
ATOM     20  C   UNL A   1     -25.026   6.479  26.963  0.00  0.00    +0.139 C 
ATOM     21  O   UNL A   1     -25.143   3.966  28.243  0.00  0.00    -0.269 OA
ENDBRANCH  12  18
BRANCH  15  22
ATOM     22  O   UNL A   1     -28.193  -0.208  24.477  0.00  0.00    -0.459 OA
BRANCH  22  23
ATOM     23  C   UNL A   1     -29.460   0.005  23.866  0.00  0.00    +0.242 C 
BRANCH  23  24
ATOM     24  C   UNL A   1     -30.065  -1.377  23.573  0.00  0.00    +0.229 C 
ATOM     25  O   UNL A   1     -30.729  -1.878  24.721  0.00  0.00    -0.216 OA
ENDBRANCH  23  24
ENDBRANCH  22  23
ENDBRANCH  15  22
ENDBRANCH   5  11
BRANCH   7  26
ATOM     26  N   UNL A   1     -24.892  -0.211  28.067  0.00  0.00    -0.118 NA
BRANCH  26  27
ATOM     27  N   UNL A   1     -25.678  -0.332  29.114  0.00  0.00    -0.171 NA
BRANCH  27  30
ATOM     28  C   UNL A   1     -27.573   1.074  29.314  0.00  0.00    +0.192 C 
ATOM     29  O   UNL A   1     -28.419   0.495  28.422  0.00  0.00    -0.333 OA
ATOM     30  C   UNL A   1     -27.224  -0.208  28.732  0.00  0.00    +0.221 C 
ENDBRANCH  27  30
BRANCH  27  31
ATOM     31  C   UNL A   1     -24.855  -1.012  30.143  0.00  0.00    +0.115 C 
BRANCH  31  32
ATOM     32  C   UNL A   1     -24.973  -2.505  29.788  0.00  0.00    -0.005 C 
ATOM     33  C   UNL A   1     -23.906  -3.173  29.146  0.00  0.00    -0.003 C 
ATOM     34  C   UNL A   1     -23.989  -4.549  28.853  0.00  0.00    -0.000 C 
ATOM     35  C   UNL A   1     -25.137  -5.280  29.205  0.00  0.00    -0.000 C 
ATOM     36  C   UNL A   1     -26.232  -4.611  29.784  0.00  0.00    -0.000 C 
ATOM     37  C   UNL A   1     -26.155  -3.232  30.065  0.00  0.00    -0.003 C 
ENDBRANCH  31  32
BRANCH  31  38
ATOM     38  C   UNL A   1     -25.387  -0.679  31.571  0.00  0.00    +0.093 C 
ATOM     39  C   UNL A   1     -25.189   0.773  32.028  0.00  0.00    +0.021 C 
ATOM     40  C   UNL A   1     -25.336   0.684  33.544  0.00  0.00    +0.020 C 
ATOM     41  C   UNL A   1     -24.829  -0.715  33.905  0.00  0.00    +0.089 C 
ATOM     42  N   UNL A   1     -24.758  -1.481  32.646  0.00  0.00    -0.218 NA
ENDBRANCH  31  38
ENDBRANCH  27  31
ENDBRANCH  26  27
ENDBRANCH   7  26
TORSDOF 11
