REMARK  Name = outputs/IAG933/test6/raw/output_682_IAG933_linker_design_.xyz
REMARK  13 active torsions:
REMARK  status: ('A' for Active; 'I' for Inactive)
REMARK    1  A    between atoms: C_1  and  C_2
REMARK    2  A    between atoms: C_1  and  C_8
REMARK    3  A    between atoms: C_1  and  N_30
REMARK    4  A    between atoms: C_13  and  C_32
REMARK    5  A    between atoms: C_14  and  C_15
REMARK    6  A    between atoms: C_21  and  O_22
REMARK    7  A    between atoms: O_22  and  C_23
REMARK    8  A    between atoms: C_23  and  C_24
REMARK    9  A    between atoms: C_28  and  N_37
REMARK   10  A    between atoms: N_30  and  C_38
REMARK   11  A    between atoms: C_31  and  C_34
REMARK   12  A    between atoms: C_31  and  N_35
REMARK   13  A    between atoms: C_34  and  N_37
REMARK                            x       y       z     vdW  Elec       q    Type
REMARK                         _______ _______ _______ _____ _____    ______ ____
ROOT
ATOM      1  N   UNL A   1     -22.988   0.512  28.900  0.00  0.00    -0.014 NA
ATOM      2  C   UNL A   1     -24.375   1.375  27.087  0.00  0.00    +0.114 C 
ATOM      3 CL   UNL A   1     -23.051   2.687  24.996  0.00  0.00    -0.061 Cl
ATOM      4  C   UNL A   1     -23.173   1.900  26.558  0.00  0.00    +0.149 C 
ATOM      5  C   UNL A   1     -24.196   0.615  28.364  0.00  0.00    +0.334 C 
ATOM      6  N   UNL A   1     -21.982   1.739  27.215  0.00  0.00    -0.188 NA
ATOM      7  C   UNL A   1     -21.925   1.057  28.343  0.00  0.00    +0.340 C 
ENDROOT
BRANCH   2   8
ATOM      8  C   UNL A   1     -25.688   1.614  26.461  0.00  0.00    +0.048 C 
ATOM      9  C   UNL A   1     -26.250   2.920  26.395  0.00  0.00    +0.077 C 
ATOM     10  C   UNL A   1     -27.438   3.091  25.645  0.00  0.00    +0.107 C 
ATOM     11  N   UNL A   1     -28.075   2.089  25.003  0.00  0.00    -0.208 NA
ATOM     12  C   UNL A   1     -27.543   0.849  25.079  0.00  0.00    +0.253 C 
ATOM     13  C   UNL A   1     -26.354   0.576  25.777  0.00  0.00    +0.193 C 
ATOM     14  F   UNL A   1     -25.860  -0.681  25.795  0.00  0.00    -0.199 F 
BRANCH   9  15
ATOM     15  C   UNL A   1     -25.642   4.093  27.123  0.00  0.00    +0.266 C 
ATOM     16  N   UNL A   1     -25.614   5.252  26.449  0.00  0.00    -0.200 NA
ATOM     17  C   UNL A   1     -25.026   6.479  26.963  0.00  0.00    +0.139 C 
ATOM     18  O   UNL A   1     -25.143   3.966  28.243  0.00  0.00    -0.268 OA
ENDBRANCH   9  15
BRANCH  12  19
ATOM     19  O   UNL A   1     -28.193  -0.208  24.477  0.00  0.00    -0.456 OA
BRANCH  19  20
ATOM     20  C   UNL A   1     -29.460   0.005  23.866  0.00  0.00    +0.243 C 
BRANCH  20  21
ATOM     21  C   UNL A   1     -30.065  -1.377  23.573  0.00  0.00    +0.229 C 
ATOM     22  O   UNL A   1     -30.729  -1.878  24.721  0.00  0.00    -0.216 OA
ENDBRANCH  20  21
ENDBRANCH  19  20
ENDBRANCH  12  19
ENDBRANCH   2   8
BRANCH   5  23
ATOM     23  N   UNL A   1     -25.329  -0.113  29.022  0.00  0.00    -0.151 N 
ATOM     24  N   UNL A   1     -28.147  -0.686  29.255  0.00  0.00    -0.137 NA
ATOM     25  C   UNL A   1     -26.852   0.010  28.769  0.00  0.00    +0.272 C 
BRANCH  24  26
ATOM     26  C   UNL A   1     -29.448  -0.821  29.343  0.00  0.00    +0.266 C 
ATOM     27  O   UNL A   1     -30.287  -0.044  28.706  0.00  0.00    -0.271 OA
BRANCH  26  28
ATOM     28  C   UNL A   1     -29.828  -1.481  30.629  0.00  0.00    +0.178 C 
BRANCH  28  29
ATOM     29  N   UNL A   1     -28.693  -2.106  31.308  0.00  0.00    -0.176 NA
BRANCH  29  30
ATOM     30  C   UNL A   1     -28.796  -3.301  31.619  0.00  0.00    +0.274 C 
ATOM     31  O   UNL A   1     -29.565  -4.108  30.897  0.00  0.00    -0.199 OA
ENDBRANCH  29  30
ENDBRANCH  28  29
ENDBRANCH  26  28
ENDBRANCH  24  26
BRANCH  23  32
ATOM     32  C   UNL A   1     -24.855  -1.012  30.143  0.00  0.00    +0.205 C 
BRANCH  32  33
ATOM     33  C   UNL A   1     -24.973  -2.505  29.788  0.00  0.00    +0.022 C 
ATOM     34  C   UNL A   1     -23.906  -3.173  29.146  0.00  0.00    -0.000 C 
ATOM     35  C   UNL A   1     -23.989  -4.549  28.853  0.00  0.00    -0.000 C 
ATOM     36  C   UNL A   1     -25.137  -5.280  29.205  0.00  0.00    -0.000 C 
ATOM     37  C   UNL A   1     -26.232  -4.611  29.784  0.00  0.00    -0.000 C 
ATOM     38  C   UNL A   1     -26.155  -3.232  30.065  0.00  0.00    -0.000 C 
ENDBRANCH  32  33
BRANCH  32  39
ATOM     39  C   UNL A   1     -25.387  -0.679  31.571  0.00  0.00    +0.120 C 
ATOM     40  C   UNL A   1     -25.189   0.773  32.028  0.00  0.00    +0.023 C 
ATOM     41  C   UNL A   1     -25.336   0.684  33.544  0.00  0.00    +0.020 C 
ATOM     42  C   UNL A   1     -24.829  -0.715  33.905  0.00  0.00    +0.089 C 
ATOM     43  N   UNL A   1     -24.758  -1.481  32.646  0.00  0.00    -0.215 NA
ENDBRANCH  32  39
ENDBRANCH  23  32
ENDBRANCH   5  23
TORSDOF 13
