REMARK  Name = outputs/IAG933/test6/raw/output_6820_IAG933_linker_design_.xyz
REMARK  8 active torsions:
REMARK  status: ('A' for Active; 'I' for Inactive)
REMARK    1  A    between atoms: C_1  and  C_2
REMARK    2  A    between atoms: C_1  and  C_8
REMARK    3  A    between atoms: C_1  and  N_33
REMARK    4  A    between atoms: C_13  and  N_28
REMARK    5  A    between atoms: C_14  and  C_15
REMARK    6  A    between atoms: C_21  and  O_22
REMARK    7  A    between atoms: O_22  and  C_23
REMARK    8  A    between atoms: C_23  and  C_24
REMARK                            x       y       z     vdW  Elec       q    Type
REMARK                         _______ _______ _______ _____ _____    ______ ____
ROOT
ATOM      1  N   UNL A   1     -25.055   1.101  27.492  0.00  0.00    -0.157 N 
ATOM      2  O   UNL A   1     -22.944   2.860  26.182  0.00  0.00    -0.206 OA
ATOM      3  C   UNL A   1     -25.779   0.193  28.332  0.00  0.00    +0.360 C 
ATOM      4  C   UNL A   1     -23.484   0.469  28.900  0.00  0.00    +0.355 C 
ATOM      5  C   UNL A   1     -22.931   2.024  27.162  0.00  0.00    +0.299 C 
ATOM      6  N   UNL A   1     -24.644  -0.079  29.096  0.00  0.00    -0.127 N 
ATOM      7  O   UNL A   1     -27.802  -0.397  29.295  0.00  0.00    -0.224 OA
ATOM      8  C   UNL A   1     -23.956   1.220  27.528  0.00  0.00    +0.235 C 
ATOM      9  C   UNL A   1     -26.874  -0.105  28.798  0.00  0.00    +0.217 C 
ATOM     10  N   UNL A   1     -22.175   0.902  29.268  0.00  0.00    +0.003 NA
ATOM     11  C   UNL A   1     -21.844   1.697  28.106  0.00  0.00    +0.399 C 
ATOM     12  F   UNL A   1     -20.621   1.696  27.573  0.00  0.00    -0.178 F 
ENDROOT
BRANCH   1  13
ATOM     13  C   UNL A   1     -25.688   1.614  26.461  0.00  0.00    +0.235 C 
ATOM     14  C   UNL A   1     -26.250   2.920  26.395  0.00  0.00    +0.098 C 
ATOM     15  C   UNL A   1     -27.438   3.091  25.645  0.00  0.00    +0.106 C 
ATOM     16  N   UNL A   1     -28.075   2.089  25.003  0.00  0.00    -0.212 NA
ATOM     17  C   UNL A   1     -27.543   0.849  25.079  0.00  0.00    +0.238 C 
ATOM     18  C   UNL A   1     -26.354   0.576  25.777  0.00  0.00    +0.283 C 
ATOM     19  F   UNL A   1     -25.860  -0.681  25.795  0.00  0.00    -0.222 F 
BRANCH  14  20
ATOM     20  C   UNL A   1     -25.642   4.093  27.123  0.00  0.00    +0.266 C 
ATOM     21  N   UNL A   1     -25.614   5.252  26.449  0.00  0.00    -0.200 NA
ATOM     22  C   UNL A   1     -25.026   6.479  26.963  0.00  0.00    +0.139 C 
ATOM     23  O   UNL A   1     -25.143   3.966  28.243  0.00  0.00    -0.269 OA
ENDBRANCH  14  20
BRANCH  17  24
ATOM     24  O   UNL A   1     -28.193  -0.208  24.477  0.00  0.00    -0.458 OA
BRANCH  24  25
ATOM     25  C   UNL A   1     -29.460   0.005  23.866  0.00  0.00    +0.242 C 
BRANCH  25  26
ATOM     26  C   UNL A   1     -30.065  -1.377  23.573  0.00  0.00    +0.229 C 
ATOM     27  O   UNL A   1     -30.729  -1.878  24.721  0.00  0.00    -0.216 OA
ENDBRANCH  25  26
ENDBRANCH  24  25
ENDBRANCH  17  24
ENDBRANCH   1  13
BRANCH   6  28
ATOM     28  C   UNL A   1     -24.855  -1.012  30.143  0.00  0.00    +0.207 C 
BRANCH  28  29
ATOM     29  C   UNL A   1     -24.973  -2.505  29.788  0.00  0.00    +0.022 C 
ATOM     30  C   UNL A   1     -23.906  -3.173  29.146  0.00  0.00    -0.000 C 
ATOM     31  C   UNL A   1     -23.989  -4.549  28.853  0.00  0.00    -0.000 C 
ATOM     32  C   UNL A   1     -25.137  -5.280  29.205  0.00  0.00    -0.000 C 
ATOM     33  C   UNL A   1     -26.232  -4.611  29.784  0.00  0.00    -0.000 C 
ATOM     34  C   UNL A   1     -26.155  -3.232  30.065  0.00  0.00    -0.000 C 
ENDBRANCH  28  29
BRANCH  28  35
ATOM     35  C   UNL A   1     -25.387  -0.679  31.571  0.00  0.00    +0.120 C 
ATOM     36  C   UNL A   1     -25.189   0.773  32.028  0.00  0.00    +0.023 C 
ATOM     37  C   UNL A   1     -25.336   0.684  33.544  0.00  0.00    +0.020 C 
ATOM     38  C   UNL A   1     -24.829  -0.715  33.905  0.00  0.00    +0.089 C 
ATOM     39  N   UNL A   1     -24.758  -1.481  32.646  0.00  0.00    -0.215 NA
ENDBRANCH  28  35
ENDBRANCH   6  28
TORSDOF 8
