MODEL 682
MODEL 1
REMARK VINA RESULT:    -5.412      0.000      0.000
REMARK INTER + INTRA:          -5.763
REMARK INTER:                  -5.728
REMARK INTRA:                  -0.035
REMARK UNBOUND:                -0.035
REMARK  Name = No_682-gen_results/8p0m/2024-11-27-11-27-31/
REMARK  1 active torsions:
REMARK  status: ('A' for Active; 'I' for Inactive)
REMARK    1  A    between atoms: C_2  and  C_7
REMARK                            x       y       z     vdW  Elec       q    Type
REMARK                         _______ _______ _______ _____ _____    ______ ____
ROOT
ATOM      1  C   UNL A   1      -8.427 -10.457  18.534  0.00  0.00    +0.007 A 
ATOM      2  C   UNL A   1      -9.413 -10.106  18.411  0.00  0.00    +0.080 A 
ATOM      3  C   UNL A   1      -7.780 -10.128  19.861  0.00  0.00    +0.000 A 
ATOM      4  C   UNL A   1      -8.380  -9.450  20.659  0.00  0.00    +0.000 A 
ATOM      5  C   UNL A   1     -10.348  -9.353  19.251  0.00  0.00    +0.007 A 
ATOM      6  C   UNL A   1      -9.741  -9.005  20.448  0.00  0.00    +0.000 A 
ENDROOT
BRANCH   2   7
ATOM      7  C   UNL A   1     -10.182 -10.476  17.046  0.00  0.00    +0.388 C 
ATOM      8  O   UNL A   1     -11.454 -10.493  17.038  0.00  0.00    -0.241 OA
ATOM      9  O   UNL A   1      -9.487 -11.088  16.182  0.00  0.00    -0.241 OA
ENDBRANCH   2   7
TORSDOF 1
ENDMDL
ENDMDL
