REMARK  Name = outputs/IAG933/test6/raw/output_6833_IAG933_linker_design_.xyz
REMARK  15 active torsions:
REMARK  status: ('A' for Active; 'I' for Inactive)
REMARK    1  A    between atoms: C_1  and  C_2
REMARK    2  A    between atoms: C_1  and  C_8
REMARK    3  A    between atoms: C_1  and  N_37
REMARK    4  A    between atoms: C_13  and  C_40
REMARK    5  A    between atoms: C_14  and  C_15
REMARK    6  A    between atoms: C_21  and  O_22
REMARK    7  A    between atoms: O_22  and  C_23
REMARK    8  A    between atoms: C_23  and  C_24
REMARK    9  A    between atoms: C_28  and  C_32
REMARK   10  A    between atoms: O_30  and  C_35
REMARK   11  A    between atoms: N_31  and  C_40
REMARK   12  A    between atoms: N_31  and  C_41
REMARK   13  A    between atoms: C_32  and  C_36
REMARK   14  A    between atoms: C_35  and  C_38
REMARK   15  A    between atoms: N_37  and  C_41
REMARK                            x       y       z     vdW  Elec       q    Type
REMARK                         _______ _______ _______ _____ _____    ______ ____
ROOT
ATOM      1  C   UNL A   1     -26.339   0.542  29.065  0.00  0.00    +0.240 C 
ATOM      2  N   UNL A   1     -25.034   0.096  29.161  0.00  0.00    -0.258 N 
ATOM      3  O   UNL A   1     -27.231  -0.177  28.591  0.00  0.00    -0.274 OA
ENDROOT
BRANCH   2   4
ATOM      4  C   UNL A   1     -24.855  -1.012  30.143  0.00  0.00    +0.115 C 
BRANCH   4   5
ATOM      5  C   UNL A   1     -24.973  -2.505  29.788  0.00  0.00    -0.003 C 
ATOM      6  C   UNL A   1     -23.906  -3.173  29.146  0.00  0.00    -0.003 C 
ATOM      7  C   UNL A   1     -23.989  -4.549  28.853  0.00  0.00    -0.000 C 
ATOM      8  C   UNL A   1     -25.137  -5.280  29.205  0.00  0.00    -0.000 C 
ATOM      9  C   UNL A   1     -26.232  -4.611  29.784  0.00  0.00    -0.000 C 
ATOM     10  C   UNL A   1     -26.155  -3.232  30.065  0.00  0.00    -0.003 C 
ENDBRANCH   4   5
BRANCH   4  11
ATOM     11  C   UNL A   1     -25.387  -0.679  31.571  0.00  0.00    +0.095 C 
ATOM     12  C   UNL A   1     -25.189   0.773  32.028  0.00  0.00    +0.021 C 
ATOM     13  C   UNL A   1     -25.336   0.684  33.544  0.00  0.00    +0.020 C 
ATOM     14  C   UNL A   1     -24.829  -0.715  33.905  0.00  0.00    +0.089 C 
ATOM     15  N   UNL A   1     -24.758  -1.481  32.646  0.00  0.00    -0.217 NA
ENDBRANCH   4  11
ENDBRANCH   2   4
BRANCH   1  16
ATOM     16  C   UNL A   1     -26.760   1.834  29.475  0.00  0.00    +0.161 C 
BRANCH  16  17
ATOM     17  C   UNL A   1     -27.040   2.970  30.130  0.00  0.00    -0.079 C 
ATOM     18  C   UNL A   1     -27.133   4.196  31.049  0.00  0.00    -0.058 C 
BRANCH  18  19
ATOM     19  C   UNL A   1     -26.750   5.181  31.828  0.00  0.00    +0.218 C 
BRANCH  19  20
ATOM     20  O   UNL A   1     -25.366   5.039  32.133  0.00  0.00    -0.337 OA
ATOM     21  C   UNL A   1     -25.013   3.676  32.526  0.00  0.00    +0.175 C 
ENDBRANCH  19  20
ENDBRANCH  18  19
ENDBRANCH  16  17
ENDBRANCH   1  16
BRANCH   2  22
ATOM     22  C   UNL A   1     -23.659   0.836  29.147  0.00  0.00    +0.193 C 
BRANCH  22  24
ATOM     23  O   UNL A   1     -21.209   1.617  27.612  0.00  0.00    -0.275 OA
ATOM     24  N   UNL A   1     -23.485   1.239  27.820  0.00  0.00    -0.258 N 
ATOM     25  C   UNL A   1     -22.332   1.639  27.168  0.00  0.00    +0.228 C 
ATOM     26  C   UNL A   1     -22.571   2.268  25.822  0.00  0.00    +0.095 C 
BRANCH  24  27
ATOM     27  C   UNL A   1     -24.539   1.375  27.059  0.00  0.00    +0.124 C 
BRANCH  27  28
ATOM     28  C   UNL A   1     -25.688   1.614  26.461  0.00  0.00    +0.036 C 
ATOM     29  C   UNL A   1     -26.250   2.920  26.395  0.00  0.00    +0.074 C 
ATOM     30  C   UNL A   1     -27.438   3.091  25.645  0.00  0.00    +0.106 C 
ATOM     31  N   UNL A   1     -28.075   2.089  25.003  0.00  0.00    -0.208 NA
ATOM     32  C   UNL A   1     -27.543   0.849  25.079  0.00  0.00    +0.253 C 
ATOM     33  C   UNL A   1     -26.354   0.576  25.777  0.00  0.00    +0.191 C 
ATOM     34  F   UNL A   1     -25.860  -0.681  25.795  0.00  0.00    -0.200 F 
BRANCH  29  35
ATOM     35  C   UNL A   1     -25.642   4.093  27.123  0.00  0.00    +0.266 C 
ATOM     36  N   UNL A   1     -25.614   5.252  26.449  0.00  0.00    -0.200 NA
ATOM     37  C   UNL A   1     -25.026   6.479  26.963  0.00  0.00    +0.139 C 
ATOM     38  O   UNL A   1     -25.143   3.966  28.243  0.00  0.00    -0.268 OA
ENDBRANCH  29  35
BRANCH  32  39
ATOM     39  O   UNL A   1     -28.193  -0.208  24.477  0.00  0.00    -0.456 OA
BRANCH  39  40
ATOM     40  C   UNL A   1     -29.460   0.005  23.866  0.00  0.00    +0.243 C 
BRANCH  40  41
ATOM     41  C   UNL A   1     -30.065  -1.377  23.573  0.00  0.00    +0.229 C 
ATOM     42  O   UNL A   1     -30.729  -1.878  24.721  0.00  0.00    -0.216 OA
ENDBRANCH  40  41
ENDBRANCH  39  40
ENDBRANCH  32  39
ENDBRANCH  27  28
ENDBRANCH  24  27
ENDBRANCH  22  24
ENDBRANCH   2  22
TORSDOF 15
