REMARK  Name = outputs/IAG933/test6/raw/output_6836_IAG933_linker_design_.xyz
REMARK  16 active torsions:
REMARK  status: ('A' for Active; 'I' for Inactive)
REMARK    1  A    between atoms: C_1  and  C_2
REMARK    2  A    between atoms: C_1  and  C_8
REMARK    3  A    between atoms: C_1  and  C_32
REMARK    4  A    between atoms: C_13  and  C_48
REMARK    5  A    between atoms: C_14  and  C_15
REMARK    6  A    between atoms: C_21  and  O_22
REMARK    7  A    between atoms: O_22  and  C_23
REMARK    8  A    between atoms: C_23  and  C_24
REMARK    9  A    between atoms: C_28  and  C_43
REMARK   10  A    between atoms: C_29  and  C_31
REMARK   11  A    between atoms: N_30  and  C_45
REMARK   12  A    between atoms: N_30  and  C_48
REMARK   13  A    between atoms: C_32  and  C_36
REMARK   14  A    between atoms: C_32  and  C_45
REMARK   15  A    between atoms: C_36  and  C_41
REMARK   16  A    between atoms: C_40  and  C_44
REMARK                            x       y       z     vdW  Elec       q    Type
REMARK                         _______ _______ _______ _____ _____    ______ ____
ROOT
ATOM      1  C   UNL A   1     -25.628  -0.202  29.095  0.00  0.00    +0.057 C 
ENDROOT
BRANCH   1   2
ATOM      2  C   UNL A   1     -24.855  -1.012  30.143  0.00  0.00    +0.043 C 
BRANCH   2   3
ATOM      3  C   UNL A   1     -24.973  -2.505  29.788  0.00  0.00    -0.021 C 
ATOM      4  C   UNL A   1     -23.906  -3.173  29.146  0.00  0.00    -0.004 C 
ATOM      5  C   UNL A   1     -23.989  -4.549  28.853  0.00  0.00    -0.000 C 
ATOM      6  C   UNL A   1     -25.137  -5.280  29.205  0.00  0.00    -0.000 C 
ATOM      7  C   UNL A   1     -26.232  -4.611  29.784  0.00  0.00    -0.000 C 
ATOM      8  C   UNL A   1     -26.155  -3.232  30.065  0.00  0.00    -0.004 C 
ENDBRANCH   2   3
BRANCH   2   9
ATOM      9  C   UNL A   1     -25.387  -0.679  31.571  0.00  0.00    +0.077 C 
ATOM     10  C   UNL A   1     -25.189   0.773  32.028  0.00  0.00    +0.019 C 
ATOM     11  C   UNL A   1     -25.336   0.684  33.544  0.00  0.00    +0.020 C 
ATOM     12  C   UNL A   1     -24.829  -0.715  33.905  0.00  0.00    +0.089 C 
ATOM     13  N   UNL A   1     -24.758  -1.481  32.646  0.00  0.00    -0.219 NA
ENDBRANCH   2   9
ENDBRANCH   1   2
BRANCH   1  14
ATOM     14  C   UNL A   1     -27.220   0.026  29.055  0.00  0.00    +0.032 C 
BRANCH  14  19
ATOM     15  C   UNL A   1     -29.193   1.935  29.456  0.00  0.00    -0.007 C 
ATOM     16  C   UNL A   1     -27.125   4.990  30.484  0.00  0.00    +0.117 C 
ATOM     17  N   UNL A   1     -27.731   3.621  30.088  0.00  0.00    -0.281 N 
ATOM     18  C   UNL A   1     -29.108   3.358  29.861  0.00  0.00    +0.105 C 
ATOM     19  C   UNL A   1     -27.757   1.433  29.500  0.00  0.00    -0.010 C 
ATOM     20  C   UNL A   1     -26.963   2.445  29.980  0.00  0.00    +0.061 C 
BRANCH  18  23
ATOM     21  N   UNL A   1     -30.016   5.598  30.476  0.00  0.00    -0.083 NA
ATOM     22  O   UNL A   1     -31.158   3.761  30.656  0.00  0.00    -0.265 OA
ATOM     23  C   UNL A   1     -30.160   4.252  30.331  0.00  0.00    +0.297 C 
ENDBRANCH  18  23
BRANCH  15  24
ATOM     24  C   UNL A   1     -30.348   1.119  29.006  0.00  0.00    +0.024 C 
ATOM     25  C   UNL A   1     -30.050  -0.329  28.578  0.00  0.00    +0.005 C 
ATOM     26  C   UNL A   1     -31.175   1.663  27.833  0.00  0.00    +0.005 C 
ENDBRANCH  15  24
ENDBRANCH  14  19
ENDBRANCH   1  14
BRANCH   1  27
ATOM     27  C   UNL A   1     -24.881   1.075  28.965  0.00  0.00    +0.203 C 
BRANCH  27  28
ATOM     28  N   UNL A   1     -23.814   1.049  27.994  0.00  0.00    -0.188 N 
ATOM     29  N   UNL A   1     -22.152  -0.045  29.340  0.00  0.00    +0.191 NA
ATOM     30  C   UNL A   1     -22.574   0.778  28.381  0.00  0.00    +0.389 C 
BRANCH  30  31
ATOM     31  C   UNL A   1     -21.480   1.355  27.481  0.00  0.00    +0.314 C 
ATOM     32  F   UNL A   1     -20.297   1.332  28.237  0.00  0.00    -0.220 F 
ENDBRANCH  30  31
BRANCH  28  33
ATOM     33  C   UNL A   1     -24.209   1.464  26.619  0.00  0.00    +0.210 C 
BRANCH  33  34
ATOM     34  C   UNL A   1     -25.688   1.614  26.461  0.00  0.00    +0.117 C 
ATOM     35  C   UNL A   1     -26.250   2.920  26.395  0.00  0.00    +0.059 C 
ATOM     36  C   UNL A   1     -27.438   3.091  25.645  0.00  0.00    +0.102 C 
ATOM     37  N   UNL A   1     -28.075   2.089  25.003  0.00  0.00    -0.212 NA
ATOM     38  C   UNL A   1     -27.543   0.849  25.079  0.00  0.00    +0.234 C 
ATOM     39  C   UNL A   1     -26.354   0.576  25.777  0.00  0.00    +0.244 C 
ATOM     40  F   UNL A   1     -25.860  -0.681  25.795  0.00  0.00    -0.227 F 
BRANCH  35  41
ATOM     41  C   UNL A   1     -25.642   4.093  27.123  0.00  0.00    +0.263 C 
ATOM     42  N   UNL A   1     -25.614   5.252  26.449  0.00  0.00    -0.200 NA
ATOM     43  C   UNL A   1     -25.026   6.479  26.963  0.00  0.00    +0.139 C 
ATOM     44  O   UNL A   1     -25.143   3.966  28.243  0.00  0.00    -0.269 OA
ENDBRANCH  35  41
BRANCH  38  45
ATOM     45  O   UNL A   1     -28.193  -0.208  24.477  0.00  0.00    -0.459 OA
BRANCH  45  46
ATOM     46  C   UNL A   1     -29.460   0.005  23.866  0.00  0.00    +0.242 C 
BRANCH  46  47
ATOM     47  C   UNL A   1     -30.065  -1.377  23.573  0.00  0.00    +0.229 C 
ATOM     48  O   UNL A   1     -30.729  -1.878  24.721  0.00  0.00    -0.216 OA
ENDBRANCH  46  47
ENDBRANCH  45  46
ENDBRANCH  38  45
ENDBRANCH  33  34
ENDBRANCH  28  33
ENDBRANCH  27  28
ENDBRANCH   1  27
TORSDOF 16
