REMARK  Name = outputs/IAG933/test6/raw/output_6839_IAG933_linker_design_.xyz
REMARK  11 active torsions:
REMARK  status: ('A' for Active; 'I' for Inactive)
REMARK    1  A    between atoms: C_1  and  C_2
REMARK    2  A    between atoms: C_1  and  C_8
REMARK    3  A    between atoms: C_9  and  N_28
REMARK    4  A    between atoms: C_13  and  C_33
REMARK    5  A    between atoms: C_14  and  C_15
REMARK    6  A    between atoms: C_21  and  O_22
REMARK    7  A    between atoms: O_22  and  C_23
REMARK    8  A    between atoms: C_23  and  C_24
REMARK    9  A    between atoms: N_28  and  C_29
REMARK   10  A    between atoms: N_28  and  C_31
REMARK   11  A    between atoms: C_31  and  C_35
REMARK                            x       y       z     vdW  Elec       q    Type
REMARK                         _______ _______ _______ _____ _____    ______ ____
ROOT
ATOM      1  C   UNL A   1     -24.495   1.585  26.758  0.00  0.00    +0.102 C 
ATOM      2  C   UNL A   1     -21.674   1.706  27.599  0.00  0.00    +0.011 C 
ATOM      3  C   UNL A   1     -23.705   1.518  28.929  0.00  0.00    +0.129 C 
ATOM      4  N   UNL A   1     -24.177   1.348  28.090  0.00  0.00    -0.302 N 
ATOM      5  C   UNL A   1     -22.065   1.930  26.263  0.00  0.00    -0.002 C 
ATOM      6  C   UNL A   1     -23.431   1.888  25.924  0.00  0.00    -0.006 C 
ATOM      7  C   UNL A   1     -22.970   1.462  28.392  0.00  0.00    +0.045 C 
ENDROOT
BRANCH   1   8
ATOM      8  C   UNL A   1     -25.688   1.614  26.461  0.00  0.00    +0.092 C 
ATOM      9  C   UNL A   1     -26.250   2.920  26.395  0.00  0.00    +0.057 C 
ATOM     10  C   UNL A   1     -27.438   3.091  25.645  0.00  0.00    +0.102 C 
ATOM     11  N   UNL A   1     -28.075   2.089  25.003  0.00  0.00    -0.212 NA
ATOM     12  C   UNL A   1     -27.543   0.849  25.079  0.00  0.00    +0.234 C 
ATOM     13  C   UNL A   1     -26.354   0.576  25.777  0.00  0.00    +0.242 C 
ATOM     14  F   UNL A   1     -25.860  -0.681  25.795  0.00  0.00    -0.227 F 
BRANCH   9  15
ATOM     15  C   UNL A   1     -25.642   4.093  27.123  0.00  0.00    +0.263 C 
ATOM     16  N   UNL A   1     -25.614   5.252  26.449  0.00  0.00    -0.200 NA
ATOM     17  C   UNL A   1     -25.026   6.479  26.963  0.00  0.00    +0.139 C 
ATOM     18  O   UNL A   1     -25.143   3.966  28.243  0.00  0.00    -0.269 OA
ENDBRANCH   9  15
BRANCH  12  19
ATOM     19  O   UNL A   1     -28.193  -0.208  24.477  0.00  0.00    -0.459 OA
BRANCH  19  20
ATOM     20  C   UNL A   1     -29.460   0.005  23.866  0.00  0.00    +0.242 C 
BRANCH  20  21
ATOM     21  C   UNL A   1     -30.065  -1.377  23.573  0.00  0.00    +0.229 C 
ATOM     22  O   UNL A   1     -30.729  -1.878  24.721  0.00  0.00    -0.216 OA
ENDBRANCH  20  21
ENDBRANCH  19  20
ENDBRANCH  12  19
ENDBRANCH   1   8
BRANCH   3  23
ATOM     23  C   UNL A   1     -24.267   2.121  30.095  0.00  0.00    +0.116 C 
BRANCH  23  24
ATOM     24  N   UNL A   1     -25.265   2.013  31.190  0.00  0.00    -0.307 N 
BRANCH  24  25
ATOM     25  C   UNL A   1     -26.490   2.849  31.395  0.00  0.00    +0.051 C 
ATOM     26  C   UNL A   1     -26.249   3.964  31.712  0.00  0.00    -0.011 C 
ATOM     27  O   UNL A   1     -28.766   2.947  30.901  0.00  0.00    -0.347 OA
ATOM     28  C   UNL A   1     -28.750   4.103  31.721  0.00  0.00    +0.147 C 
ATOM     29  C   UNL A   1     -27.483   4.972  31.696  0.00  0.00    +0.059 C 
ATOM     30  C   UNL A   1     -27.628   2.153  31.137  0.00  0.00    +0.182 C 
ENDBRANCH  24  25
BRANCH  24  32
ATOM     31  C   UNL A   1     -25.387  -0.679  31.571  0.00  0.00    +0.095 C 
ATOM     32  C   UNL A   1     -25.189   0.773  32.028  0.00  0.00    +0.090 C 
ATOM     33  C   UNL A   1     -25.336   0.684  33.544  0.00  0.00    +0.040 C 
ATOM     34  C   UNL A   1     -24.829  -0.715  33.905  0.00  0.00    +0.090 C 
ATOM     35  N   UNL A   1     -24.758  -1.481  32.646  0.00  0.00    -0.217 NA
BRANCH  31  36
ATOM     36  C   UNL A   1     -24.855  -1.012  30.143  0.00  0.00    +0.045 C 
BRANCH  36  37
ATOM     37  C   UNL A   1     -24.973  -2.505  29.788  0.00  0.00    -0.021 C 
ATOM     38  C   UNL A   1     -23.906  -3.173  29.146  0.00  0.00    -0.004 C 
ATOM     39  C   UNL A   1     -23.989  -4.549  28.853  0.00  0.00    -0.000 C 
ATOM     40  C   UNL A   1     -25.137  -5.280  29.205  0.00  0.00    -0.000 C 
ATOM     41  C   UNL A   1     -26.232  -4.611  29.784  0.00  0.00    -0.000 C 
ATOM     42  C   UNL A   1     -26.155  -3.232  30.065  0.00  0.00    -0.004 C 
ENDBRANCH  36  37
ENDBRANCH  31  36
ENDBRANCH  24  32
ENDBRANCH  23  24
ENDBRANCH   3  23
TORSDOF 11
