MODEL 683
MODEL 1
REMARK VINA RESULT:    -6.892      0.000      0.000
REMARK INTER + INTRA:          -7.632
REMARK INTER:                  -7.294
REMARK INTRA:                  -0.337
REMARK UNBOUND:                -0.337
REMARK  Name = No_683-gen_results/8p0m/2024-11-27-11-27-31/
REMARK  1 active torsions:
REMARK  status: ('A' for Active; 'I' for Inactive)
REMARK    1  A    between atoms: C_2  and  C_8
REMARK                            x       y       z     vdW  Elec       q    Type
REMARK                         _______ _______ _______ _____ _____    ______ ____
ROOT
ATOM      1  C   UNL A   1     -24.197  -0.280  27.849  0.00  0.00    +0.007 A 
ATOM      2  C   UNL A   1     -23.889  -1.183  28.591  0.00  0.00    +0.001 A 
ATOM      3  C   UNL A   1     -22.664  -1.187  29.249  0.00  0.00    +0.000 A 
ATOM      4  C   UNL A   1     -21.702  -0.137  29.030  0.00  0.00    +0.001 A 
ATOM      5  C   UNL A   1     -22.130   0.855  28.139  0.00  0.00    +0.007 A 
ATOM      6  C   UNL A   1     -23.293   0.804  27.530  0.00  0.00    +0.035 A 
ATOM      7 BR   UNL A   1     -23.726   2.156  26.310  0.00  0.00    -0.049 Br
ENDROOT
BRANCH   2   8
ATOM      8  C   UNL A   1     -24.743  -2.368  28.912  0.00  0.00    +0.000 A 
ATOM      9  C   UNL A   1     -25.654  -2.414  29.365  0.00  0.00    +0.000 A 
ATOM     10  C   UNL A   1     -26.444  -3.656  29.791  0.00  0.00    +0.000 A 
ATOM     11  C   UNL A   1     -25.870  -4.882  29.564  0.00  0.00    +0.000 A 
ATOM     12  C   UNL A   1     -24.624  -4.937  28.919  0.00  0.00    +0.000 A 
ATOM     13  C   UNL A   1     -24.019  -3.771  28.565  0.00  0.00    +0.000 A 
ENDBRANCH   2   8
TORSDOF 1
ENDMDL
ENDMDL
