REMARK  Name = outputs/IAG933/test6/raw/output_6840_IAG933_linker_design_.xyz
REMARK  13 active torsions:
REMARK  status: ('A' for Active; 'I' for Inactive)
REMARK    1  A    between atoms: C_1  and  C_2
REMARK    2  A    between atoms: C_1  and  C_8
REMARK    3  A    between atoms: C_1  and  C_47
REMARK    4  A    between atoms: C_13  and  N_32
REMARK    5  A    between atoms: C_14  and  C_15
REMARK    6  A    between atoms: C_21  and  O_22
REMARK    7  A    between atoms: O_22  and  C_23
REMARK    8  A    between atoms: C_23  and  C_24
REMARK    9  A    between atoms: N_28  and  O_37
REMARK   10  A    between atoms: N_28  and  C_40
REMARK   11  A    between atoms: O_37  and  C_47
REMARK   12  A    between atoms: C_39  and  C_47
REMARK   13  A    between atoms: C_40  and  C_48
REMARK                            x       y       z     vdW  Elec       q    Type
REMARK                         _______ _______ _______ _____ _____    ______ ____
ROOT
ATOM      1  C   UNL A   1     -24.965   0.093  29.094  0.00  0.00    +0.185 C 
ENDROOT
BRANCH   1   4
ATOM      2  N   UNL A   1     -24.382   1.442  26.984  0.00  0.00    -0.245 N 
ATOM      3  C   UNL A   1     -23.135   2.001  26.536  0.00  0.00    +0.311 C 
ATOM      4  C   UNL A   1     -24.068   0.863  28.145  0.00  0.00    +0.114 C 
ATOM      5  C   UNL A   1     -22.736   1.118  28.452  0.00  0.00    +0.243 C 
ATOM      6  N   UNL A   1     -22.201   0.666  29.582  0.00  0.00    -0.087 NA
ATOM      7  O   UNL A   1     -22.163   1.855  27.465  0.00  0.00    -0.439 OA
BRANCH   2   8
ATOM      8  C   UNL A   1     -25.688   1.614  26.461  0.00  0.00    +0.093 C 
ATOM      9  C   UNL A   1     -26.250   2.920  26.395  0.00  0.00    +0.090 C 
ATOM     10  C   UNL A   1     -27.438   3.091  25.645  0.00  0.00    +0.108 C 
ATOM     11  N   UNL A   1     -28.075   2.089  25.003  0.00  0.00    -0.208 NA
ATOM     12  C   UNL A   1     -27.543   0.849  25.079  0.00  0.00    +0.255 C 
ATOM     13  C   UNL A   1     -26.354   0.576  25.777  0.00  0.00    +0.207 C 
ATOM     14  F   UNL A   1     -25.860  -0.681  25.795  0.00  0.00    -0.198 F 
BRANCH   9  15
ATOM     15  C   UNL A   1     -25.642   4.093  27.123  0.00  0.00    +0.268 C 
ATOM     16  N   UNL A   1     -25.614   5.252  26.449  0.00  0.00    -0.200 NA
ATOM     17  C   UNL A   1     -25.026   6.479  26.963  0.00  0.00    +0.139 C 
ATOM     18  O   UNL A   1     -25.143   3.966  28.243  0.00  0.00    -0.268 OA
ENDBRANCH   9  15
BRANCH  12  19
ATOM     19  O   UNL A   1     -28.193  -0.208  24.477  0.00  0.00    -0.456 OA
BRANCH  19  20
ATOM     20  C   UNL A   1     -29.460   0.005  23.866  0.00  0.00    +0.243 C 
BRANCH  20  21
ATOM     21  C   UNL A   1     -30.065  -1.377  23.573  0.00  0.00    +0.229 C 
ATOM     22  O   UNL A   1     -30.729  -1.878  24.721  0.00  0.00    -0.216 OA
ENDBRANCH  20  21
ENDBRANCH  19  20
ENDBRANCH  12  19
ENDBRANCH   2   8
ENDBRANCH   1   4
BRANCH   1  23
ATOM     23  C   UNL A   1     -24.855  -1.012  30.143  0.00  0.00    +0.073 C 
BRANCH  23  24
ATOM     24  C   UNL A   1     -24.973  -2.505  29.788  0.00  0.00    -0.018 C 
ATOM     25  C   UNL A   1     -23.906  -3.173  29.146  0.00  0.00    -0.004 C 
ATOM     26  C   UNL A   1     -23.989  -4.549  28.853  0.00  0.00    -0.000 C 
ATOM     27  C   UNL A   1     -25.137  -5.280  29.205  0.00  0.00    -0.000 C 
ATOM     28  C   UNL A   1     -26.232  -4.611  29.784  0.00  0.00    -0.000 C 
ATOM     29  C   UNL A   1     -26.155  -3.232  30.065  0.00  0.00    -0.004 C 
ENDBRANCH  23  24
BRANCH  23  30
ATOM     30  C   UNL A   1     -25.387  -0.679  31.571  0.00  0.00    +0.080 C 
ATOM     31  C   UNL A   1     -25.189   0.773  32.028  0.00  0.00    +0.019 C 
ATOM     32  C   UNL A   1     -25.336   0.684  33.544  0.00  0.00    +0.020 C 
ATOM     33  C   UNL A   1     -24.829  -0.715  33.905  0.00  0.00    +0.089 C 
ATOM     34  N   UNL A   1     -24.758  -1.481  32.646  0.00  0.00    -0.219 NA
ENDBRANCH  23  30
ENDBRANCH   1  23
BRANCH   1  35
ATOM     35  O   UNL A   1     -26.277  -0.130  28.435  0.00  0.00    -0.262 OA
BRANCH  35  36
ATOM     36  N   UNL A   1     -27.442  -0.082  29.266  0.00  0.00    -0.079 NA
BRANCH  36  37
ATOM     37  C   UNL A   1     -28.472   0.753  29.248  0.00  0.00    +0.148 C 
BRANCH  37  48
ATOM     38  N   UNL A   1     -27.807   6.947  30.649  0.00  0.00    -0.029 NA
ATOM     39  C   UNL A   1     -28.054   4.149  30.523  0.00  0.00    +0.011 C 
ATOM     40  C   UNL A   1     -27.064   4.832  31.331  0.00  0.00    +0.098 C 
ATOM     41  C   UNL A   1     -26.974   6.200  31.411  0.00  0.00    +0.416 C 
ATOM     42  C   UNL A   1     -28.108   2.781  30.352  0.00  0.00    -0.002 C 
ATOM     43  C   UNL A   1     -28.786   6.333  29.895  0.00  0.00    +0.236 C 
ATOM     44  C   UNL A   1     -29.916   4.300  29.020  0.00  0.00    +0.004 C 
ATOM     45  C   UNL A   1     -29.769   2.949  28.670  0.00  0.00    -0.003 C 
ATOM     46  N   UNL A   1     -26.115   6.825  32.237  0.00  0.00    +0.216 NA
ATOM     47  C   UNL A   1     -28.983   4.944  29.836  0.00  0.00    +0.047 C 
ATOM     48  C   UNL A   1     -28.796   2.159  29.361  0.00  0.00    -0.002 C 
ENDBRANCH  37  48
ENDBRANCH  36  37
ENDBRANCH  35  36
ENDBRANCH   1  35
TORSDOF 13
