REMARK  Name = outputs/IAG933/test6/raw/output_6842_IAG933_linker_design_.xyz
REMARK  12 active torsions:
REMARK  status: ('A' for Active; 'I' for Inactive)
REMARK    1  A    between atoms: C_1  and  C_2
REMARK    2  A    between atoms: C_1  and  C_8
REMARK    3  A    between atoms: C_1  and  C_44
REMARK    4  A    between atoms: C_13  and  C_39
REMARK    5  A    between atoms: C_14  and  C_15
REMARK    6  A    between atoms: C_21  and  O_22
REMARK    7  A    between atoms: O_22  and  C_23
REMARK    8  A    between atoms: C_23  and  C_24
REMARK    9  A    between atoms: S_29  and  C_32
REMARK   10  A    between atoms: S_29  and  N_36
REMARK   11  A    between atoms: N_36  and  C_44
REMARK   12  A    between atoms: C_42  and  C_44
REMARK                            x       y       z     vdW  Elec       q    Type
REMARK                         _______ _______ _______ _____ _____    ______ ____
ROOT
ATOM      1  C   UNL A   1     -23.221   1.037  27.320  0.00  0.00    +0.072 C 
ATOM      2  C   UNL A   1     -23.329   2.161  25.413  0.00  0.00    +0.179 C 
ATOM      3  C   UNL A   1     -22.174  -0.435  29.005  0.00  0.00    +0.215 C 
ATOM      4  O   UNL A   1     -22.122  -0.833  30.347  0.00  0.00    -0.288 OA
ATOM      5  O   UNL A   1     -21.938   1.980  25.786  0.00  0.00    -0.421 OA
ATOM      6  C   UNL A   1     -20.880   0.136  28.586  0.00  0.00    +0.277 C 
ATOM      7  C   UNL A   1     -24.105   1.561  26.437  0.00  0.00    +0.029 C 
ATOM      8  O   UNL A   1     -20.790   1.089  27.668  0.00  0.00    -0.439 OA
ATOM      9  C   UNL A   1     -23.344   0.189  28.474  0.00  0.00    +0.040 C 
ATOM     10  C   UNL A   1     -21.929   1.383  26.937  0.00  0.00    +0.296 C 
ENDROOT
BRANCH   7  11
ATOM     11  C   UNL A   1     -25.688   1.614  26.461  0.00  0.00    +0.096 C 
ATOM     12  C   UNL A   1     -26.250   2.920  26.395  0.00  0.00    +0.059 C 
ATOM     13  C   UNL A   1     -27.438   3.091  25.645  0.00  0.00    +0.102 C 
ATOM     14  N   UNL A   1     -28.075   2.089  25.003  0.00  0.00    -0.212 NA
ATOM     15  C   UNL A   1     -27.543   0.849  25.079  0.00  0.00    +0.234 C 
ATOM     16  C   UNL A   1     -26.354   0.576  25.777  0.00  0.00    +0.244 C 
ATOM     17  F   UNL A   1     -25.860  -0.681  25.795  0.00  0.00    -0.227 F 
BRANCH  12  18
ATOM     18  C   UNL A   1     -25.642   4.093  27.123  0.00  0.00    +0.263 C 
ATOM     19  N   UNL A   1     -25.614   5.252  26.449  0.00  0.00    -0.200 NA
ATOM     20  C   UNL A   1     -25.026   6.479  26.963  0.00  0.00    +0.139 C 
ATOM     21  O   UNL A   1     -25.143   3.966  28.243  0.00  0.00    -0.269 OA
ENDBRANCH  12  18
BRANCH  15  22
ATOM     22  O   UNL A   1     -28.193  -0.208  24.477  0.00  0.00    -0.459 OA
BRANCH  22  23
ATOM     23  C   UNL A   1     -29.460   0.005  23.866  0.00  0.00    +0.242 C 
BRANCH  23  24
ATOM     24  C   UNL A   1     -30.065  -1.377  23.573  0.00  0.00    +0.229 C 
ATOM     25  O   UNL A   1     -30.729  -1.878  24.721  0.00  0.00    -0.216 OA
ENDBRANCH  23  24
ENDBRANCH  22  23
ENDBRANCH  15  22
ENDBRANCH   7  11
BRANCH   9  26
ATOM     26  C   UNL A   1     -24.793  -0.094  28.933  0.00  0.00    +0.128 C 
BRANCH  26  27
ATOM     27  C   UNL A   1     -24.855  -1.012  30.143  0.00  0.00    +0.060 C 
BRANCH  27  28
ATOM     28  C   UNL A   1     -24.973  -2.505  29.788  0.00  0.00    -0.019 C 
ATOM     29  C   UNL A   1     -23.906  -3.173  29.146  0.00  0.00    -0.004 C 
ATOM     30  C   UNL A   1     -23.989  -4.549  28.853  0.00  0.00    -0.000 C 
ATOM     31  C   UNL A   1     -25.137  -5.280  29.205  0.00  0.00    -0.000 C 
ATOM     32  C   UNL A   1     -26.232  -4.611  29.784  0.00  0.00    -0.000 C 
ATOM     33  C   UNL A   1     -26.155  -3.232  30.065  0.00  0.00    -0.004 C 
ENDBRANCH  27  28
BRANCH  27  34
ATOM     34  C   UNL A   1     -25.387  -0.679  31.571  0.00  0.00    +0.079 C 
ATOM     35  C   UNL A   1     -25.189   0.773  32.028  0.00  0.00    +0.019 C 
ATOM     36  C   UNL A   1     -25.336   0.684  33.544  0.00  0.00    +0.020 C 
ATOM     37  C   UNL A   1     -24.829  -0.715  33.905  0.00  0.00    +0.089 C 
ATOM     38  N   UNL A   1     -24.758  -1.481  32.646  0.00  0.00    -0.219 NA
ENDBRANCH  27  34
ENDBRANCH  26  27
BRANCH  26  39
ATOM     39  N   UNL A   1     -25.778   0.857  28.882  0.00  0.00    -0.079 NA
BRANCH  39  40
ATOM     40  S   UNL A   1     -27.224   0.604  29.440  0.00  0.00    +0.058 S 
ATOM     41  O   UNL A   1     -27.607  -0.508  28.699  0.00  0.00    -0.156 OA
ATOM     42  O   UNL A   1     -27.330   1.935  29.382  0.00  0.00    -0.156 OA
BRANCH  40  43
ATOM     43  C   UNL A   1     -28.072   0.293  31.019  0.00  0.00    +0.171 C 
ATOM     44  C   UNL A   1     -29.432   0.962  30.961  0.00  0.00    +0.029 C 
ENDBRANCH  40  43
ENDBRANCH  39  40
ENDBRANCH  26  39
ENDBRANCH   9  26
TORSDOF 12
