REMARK  Name = outputs/IAG933/test6/raw/output_6847_IAG933_linker_design_.xyz
REMARK  15 active torsions:
REMARK  status: ('A' for Active; 'I' for Inactive)
REMARK    1  A    between atoms: C_1  and  C_2
REMARK    2  A    between atoms: C_1  and  C_8
REMARK    3  A    between atoms: C_1  and  N_40
REMARK    4  A    between atoms: C_13  and  C_31
REMARK    5  A    between atoms: C_14  and  C_15
REMARK    6  A    between atoms: C_21  and  O_22
REMARK    7  A    between atoms: O_22  and  C_23
REMARK    8  A    between atoms: C_23  and  C_24
REMARK    9  A    between atoms: C_28  and  O_29
REMARK   10  A    between atoms: C_28  and  O_38
REMARK   11  A    between atoms: O_29  and  C_33
REMARK   12  A    between atoms: C_33  and  C_35
REMARK   13  A    between atoms: C_33  and  C_36
REMARK   14  A    between atoms: C_35  and  C_42
REMARK   15  A    between atoms: C_37  and  C_42
REMARK                            x       y       z     vdW  Elec       q    Type
REMARK                         _______ _______ _______ _____ _____    ______ ____
ROOT
ATOM      1  C   UNL A   1     -22.445   1.333  28.902  0.00  0.00    +0.274 C 
ENDROOT
BRANCH   1   4
ATOM      2  C   UNL A   1     -26.262   0.175  28.568  0.00  0.00    +0.115 C 
ATOM      3  O   UNL A   1     -23.499   1.853  30.604  0.00  0.00    -0.271 OA
ATOM      4  C   UNL A   1     -23.639   1.161  29.566  0.00  0.00    +0.269 C 
ATOM      5  N   UNL A   1     -24.792   0.172  29.212  0.00  0.00    -0.271 N 
BRANCH   5   6
ATOM      6  C   UNL A   1     -24.855  -1.012  30.143  0.00  0.00    +0.114 C 
BRANCH   6   7
ATOM      7  C   UNL A   1     -24.973  -2.505  29.788  0.00  0.00    -0.003 C 
ATOM      8  C   UNL A   1     -23.906  -3.173  29.146  0.00  0.00    -0.003 C 
ATOM      9  C   UNL A   1     -23.989  -4.549  28.853  0.00  0.00    -0.000 C 
ATOM     10  C   UNL A   1     -25.137  -5.280  29.205  0.00  0.00    -0.000 C 
ATOM     11  C   UNL A   1     -26.232  -4.611  29.784  0.00  0.00    -0.000 C 
ATOM     12  C   UNL A   1     -26.155  -3.232  30.065  0.00  0.00    -0.003 C 
ENDBRANCH   6   7
BRANCH   6  13
ATOM     13  C   UNL A   1     -25.387  -0.679  31.571  0.00  0.00    +0.095 C 
ATOM     14  C   UNL A   1     -25.189   0.773  32.028  0.00  0.00    +0.021 C 
ATOM     15  C   UNL A   1     -25.336   0.684  33.544  0.00  0.00    +0.020 C 
ATOM     16  C   UNL A   1     -24.829  -0.715  33.905  0.00  0.00    +0.089 C 
ATOM     17  N   UNL A   1     -24.758  -1.481  32.646  0.00  0.00    -0.217 NA
ENDBRANCH   6  13
ENDBRANCH   5   6
ENDBRANCH   1   4
BRANCH   1  18
ATOM     18  C   UNL A   1     -21.805   0.189  28.751  0.00  0.00    +0.201 C 
ATOM     19  O   UNL A   1     -21.899  -0.919  29.482  0.00  0.00    -0.219 OA
BRANCH  18  20
ATOM     20  C   UNL A   1     -20.529   0.360  27.967  0.00  0.00    +0.037 C 
BRANCH  20  21
ATOM     21  C   UNL A   1     -20.246   1.717  27.911  0.00  0.00    +0.003 C 
ATOM     22  C   UNL A   1     -20.492   2.635  29.057  0.00  0.00    +0.000 C 
ENDBRANCH  20  21
ENDBRANCH  18  20
ENDBRANCH   1  18
BRANCH   1  23
ATOM     23  O   UNL A   1     -22.831   1.592  27.490  0.00  0.00    -0.440 OA
BRANCH  23  24
ATOM     24  C   UNL A   1     -23.274   1.506  26.550  0.00  0.00    +0.292 C 
ATOM     25  C   UNL A   1     -24.581   1.442  27.086  0.00  0.00    +0.080 C 
BRANCH  25  26
ATOM     26  C   UNL A   1     -25.688   1.614  26.461  0.00  0.00    +0.044 C 
ATOM     27  C   UNL A   1     -26.250   2.920  26.395  0.00  0.00    +0.077 C 
ATOM     28  C   UNL A   1     -27.438   3.091  25.645  0.00  0.00    +0.107 C 
ATOM     29  N   UNL A   1     -28.075   2.089  25.003  0.00  0.00    -0.208 NA
ATOM     30  C   UNL A   1     -27.543   0.849  25.079  0.00  0.00    +0.253 C 
ATOM     31  C   UNL A   1     -26.354   0.576  25.777  0.00  0.00    +0.193 C 
ATOM     32  F   UNL A   1     -25.860  -0.681  25.795  0.00  0.00    -0.199 F 
BRANCH  27  33
ATOM     33  C   UNL A   1     -25.642   4.093  27.123  0.00  0.00    +0.266 C 
ATOM     34  N   UNL A   1     -25.614   5.252  26.449  0.00  0.00    -0.200 NA
ATOM     35  C   UNL A   1     -25.026   6.479  26.963  0.00  0.00    +0.139 C 
ATOM     36  O   UNL A   1     -25.143   3.966  28.243  0.00  0.00    -0.268 OA
ENDBRANCH  27  33
BRANCH  30  37
ATOM     37  O   UNL A   1     -28.193  -0.208  24.477  0.00  0.00    -0.456 OA
BRANCH  37  38
ATOM     38  C   UNL A   1     -29.460   0.005  23.866  0.00  0.00    +0.243 C 
BRANCH  38  39
ATOM     39  C   UNL A   1     -30.065  -1.377  23.573  0.00  0.00    +0.229 C 
ATOM     40  O   UNL A   1     -30.729  -1.878  24.721  0.00  0.00    -0.216 OA
ENDBRANCH  38  39
ENDBRANCH  37  38
ENDBRANCH  30  37
ENDBRANCH  25  26
BRANCH  24  42
ATOM     41  C   UNL A   1     -22.591   1.337  24.219  0.00  0.00    +0.256 C 
ATOM     42  O   UNL A   1     -23.235   2.036  25.247  0.00  0.00    -0.444 OA
ENDBRANCH  24  42
ENDBRANCH  23  24
ENDBRANCH   1  23
TORSDOF 15
