REMARK  Name = outputs/IAG933/test6/raw/output_6848_IAG933_linker_design_.xyz
REMARK  17 active torsions:
REMARK  status: ('A' for Active; 'I' for Inactive)
REMARK    1  A    between atoms: C_1  and  C_2
REMARK    2  A    between atoms: C_1  and  C_8
REMARK    3  A    between atoms: C_1  and  N_32
REMARK    4  A    between atoms: C_13  and  C_44
REMARK    5  A    between atoms: C_14  and  C_15
REMARK    6  A    between atoms: C_15  and  O_18
REMARK    7  A    between atoms: O_18  and  C_37
REMARK    8  A    between atoms: C_21  and  O_22
REMARK    9  A    between atoms: O_22  and  C_23
REMARK   10  A    between atoms: C_23  and  C_24
REMARK   11  A    between atoms: C_28  and  C_45
REMARK   12  A    between atoms: C_29  and  C_40
REMARK   13  A    between atoms: C_29  and  C_49
REMARK   14  A    between atoms: C_33  and  C_35
REMARK   15  A    between atoms: C_33  and  C_36
REMARK   16  A    between atoms: C_35  and  C_44
REMARK   17  A    between atoms: C_37  and  C_49
REMARK                            x       y       z     vdW  Elec       q    Type
REMARK                         _______ _______ _______ _____ _____    ______ ____
ROOT
ATOM      1  C   UNL A   1     -25.688   1.614  26.461  0.00  0.00    +0.070 C 
ATOM      2  C   UNL A   1     -26.250   2.920  26.395  0.00  0.00    +0.053 C 
ATOM      3  C   UNL A   1     -27.438   3.091  25.645  0.00  0.00    +0.102 C 
ATOM      4  N   UNL A   1     -28.075   2.089  25.003  0.00  0.00    -0.212 NA
ATOM      5  C   UNL A   1     -27.543   0.849  25.079  0.00  0.00    +0.234 C 
ATOM      6  C   UNL A   1     -26.354   0.576  25.777  0.00  0.00    +0.240 C 
ATOM      7  F   UNL A   1     -25.860  -0.681  25.795  0.00  0.00    -0.227 F 
ENDROOT
BRANCH   2   8
ATOM      8  C   UNL A   1     -25.642   4.093  27.123  0.00  0.00    +0.218 C 
ATOM      9  N   UNL A   1     -25.614   5.252  26.449  0.00  0.00    -0.236 NA
ATOM     10  C   UNL A   1     -25.026   6.479  26.963  0.00  0.00    +0.155 C 
BRANCH   8  11
ATOM     11  O   UNL A   1     -25.143   3.966  28.243  0.00  0.00    -0.460 OA
BRANCH  11  12
ATOM     12  C   UNL A   1     -25.298   3.561  29.651  0.00  0.00    +0.222 C 
BRANCH  12  19
ATOM     13  C   UNL A   1     -27.248   6.888  30.327  0.00  0.00    +0.004 C 
ATOM     14  C   UNL A   1     -27.209   7.540  31.568  0.00  0.00    -0.002 C 
ATOM     15  C   UNL A   1     -26.878   6.921  32.756  0.00  0.00    -0.001 C 
ATOM     16  C   UNL A   1     -26.569   5.593  32.816  0.00  0.00    -0.004 C 
ATOM     17  C   UNL A   1     -26.834   5.294  30.552  0.00  0.00    -0.014 C 
ATOM     18  C   UNL A   1     -26.609   4.815  31.532  0.00  0.00    -0.012 C 
ATOM     19  C   UNL A   1     -26.624   4.026  30.303  0.00  0.00    +0.128 C 
BRANCH  13  22
ATOM     20  O   UNL A   1     -27.409   8.419  28.582  0.00  0.00    -0.346 OA
ATOM     21  C   UNL A   1     -28.569   7.756  28.302  0.00  0.00    +0.176 C 
ATOM     22  C   UNL A   1     -27.716   7.640  29.141  0.00  0.00    +0.167 C 
ENDBRANCH  13  22
BRANCH  19  23
ATOM     23  C   UNL A   1     -27.797   3.059  29.575  0.00  0.00    +0.161 C 
ATOM     24  O   UNL A   1     -28.822   3.580  29.122  0.00  0.00    -0.295 OA
BRANCH  23  26
ATOM     25  C   UNL A   1     -28.933   0.870  29.004  0.00  0.00    +0.008 C 
ATOM     26  C   UNL A   1     -27.653   1.532  29.478  0.00  0.00    +0.065 C 
ENDBRANCH  23  26
ENDBRANCH  19  23
ENDBRANCH  12  19
ENDBRANCH  11  12
ENDBRANCH   8  11
ENDBRANCH   2   8
BRANCH   5  27
ATOM     27  O   UNL A   1     -28.193  -0.208  24.477  0.00  0.00    -0.459 OA
BRANCH  27  28
ATOM     28  C   UNL A   1     -29.460   0.005  23.866  0.00  0.00    +0.242 C 
BRANCH  28  29
ATOM     29  C   UNL A   1     -30.065  -1.377  23.573  0.00  0.00    +0.229 C 
ATOM     30  O   UNL A   1     -30.729  -1.878  24.721  0.00  0.00    -0.216 OA
ENDBRANCH  28  29
ENDBRANCH  27  28
ENDBRANCH   5  27
BRANCH   1  31
ATOM     31  C   UNL A   1     -24.275   1.208  26.666  0.00  0.00    +0.008 C 
BRANCH  31  32
ATOM     32  C   UNL A   1     -23.365   2.171  27.312  0.00  0.00    +0.010 C 
BRANCH  32  34
ATOM     33  C   UNL A   1     -20.946   1.413  27.707  0.00  0.00    +0.010 C 
ATOM     34  C   UNL A   1     -22.422   1.225  28.011  0.00  0.00    +0.078 C 
BRANCH  34  36
ATOM     35  N   UNL A   1     -24.449  -0.004  29.227  0.00  0.00    -0.201 NA
ATOM     36  C   UNL A   1     -23.130   0.266  29.090  0.00  0.00    +0.241 C 
ATOM     37  O   UNL A   1     -22.419  -0.199  29.933  0.00  0.00    -0.273 OA
BRANCH  35  38
ATOM     38  C   UNL A   1     -24.855  -1.012  30.143  0.00  0.00    +0.133 C 
BRANCH  38  39
ATOM     39  C   UNL A   1     -24.973  -2.505  29.788  0.00  0.00    -0.001 C 
ATOM     40  C   UNL A   1     -23.906  -3.173  29.146  0.00  0.00    -0.003 C 
ATOM     41  C   UNL A   1     -23.989  -4.549  28.853  0.00  0.00    -0.000 C 
ATOM     42  C   UNL A   1     -25.137  -5.280  29.205  0.00  0.00    -0.000 C 
ATOM     43  C   UNL A   1     -26.232  -4.611  29.784  0.00  0.00    -0.000 C 
ATOM     44  C   UNL A   1     -26.155  -3.232  30.065  0.00  0.00    -0.003 C 
ENDBRANCH  38  39
BRANCH  38  45
ATOM     45  C   UNL A   1     -25.387  -0.679  31.571  0.00  0.00    +0.097 C 
ATOM     46  C   UNL A   1     -25.189   0.773  32.028  0.00  0.00    +0.021 C 
ATOM     47  C   UNL A   1     -25.336   0.684  33.544  0.00  0.00    +0.020 C 
ATOM     48  C   UNL A   1     -24.829  -0.715  33.905  0.00  0.00    +0.089 C 
ATOM     49  N   UNL A   1     -24.758  -1.481  32.646  0.00  0.00    -0.217 NA
ENDBRANCH  38  45
ENDBRANCH  35  38
ENDBRANCH  34  36
ENDBRANCH  32  34
ENDBRANCH  31  32
ENDBRANCH   1  31
TORSDOF 17
