REMARK  Name = outputs/IAG933/test6/raw/output_6849_IAG933_linker_design_.xyz
REMARK  12 active torsions:
REMARK  status: ('A' for Active; 'I' for Inactive)
REMARK    1  A    between atoms: C_1  and  C_2
REMARK    2  A    between atoms: C_1  and  C_8
REMARK    3  A    between atoms: C_9  and  C_34
REMARK    4  A    between atoms: C_13  and  C_35
REMARK    5  A    between atoms: C_14  and  C_15
REMARK    6  A    between atoms: C_21  and  O_22
REMARK    7  A    between atoms: O_22  and  C_23
REMARK    8  A    between atoms: C_23  and  C_24
REMARK    9  A    between atoms: S_28  and  C_30
REMARK   10  A    between atoms: C_30  and  C_34
REMARK   11  A    between atoms: C_34  and  N_41
REMARK   12  A    between atoms: N_41  and  C_43
REMARK                            x       y       z     vdW  Elec       q    Type
REMARK                         _______ _______ _______ _____ _____    ______ ____
ROOT
ATOM      1  C   UNL A   1     -21.846   2.201  26.622  0.00  0.00    +0.091 C 
ATOM      2  C   UNL A   1     -22.651   1.308  28.881  0.00  0.00    +0.159 C 
ATOM      3  C   UNL A   1     -21.506   1.543  27.987  0.00  0.00    +0.145 C 
ATOM      4  C   UNL A   1     -24.564   1.203  27.119  0.00  0.00    +0.162 C 
ATOM      5  O   UNL A   1     -23.653   1.002  26.056  0.00  0.00    -0.349 OA
ATOM      6  F   UNL A   1     -22.357   0.571  30.030  0.00  0.00    -0.205 F 
ATOM      7  C   UNL A   1     -22.968   2.222  25.690  0.00  0.00    +0.150 C 
ATOM      8  F   UNL A   1     -20.372   1.332  28.207  0.00  0.00    -0.207 F 
ATOM      9  C   UNL A   1     -24.069   1.470  28.590  0.00  0.00    +0.156 C 
ENDROOT
BRANCH   4  10
ATOM     10  C   UNL A   1     -25.688   1.614  26.461  0.00  0.00    +0.044 C 
ATOM     11  C   UNL A   1     -26.250   2.920  26.395  0.00  0.00    +0.075 C 
ATOM     12  C   UNL A   1     -27.438   3.091  25.645  0.00  0.00    +0.106 C 
ATOM     13  N   UNL A   1     -28.075   2.089  25.003  0.00  0.00    -0.208 NA
ATOM     14  C   UNL A   1     -27.543   0.849  25.079  0.00  0.00    +0.253 C 
ATOM     15  C   UNL A   1     -26.354   0.576  25.777  0.00  0.00    +0.191 C 
ATOM     16  F   UNL A   1     -25.860  -0.681  25.795  0.00  0.00    -0.200 F 
BRANCH  11  17
ATOM     17  C   UNL A   1     -25.642   4.093  27.123  0.00  0.00    +0.266 C 
ATOM     18  N   UNL A   1     -25.614   5.252  26.449  0.00  0.00    -0.200 NA
ATOM     19  C   UNL A   1     -25.026   6.479  26.963  0.00  0.00    +0.139 C 
ATOM     20  O   UNL A   1     -25.143   3.966  28.243  0.00  0.00    -0.268 OA
ENDBRANCH  11  17
BRANCH  14  21
ATOM     21  O   UNL A   1     -28.193  -0.208  24.477  0.00  0.00    -0.456 OA
BRANCH  21  22
ATOM     22  C   UNL A   1     -29.460   0.005  23.866  0.00  0.00    +0.243 C 
BRANCH  22  23
ATOM     23  C   UNL A   1     -30.065  -1.377  23.573  0.00  0.00    +0.229 C 
ATOM     24  O   UNL A   1     -30.729  -1.878  24.721  0.00  0.00    -0.216 OA
ENDBRANCH  22  23
ENDBRANCH  21  22
ENDBRANCH  14  21
ENDBRANCH   4  10
BRANCH   9  25
ATOM     25  N   UNL A   1     -24.992   1.983  29.601  0.00  0.00    -0.210 NA
BRANCH  25  26
ATOM     26  C   UNL A   1     -25.316   1.992  31.004  0.00  0.00    +0.087 C 
BRANCH  26  28
ATOM     27  C   UNL A   1     -25.387  -0.679  31.571  0.00  0.00    +0.079 C 
ATOM     28  C   UNL A   1     -25.189   0.773  32.028  0.00  0.00    +0.035 C 
ATOM     29  C   UNL A   1     -25.336   0.684  33.544  0.00  0.00    +0.022 C 
ATOM     30  C   UNL A   1     -24.829  -0.715  33.905  0.00  0.00    +0.089 C 
ATOM     31  N   UNL A   1     -24.758  -1.481  32.646  0.00  0.00    -0.219 NA
BRANCH  27  32
ATOM     32  C   UNL A   1     -24.855  -1.012  30.143  0.00  0.00    +0.044 C 
BRANCH  32  33
ATOM     33  C   UNL A   1     -24.973  -2.505  29.788  0.00  0.00    -0.021 C 
ATOM     34  C   UNL A   1     -23.906  -3.173  29.146  0.00  0.00    -0.004 C 
ATOM     35  C   UNL A   1     -23.989  -4.549  28.853  0.00  0.00    -0.000 C 
ATOM     36  C   UNL A   1     -25.137  -5.280  29.205  0.00  0.00    -0.000 C 
ATOM     37  C   UNL A   1     -26.232  -4.611  29.784  0.00  0.00    -0.000 C 
ATOM     38  C   UNL A   1     -26.155  -3.232  30.065  0.00  0.00    -0.004 C 
ENDBRANCH  32  33
ENDBRANCH  27  32
ENDBRANCH  26  28
BRANCH  26  39
ATOM     39  C   UNL A   1     -25.305   3.379  31.845  0.00  0.00    +0.102 C 
BRANCH  39  40
ATOM     40  S   UNL A   1     -26.834   3.933  32.063  0.00  0.00    +0.011 S 
ATOM     41  C   UNL A   1     -26.798   5.321  33.105  0.00  0.00    +0.099 C 
ATOM     42  N   UNL A   1     -27.890   2.896  32.691  0.00  0.00    -0.053 NA
ATOM     43  O   UNL A   1     -27.398   4.541  30.698  0.00  0.00    -0.154 OA
ENDBRANCH  39  40
ENDBRANCH  26  39
ENDBRANCH  25  26
ENDBRANCH   9  25
TORSDOF 12
