MODEL 685
MODEL 1
REMARK VINA RESULT:    -6.547      0.000      0.000
REMARK INTER + INTRA:          -7.651
REMARK INTER:                  -7.313
REMARK INTRA:                  -0.338
REMARK UNBOUND:                -0.338
REMARK  Name = No_685-gen_results/8p0m/2024-11-27-11-27-31/
REMARK  2 active torsions:
REMARK  status: ('A' for Active; 'I' for Inactive)
REMARK    1  A    between atoms: C_2  and  C_13
REMARK    2  A    between atoms: C_9  and  C_11
REMARK                            x       y       z     vdW  Elec       q    Type
REMARK                         _______ _______ _______ _____ _____    ______ ____
ROOT
ATOM      1  C   UNL A   1     -29.064 -10.925  31.837  0.00  0.00    +0.002 A 
ATOM      2  C   UNL A   1     -28.547 -11.799  31.556  0.00  0.00    +0.018 A 
ATOM      3  C   UNL A   1     -28.706 -10.313  33.059  0.00  0.00    +0.000 A 
ATOM      4  C   UNL A   1     -27.723 -10.835  33.877  0.00  0.00    +0.000 A 
ATOM      5  C   UNL A   1     -27.472 -12.550  32.233  0.00  0.00    +0.002 A 
ATOM      6  C   UNL A   1     -27.099 -11.998  33.409  0.00  0.00    +0.000 A 
ATOM      7  C   UNL A   1     -29.258  -9.078  33.760  0.00  0.00    +0.000 A 
ATOM      8  C   UNL A   1     -28.636  -8.212  34.292  0.00  0.00    +0.003 A 
ATOM      9  C   UNL A   1     -27.440  -8.679  35.034  0.00  0.00    +0.042 A 
ATOM     10  C   UNL A   1     -26.910  -9.951  34.719  0.00  0.00    +0.003 A 
ENDROOT
BRANCH   2  11
ATOM     11  C   UNL A   1     -29.108 -12.405  30.204  0.00  0.00    +0.081 A 
ATOM     12  N   UNL A   1     -29.838 -13.499  29.956  0.00  0.00    -0.244 NA
ATOM     13  C   UNL A   1     -29.037 -11.576  28.960  0.00  0.00    +0.019 A 
ATOM     14  C   UNL A   1     -29.368 -12.168  27.796  0.00  0.00    +0.003 A 
ATOM     15  C   UNL A   1     -30.203 -14.132  28.948  0.00  0.00    +0.099 A 
ATOM     16  C   UNL A   1     -30.017 -13.431  27.757  0.00  0.00    +0.021 A 
ENDBRANCH   2  11
BRANCH   9  17
ATOM     17  C   UNL A   1     -26.842  -7.931  36.084  0.00  0.00    +0.234 C 
ATOM     18  O   UNL A   1     -27.201  -6.660  36.248  0.00  0.00    -0.283 OA
ENDBRANCH   9  17
TORSDOF 2
ENDMDL
ENDMDL
