REMARK  Name = No_686-gen_results/8p0m/2024-11-27-11-27-31/
REMARK  0 active torsions:
REMARK  status: ('A' for Active; 'I' for Inactive)
REMARK                            x       y       z     vdW  Elec       q    Type
REMARK                         _______ _______ _______ _____ _____    ______ ____
ROOT
ATOM      1  C   UNL A   1     -28.016  -0.814  28.878  0.00  0.00    +0.015 A 
ATOM      2  C   UNL A   1     -27.064  -0.119  28.608  0.00  0.00    +0.053 A 
ATOM      3  N   UNL A   1     -26.985   0.597  27.522  0.00  0.00    -0.292 N 
ATOM      4  C   UNL A   1     -27.961  -1.542  30.166  0.00  0.00    +0.001 A 
ATOM      5  C   UNL A   1     -26.781  -1.620  30.884  0.00  0.00    +0.000 A 
ATOM      6  C   UNL A   1     -25.646  -0.970  30.463  0.00  0.00    +0.006 A 
ATOM      7  C   UNL A   1     -25.756  -0.177  29.286  0.00  0.00    +0.068 A 
ATOM      8  C   UNL A   1     -27.927   1.143  26.916  0.00  0.00    +0.092 C 
ATOM      9  C   UNL A   1     -27.770   1.751  25.613  0.00  0.00    +0.022 C 
ATOM     10  C   UNL A   1     -25.731   0.707  26.713  0.00  0.00    +0.170 C 
ATOM     11  C   UNL A   1     -25.501   1.243  25.514  0.00  0.00    +0.043 C 
ATOM     12  C   UNL A   1     -26.601   1.811  24.920  0.00  0.00    +0.005 C 
ATOM     13  N   UNL A   1     -24.588   0.094  27.334  0.00  0.00    -0.183 NA
ATOM     14  C   UNL A   1     -24.537  -0.025  28.596  0.00  0.00    +0.267 C 
ATOM     15  O   UNL A   1     -23.380  -0.269  29.087  0.00  0.00    -0.268 OA
ENDROOT
TORSDOF 0
