REMARK  Name = outputs/IAG933/test6/raw/output_6863_IAG933_linker_design_.xyz
REMARK  6 active torsions:
REMARK  status: ('A' for Active; 'I' for Inactive)
REMARK    1  A    between atoms: C_1  and  C_2
REMARK    2  A    between atoms: C_1  and  C_8
REMARK    3  A    between atoms: C_1  and  C_33
REMARK    4  A    between atoms: C_14  and  C_15
REMARK    5  A    between atoms: C_28  and  C_44
REMARK    6  A    between atoms: C_44  and  C_45
REMARK                            x       y       z     vdW  Elec       q    Type
REMARK                         _______ _______ _______ _____ _____    ______ ____
ROOT
ATOM      1  C   UNL A   1     -25.688   1.614  26.461  0.00  0.00    +0.044 C 
ATOM      2  C   UNL A   1     -26.250   2.920  26.395  0.00  0.00    +0.075 C 
ATOM      3  C   UNL A   1     -27.438   3.091  25.645  0.00  0.00    +0.106 C 
ATOM      4  N   UNL A   1     -28.075   2.089  25.003  0.00  0.00    -0.208 NA
ATOM      5  C   UNL A   1     -27.543   0.849  25.079  0.00  0.00    +0.253 C 
ATOM      6  O   UNL A   1     -28.193  -0.208  24.477  0.00  0.00    -0.456 OA
ATOM      7  C   UNL A   1     -29.460   0.005  23.866  0.00  0.00    +0.239 C 
ATOM      8  C   UNL A   1     -30.065  -1.377  23.573  0.00  0.00    +0.190 C 
ATOM      9  O   UNL A   1     -30.729  -1.878  24.721  0.00  0.00    -0.347 OA
ATOM     10  C   UNL A   1     -26.354   0.576  25.777  0.00  0.00    +0.191 C 
ATOM     11  F   UNL A   1     -25.860  -0.681  25.795  0.00  0.00    -0.200 F 
ATOM     12  C   UNL A   1     -24.531   1.359  27.550  0.00  0.00    +0.157 C 
ATOM     13  O   UNL A   1     -29.584  -1.487  29.550  0.00  0.00    -0.293 OA
ATOM     14  C   UNL A   1     -31.868  -2.510  26.722  0.00  0.00    +0.211 C 
ATOM     15  C   UNL A   1     -25.596   0.042  29.235  0.00  0.00    +0.121 C 
ATOM     16  C   UNL A   1     -29.317  -0.473  28.880  0.00  0.00    +0.180 C 
ATOM     17  O   UNL A   1     -30.918  -0.087  27.172  0.00  0.00    -0.343 OA
ATOM     18  C   UNL A   1     -27.046   0.705  29.261  0.00  0.00    +0.038 C 
ATOM     19  C   UNL A   1     -31.917  -2.344  25.203  0.00  0.00    +0.178 C 
ATOM     20  O   UNL A   1     -32.839  -3.506  27.098  0.00  0.00    -0.218 OA
ATOM     21  C   UNL A   1     -30.415   0.465  28.422  0.00  0.00    +0.206 C 
ATOM     22  C   UNL A   1     -27.971  -0.142  28.532  0.00  0.00    +0.070 C 
ATOM     23  C   UNL A   1     -32.022  -1.075  27.370  0.00  0.00    +0.178 C 
ATOM     24  O   UNL A   1     -24.840   0.072  28.204  0.00  0.00    -0.352 OA
ENDROOT
BRANCH   2  25
ATOM     25  C   UNL A   1     -25.642   4.093  27.123  0.00  0.00    +0.266 C 
ATOM     26  N   UNL A   1     -25.614   5.252  26.449  0.00  0.00    -0.200 NA
ATOM     27  C   UNL A   1     -25.026   6.479  26.963  0.00  0.00    +0.139 C 
ATOM     28  O   UNL A   1     -25.143   3.966  28.243  0.00  0.00    -0.268 OA
ENDBRANCH   2  25
BRANCH  12  30
ATOM     29 CL   UNL A   1     -22.797   2.121  25.615  0.00  0.00    -0.109 Cl
ATOM     30  C   UNL A   1     -23.203   1.105  27.088  0.00  0.00    +0.141 C 
BRANCH  30  33
ATOM     31  O   UNL A   1     -22.362   0.383  29.497  0.00  0.00    -0.222 OA
ATOM     32  C   UNL A   1     -20.803   1.468  27.820  0.00  0.00    +0.037 C 
ATOM     33  C   UNL A   1     -22.228   1.020  28.250  0.00  0.00    +0.170 C 
ENDBRANCH  30  33
ENDBRANCH  12  30
BRANCH  15  34
ATOM     34  C   UNL A   1     -24.855  -1.012  30.143  0.00  0.00    +0.066 C 
BRANCH  34  35
ATOM     35  C   UNL A   1     -24.973  -2.505  29.788  0.00  0.00    -0.019 C 
ATOM     36  C   UNL A   1     -23.906  -3.173  29.146  0.00  0.00    -0.004 C 
ATOM     37  C   UNL A   1     -23.989  -4.549  28.853  0.00  0.00    -0.000 C 
ATOM     38  C   UNL A   1     -25.137  -5.280  29.205  0.00  0.00    -0.000 C 
ATOM     39  C   UNL A   1     -26.232  -4.611  29.784  0.00  0.00    -0.000 C 
ATOM     40  C   UNL A   1     -26.155  -3.232  30.065  0.00  0.00    -0.004 C 
ENDBRANCH  34  35
BRANCH  34  41
ATOM     41  C   UNL A   1     -25.387  -0.679  31.571  0.00  0.00    +0.079 C 
ATOM     42  C   UNL A   1     -25.189   0.773  32.028  0.00  0.00    +0.019 C 
ATOM     43  C   UNL A   1     -25.336   0.684  33.544  0.00  0.00    +0.020 C 
ATOM     44  C   UNL A   1     -24.829  -0.715  33.905  0.00  0.00    +0.089 C 
ATOM     45  N   UNL A   1     -24.758  -1.481  32.646  0.00  0.00    -0.219 NA
ENDBRANCH  34  41
ENDBRANCH  15  34
TORSDOF 6
