REMARK  Name = outputs/IAG933/test6/raw/output_6865_IAG933_linker_design_.xyz
REMARK  15 active torsions:
REMARK  status: ('A' for Active; 'I' for Inactive)
REMARK    1  A    between atoms: C_1  and  C_2
REMARK    2  A    between atoms: C_1  and  C_8
REMARK    3  A    between atoms: C_1  and  C_47
REMARK    4  A    between atoms: C_13  and  C_40
REMARK    5  A    between atoms: C_14  and  C_15
REMARK    6  A    between atoms: C_21  and  O_22
REMARK    7  A    between atoms: O_22  and  C_23
REMARK    8  A    between atoms: C_23  and  C_24
REMARK    9  A    between atoms: O_28  and  C_34
REMARK   10  A    between atoms: O_28  and  C_42
REMARK   11  A    between atoms: O_36  and  S_48
REMARK   12  A    between atoms: C_42  and  C_46
REMARK   13  A    between atoms: S_44  and  C_45
REMARK   14  A    between atoms: C_45  and  C_46
REMARK   15  A    between atoms: C_46  and  S_48
REMARK                            x       y       z     vdW  Elec       q    Type
REMARK                         _______ _______ _______ _____ _____    ______ ____
ROOT
ATOM      1  C   UNL A   1     -23.434   1.631  27.020  0.00  0.00    +0.088 C 
ATOM      2  F   UNL A   1     -21.147   1.468  27.826  0.00  0.00    -0.203 F 
ATOM      3 CL   UNL A   1     -22.908   2.470  25.622  0.00  0.00    -0.080 Cl
ATOM      4  C   UNL A   1     -25.381   0.631  28.494  0.00  0.00    +0.136 C 
ATOM      5  C   UNL A   1     -22.515   1.111  27.971  0.00  0.00    +0.150 C 
ATOM      6  C   UNL A   1     -24.828   1.340  27.289  0.00  0.00    +0.049 C 
ATOM      7  C   UNL A   1     -23.014   0.286  29.015  0.00  0.00    +0.030 C 
ATOM      8  C   UNL A   1     -24.390  -0.007  29.182  0.00  0.00    +0.019 C 
ENDROOT
BRANCH   6   9
ATOM      9  C   UNL A   1     -25.688   1.614  26.461  0.00  0.00    +0.042 C 
ATOM     10  C   UNL A   1     -26.250   2.920  26.395  0.00  0.00    +0.077 C 
ATOM     11  C   UNL A   1     -27.438   3.091  25.645  0.00  0.00    +0.107 C 
ATOM     12  N   UNL A   1     -28.075   2.089  25.003  0.00  0.00    -0.208 NA
ATOM     13  C   UNL A   1     -27.543   0.849  25.079  0.00  0.00    +0.253 C 
ATOM     14  C   UNL A   1     -26.354   0.576  25.777  0.00  0.00    +0.193 C 
ATOM     15  F   UNL A   1     -25.860  -0.681  25.795  0.00  0.00    -0.199 F 
BRANCH  10  16
ATOM     16  C   UNL A   1     -25.642   4.093  27.123  0.00  0.00    +0.266 C 
ATOM     17  N   UNL A   1     -25.614   5.252  26.449  0.00  0.00    -0.200 NA
ATOM     18  C   UNL A   1     -25.026   6.479  26.963  0.00  0.00    +0.139 C 
ATOM     19  O   UNL A   1     -25.143   3.966  28.243  0.00  0.00    -0.268 OA
ENDBRANCH  10  16
BRANCH  13  20
ATOM     20  O   UNL A   1     -28.193  -0.208  24.477  0.00  0.00    -0.456 OA
BRANCH  20  21
ATOM     21  C   UNL A   1     -29.460   0.005  23.866  0.00  0.00    +0.243 C 
BRANCH  21  22
ATOM     22  C   UNL A   1     -30.065  -1.377  23.573  0.00  0.00    +0.229 C 
ATOM     23  O   UNL A   1     -30.729  -1.878  24.721  0.00  0.00    -0.216 OA
ENDBRANCH  21  22
ENDBRANCH  20  21
ENDBRANCH  13  20
ENDBRANCH   6   9
BRANCH   8  24
ATOM     24  C   UNL A   1     -24.855  -1.012  30.143  0.00  0.00    +0.064 C 
BRANCH  24  25
ATOM     25  C   UNL A   1     -24.973  -2.505  29.788  0.00  0.00    -0.017 C 
ATOM     26  C   UNL A   1     -23.906  -3.173  29.146  0.00  0.00    -0.004 C 
ATOM     27  C   UNL A   1     -23.989  -4.549  28.853  0.00  0.00    -0.000 C 
ATOM     28  C   UNL A   1     -25.137  -5.280  29.205  0.00  0.00    -0.000 C 
ATOM     29  C   UNL A   1     -26.232  -4.611  29.784  0.00  0.00    -0.000 C 
ATOM     30  C   UNL A   1     -26.155  -3.232  30.065  0.00  0.00    -0.004 C 
ENDBRANCH  24  25
BRANCH  24  31
ATOM     31  C   UNL A   1     -25.387  -0.679  31.571  0.00  0.00    +0.081 C 
ATOM     32  C   UNL A   1     -25.189   0.773  32.028  0.00  0.00    +0.019 C 
ATOM     33  C   UNL A   1     -25.336   0.684  33.544  0.00  0.00    +0.020 C 
ATOM     34  C   UNL A   1     -24.829  -0.715  33.905  0.00  0.00    +0.089 C 
ATOM     35  N   UNL A   1     -24.758  -1.481  32.646  0.00  0.00    -0.219 NA
ENDBRANCH  24  31
ENDBRANCH   8  24
BRANCH   4  36
ATOM     36  O   UNL A   1     -26.719   0.505  28.671  0.00  0.00    -0.474 OA
BRANCH  36  37
ATOM     37  C   UNL A   1     -27.607   1.476  29.333  0.00  0.00    +0.230 C 
BRANCH  37  38
ATOM     38  C   UNL A   1     -29.030   1.162  29.898  0.00  0.00    +0.188 C 
BRANCH  38  41
ATOM     39  O   UNL A   1     -28.582   1.822  32.366  0.00  0.00    -0.072 OA
ATOM     40  O   UNL A   1     -28.567  -0.377  31.846  0.00  0.00    -0.072 OA
ATOM     41  S   UNL A   1     -29.225   0.862  31.547  0.00  0.00    -0.004 S 
BRANCH  41  43
ATOM     42  C   UNL A   1     -31.112   1.593  33.147  0.00  0.00    +0.207 C 
ATOM     43  O   UNL A   1     -30.744   0.964  31.867  0.00  0.00    -0.239 OA
ENDBRANCH  41  43
ENDBRANCH  38  41
BRANCH  38  44
ATOM     44  C   UNL A   1     -29.515  -0.103  29.163  0.00  0.00    +0.096 C 
BRANCH  44  48
ATOM     45  O   UNL A   1     -31.480  -1.153  27.811  0.00  0.00    -0.171 OA
ATOM     46  C   UNL A   1     -32.017   1.021  28.809  0.00  0.00    +0.080 C 
ATOM     47  C   UNL A   1     -30.622   0.973  27.183  0.00  0.00    +0.080 C 
ATOM     48  S   UNL A   1     -30.909   0.024  28.218  0.00  0.00    -0.069 S 
ENDBRANCH  44  48
ENDBRANCH  38  44
ENDBRANCH  37  38
ENDBRANCH  36  37
ENDBRANCH   4  36
TORSDOF 15
