REMARK  Name = outputs/IAG933/test6/raw/output_6868_IAG933_linker_design_.xyz
REMARK  17 active torsions:
REMARK  status: ('A' for Active; 'I' for Inactive)
REMARK    1  A    between atoms: C_1  and  C_2
REMARK    2  A    between atoms: C_1  and  C_8
REMARK    3  A    between atoms: C_1  and  C_40
REMARK    4  A    between atoms: C_13  and  N_35
REMARK    5  A    between atoms: C_14  and  C_15
REMARK    6  A    between atoms: C_21  and  O_22
REMARK    7  A    between atoms: O_22  and  C_23
REMARK    8  A    between atoms: C_23  and  C_24
REMARK    9  A    between atoms: C_28  and  C_29
REMARK   10  A    between atoms: C_28  and  N_37
REMARK   11  A    between atoms: C_29  and  C_39
REMARK   12  A    between atoms: CA_31  and  C_33
REMARK   13  A    between atoms: CA_31  and  C_34
REMARK   14  A    between atoms: C_34  and  N_37
REMARK   15  A    between atoms: N_35  and  C_39
REMARK   16  A    between atoms: C_36  and  O_42
REMARK   17  A    between atoms: C_39  and  C_40
REMARK                            x       y       z     vdW  Elec       q    Type
REMARK                         _______ _______ _______ _____ _____    ______ ____
ROOT
ATOM      1  C   UNL A   1     -24.971   0.875  28.459  0.00  0.00    +0.142 C 
ENDROOT
BRANCH   1   2
ATOM      2  N   UNL A   1     -24.701   1.185  27.336  0.00  0.00    -0.217 N 
ATOM      3  C   UNL A   1     -23.469   1.297  26.647  0.00  0.00    +0.409 C 
ATOM      4  O   UNL A   1     -23.155   1.492  25.520  0.00  0.00    -0.226 OA
BRANCH   2   5
ATOM      5  C   UNL A   1     -25.688   1.614  26.461  0.00  0.00    +0.095 C 
ATOM      6  C   UNL A   1     -26.250   2.920  26.395  0.00  0.00    +0.090 C 
ATOM      7  C   UNL A   1     -27.438   3.091  25.645  0.00  0.00    +0.108 C 
ATOM      8  N   UNL A   1     -28.075   2.089  25.003  0.00  0.00    -0.208 NA
ATOM      9  C   UNL A   1     -27.543   0.849  25.079  0.00  0.00    +0.255 C 
ATOM     10  C   UNL A   1     -26.354   0.576  25.777  0.00  0.00    +0.207 C 
ATOM     11  F   UNL A   1     -25.860  -0.681  25.795  0.00  0.00    -0.198 F 
BRANCH   6  12
ATOM     12  C   UNL A   1     -25.642   4.093  27.123  0.00  0.00    +0.268 C 
ATOM     13  N   UNL A   1     -25.614   5.252  26.449  0.00  0.00    -0.200 NA
ATOM     14  C   UNL A   1     -25.026   6.479  26.963  0.00  0.00    +0.139 C 
ATOM     15  O   UNL A   1     -25.143   3.966  28.243  0.00  0.00    -0.268 OA
ENDBRANCH   6  12
BRANCH   9  16
ATOM     16  O   UNL A   1     -28.193  -0.208  24.477  0.00  0.00    -0.456 OA
BRANCH  16  17
ATOM     17  C   UNL A   1     -29.460   0.005  23.866  0.00  0.00    +0.243 C 
BRANCH  17  18
ATOM     18  C   UNL A   1     -30.065  -1.377  23.573  0.00  0.00    +0.229 C 
ATOM     19  O   UNL A   1     -30.729  -1.878  24.721  0.00  0.00    -0.216 OA
ENDBRANCH  17  18
ENDBRANCH  16  17
ENDBRANCH   9  16
ENDBRANCH   2   5
BRANCH   3  21
ATOM     20  C   UNL A   1     -21.103   1.728  27.510  0.00  0.00    +0.257 C 
ATOM     21  O   UNL A   1     -22.523   1.352  27.797  0.00  0.00    -0.430 OA
ENDBRANCH   3  21
ENDBRANCH   1   2
BRANCH   1  22
ATOM     22  C   UNL A   1     -25.563  -0.210  29.014  0.00  0.00    +0.174 C 
ATOM     23  O   UNL A   1     -26.677  -0.566  28.614  0.00  0.00    -0.294 OA
BRANCH  22  24
ATOM     24  C   UNL A   1     -24.855  -1.012  30.143  0.00  0.00    +0.098 C 
BRANCH  24  25
ATOM     25  C   UNL A   1     -24.973  -2.505  29.788  0.00  0.00    -0.014 C 
ATOM     26  C   UNL A   1     -23.906  -3.173  29.146  0.00  0.00    -0.004 C 
ATOM     27  C   UNL A   1     -23.989  -4.549  28.853  0.00  0.00    -0.000 C 
ATOM     28  C   UNL A   1     -25.137  -5.280  29.205  0.00  0.00    -0.000 C 
ATOM     29  C   UNL A   1     -26.232  -4.611  29.784  0.00  0.00    -0.000 C 
ATOM     30  C   UNL A   1     -26.155  -3.232  30.065  0.00  0.00    -0.004 C 
ENDBRANCH  24  25
BRANCH  24  31
ATOM     31  C   UNL A   1     -25.387  -0.679  31.571  0.00  0.00    +0.084 C 
ATOM     32  C   UNL A   1     -25.189   0.773  32.028  0.00  0.00    +0.020 C 
ATOM     33  C   UNL A   1     -25.336   0.684  33.544  0.00  0.00    +0.020 C 
ATOM     34  C   UNL A   1     -24.829  -0.715  33.905  0.00  0.00    +0.089 C 
ATOM     35  N   UNL A   1     -24.758  -1.481  32.646  0.00  0.00    -0.219 NA
ENDBRANCH  24  31
ENDBRANCH  22  24
ENDBRANCH   1  22
BRANCH   1  36
ATOM     36  C   UNL A   1     -24.311   1.550  29.369  0.00  0.00    +0.047 C 
BRANCH  36  37
ATOM     37  C   UNL A   1     -25.058   2.422  30.250  0.00  0.00    +0.091 C 
BRANCH  37  38
ATOM     38  N   UNL A   1     -25.593   3.368  31.377  0.00  0.00    -0.216 NA
BRANCH  38  39
ATOM     39  C   UNL A   1     -24.481   4.216  32.056  0.00  0.00    +0.110 C 
BRANCH  39  40
ATOM     40  CA  UNL A   1     -24.804   5.642  32.488  0.00  0.00    +0.142 C 
ATOM     41  N   UNL A   1     -26.213   6.076  32.714  0.00  0.00    -0.129 NA
BRANCH  40  43
ATOM     42  O   UNL A   1     -22.645   5.878  33.464  0.00  0.00    -0.219 OA
ATOM     43  C   UNL A   1     -24.043   5.873  33.820  0.00  0.00    +0.202 C 
ENDBRANCH  40  43
ENDBRANCH  39  40
ENDBRANCH  38  39
ENDBRANCH  37  38
ENDBRANCH  36  37
ENDBRANCH   1  36
TORSDOF 17
