MODEL 686
MODEL 1
REMARK VINA RESULT:    -6.426      0.000      0.000
REMARK INTER + INTRA:          -6.426
REMARK INTER:                  -6.426
REMARK INTRA:                   0.000
REMARK UNBOUND:                 0.000
REMARK  Name = No_686-gen_results/8p0m/2024-11-27-11-27-31/
REMARK  0 active torsions:
REMARK  status: ('A' for Active; 'I' for Inactive)
REMARK                            x       y       z     vdW  Elec       q    Type
REMARK                         _______ _______ _______ _____ _____    ______ ____
ROOT
ATOM      1  C   UNL A   1     -25.464  -0.687  31.658  0.00  0.00    +0.015 A 
ATOM      2  C   UNL A   1     -25.031  -0.983  30.568  0.00  0.00    +0.053 A 
ATOM      3  N   UNL A   1     -25.190  -2.159  30.029  0.00  0.00    -0.292 N 
ATOM      4  C   UNL A   1     -25.223   0.701  32.112  0.00  0.00    +0.001 A 
ATOM      5  C   UNL A   1     -24.334   1.520  31.440  0.00  0.00    +0.000 A 
ATOM      6  C   UNL A   1     -23.702   1.099  30.295  0.00  0.00    +0.006 A 
ATOM      7  C   UNL A   1     -24.043  -0.195  29.809  0.00  0.00    +0.068 A 
ATOM      8  C   UNL A   1     -26.163  -2.923  30.175  0.00  0.00    +0.092 C 
ATOM      9  C   UNL A   1     -26.163  -4.289  29.698  0.00  0.00    +0.022 C 
ATOM     10  C   UNL A   1     -24.098  -2.865  29.289  0.00  0.00    +0.170 C 
ATOM     11  C   UNL A   1     -24.015  -4.111  28.820  0.00  0.00    +0.043 C 
ATOM     12  C   UNL A   1     -25.132  -4.880  29.037  0.00  0.00    +0.005 C 
ATOM     13  N   UNL A   1     -22.926  -2.059  29.082  0.00  0.00    -0.183 NA
ATOM     14  C   UNL A   1     -23.022  -0.794  29.044  0.00  0.00    +0.267 C 
ATOM     15  O   UNL A   1     -22.022  -0.173  28.540  0.00  0.00    -0.268 OA
ENDROOT
TORSDOF 0
ENDMDL
ENDMDL
