REMARK  Name = outputs/IAG933/test6/raw/output_6870_IAG933_linker_design_.xyz
REMARK  13 active torsions:
REMARK  status: ('A' for Active; 'I' for Inactive)
REMARK    1  A    between atoms: C_1  and  C_2
REMARK    2  A    between atoms: C_1  and  C_8
REMARK    3  A    between atoms: C_1  and  N_39
REMARK    4  A    between atoms: C_13  and  N_37
REMARK    5  A    between atoms: C_14  and  C_15
REMARK    6  A    between atoms: C_21  and  O_22
REMARK    7  A    between atoms: O_22  and  C_23
REMARK    8  A    between atoms: C_23  and  C_24
REMARK    9  A    between atoms: C_30  and  C_34
REMARK   10  A    between atoms: C_31  and  C_32
REMARK   11  A    between atoms: C_32  and  N_37
REMARK   12  A    between atoms: O_33  and  C_38
REMARK   13  A    between atoms: C_35  and  N_37
REMARK                            x       y       z     vdW  Elec       q    Type
REMARK                         _______ _______ _______ _____ _____    ______ ____
ROOT
ATOM      1  N   UNL A   1     -24.771   1.121  27.383  0.00  0.00    -0.253 NA
ENDROOT
BRANCH   1   2
ATOM      2  C   UNL A   1     -25.688   1.614  26.461  0.00  0.00    +0.129 C 
ATOM      3  C   UNL A   1     -26.250   2.920  26.395  0.00  0.00    +0.070 C 
ATOM      4  C   UNL A   1     -27.438   3.091  25.645  0.00  0.00    +0.103 C 
ATOM      5  N   UNL A   1     -28.075   2.089  25.003  0.00  0.00    -0.212 NA
ATOM      6  C   UNL A   1     -27.543   0.849  25.079  0.00  0.00    +0.235 C 
ATOM      7  C   UNL A   1     -26.354   0.576  25.777  0.00  0.00    +0.255 C 
ATOM      8  F   UNL A   1     -25.860  -0.681  25.795  0.00  0.00    -0.225 F 
BRANCH   3   9
ATOM      9  C   UNL A   1     -25.642   4.093  27.123  0.00  0.00    +0.264 C 
ATOM     10  N   UNL A   1     -25.614   5.252  26.449  0.00  0.00    -0.200 NA
ATOM     11  C   UNL A   1     -25.026   6.479  26.963  0.00  0.00    +0.139 C 
ATOM     12  O   UNL A   1     -25.143   3.966  28.243  0.00  0.00    -0.269 OA
ENDBRANCH   3   9
BRANCH   6  13
ATOM     13  O   UNL A   1     -28.193  -0.208  24.477  0.00  0.00    -0.459 OA
BRANCH  13  14
ATOM     14  C   UNL A   1     -29.460   0.005  23.866  0.00  0.00    +0.242 C 
BRANCH  14  15
ATOM     15  C   UNL A   1     -30.065  -1.377  23.573  0.00  0.00    +0.229 C 
ATOM     16  O   UNL A   1     -30.729  -1.878  24.721  0.00  0.00    -0.216 OA
ENDBRANCH  14  15
ENDBRANCH  13  14
ENDBRANCH   6  13
ENDBRANCH   1   2
BRANCH   1  18
ATOM     17  C   UNL A   1     -26.369   0.857  29.090  0.00  0.00    +0.115 C 
ATOM     18  C   UNL A   1     -25.480   0.645  28.360  0.00  0.00    +0.139 C 
ATOM     19  N   UNL A   1     -25.416  -0.046  29.133  0.00  0.00    -0.251 NA
BRANCH  17  20
ATOM     20  C   UNL A   1     -27.658   1.730  29.137  0.00  0.00    +0.037 C 
ATOM     21  C   UNL A   1     -28.985   1.183  28.822  0.00  0.00    +0.220 C 
BRANCH  21  22
ATOM     22  O   UNL A   1     -29.026  -0.199  28.601  0.00  0.00    -0.300 OA
ATOM     23  O   UNL A   1     -28.213  -0.961  29.503  0.00  0.00    +0.029 OA
ENDBRANCH  21  22
ENDBRANCH  17  20
BRANCH  19  24
ATOM     24  C   UNL A   1     -24.855  -1.012  30.143  0.00  0.00    +0.098 C 
BRANCH  24  25
ATOM     25  C   UNL A   1     -24.973  -2.505  29.788  0.00  0.00    -0.006 C 
ATOM     26  C   UNL A   1     -23.906  -3.173  29.146  0.00  0.00    -0.003 C 
ATOM     27  C   UNL A   1     -23.989  -4.549  28.853  0.00  0.00    -0.000 C 
ATOM     28  C   UNL A   1     -25.137  -5.280  29.205  0.00  0.00    -0.000 C 
ATOM     29  C   UNL A   1     -26.232  -4.611  29.784  0.00  0.00    -0.000 C 
ATOM     30  C   UNL A   1     -26.155  -3.232  30.065  0.00  0.00    -0.003 C 
ENDBRANCH  24  25
BRANCH  24  31
ATOM     31  C   UNL A   1     -25.387  -0.679  31.571  0.00  0.00    +0.092 C 
ATOM     32  C   UNL A   1     -25.189   0.773  32.028  0.00  0.00    +0.021 C 
ATOM     33  C   UNL A   1     -25.336   0.684  33.544  0.00  0.00    +0.020 C 
ATOM     34  C   UNL A   1     -24.829  -0.715  33.905  0.00  0.00    +0.089 C 
ATOM     35  N   UNL A   1     -24.758  -1.481  32.646  0.00  0.00    -0.218 NA
ENDBRANCH  24  31
ENDBRANCH  19  24
ENDBRANCH   1  18
BRANCH   1  37
ATOM     36  C   UNL A   1     -22.184   1.813  27.027  0.00  0.00    +0.020 C 
ATOM     37  C   UNL A   1     -23.334   0.882  27.418  0.00  0.00    +0.092 C 
BRANCH  37  39
ATOM     38  O   UNL A   1     -22.320  -0.133  29.351  0.00  0.00    -0.219 OA
ATOM     39  C   UNL A   1     -22.922  -0.229  28.182  0.00  0.00    +0.198 C 
ENDBRANCH  37  39
ENDBRANCH   1  37
TORSDOF 13
