REMARK  Name = outputs/IAG933/test6/raw/output_6874_IAG933_linker_design_.xyz
REMARK  12 active torsions:
REMARK  status: ('A' for Active; 'I' for Inactive)
REMARK    1  A    between atoms: C_1  and  C_2
REMARK    2  A    between atoms: C_1  and  C_8
REMARK    3  A    between atoms: C_1  and  C_41
REMARK    4  A    between atoms: C_14  and  C_15
REMARK    5  A    between atoms: C_21  and  O_22
REMARK    6  A    between atoms: O_22  and  C_23
REMARK    7  A    between atoms: C_23  and  C_24
REMARK    8  A    between atoms: C_31  and  C_35
REMARK    9  A    between atoms: O_32  and  C_33
REMARK   10  A    between atoms: C_35  and  C_47
REMARK   11  A    between atoms: C_41  and  N_42
REMARK   12  A    between atoms: C_41  and  C_45
REMARK                            x       y       z     vdW  Elec       q    Type
REMARK                         _______ _______ _______ _____ _____    ______ ____
ROOT
ATOM      1  C   UNL A   1     -25.688   1.614  26.461  0.00  0.00    +0.059 C 
ATOM      2  C   UNL A   1     -26.250   2.920  26.395  0.00  0.00    +0.080 C 
ATOM      3  C   UNL A   1     -27.438   3.091  25.645  0.00  0.00    +0.107 C 
ATOM      4  N   UNL A   1     -28.075   2.089  25.003  0.00  0.00    -0.211 NA
ATOM      5  C   UNL A   1     -27.543   0.849  25.079  0.00  0.00    +0.239 C 
ATOM      6  C   UNL A   1     -26.354   0.576  25.777  0.00  0.00    +0.265 C 
ATOM      7  F   UNL A   1     -25.860  -0.681  25.795  0.00  0.00    -0.222 F 
ATOM      8  C   UNL A   1     -21.025   1.153  27.667  0.00  0.00    +0.016 C 
ATOM      9  C   UNL A   1     -22.182   1.478  26.995  0.00  0.00    +0.141 C 
ATOM     10  C   UNL A   1     -24.517   1.428  26.981  0.00  0.00    -0.100 C 
ATOM     11  C   UNL A   1     -21.204   0.413  28.836  0.00  0.00    +0.055 C 
ATOM     12  C   UNL A   1     -22.460  -0.013  29.293  0.00  0.00    -0.023 C 
ATOM     13  C   UNL A   1     -23.502   1.206  27.521  0.00  0.00    +0.065 C 
ATOM     14  C   UNL A   1     -23.602   0.452  28.637  0.00  0.00    +0.004 C 
ENDROOT
BRANCH   2  15
ATOM     15  C   UNL A   1     -25.642   4.093  27.123  0.00  0.00    +0.267 C 
ATOM     16  N   UNL A   1     -25.614   5.252  26.449  0.00  0.00    -0.200 NA
ATOM     17  C   UNL A   1     -25.026   6.479  26.963  0.00  0.00    +0.139 C 
ATOM     18  O   UNL A   1     -25.143   3.966  28.243  0.00  0.00    -0.268 OA
ENDBRANCH   2  15
BRANCH   9  19
ATOM     19  O   UNL A   1     -22.061   2.049  25.692  0.00  0.00    -0.471 OA
ATOM     20  C   UNL A   1     -23.122   1.944  24.716  0.00  0.00    +0.253 C 
ENDBRANCH   9  19
BRANCH   5  21
ATOM     21  O   UNL A   1     -28.193  -0.208  24.477  0.00  0.00    -0.458 OA
BRANCH  21  22
ATOM     22  C   UNL A   1     -29.460   0.005  23.866  0.00  0.00    +0.242 C 
BRANCH  22  23
ATOM     23  C   UNL A   1     -30.065  -1.377  23.573  0.00  0.00    +0.229 C 
ATOM     24  O   UNL A   1     -30.729  -1.878  24.721  0.00  0.00    -0.216 OA
ENDBRANCH  22  23
ENDBRANCH  21  22
ENDBRANCH   5  21
BRANCH  14  25
ATOM     25  C   UNL A   1     -25.002   0.063  29.084  0.00  0.00    +0.123 C 
BRANCH  25  27
ATOM     26  O   UNL A   1     -28.302  -0.004  29.235  0.00  0.00    -0.273 OA
ATOM     27  N   UNL A   1     -26.248  -0.095  28.336  0.00  0.00    -0.202 NA
ATOM     28  C   UNL A   1     -27.454   0.834  28.474  0.00  0.00    +0.242 C 
BRANCH  28  29
ATOM     29  C   UNL A   1     -28.101   2.193  28.554  0.00  0.00    +0.089 C 
BRANCH  29  31
ATOM     30  O   UNL A   1     -30.028   4.012  31.029  0.00  0.00    -0.354 OA
ATOM     31  C   UNL A   1     -28.410   3.071  29.595  0.00  0.00    +0.039 C 
ATOM     32  C   UNL A   1     -29.551   2.771  30.522  0.00  0.00    +0.143 C 
ATOM     33  C   UNL A   1     -28.706   5.511  29.783  0.00  0.00    +0.032 C 
ATOM     34  C   UNL A   1     -28.959   4.310  28.841  0.00  0.00    +0.006 C 
ATOM     35  C   UNL A   1     -28.993   4.972  31.186  0.00  0.00    +0.142 C 
ENDBRANCH  29  31
ENDBRANCH  28  29
ENDBRANCH  25  27
BRANCH  25  36
ATOM     36  C   UNL A   1     -24.855  -1.012  30.143  0.00  0.00    +0.062 C 
BRANCH  36  37
ATOM     37  C   UNL A   1     -24.973  -2.505  29.788  0.00  0.00    -0.019 C 
ATOM     38  C   UNL A   1     -23.906  -3.173  29.146  0.00  0.00    -0.004 C 
ATOM     39  C   UNL A   1     -23.989  -4.549  28.853  0.00  0.00    -0.000 C 
ATOM     40  C   UNL A   1     -25.137  -5.280  29.205  0.00  0.00    -0.000 C 
ATOM     41  C   UNL A   1     -26.232  -4.611  29.784  0.00  0.00    -0.000 C 
ATOM     42  C   UNL A   1     -26.155  -3.232  30.065  0.00  0.00    -0.004 C 
ENDBRANCH  36  37
BRANCH  36  43
ATOM     43  C   UNL A   1     -25.387  -0.679  31.571  0.00  0.00    +0.079 C 
ATOM     44  C   UNL A   1     -25.189   0.773  32.028  0.00  0.00    +0.019 C 
ATOM     45  C   UNL A   1     -25.336   0.684  33.544  0.00  0.00    +0.020 C 
ATOM     46  C   UNL A   1     -24.829  -0.715  33.905  0.00  0.00    +0.089 C 
ATOM     47  N   UNL A   1     -24.758  -1.481  32.646  0.00  0.00    -0.219 NA
ENDBRANCH  36  43
ENDBRANCH  25  36
ENDBRANCH  14  25
TORSDOF 12
