MODEL 687
MODEL 1
REMARK VINA RESULT:    -6.393      0.000      0.000
REMARK INTER + INTRA:          -8.669
REMARK INTER:                  -7.888
REMARK INTRA:                  -0.781
REMARK UNBOUND:                -0.781
REMARK  Name = No_687-gen_results/8p0m/2024-11-27-11-27-31/
REMARK  4 active torsions:
REMARK  status: ('A' for Active; 'I' for Inactive)
REMARK    1  A    between atoms: C_2  and  C_10
REMARK    2  A    between atoms: C_10  and  O_12
REMARK    3  A    between atoms: O_12  and  C_13
REMARK    4  A    between atoms: C_13  and  C_14
REMARK                            x       y       z     vdW  Elec       q    Type
REMARK                         _______ _______ _______ _____ _____    ______ ____
ROOT
ATOM      1  C   UNL A   1     -23.387  -0.940  28.826  0.00  0.00    +0.007 A 
ATOM      2  C   UNL A   1     -24.218  -0.285  29.411  0.00  0.00    +0.075 A 
ATOM      3  C   UNL A   1     -25.358  -0.824  29.975  0.00  0.00    +0.004 A 
ATOM      4  C   UNL A   1     -25.540  -2.233  29.893  0.00  0.00    -0.001 A 
ATOM      5  C   UNL A   1     -24.505  -2.939  29.381  0.00  0.00    +0.052 A 
ATOM      6  C   UNL A   1     -23.431  -2.340  28.901  0.00  0.00    +0.004 A 
ATOM      7  C   UNL A   1     -24.880  -4.413  29.361  0.00  0.00    +0.265 C 
ATOM      8  N   UNL A   1     -25.961  -4.888  29.387  0.00  0.00    -0.200 NA
ATOM      9  O   UNL A   1     -23.910  -5.054  28.729  0.00  0.00    -0.268 OA
ATOM     10  C   UNL A   1     -27.122  -4.192  30.024  0.00  0.00    +0.136 C 
ATOM     11  C   UNL A   1     -26.851  -2.753  30.139  0.00  0.00    +0.124 C 
ATOM     12 CL   UNL A   1     -28.045  -1.743  30.789  0.00  0.00    -0.108 Cl
ENDROOT
BRANCH   2  13
ATOM     13  C   UNL A   1     -24.146   1.295  29.445  0.00  0.00    +0.342 C 
ATOM     14  O   UNL A   1     -23.526   1.884  30.034  0.00  0.00    -0.245 OA
BRANCH  13  15
ATOM     15  O   UNL A   1     -24.812   1.902  28.312  0.00  0.00    -0.436 OA
BRANCH  15  16
ATOM     16  C   UNL A   1     -23.943   2.636  27.483  0.00  0.00    +0.311 C 
BRANCH  16  17
ATOM     17  C   UNL A   1     -23.251   1.922  26.487  0.00  0.00    +0.438 C 
ATOM     18  F   UNL A   1     -23.746   0.981  26.136  0.00  0.00    -0.166 F 
ATOM     19  F   UNL A   1     -21.948   1.615  27.032  0.00  0.00    -0.166 F 
ATOM     20  F   UNL A   1     -22.993   2.798  25.480  0.00  0.00    -0.166 F 
ENDBRANCH  16  17
ENDBRANCH  15  16
ENDBRANCH  13  15
ENDBRANCH   2  13
TORSDOF 4
ENDMDL
ENDMDL
