REMARK  Name = outputs/IAG933/test6/raw/output_6882_IAG933_linker_design_.xyz
REMARK  13 active torsions:
REMARK  status: ('A' for Active; 'I' for Inactive)
REMARK    1  A    between atoms: C_1  and  C_2
REMARK    2  A    between atoms: C_1  and  C_8
REMARK    3  A    between atoms: C_1  and  C_32
REMARK    4  A    between atoms: C_13  and  C_44
REMARK    5  A    between atoms: C_14  and  C_15
REMARK    6  A    between atoms: C_21  and  O_22
REMARK    7  A    between atoms: O_22  and  C_23
REMARK    8  A    between atoms: C_23  and  C_24
REMARK    9  A    between atoms: N_31  and  C_40
REMARK   10  A    between atoms: C_32  and  C_34
REMARK   11  A    between atoms: C_32  and  N_36
REMARK   12  A    between atoms: C_35  and  N_36
REMARK   13  A    between atoms: C_35  and  C_45
REMARK                            x       y       z     vdW  Elec       q    Type
REMARK                         _______ _______ _______ _____ _____    ______ ____
ROOT
ATOM      1  C   UNL A   1     -25.434  -0.319  29.076  0.00  0.00    +0.135 C 
ENDROOT
BRANCH   1   2
ATOM      2  C   UNL A   1     -24.488   0.435  28.267  0.00  0.00    +0.138 A 
ATOM      3  C   UNL A   1     -22.891   2.381  25.442  0.00  0.00    +0.034 C 
ATOM      4  C   UNL A   1     -21.228   1.587  27.885  0.00  0.00    +0.072 C 
ATOM      5  O   UNL A   1     -23.195   0.346  28.569  0.00  0.00    -0.461 OA
ATOM      6  C   UNL A   1     -22.434   1.065  27.667  0.00  0.00    +0.119 A 
ATOM      7  C   UNL A   1     -24.591   1.225  27.107  0.00  0.00    +0.033 A 
ATOM      8  C   UNL A   1     -23.313   1.543  26.666  0.00  0.00    +0.011 A 
BRANCH   7   9
ATOM      9  C   UNL A   1     -25.688   1.614  26.461  0.00  0.00    +0.041 C 
ATOM     10  C   UNL A   1     -26.250   2.920  26.395  0.00  0.00    +0.077 C 
ATOM     11  C   UNL A   1     -27.438   3.091  25.645  0.00  0.00    +0.107 C 
ATOM     12  N   UNL A   1     -28.075   2.089  25.003  0.00  0.00    -0.208 NA
ATOM     13  C   UNL A   1     -27.543   0.849  25.079  0.00  0.00    +0.253 C 
ATOM     14  C   UNL A   1     -26.354   0.576  25.777  0.00  0.00    +0.193 C 
ATOM     15  F   UNL A   1     -25.860  -0.681  25.795  0.00  0.00    -0.199 F 
BRANCH  10  16
ATOM     16  C   UNL A   1     -25.642   4.093  27.123  0.00  0.00    +0.266 C 
ATOM     17  N   UNL A   1     -25.614   5.252  26.449  0.00  0.00    -0.200 NA
ATOM     18  C   UNL A   1     -25.026   6.479  26.963  0.00  0.00    +0.139 C 
ATOM     19  O   UNL A   1     -25.143   3.966  28.243  0.00  0.00    -0.268 OA
ENDBRANCH  10  16
BRANCH  13  20
ATOM     20  O   UNL A   1     -28.193  -0.208  24.477  0.00  0.00    -0.456 OA
BRANCH  20  21
ATOM     21  C   UNL A   1     -29.460   0.005  23.866  0.00  0.00    +0.243 C 
BRANCH  21  22
ATOM     22  C   UNL A   1     -30.065  -1.377  23.573  0.00  0.00    +0.229 C 
ATOM     23  O   UNL A   1     -30.729  -1.878  24.721  0.00  0.00    -0.216 OA
ENDBRANCH  21  22
ENDBRANCH  20  21
ENDBRANCH  13  20
ENDBRANCH   7   9
ENDBRANCH   1   2
BRANCH   1  24
ATOM     24  C   UNL A   1     -24.855  -1.012  30.143  0.00  0.00    +0.062 C 
BRANCH  24  25
ATOM     25  C   UNL A   1     -24.973  -2.505  29.788  0.00  0.00    -0.019 C 
ATOM     26  C   UNL A   1     -23.906  -3.173  29.146  0.00  0.00    -0.004 C 
ATOM     27  C   UNL A   1     -23.989  -4.549  28.853  0.00  0.00    -0.000 C 
ATOM     28  C   UNL A   1     -25.137  -5.280  29.205  0.00  0.00    -0.000 C 
ATOM     29  C   UNL A   1     -26.232  -4.611  29.784  0.00  0.00    -0.000 C 
ATOM     30  C   UNL A   1     -26.155  -3.232  30.065  0.00  0.00    -0.004 C 
ENDBRANCH  24  25
BRANCH  24  31
ATOM     31  C   UNL A   1     -25.387  -0.679  31.571  0.00  0.00    +0.079 C 
ATOM     32  C   UNL A   1     -25.189   0.773  32.028  0.00  0.00    +0.019 C 
ATOM     33  C   UNL A   1     -25.336   0.684  33.544  0.00  0.00    +0.020 C 
ATOM     34  C   UNL A   1     -24.829  -0.715  33.905  0.00  0.00    +0.089 C 
ATOM     35  N   UNL A   1     -24.758  -1.481  32.646  0.00  0.00    -0.219 NA
ENDBRANCH  24  31
ENDBRANCH   1  24
BRANCH   1  36
ATOM     36  N   UNL A   1     -26.708  -0.576  28.800  0.00  0.00    -0.211 NA
BRANCH  36  37
ATOM     37  C   UNL A   1     -27.832  -0.427  29.372  0.00  0.00    +0.097 C 
BRANCH  37  44
ATOM     38  C   UNL A   1     -31.287  -0.587  29.619  0.00  0.00    +0.057 C 
ATOM     39  C   UNL A   1     -30.105  -0.913  28.978  0.00  0.00    -0.005 C 
ATOM     40  O   UNL A   1     -27.827   2.195  31.287  0.00  0.00    -0.221 OA
ATOM     41  N   UNL A   1     -31.054   0.338  30.604  0.00  0.00    -0.305 N 
ATOM     42  C   UNL A   1     -29.641   0.678  30.675  0.00  0.00    +0.111 C 
ATOM     43  C   UNL A   1     -28.508   1.457  30.522  0.00  0.00    +0.177 C 
ATOM     44  C   UNL A   1     -28.974   0.075  29.922  0.00  0.00    +0.085 C 
BRANCH  41  46
ATOM     45  C   UNL A   1     -31.610   0.311  32.947  0.00  0.00    +0.023 C 
ATOM     46  C   UNL A   1     -32.047   0.757  31.504  0.00  0.00    +0.091 C 
ENDBRANCH  41  46
ENDBRANCH  37  44
ENDBRANCH  36  37
ENDBRANCH   1  36
TORSDOF 13
