REMARK  Name = outputs/IAG933/test6/raw/output_6888_IAG933_linker_design_.xyz
REMARK  14 active torsions:
REMARK  status: ('A' for Active; 'I' for Inactive)
REMARK    1  A    between atoms: C_1  and  C_2
REMARK    2  A    between atoms: C_1  and  C_8
REMARK    3  A    between atoms: C_1  and  C_33
REMARK    4  A    between atoms: C_14  and  C_15
REMARK    5  A    between atoms: C_15  and  O_18
REMARK    6  A    between atoms: O_18  and  C_39
REMARK    7  A    between atoms: C_21  and  O_22
REMARK    8  A    between atoms: O_22  and  C_23
REMARK    9  A    between atoms: C_23  and  C_24
REMARK   10  A    between atoms: C_30  and  CA_38
REMARK   11  A    between atoms: N_32  and  C_33
REMARK   12  A    between atoms: N_32  and  C_34
REMARK   13  A    between atoms: C_33  and  CA_38
REMARK   14  A    between atoms: C_35  and  C_36
REMARK                            x       y       z     vdW  Elec       q    Type
REMARK                         _______ _______ _______ _____ _____    ______ ____
ROOT
ATOM      1  C   UNL A   1     -24.566   3.878  31.767  0.00  0.00    +0.019 C 
ATOM      2  C   UNL A   1     -24.876   3.316  30.471  0.00  0.00    +0.100 C 
ATOM      3  C   UNL A   1     -26.712   4.595  30.143  0.00  0.00    +0.116 C 
ATOM      4  C   UNL A   1     -25.407   4.922  32.181  0.00  0.00    +0.002 C 
ATOM      5  C   UNL A   1     -25.564   3.949  29.521  0.00  0.00    +0.168 C 
ATOM      6  C   UNL A   1     -26.536   5.255  31.387  0.00  0.00    +0.010 C 
ENDROOT
BRANCH   3   8
ATOM      7  O   UNL A   1     -29.069   4.676  30.382  0.00  0.00    -0.240 OA
ATOM      8  C   UNL A   1     -28.084   4.359  29.658  0.00  0.00    +0.391 C 
ATOM      9  O   UNL A   1     -28.158   3.837  28.533  0.00  0.00    -0.240 OA
ENDBRANCH   3   8
BRANCH   5  10
ATOM     10  O   UNL A   1     -25.143   3.966  28.243  0.00  0.00    -0.435 OA
BRANCH  10  11
ATOM     11  C   UNL A   1     -25.642   4.093  27.123  0.00  0.00    +0.227 C 
ATOM     12  N   UNL A   1     -25.614   5.252  26.449  0.00  0.00    -0.235 NA
ATOM     13  C   UNL A   1     -25.026   6.479  26.963  0.00  0.00    +0.155 C 
BRANCH  11  15
ATOM     14  C   UNL A   1     -25.688   1.614  26.461  0.00  0.00    +0.041 C 
ATOM     15  C   UNL A   1     -26.250   2.920  26.395  0.00  0.00    +0.075 C 
ATOM     16  C   UNL A   1     -27.438   3.091  25.645  0.00  0.00    +0.107 C 
ATOM     17  N   UNL A   1     -28.075   2.089  25.003  0.00  0.00    -0.208 NA
ATOM     18  C   UNL A   1     -27.543   0.849  25.079  0.00  0.00    +0.253 C 
ATOM     19  C   UNL A   1     -26.354   0.576  25.777  0.00  0.00    +0.193 C 
ATOM     20  F   UNL A   1     -25.860  -0.681  25.795  0.00  0.00    -0.199 F 
BRANCH  18  21
ATOM     21  O   UNL A   1     -28.193  -0.208  24.477  0.00  0.00    -0.456 OA
BRANCH  21  22
ATOM     22  C   UNL A   1     -29.460   0.005  23.866  0.00  0.00    +0.243 C 
BRANCH  22  23
ATOM     23  C   UNL A   1     -30.065  -1.377  23.573  0.00  0.00    +0.229 C 
ATOM     24  O   UNL A   1     -30.729  -1.878  24.721  0.00  0.00    -0.216 OA
ENDBRANCH  22  23
ENDBRANCH  21  22
ENDBRANCH  18  21
ENDBRANCH  11  15
ENDBRANCH  10  11
ENDBRANCH   5  10
BRANCH   2  25
ATOM     25  N   UNL A   1     -24.686   1.891  30.110  0.00  0.00    -0.230 NA
BRANCH  25  26
ATOM     26  C   UNL A   1     -24.525   0.299  29.318  0.00  0.00    +0.146 C 
BRANCH  26  27
ATOM     27  CA  UNL A   1     -23.066   0.319  28.854  0.00  0.00    +0.180 C 
ATOM     28  N   UNL A   1     -22.364  -0.187  29.852  0.00  0.00    -0.144 NA
BRANCH  27  30
ATOM     29  O   UNL A   1     -20.988   1.198  27.831  0.00  0.00    -0.239 OA
ATOM     30  C   UNL A   1     -22.257   1.307  27.905  0.00  0.00    +0.405 C 
ATOM     31  OXT UNL A   1     -22.827   2.228  27.358  0.00  0.00    -0.239 OA
ENDBRANCH  27  30
ENDBRANCH  26  27
BRANCH  26  32
ATOM     32  C   UNL A   1     -24.855  -1.012  30.143  0.00  0.00    +0.064 C 
BRANCH  32  33
ATOM     33  C   UNL A   1     -24.973  -2.505  29.788  0.00  0.00    -0.019 C 
ATOM     34  C   UNL A   1     -23.906  -3.173  29.146  0.00  0.00    -0.004 C 
ATOM     35  C   UNL A   1     -23.989  -4.549  28.853  0.00  0.00    -0.000 C 
ATOM     36  C   UNL A   1     -25.137  -5.280  29.205  0.00  0.00    -0.000 C 
ATOM     37  C   UNL A   1     -26.232  -4.611  29.784  0.00  0.00    -0.000 C 
ATOM     38  C   UNL A   1     -26.155  -3.232  30.065  0.00  0.00    -0.004 C 
ENDBRANCH  32  33
BRANCH  32  39
ATOM     39  C   UNL A   1     -25.387  -0.679  31.571  0.00  0.00    +0.079 C 
ATOM     40  C   UNL A   1     -25.189   0.773  32.028  0.00  0.00    +0.019 C 
ATOM     41  C   UNL A   1     -25.336   0.684  33.544  0.00  0.00    +0.020 C 
ATOM     42  C   UNL A   1     -24.829  -0.715  33.905  0.00  0.00    +0.089 C 
ATOM     43  N   UNL A   1     -24.758  -1.481  32.646  0.00  0.00    -0.219 NA
ENDBRANCH  32  39
ENDBRANCH  26  32
ENDBRANCH  25  26
ENDBRANCH   2  25
TORSDOF 14
