REMARK  Name = outputs/IAG933/test6/raw/output_6889_IAG933_linker_design_.xyz
REMARK  10 active torsions:
REMARK  status: ('A' for Active; 'I' for Inactive)
REMARK    1  A    between atoms: C_1  and  C_2
REMARK    2  A    between atoms: C_1  and  C_8
REMARK    3  A    between atoms: C_1  and  C_30
REMARK    4  A    between atoms: C_13  and  C_31
REMARK    5  A    between atoms: C_14  and  C_15
REMARK    6  A    between atoms: C_21  and  O_22
REMARK    7  A    between atoms: O_22  and  C_23
REMARK    8  A    between atoms: C_23  and  C_24
REMARK    9  A    between atoms: C_30  and  C_40
REMARK   10  A    between atoms: C_30  and  C_46
REMARK                            x       y       z     vdW  Elec       q    Type
REMARK                         _______ _______ _______ _____ _____    ______ ____
ROOT
ATOM      1  C   UNL A   1     -20.899   1.056  28.095  0.00  0.00    +0.021 C 
ATOM      2  C   UNL A   1     -24.241   1.608  26.576  0.00  0.00    -0.013 C 
ATOM      3  C   UNL A   1     -22.502  -0.011  29.460  0.00  0.00    -0.005 C 
ATOM      4  C   UNL A   1     -22.407   2.289  25.161  0.00  0.00    +0.173 C 
ATOM      5  O   UNL A   1     -21.439   2.041  26.073  0.00  0.00    -0.467 OA
ATOM      6  C   UNL A   1     -23.635   2.302  25.443  0.00  0.00    +0.036 C 
ATOM      7  C   UNL A   1     -23.468   0.457  28.676  0.00  0.00    -0.022 C 
ATOM      8  C   UNL A   1     -21.895   1.434  27.212  0.00  0.00    +0.210 C 
ATOM      9  C   UNL A   1     -23.263   1.149  27.515  0.00  0.00    +0.014 C 
ATOM     10  C   UNL A   1     -21.184   0.310  29.178  0.00  0.00    -0.001 C 
ENDROOT
BRANCH   2  11
ATOM     11  C   UNL A   1     -25.688   1.614  26.461  0.00  0.00    +0.092 C 
ATOM     12  C   UNL A   1     -26.250   2.920  26.395  0.00  0.00    +0.059 C 
ATOM     13  C   UNL A   1     -27.438   3.091  25.645  0.00  0.00    +0.102 C 
ATOM     14  N   UNL A   1     -28.075   2.089  25.003  0.00  0.00    -0.212 NA
ATOM     15  C   UNL A   1     -27.543   0.849  25.079  0.00  0.00    +0.234 C 
ATOM     16  C   UNL A   1     -26.354   0.576  25.777  0.00  0.00    +0.244 C 
ATOM     17  F   UNL A   1     -25.860  -0.681  25.795  0.00  0.00    -0.227 F 
BRANCH  12  18
ATOM     18  C   UNL A   1     -25.642   4.093  27.123  0.00  0.00    +0.263 C 
ATOM     19  N   UNL A   1     -25.614   5.252  26.449  0.00  0.00    -0.200 NA
ATOM     20  C   UNL A   1     -25.026   6.479  26.963  0.00  0.00    +0.139 C 
ATOM     21  O   UNL A   1     -25.143   3.966  28.243  0.00  0.00    -0.269 OA
ENDBRANCH  12  18
BRANCH  15  22
ATOM     22  O   UNL A   1     -28.193  -0.208  24.477  0.00  0.00    -0.459 OA
BRANCH  22  23
ATOM     23  C   UNL A   1     -29.460   0.005  23.866  0.00  0.00    +0.242 C 
BRANCH  23  24
ATOM     24  C   UNL A   1     -30.065  -1.377  23.573  0.00  0.00    +0.229 C 
ATOM     25  O   UNL A   1     -30.729  -1.878  24.721  0.00  0.00    -0.216 OA
ENDBRANCH  23  24
ENDBRANCH  22  23
ENDBRANCH  15  22
ENDBRANCH   2  11
BRANCH   7  26
ATOM     26  C   UNL A   1     -25.069   0.269  29.204  0.00  0.00    +0.035 C 
BRANCH  26  34
ATOM     27  O   UNL A   1     -27.441  -0.230  28.985  0.00  0.00    -0.296 OA
ATOM     28  C   UNL A   1     -27.879   3.443  29.471  0.00  0.00    +0.032 C 
ATOM     29  C   UNL A   1     -26.593   2.738  29.735  0.00  0.00    +0.045 C 
ATOM     30  C   UNL A   1     -29.023   2.787  28.884  0.00  0.00    -0.011 C 
ATOM     31 CL   UNL A   1     -27.828   5.082  29.931  0.00  0.00    -0.087 Cl
ATOM     32  C   UNL A   1     -27.544   0.858  28.721  0.00  0.00    +0.155 C 
ATOM     33  C   UNL A   1     -28.857   1.487  28.363  0.00  0.00    +0.091 C 
ATOM     34  C   UNL A   1     -26.159   1.490  29.016  0.00  0.00    +0.068 C 
ENDBRANCH  26  34
BRANCH  26  35
ATOM     35  C   UNL A   1     -24.855  -1.012  30.143  0.00  0.00    +0.043 C 
BRANCH  35  36
ATOM     36  C   UNL A   1     -24.973  -2.505  29.788  0.00  0.00    -0.021 C 
ATOM     37  C   UNL A   1     -23.906  -3.173  29.146  0.00  0.00    -0.004 C 
ATOM     38  C   UNL A   1     -23.989  -4.549  28.853  0.00  0.00    -0.000 C 
ATOM     39  C   UNL A   1     -25.137  -5.280  29.205  0.00  0.00    -0.000 C 
ATOM     40  C   UNL A   1     -26.232  -4.611  29.784  0.00  0.00    -0.000 C 
ATOM     41  C   UNL A   1     -26.155  -3.232  30.065  0.00  0.00    -0.004 C 
ENDBRANCH  35  36
BRANCH  35  42
ATOM     42  C   UNL A   1     -25.387  -0.679  31.571  0.00  0.00    +0.077 C 
ATOM     43  C   UNL A   1     -25.189   0.773  32.028  0.00  0.00    +0.019 C 
ATOM     44  C   UNL A   1     -25.336   0.684  33.544  0.00  0.00    +0.020 C 
ATOM     45  C   UNL A   1     -24.829  -0.715  33.905  0.00  0.00    +0.089 C 
ATOM     46  N   UNL A   1     -24.758  -1.481  32.646  0.00  0.00    -0.219 NA
ENDBRANCH  35  42
ENDBRANCH  26  35
ENDBRANCH   7  26
TORSDOF 10
