REMARK  Name = No_689-gen_results/8p0m/2024-11-27-11-27-31/
REMARK  2 active torsions:
REMARK  status: ('A' for Active; 'I' for Inactive)
REMARK    1  A    between atoms: C_2  and  C_5
REMARK    2  A    between atoms: C_9  and  C_12
REMARK                            x       y       z     vdW  Elec       q    Type
REMARK                         _______ _______ _______ _____ _____    ______ ____
ROOT
ATOM      1  C   UNL A   1     -27.542   0.777  28.635  0.00  0.00    +0.072 A 
ATOM      2  C   UNL A   1     -26.945   0.861  27.628  0.00  0.00    +0.005 A 
ATOM      3  C   UNL A   1     -26.213   2.001  27.085  0.00  0.00    +0.011 A 
ATOM      4  C   UNL A   1     -26.161   3.151  27.878  0.00  0.00    +0.062 A 
ATOM      5  C   UNL A   1     -26.844   3.108  29.081  0.00  0.00    +0.064 A 
ATOM      6  C   UNL A   1     -27.463   1.980  29.548  0.00  0.00    +0.009 A 
ATOM      7 CL   UNL A   1     -25.338   4.505  27.310  0.00  0.00    -0.082 Cl
ENDROOT
BRANCH   5   8
ATOM      8  C   UNL A   1     -26.756   4.380  29.958  0.00  0.00    +0.250 C 
ATOM      9  N   UNL A   1     -25.919   4.480  30.911  0.00  0.00    -0.276 N 
ATOM     10  C   UNL A   1     -25.291   3.433  31.437  0.00  0.00    +0.094 C 
ATOM     11  C   UNL A   1     -24.365   3.682  32.572  0.00  0.00    +0.022 C 
ATOM     12  C   UNL A   1     -26.106   5.543  31.851  0.00  0.00    +0.094 C 
ATOM     13  C   UNL A   1     -25.182   5.851  32.880  0.00  0.00    +0.022 C 
ATOM     14  C   UNL A   1     -24.363   4.848  33.233  0.00  0.00    +0.004 C 
ATOM     15  O   UNL A   1     -27.563   5.287  29.582  0.00  0.00    -0.270 OA
ENDBRANCH   5   8
BRANCH   1  17
ATOM     16  F   UNL A   1     -28.073  -1.254  28.532  0.00  0.00    -0.166 F 
ATOM     17  C   UNL A   1     -28.266  -0.421  29.193  0.00  0.00    +0.419 C 
ATOM     18  F   UNL A   1     -29.440  -0.182  29.365  0.00  0.00    -0.166 F 
ATOM     19  F   UNL A   1     -27.696  -0.708  30.432  0.00  0.00    -0.166 F 
ENDBRANCH   1  17
TORSDOF 2
