REMARK  Name = outputs/IAG933/test6/raw/output_6890_IAG933_linker_design_.xyz
REMARK  12 active torsions:
REMARK  status: ('A' for Active; 'I' for Inactive)
REMARK    1  A    between atoms: C_1  and  C_2
REMARK    2  A    between atoms: C_1  and  C_8
REMARK    3  A    between atoms: C_1  and  C_28
REMARK    4  A    between atoms: C_13  and  C_43
REMARK    5  A    between atoms: C_14  and  C_15
REMARK    6  A    between atoms: C_21  and  O_22
REMARK    7  A    between atoms: O_22  and  C_23
REMARK    8  A    between atoms: C_23  and  C_24
REMARK    9  A    between atoms: C_28  and  N_42
REMARK   10  A    between atoms: C_32  and  C_34
REMARK   11  A    between atoms: C_32  and  C_35
REMARK   12  A    between atoms: C_35  and  C_37
REMARK                            x       y       z     vdW  Elec       q    Type
REMARK                         _______ _______ _______ _____ _____    ______ ____
ROOT
ATOM      1  C   UNL A   1     -23.893   1.230  27.858  0.00  0.00    +0.102 C 
ATOM      2  C   UNL A   1     -23.111   1.818  30.296  0.00  0.00    +0.112 C 
ATOM      3  N   UNL A   1     -22.215   1.047  29.336  0.00  0.00    -0.208 NA
ATOM      4  C   UNL A   1     -24.666   2.059  30.002  0.00  0.00    +0.049 C 
ATOM      5  O   UNL A   1     -21.924   1.729  26.919  0.00  0.00    -0.443 OA
ATOM      6  C   UNL A   1     -22.591   1.304  28.038  0.00  0.00    +0.240 C 
ATOM      7 CL   UNL A   1     -22.645   2.347  24.425  0.00  0.00    -0.064 Cl
ATOM      8  C   UNL A   1     -22.957   1.864  26.043  0.00  0.00    +0.268 C 
ATOM      9  N   UNL A   1     -24.721   0.978  28.886  0.00  0.00    -0.285 N 
ATOM     10  C   UNL A   1     -24.231   1.516  26.736  0.00  0.00    +0.036 C 
ENDROOT
BRANCH  10  11
ATOM     11  C   UNL A   1     -25.688   1.614  26.461  0.00  0.00    +0.094 C 
ATOM     12  C   UNL A   1     -26.250   2.920  26.395  0.00  0.00    +0.059 C 
ATOM     13  C   UNL A   1     -27.438   3.091  25.645  0.00  0.00    +0.102 C 
ATOM     14  N   UNL A   1     -28.075   2.089  25.003  0.00  0.00    -0.212 NA
ATOM     15  C   UNL A   1     -27.543   0.849  25.079  0.00  0.00    +0.234 C 
ATOM     16  C   UNL A   1     -26.354   0.576  25.777  0.00  0.00    +0.244 C 
ATOM     17  F   UNL A   1     -25.860  -0.681  25.795  0.00  0.00    -0.227 F 
BRANCH  12  18
ATOM     18  C   UNL A   1     -25.642   4.093  27.123  0.00  0.00    +0.263 C 
ATOM     19  N   UNL A   1     -25.614   5.252  26.449  0.00  0.00    -0.200 NA
ATOM     20  C   UNL A   1     -25.026   6.479  26.963  0.00  0.00    +0.139 C 
ATOM     21  O   UNL A   1     -25.143   3.966  28.243  0.00  0.00    -0.269 OA
ENDBRANCH  12  18
BRANCH  15  22
ATOM     22  O   UNL A   1     -28.193  -0.208  24.477  0.00  0.00    -0.459 OA
BRANCH  22  23
ATOM     23  C   UNL A   1     -29.460   0.005  23.866  0.00  0.00    +0.242 C 
BRANCH  23  24
ATOM     24  C   UNL A   1     -30.065  -1.377  23.573  0.00  0.00    +0.229 C 
ATOM     25  O   UNL A   1     -30.729  -1.878  24.721  0.00  0.00    -0.216 OA
ENDBRANCH  23  24
ENDBRANCH  22  23
ENDBRANCH  15  22
ENDBRANCH  10  11
BRANCH   9  26
ATOM     26  C   UNL A   1     -25.427  -0.366  28.877  0.00  0.00    +0.101 C 
BRANCH  26  27
ATOM     27  C   UNL A   1     -24.855  -1.012  30.143  0.00  0.00    +0.058 C 
BRANCH  27  28
ATOM     28  C   UNL A   1     -24.973  -2.505  29.788  0.00  0.00    -0.019 C 
ATOM     29  C   UNL A   1     -23.906  -3.173  29.146  0.00  0.00    -0.004 C 
ATOM     30  C   UNL A   1     -23.989  -4.549  28.853  0.00  0.00    -0.000 C 
ATOM     31  C   UNL A   1     -25.137  -5.280  29.205  0.00  0.00    -0.000 C 
ATOM     32  C   UNL A   1     -26.232  -4.611  29.784  0.00  0.00    -0.000 C 
ATOM     33  C   UNL A   1     -26.155  -3.232  30.065  0.00  0.00    -0.004 C 
ENDBRANCH  27  28
BRANCH  27  34
ATOM     34  C   UNL A   1     -25.387  -0.679  31.571  0.00  0.00    +0.079 C 
ATOM     35  C   UNL A   1     -25.189   0.773  32.028  0.00  0.00    +0.019 C 
ATOM     36  C   UNL A   1     -25.336   0.684  33.544  0.00  0.00    +0.020 C 
ATOM     37  C   UNL A   1     -24.829  -0.715  33.905  0.00  0.00    +0.089 C 
ATOM     38  N   UNL A   1     -24.758  -1.481  32.646  0.00  0.00    -0.219 NA
ENDBRANCH  27  34
ENDBRANCH  26  27
ENDBRANCH   9  26
BRANCH   4  39
ATOM     39  C   UNL A   1     -25.525   2.947  31.046  0.00  0.00    +0.053 C 
BRANCH  39  40
ATOM     40  C   UNL A   1     -24.570   3.862  31.881  0.00  0.00    +0.095 C 
BRANCH  40  43
ATOM     41  O   UNL A   1     -24.713   5.858  33.131  0.00  0.00    -0.272 OA
ATOM     42  N   UNL A   1     -26.539   4.629  33.099  0.00  0.00    -0.088 NA
ATOM     43  C   UNL A   1     -25.306   4.857  32.763  0.00  0.00    +0.261 C 
ENDBRANCH  40  43
ENDBRANCH  39  40
ENDBRANCH   4  39
TORSDOF 12
