REMARK  Name = outputs/IAG933/test6/raw/output_6892_IAG933_linker_design_.xyz
REMARK  9 active torsions:
REMARK  status: ('A' for Active; 'I' for Inactive)
REMARK    1  A    between atoms: C_1  and  C_2
REMARK    2  A    between atoms: C_1  and  C_8
REMARK    3  A    between atoms: C_9  and  C_40
REMARK    4  A    between atoms: C_13  and  C_42
REMARK    5  A    between atoms: C_14  and  C_15
REMARK    6  A    between atoms: C_21  and  O_22
REMARK    7  A    between atoms: O_22  and  C_23
REMARK    8  A    between atoms: C_23  and  C_24
REMARK    9  A    between atoms: N_34  and  C_40
REMARK                            x       y       z     vdW  Elec       q    Type
REMARK                         _______ _______ _______ _____ _____    ______ ____
ROOT
ATOM      1  C   UNL A   1     -27.264   5.943  30.313  0.00  0.00    +0.136 C 
ATOM      2  N   UNL A   1     -25.931   2.707  30.650  0.00  0.00    -0.148 NA
ATOM      3  C   UNL A   1     -25.472   4.028  32.511  0.00  0.00    +0.144 C 
ATOM      4  C   UNL A   1     -29.068   4.498  28.661  0.00  0.00    -0.000 C 
ATOM      5  C   UNL A   1     -26.154   6.529  32.556  0.00  0.00    +0.208 C 
ATOM      6  C   UNL A   1     -28.084   6.638  29.377  0.00  0.00    +0.037 C 
ATOM      7  C   UNL A   1     -27.274   4.535  30.350  0.00  0.00    +0.030 C 
ATOM      8  C   UNL A   1     -24.979   5.507  32.865  0.00  0.00    +0.079 C 
ATOM      9  C   UNL A   1     -26.271   3.748  31.170  0.00  0.00    +0.131 C 
ATOM     10  C   UNL A   1     -24.806   2.145  31.345  0.00  0.00    +0.329 C 
ATOM     11  C   UNL A   1     -28.971   5.898  28.558  0.00  0.00    +0.003 C 
ATOM     12  O   UNL A   1     -24.316   3.042  32.467  0.00  0.00    -0.308 OA
ATOM     13  C   UNL A   1     -28.211   3.792  29.556  0.00  0.00    +0.000 C 
ATOM     14  O   UNL A   1     -26.429   6.668  31.129  0.00  0.00    -0.476 OA
ENDROOT
BRANCH  10  16
ATOM     15  C   UNL A   1     -23.203   1.760  26.118  0.00  0.00    +0.043 C 
ATOM     16  N   UNL A   1     -23.403   1.827  30.329  0.00  0.00    +0.006 NA
ATOM     17  N   UNL A   1     -24.114   1.347  28.163  0.00  0.00    -0.041 NA
ATOM     18  C   UNL A   1     -24.299   1.540  26.906  0.00  0.00    +0.178 C 
ATOM     19  C   UNL A   1     -21.958   1.885  26.700  0.00  0.00    +0.011 C 
ATOM     20  C   UNL A   1     -23.049   1.599  28.707  0.00  0.00    +0.364 C 
ATOM     21  C   UNL A   1     -21.865   1.769  28.052  0.00  0.00    +0.093 C 
BRANCH  18  22
ATOM     22  C   UNL A   1     -25.688   1.614  26.461  0.00  0.00    +0.136 C 
ATOM     23  C   UNL A   1     -26.250   2.920  26.395  0.00  0.00    +0.063 C 
ATOM     24  C   UNL A   1     -27.438   3.091  25.645  0.00  0.00    +0.103 C 
ATOM     25  N   UNL A   1     -28.075   2.089  25.003  0.00  0.00    -0.212 NA
ATOM     26  C   UNL A   1     -27.543   0.849  25.079  0.00  0.00    +0.235 C 
ATOM     27  C   UNL A   1     -26.354   0.576  25.777  0.00  0.00    +0.248 C 
ATOM     28  F   UNL A   1     -25.860  -0.681  25.795  0.00  0.00    -0.226 F 
BRANCH  23  29
ATOM     29  C   UNL A   1     -25.642   4.093  27.123  0.00  0.00    +0.263 C 
ATOM     30  N   UNL A   1     -25.614   5.252  26.449  0.00  0.00    -0.200 NA
ATOM     31  C   UNL A   1     -25.026   6.479  26.963  0.00  0.00    +0.139 C 
ATOM     32  O   UNL A   1     -25.143   3.966  28.243  0.00  0.00    -0.269 OA
ENDBRANCH  23  29
BRANCH  26  33
ATOM     33  O   UNL A   1     -28.193  -0.208  24.477  0.00  0.00    -0.459 OA
BRANCH  33  34
ATOM     34  C   UNL A   1     -29.460   0.005  23.866  0.00  0.00    +0.242 C 
BRANCH  34  35
ATOM     35  C   UNL A   1     -30.065  -1.377  23.573  0.00  0.00    +0.229 C 
ATOM     36  O   UNL A   1     -30.729  -1.878  24.721  0.00  0.00    -0.216 OA
ENDBRANCH  34  35
ENDBRANCH  33  34
ENDBRANCH  26  33
ENDBRANCH  18  22
ENDBRANCH  10  16
BRANCH  10  38
ATOM     37  C   UNL A   1     -25.387  -0.679  31.571  0.00  0.00    +0.085 C 
ATOM     38  C   UNL A   1     -25.189   0.773  32.028  0.00  0.00    +0.106 C 
ATOM     39  C   UNL A   1     -25.336   0.684  33.544  0.00  0.00    +0.029 C 
ATOM     40  C   UNL A   1     -24.829  -0.715  33.905  0.00  0.00    +0.089 C 
ATOM     41  N   UNL A   1     -24.758  -1.481  32.646  0.00  0.00    -0.219 NA
BRANCH  37  42
ATOM     42  C   UNL A   1     -24.855  -1.012  30.143  0.00  0.00    +0.044 C 
BRANCH  42  43
ATOM     43  C   UNL A   1     -24.973  -2.505  29.788  0.00  0.00    -0.021 C 
ATOM     44  C   UNL A   1     -23.906  -3.173  29.146  0.00  0.00    -0.004 C 
ATOM     45  C   UNL A   1     -23.989  -4.549  28.853  0.00  0.00    -0.000 C 
ATOM     46  C   UNL A   1     -25.137  -5.280  29.205  0.00  0.00    -0.000 C 
ATOM     47  C   UNL A   1     -26.232  -4.611  29.784  0.00  0.00    -0.000 C 
ATOM     48  C   UNL A   1     -26.155  -3.232  30.065  0.00  0.00    -0.004 C 
ENDBRANCH  42  43
ENDBRANCH  37  42
ENDBRANCH  10  38
TORSDOF 9
