REMARK  Name = outputs/IAG933/test6/raw/output_6893_IAG933_linker_design_.xyz
REMARK  12 active torsions:
REMARK  status: ('A' for Active; 'I' for Inactive)
REMARK    1  A    between atoms: C_1  and  C_2
REMARK    2  A    between atoms: C_1  and  C_8
REMARK    3  A    between atoms: C_1  and  N_39
REMARK    4  A    between atoms: C_13  and  C_28
REMARK    5  A    between atoms: C_14  and  C_15
REMARK    6  A    between atoms: C_21  and  O_22
REMARK    7  A    between atoms: O_22  and  C_23
REMARK    8  A    between atoms: C_23  and  C_24
REMARK    9  A    between atoms: C_34  and  N_37
REMARK   10  A    between atoms: S_36  and  C_40
REMARK   11  A    between atoms: N_37  and  C_40
REMARK   12  A    between atoms: O_38  and  C_41
REMARK                            x       y       z     vdW  Elec       q    Type
REMARK                         _______ _______ _______ _____ _____    ______ ____
ROOT
ATOM      1  C   UNL A   1     -24.622   1.248  27.404  0.00  0.00    +0.050 C 
ATOM      2  N   UNL A   1     -20.883   1.033  28.069  0.00  0.00    -0.123 NA
ATOM      3  C   UNL A   1     -22.303   0.885  28.215  0.00  0.00    +0.137 C 
ATOM      4  C   UNL A   1     -24.984   0.380  28.349  0.00  0.00    +0.176 C 
ATOM      5  C   UNL A   1     -22.813   0.077  29.209  0.00  0.00    +0.084 C 
ATOM      6  N   UNL A   1     -24.162  -0.132  29.243  0.00  0.00    -0.286 N 
ATOM      7  C   UNL A   1     -23.213   1.553  27.357  0.00  0.00    +0.155 C 
ENDROOT
BRANCH   1   8
ATOM      8  C   UNL A   1     -25.688   1.614  26.461  0.00  0.00    +0.040 C 
ATOM      9  C   UNL A   1     -26.250   2.920  26.395  0.00  0.00    +0.076 C 
ATOM     10  C   UNL A   1     -27.438   3.091  25.645  0.00  0.00    +0.107 C 
ATOM     11  N   UNL A   1     -28.075   2.089  25.003  0.00  0.00    -0.208 NA
ATOM     12  C   UNL A   1     -27.543   0.849  25.079  0.00  0.00    +0.253 C 
ATOM     13  C   UNL A   1     -26.354   0.576  25.777  0.00  0.00    +0.193 C 
ATOM     14  F   UNL A   1     -25.860  -0.681  25.795  0.00  0.00    -0.199 F 
BRANCH   9  15
ATOM     15  C   UNL A   1     -25.642   4.093  27.123  0.00  0.00    +0.266 C 
ATOM     16  N   UNL A   1     -25.614   5.252  26.449  0.00  0.00    -0.200 NA
ATOM     17  C   UNL A   1     -25.026   6.479  26.963  0.00  0.00    +0.139 C 
ATOM     18  O   UNL A   1     -25.143   3.966  28.243  0.00  0.00    -0.268 OA
ENDBRANCH   9  15
BRANCH  12  19
ATOM     19  O   UNL A   1     -28.193  -0.208  24.477  0.00  0.00    -0.456 OA
BRANCH  19  20
ATOM     20  C   UNL A   1     -29.460   0.005  23.866  0.00  0.00    +0.243 C 
BRANCH  20  21
ATOM     21  C   UNL A   1     -30.065  -1.377  23.573  0.00  0.00    +0.229 C 
ATOM     22  O   UNL A   1     -30.729  -1.878  24.721  0.00  0.00    -0.216 OA
ENDBRANCH  20  21
ENDBRANCH  19  20
ENDBRANCH  12  19
ENDBRANCH   1   8
BRANCH   7  23
ATOM     23  O   UNL A   1     -22.509   2.424  26.521  0.00  0.00    -0.470 OA
ATOM     24  C   UNL A   1     -22.527   2.255  25.122  0.00  0.00    +0.253 C 
ENDBRANCH   7  23
BRANCH   6  25
ATOM     25  C   UNL A   1     -24.855  -1.012  30.143  0.00  0.00    +0.113 C 
BRANCH  25  26
ATOM     26  C   UNL A   1     -24.973  -2.505  29.788  0.00  0.00    -0.003 C 
ATOM     27  C   UNL A   1     -23.906  -3.173  29.146  0.00  0.00    -0.003 C 
ATOM     28  C   UNL A   1     -23.989  -4.549  28.853  0.00  0.00    -0.000 C 
ATOM     29  C   UNL A   1     -25.137  -5.280  29.205  0.00  0.00    -0.000 C 
ATOM     30  C   UNL A   1     -26.232  -4.611  29.784  0.00  0.00    -0.000 C 
ATOM     31  C   UNL A   1     -26.155  -3.232  30.065  0.00  0.00    -0.003 C 
ENDBRANCH  25  26
BRANCH  25  32
ATOM     32  C   UNL A   1     -25.387  -0.679  31.571  0.00  0.00    +0.095 C 
ATOM     33  C   UNL A   1     -25.189   0.773  32.028  0.00  0.00    +0.021 C 
ATOM     34  C   UNL A   1     -25.336   0.684  33.544  0.00  0.00    +0.020 C 
ATOM     35  C   UNL A   1     -24.829  -0.715  33.905  0.00  0.00    +0.089 C 
ATOM     36  N   UNL A   1     -24.758  -1.481  32.646  0.00  0.00    -0.217 NA
ENDBRANCH  25  32
ENDBRANCH   6  25
BRANCH   4  37
ATOM     37  N   UNL A   1     -26.254  -0.196  28.397  0.00  0.00    -0.175 NA
BRANCH  37  38
ATOM     38  C   UNL A   1     -27.237   0.623  29.120  0.00  0.00    +0.196 C 
BRANCH  38  42
ATOM     39  O   UNL A   1     -29.660   0.941  29.517  0.00  0.00    -0.306 OA
ATOM     40  O   UNL A   1     -28.843  -1.269  29.970  0.00  0.00    -0.306 OA
ATOM     41  O   UNL A   1     -29.100  -0.517  27.772  0.00  0.00    -0.306 OA
ATOM     42  S   UNL A   1     -28.836  -0.147  29.081  0.00  0.00    -0.179 S 
ENDBRANCH  38  42
ENDBRANCH  37  38
ENDBRANCH   4  37
TORSDOF 12
