REMARK  Name = outputs/IAG933/test6/raw/output_6894_IAG933_linker_design_.xyz
REMARK  11 active torsions:
REMARK  status: ('A' for Active; 'I' for Inactive)
REMARK    1  A    between atoms: C_1  and  C_2
REMARK    2  A    between atoms: C_1  and  C_8
REMARK    3  A    between atoms: C_1  and  N_41
REMARK    4  A    between atoms: C_13  and  C_38
REMARK    5  A    between atoms: C_14  and  C_15
REMARK    6  A    between atoms: C_21  and  O_22
REMARK    7  A    between atoms: O_22  and  C_23
REMARK    8  A    between atoms: C_23  and  C_24
REMARK    9  A    between atoms: C_33  and  N_41
REMARK   10  A    between atoms: C_33  and  C_43
REMARK   11  A    between atoms: C_40  and  C_44
REMARK                            x       y       z     vdW  Elec       q    Type
REMARK                         _______ _______ _______ _____ _____    ______ ____
ROOT
ATOM      1  C   UNL A   1     -23.266   1.438  25.671  0.00  0.00    +0.284 C 
ATOM      2  C   UNL A   1     -21.699   1.311  28.249  0.00  0.00    +0.070 C 
ATOM      3  F   UNL A   1     -22.643  -0.014  29.706  0.00  0.00    -0.204 F 
ATOM      4  C   UNL A   1     -22.977   0.798  28.680  0.00  0.00    +0.144 C 
ATOM      5  C   UNL A   1     -24.294   1.390  26.709  0.00  0.00    +0.052 C 
ATOM      6  F   UNL A   1     -23.472   0.959  24.499  0.00  0.00    -0.163 F 
ATOM      7  C   UNL A   1     -24.105   1.041  28.025  0.00  0.00    +0.044 C 
ATOM      8  O   UNL A   1     -21.965   1.907  25.891  0.00  0.00    -0.426 OA
ATOM      9  C   UNL A   1     -21.280   1.663  26.951  0.00  0.00    +0.184 C 
ENDROOT
BRANCH   5  10
ATOM     10  C   UNL A   1     -25.688   1.614  26.461  0.00  0.00    +0.098 C 
ATOM     11  C   UNL A   1     -26.250   2.920  26.395  0.00  0.00    +0.059 C 
ATOM     12  C   UNL A   1     -27.438   3.091  25.645  0.00  0.00    +0.102 C 
ATOM     13  N   UNL A   1     -28.075   2.089  25.003  0.00  0.00    -0.212 NA
ATOM     14  C   UNL A   1     -27.543   0.849  25.079  0.00  0.00    +0.234 C 
ATOM     15  C   UNL A   1     -26.354   0.576  25.777  0.00  0.00    +0.244 C 
ATOM     16  F   UNL A   1     -25.860  -0.681  25.795  0.00  0.00    -0.227 F 
BRANCH  11  17
ATOM     17  C   UNL A   1     -25.642   4.093  27.123  0.00  0.00    +0.263 C 
ATOM     18  N   UNL A   1     -25.614   5.252  26.449  0.00  0.00    -0.200 NA
ATOM     19  C   UNL A   1     -25.026   6.479  26.963  0.00  0.00    +0.139 C 
ATOM     20  O   UNL A   1     -25.143   3.966  28.243  0.00  0.00    -0.269 OA
ENDBRANCH  11  17
BRANCH  14  21
ATOM     21  O   UNL A   1     -28.193  -0.208  24.477  0.00  0.00    -0.459 OA
BRANCH  21  22
ATOM     22  C   UNL A   1     -29.460   0.005  23.866  0.00  0.00    +0.242 C 
BRANCH  22  23
ATOM     23  C   UNL A   1     -30.065  -1.377  23.573  0.00  0.00    +0.229 C 
ATOM     24  O   UNL A   1     -30.729  -1.878  24.721  0.00  0.00    -0.216 OA
ENDBRANCH  22  23
ENDBRANCH  21  22
ENDBRANCH  14  21
ENDBRANCH   5  10
BRANCH   7  25
ATOM     25  C   UNL A   1     -25.412   0.866  28.730  0.00  0.00    +0.063 C 
ATOM     26  C   UNL A   1     -26.782   1.534  28.907  0.00  0.00    -0.010 C 
BRANCH  26  32
ATOM     27  C   UNL A   1     -29.107   1.482  29.422  0.00  0.00    +0.024 C 
ATOM     28  C   UNL A   1     -28.005  -0.691  29.341  0.00  0.00    +0.039 C 
ATOM     29  C   UNL A   1     -29.419  -0.844  29.807  0.00  0.00    +0.170 C 
ATOM     30  N   UNL A   1     -30.089   0.235  27.686  0.00  0.00    -0.130 NA
ATOM     31  C   UNL A   1     -29.003   3.058  29.595  0.00  0.00    +0.002 C 
ATOM     32  C   UNL A   1     -27.801   0.753  29.770  0.00  0.00    +0.027 C 
ATOM     33  O   UNL A   1     -29.939  -2.079  29.389  0.00  0.00    -0.222 OA
ATOM     34  C   UNL A   1     -30.047   0.374  29.165  0.00  0.00    +0.122 C 
ENDBRANCH  26  32
BRANCH  25  35
ATOM     35  N   UNL A   1     -25.523  -0.234  29.194  0.00  0.00    -0.234 NA
BRANCH  35  36
ATOM     36  C   UNL A   1     -24.855  -1.012  30.143  0.00  0.00    +0.131 C 
BRANCH  36  37
ATOM     37  C   UNL A   1     -24.973  -2.505  29.788  0.00  0.00    -0.001 C 
ATOM     38  C   UNL A   1     -23.906  -3.173  29.146  0.00  0.00    -0.003 C 
ATOM     39  C   UNL A   1     -23.989  -4.549  28.853  0.00  0.00    -0.000 C 
ATOM     40  C   UNL A   1     -25.137  -5.280  29.205  0.00  0.00    -0.000 C 
ATOM     41  C   UNL A   1     -26.232  -4.611  29.784  0.00  0.00    -0.000 C 
ATOM     42  C   UNL A   1     -26.155  -3.232  30.065  0.00  0.00    -0.003 C 
ENDBRANCH  36  37
BRANCH  36  43
ATOM     43  C   UNL A   1     -25.387  -0.679  31.571  0.00  0.00    +0.097 C 
ATOM     44  C   UNL A   1     -25.189   0.773  32.028  0.00  0.00    +0.021 C 
ATOM     45  C   UNL A   1     -25.336   0.684  33.544  0.00  0.00    +0.020 C 
ATOM     46  C   UNL A   1     -24.829  -0.715  33.905  0.00  0.00    +0.089 C 
ATOM     47  N   UNL A   1     -24.758  -1.481  32.646  0.00  0.00    -0.217 NA
ENDBRANCH  36  43
ENDBRANCH  35  36
ENDBRANCH  25  35
ENDBRANCH   7  25
TORSDOF 11
