REMARK  Name = outputs/IAG933/test6/raw/output_6897_IAG933_linker_design_.xyz
REMARK  13 active torsions:
REMARK  status: ('A' for Active; 'I' for Inactive)
REMARK    1  A    between atoms: C_1  and  C_2
REMARK    2  A    between atoms: C_1  and  C_8
REMARK    3  A    between atoms: C_1  and  N_35
REMARK    4  A    between atoms: C_13  and  C_39
REMARK    5  A    between atoms: C_14  and  C_15
REMARK    6  A    between atoms: C_21  and  O_22
REMARK    7  A    between atoms: O_22  and  C_23
REMARK    8  A    between atoms: C_23  and  C_24
REMARK    9  A    between atoms: C_30  and  C_36
REMARK   10  A    between atoms: C_31  and  N_35
REMARK   11  A    between atoms: C_31  and  C_39
REMARK   12  A    between atoms: C_34  and  C_39
REMARK   13  A    between atoms: C_36  and  O_37
REMARK                            x       y       z     vdW  Elec       q    Type
REMARK                         _______ _______ _______ _____ _____    ______ ____
ROOT
ATOM      1  C   UNL A   1     -24.555   1.263  27.291  0.00  0.00    +0.109 C 
ENDROOT
BRANCH   1   2
ATOM      2  C   UNL A   1     -25.688   1.614  26.461  0.00  0.00    +0.025 C 
ATOM      3  C   UNL A   1     -26.250   2.920  26.395  0.00  0.00    +0.073 C 
ATOM      4  C   UNL A   1     -27.438   3.091  25.645  0.00  0.00    +0.106 C 
ATOM      5  N   UNL A   1     -28.075   2.089  25.003  0.00  0.00    -0.208 NA
ATOM      6  C   UNL A   1     -27.543   0.849  25.079  0.00  0.00    +0.253 C 
ATOM      7  C   UNL A   1     -26.354   0.576  25.777  0.00  0.00    +0.190 C 
ATOM      8  F   UNL A   1     -25.860  -0.681  25.795  0.00  0.00    -0.200 F 
BRANCH   3   9
ATOM      9  C   UNL A   1     -25.642   4.093  27.123  0.00  0.00    +0.266 C 
ATOM     10  N   UNL A   1     -25.614   5.252  26.449  0.00  0.00    -0.200 NA
ATOM     11  C   UNL A   1     -25.026   6.479  26.963  0.00  0.00    +0.139 C 
ATOM     12  O   UNL A   1     -25.143   3.966  28.243  0.00  0.00    -0.268 OA
ENDBRANCH   3   9
BRANCH   6  13
ATOM     13  O   UNL A   1     -28.193  -0.208  24.477  0.00  0.00    -0.456 OA
BRANCH  13  14
ATOM     14  C   UNL A   1     -29.460   0.005  23.866  0.00  0.00    +0.243 C 
BRANCH  14  15
ATOM     15  C   UNL A   1     -30.065  -1.377  23.573  0.00  0.00    +0.229 C 
ATOM     16  O   UNL A   1     -30.729  -1.878  24.721  0.00  0.00    -0.216 OA
ENDBRANCH  14  15
ENDBRANCH  13  14
ENDBRANCH   6  13
ENDBRANCH   1   2
BRANCH   1  18
ATOM     17  O   UNL A   1     -23.227   2.538  25.932  0.00  0.00    -0.288 OA
ATOM     18  C   UNL A   1     -23.291   1.681  26.912  0.00  0.00    +0.210 C 
ATOM     19  C   UNL A   1     -22.191   1.415  27.648  0.00  0.00    +0.181 C 
BRANCH  19  21
ATOM     20  C   UNL A   1     -21.831  -0.586  29.359  0.00  0.00    +0.009 C 
ATOM     21  C   UNL A   1     -22.369   0.762  28.796  0.00  0.00    +0.070 C 
ENDBRANCH  19  21
BRANCH  19  23
ATOM     22  N   UNL A   1     -19.952   1.371  28.248  0.00  0.00    +0.111 NA
ATOM     23  O   UNL A   1     -20.970   1.785  27.309  0.00  0.00    -0.367 OA
ENDBRANCH  19  23
ENDBRANCH   1  18
BRANCH   1  24
ATOM     24  C   UNL A   1     -24.860   0.584  28.409  0.00  0.00    +0.106 C 
BRANCH  24  26
ATOM     25  O   UNL A   1     -27.356  -0.169  29.085  0.00  0.00    -0.265 OA
ATOM     26  N   UNL A   1     -25.221   0.065  29.253  0.00  0.00    -0.268 N 
ATOM     27  C   UNL A   1     -26.273   0.288  29.001  0.00  0.00    +0.303 C 
BRANCH  26  28
ATOM     28  C   UNL A   1     -24.855  -1.012  30.143  0.00  0.00    +0.114 C 
BRANCH  28  29
ATOM     29  C   UNL A   1     -24.973  -2.505  29.788  0.00  0.00    -0.003 C 
ATOM     30  C   UNL A   1     -23.906  -3.173  29.146  0.00  0.00    -0.003 C 
ATOM     31  C   UNL A   1     -23.989  -4.549  28.853  0.00  0.00    -0.000 C 
ATOM     32  C   UNL A   1     -25.137  -5.280  29.205  0.00  0.00    -0.000 C 
ATOM     33  C   UNL A   1     -26.232  -4.611  29.784  0.00  0.00    -0.000 C 
ATOM     34  C   UNL A   1     -26.155  -3.232  30.065  0.00  0.00    -0.003 C 
ENDBRANCH  28  29
BRANCH  28  35
ATOM     35  C   UNL A   1     -25.387  -0.679  31.571  0.00  0.00    +0.095 C 
ATOM     36  C   UNL A   1     -25.189   0.773  32.028  0.00  0.00    +0.021 C 
ATOM     37  C   UNL A   1     -25.336   0.684  33.544  0.00  0.00    +0.020 C 
ATOM     38  C   UNL A   1     -24.829  -0.715  33.905  0.00  0.00    +0.089 C 
ATOM     39  N   UNL A   1     -24.758  -1.481  32.646  0.00  0.00    -0.217 NA
ENDBRANCH  28  35
ENDBRANCH  26  28
ENDBRANCH  24  26
ENDBRANCH   1  24
TORSDOF 13
