MODEL 689
MODEL 1
REMARK VINA RESULT:    -7.821      0.000      0.000
REMARK INTER + INTRA:          -9.008
REMARK INTER:                  -8.735
REMARK INTRA:                  -0.273
REMARK UNBOUND:                -0.273
REMARK  Name = No_689-gen_results/8p0m/2024-11-27-11-27-31/
REMARK  2 active torsions:
REMARK  status: ('A' for Active; 'I' for Inactive)
REMARK    1  A    between atoms: C_2  and  C_5
REMARK    2  A    between atoms: C_9  and  C_12
REMARK                            x       y       z     vdW  Elec       q    Type
REMARK                         _______ _______ _______ _____ _____    ______ ____
ROOT
ATOM      1  C   UNL A   1     -23.251   1.301  26.928  0.00  0.00    +0.072 A 
ATOM      2  C   UNL A   1     -22.291   1.411  27.594  0.00  0.00    +0.005 A 
ATOM      3  C   UNL A   1     -22.003   0.819  28.897  0.00  0.00    +0.011 A 
ATOM      4  C   UNL A   1     -22.971  -0.041  29.425  0.00  0.00    +0.062 A 
ATOM      5  C   UNL A   1     -24.124  -0.212  28.679  0.00  0.00    +0.064 A 
ATOM      6  C   UNL A   1     -24.297   0.335  27.437  0.00  0.00    +0.009 A 
ATOM      7 CL   UNL A   1     -22.706  -0.753  30.927  0.00  0.00    -0.082 Cl
ENDROOT
BRANCH   5   8
ATOM      8  C   UNL A   1     -25.174  -1.186  29.266  0.00  0.00    +0.250 C 
ATOM      9  N   UNL A   1     -25.002  -2.446  29.249  0.00  0.00    -0.276 N 
ATOM     10  C   UNL A   1     -24.104  -3.045  28.473  0.00  0.00    +0.094 C 
ATOM     11  C   UNL A   1     -24.028  -4.528  28.522  0.00  0.00    +0.022 C 
ATOM     12  C   UNL A   1     -26.135  -3.276  29.527  0.00  0.00    +0.094 C 
ATOM     13  C   UNL A   1     -26.059  -4.683  29.670  0.00  0.00    +0.022 C 
ATOM     14  C   UNL A   1     -24.994  -5.261  29.094  0.00  0.00    +0.004 C 
ATOM     15  O   UNL A   1     -26.163  -0.580  29.785  0.00  0.00    -0.270 OA
ENDBRANCH   5   8
BRANCH   1  17
ATOM     16  F   UNL A   1     -24.081   2.806  25.718  0.00  0.00    -0.166 F 
ATOM     17  C   UNL A   1     -23.516   1.897  25.569  0.00  0.00    +0.419 C 
ATOM     18  F   UNL A   1     -24.047   1.094  24.835  0.00  0.00    -0.166 F 
ATOM     19  F   UNL A   1     -22.281   2.236  25.019  0.00  0.00    -0.166 F 
ENDBRANCH   1  17
TORSDOF 2
ENDMDL
ENDMDL
