MODEL 68
MODEL 1
REMARK VINA RESULT:    -6.536      0.000      0.000
REMARK INTER + INTRA:          -8.562
REMARK INTER:                  -8.065
REMARK INTRA:                  -0.497
REMARK UNBOUND:                -0.497
REMARK  Name = No_68-gen_results/8p0m/2024-11-27-11-27-31/
REMARK  4 active torsions:
REMARK  status: ('A' for Active; 'I' for Inactive)
REMARK    1  A    between atoms: C_1  and  O_15
REMARK    2  A    between atoms: C_3  and  C_7
REMARK    3  A    between atoms: O_15  and  C_16
REMARK    4  A    between atoms: C_16  and  C_18
REMARK                            x       y       z     vdW  Elec       q    Type
REMARK                         _______ _______ _______ _____ _____    ______ ____
ROOT
ATOM      1  C   UNL A   1     -10.875   1.556  35.506  0.00  0.00    +0.140 A 
ATOM      2  C   UNL A   1     -11.123   0.909  36.497  0.00  0.00    +0.037 A 
ATOM      3  C   UNL A   1     -10.354  -0.135  36.981  0.00  0.00    +0.004 A 
ATOM      4  C   UNL A   1      -9.160  -0.447  36.266  0.00  0.00    +0.012 A 
ATOM      5  C   UNL A   1      -8.826   0.385  35.266  0.00  0.00    +0.061 A 
ATOM      6  C   UNL A   1      -9.592   1.374  34.906  0.00  0.00    +0.048 A 
ATOM      7 CL   UNL A   1      -7.335   0.066  34.476  0.00  0.00    -0.082 Cl
ENDROOT
BRANCH   3   8
ATOM      8  C   UNL A   1     -10.779  -1.000  38.139  0.00  0.00    +0.001 A 
ATOM      9  C   UNL A   1     -10.103  -0.745  39.272  0.00  0.00    +0.011 A 
ATOM     10  C   UNL A   1     -10.349  -1.581  40.462  0.00  0.00    +0.058 A 
ATOM     11  C   UNL A   1     -11.526  -2.310  40.490  0.00  0.00    +0.011 A 
ATOM     12  C   UNL A   1     -11.869  -1.826  38.212  0.00  0.00    +0.000 A 
ATOM     13  C   UNL A   1     -12.174  -2.617  39.338  0.00  0.00    +0.001 A 
ATOM     14 CL   UNL A   1      -9.461  -1.261  41.904  0.00  0.00    -0.082 Cl
ENDBRANCH   3   8
BRANCH   1  15
ATOM     15  O   UNL A   1     -11.645   2.611  35.096  0.00  0.00    -0.471 OA
BRANCH  15  16
ATOM     16  C   UNL A   1     -12.945   2.306  34.668  0.00  0.00    +0.230 C 
ATOM     17  C   UNL A   1     -13.957   2.818  35.475  0.00  0.00    +0.056 C 
BRANCH  16  18
ATOM     18  C   UNL A   1     -13.042   1.548  33.519  0.00  0.00    +0.251 C 
ATOM     19  O   UNL A   1     -13.699   2.035  32.544  0.00  0.00    -0.284 OA
ENDBRANCH  16  18
ENDBRANCH  15  16
ENDBRANCH   1  15
TORSDOF 4
ENDMDL
ENDMDL
