REMARK  Name = No_690-gen_results/8p0m/2024-11-27-11-27-31/
REMARK  10 active torsions:
REMARK  status: ('A' for Active; 'I' for Inactive)
REMARK    1  A    between atoms: C_1  and  C_2
REMARK    2  A    between atoms: C_1  and  O_4
REMARK    3  A    between atoms: O_4  and  C_7
REMARK    4  A    between atoms: C_7  and  C_9
REMARK    5  A    between atoms: C_9  and  O_10
REMARK    6  A    between atoms: C_9  and  C_12
REMARK    7  A    between atoms: O_10  and  C_14
REMARK    8  A    between atoms: C_15  and  C_16
REMARK    9  A    between atoms: C_17  and  C_18
REMARK   10  A    between atoms: C_19  and  C_20
REMARK                            x       y       z     vdW  Elec       q    Type
REMARK                         _______ _______ _______ _____ _____    ______ ____
ROOT
ATOM      1  C   UNL A   1     -29.482  -2.112  31.020  0.00  0.00    +0.258 C 
ENDROOT
BRANCH   1   2
ATOM      2  C   UNL A   1     -29.584  -1.020  30.744  0.00  0.00    +0.314 C 
ATOM      3  O   UNL A   1     -29.691  -0.201  31.940  0.00  0.00    -0.186 OA
BRANCH   2   4
ATOM      4  O   UNL A   1     -28.488  -0.468  30.120  0.00  0.00    -0.291 OA
BRANCH   4   5
ATOM      5  C   UNL A   1     -28.016  -0.814  28.878  0.00  0.00    +0.376 C 
ATOM      6  F   UNL A   1     -28.096  -1.800  29.030  0.00  0.00    -0.194 F 
BRANCH   5   7
ATOM      7  C   UNL A   1     -27.064  -0.119  28.608  0.00  0.00    +0.456 C 
ATOM      8  F   UNL A   1     -27.043   0.244  27.428  0.00  0.00    -0.165 F 
ATOM      9  F   UNL A   1     -26.898   1.061  29.329  0.00  0.00    -0.165 F 
ATOM     10  F   UNL A   1     -25.853  -0.781  28.836  0.00  0.00    -0.165 F 
ENDBRANCH   5   7
ENDBRANCH   4   5
ENDBRANCH   2   4
ENDBRANCH   1   2
BRANCH   1  11
ATOM     11  C   UNL A   1     -28.370  -2.692  31.980  0.00  0.00    +0.231 C 
ATOM     12  O   UNL A   1     -27.435  -1.851  32.093  0.00  0.00    -0.216 OA
ENDBRANCH   1  11
BRANCH   1  13
ATOM     13  O   UNL A   1     -30.431  -2.689  31.781  0.00  0.00    -0.468 OA
BRANCH  13  14
ATOM     14  C   UNL A   1     -30.888  -3.970  31.465  0.00  0.00    +0.172 C 
ATOM     15  C   UNL A   1     -30.289  -4.835  30.815  0.00  0.00    +0.040 C 
BRANCH  15  16
ATOM     16  C   UNL A   1     -30.831  -6.100  30.449  0.00  0.00    +0.003 C 
ATOM     17  C   UNL A   1     -31.670  -6.146  29.491  0.00  0.00    +0.000 C 
BRANCH  17  18
ATOM     18  C   UNL A   1     -31.978  -4.996  28.751  0.00  0.00    -0.000 C 
ATOM     19  C   UNL A   1     -31.771  -4.807  27.724  0.00  0.00    -0.000 C 
BRANCH  19  20
ATOM     20  C   UNL A   1     -32.175  -3.688  26.802  0.00  0.00    -0.005 C 
ATOM     21  C   UNL A   1     -32.651  -2.565  27.484  0.00  0.00    -0.026 C 
ATOM     22  C   UNL A   1     -33.025  -1.415  26.805  0.00  0.00    +0.031 C 
ENDBRANCH  19  20
ENDBRANCH  17  18
ENDBRANCH  15  16
ENDBRANCH  13  14
ENDBRANCH   1  13
TORSDOF 10
