REMARK  Name = outputs/IAG933/test6/raw/output_6902_IAG933_linker_design_.xyz
REMARK  10 active torsions:
REMARK  status: ('A' for Active; 'I' for Inactive)
REMARK    1  A    between atoms: C_1  and  C_2
REMARK    2  A    between atoms: C_1  and  C_8
REMARK    3  A    between atoms: C_1  and  N_32
REMARK    4  A    between atoms: C_13  and  N_30
REMARK    5  A    between atoms: C_14  and  C_15
REMARK    6  A    between atoms: C_21  and  O_22
REMARK    7  A    between atoms: O_22  and  C_23
REMARK    8  A    between atoms: C_23  and  C_24
REMARK    9  A    between atoms: N_30  and  N_32
REMARK   10  A    between atoms: N_32  and  C_34
REMARK                            x       y       z     vdW  Elec       q    Type
REMARK                         _______ _______ _______ _____ _____    ______ ____
ROOT
ATOM      1  C   UNL A   1     -24.008   0.675  27.954  0.00  0.00    +0.301 C 
ATOM      2  N   UNL A   1     -25.247   1.075  27.761  0.00  0.00    -0.179 N 
ATOM      3  C   UNL A   1     -22.090   1.036  28.976  0.00  0.00    +0.177 C 
ATOM      4  N   UNL A   1     -23.058   0.030  28.773  0.00  0.00    -0.219 NA
ATOM      5  O   UNL A   1     -23.385   1.538  26.983  0.00  0.00    -0.447 OA
ATOM      6  C   UNL A   1     -21.843   1.558  27.564  0.00  0.00    +0.235 C 
ENDROOT
BRANCH   2   7
ATOM      7  C   UNL A   1     -25.688   1.614  26.461  0.00  0.00    +0.167 C 
ATOM      8  C   UNL A   1     -26.250   2.920  26.395  0.00  0.00    +0.075 C 
ATOM      9  C   UNL A   1     -27.438   3.091  25.645  0.00  0.00    +0.104 C 
ATOM     10  N   UNL A   1     -28.075   2.089  25.003  0.00  0.00    -0.212 NA
ATOM     11  C   UNL A   1     -27.543   0.849  25.079  0.00  0.00    +0.236 C 
ATOM     12  C   UNL A   1     -26.354   0.576  25.777  0.00  0.00    +0.260 C 
ATOM     13  F   UNL A   1     -25.860  -0.681  25.795  0.00  0.00    -0.225 F 
BRANCH   8  14
ATOM     14  C   UNL A   1     -25.642   4.093  27.123  0.00  0.00    +0.264 C 
ATOM     15  N   UNL A   1     -25.614   5.252  26.449  0.00  0.00    -0.200 NA
ATOM     16  C   UNL A   1     -25.026   6.479  26.963  0.00  0.00    +0.139 C 
ATOM     17  O   UNL A   1     -25.143   3.966  28.243  0.00  0.00    -0.269 OA
ENDBRANCH   8  14
BRANCH  11  18
ATOM     18  O   UNL A   1     -28.193  -0.208  24.477  0.00  0.00    -0.459 OA
BRANCH  18  19
ATOM     19  C   UNL A   1     -29.460   0.005  23.866  0.00  0.00    +0.242 C 
BRANCH  19  20
ATOM     20  C   UNL A   1     -30.065  -1.377  23.573  0.00  0.00    +0.229 C 
ATOM     21  O   UNL A   1     -30.729  -1.878  24.721  0.00  0.00    -0.216 OA
ENDBRANCH  19  20
ENDBRANCH  18  19
ENDBRANCH  11  18
ENDBRANCH   2   7
BRANCH   2  22
ATOM     22  N   UNL A   1     -25.458  -0.158  29.076  0.00  0.00    -0.187 N 
BRANCH  22  24
ATOM     23  C   UNL A   1     -28.067  -0.140  28.634  0.00  0.00    +0.115 C 
ATOM     24  C   UNL A   1     -26.866  -0.151  28.967  0.00  0.00    +0.051 C 
ATOM     25  O   UNL A   1     -29.140  -0.092  28.401  0.00  0.00    -0.127 OA
ENDBRANCH  22  24
BRANCH  22  26
ATOM     26  C   UNL A   1     -24.855  -1.012  30.143  0.00  0.00    +0.140 C 
BRANCH  26  27
ATOM     27  C   UNL A   1     -24.973  -2.505  29.788  0.00  0.00    -0.001 C 
ATOM     28  C   UNL A   1     -23.906  -3.173  29.146  0.00  0.00    -0.003 C 
ATOM     29  C   UNL A   1     -23.989  -4.549  28.853  0.00  0.00    -0.000 C 
ATOM     30  C   UNL A   1     -25.137  -5.280  29.205  0.00  0.00    -0.000 C 
ATOM     31  C   UNL A   1     -26.232  -4.611  29.784  0.00  0.00    -0.000 C 
ATOM     32  C   UNL A   1     -26.155  -3.232  30.065  0.00  0.00    -0.003 C 
ENDBRANCH  26  27
BRANCH  26  33
ATOM     33  C   UNL A   1     -25.387  -0.679  31.571  0.00  0.00    +0.098 C 
ATOM     34  C   UNL A   1     -25.189   0.773  32.028  0.00  0.00    +0.021 C 
ATOM     35  C   UNL A   1     -25.336   0.684  33.544  0.00  0.00    +0.020 C 
ATOM     36  C   UNL A   1     -24.829  -0.715  33.905  0.00  0.00    +0.089 C 
ATOM     37  N   UNL A   1     -24.758  -1.481  32.646  0.00  0.00    -0.217 NA
ENDBRANCH  26  33
ENDBRANCH  22  26
ENDBRANCH   2  22
TORSDOF 10
