REMARK  Name = outputs/IAG933/test6/raw/output_6908_IAG933_linker_design_.xyz
REMARK  13 active torsions:
REMARK  status: ('A' for Active; 'I' for Inactive)
REMARK    1  A    between atoms: C_1  and  C_2
REMARK    2  A    between atoms: C_1  and  C_8
REMARK    3  A    between atoms: C_1  and  N_41
REMARK    4  A    between atoms: C_13  and  C_34
REMARK    5  A    between atoms: C_14  and  C_15
REMARK    6  A    between atoms: C_21  and  O_22
REMARK    7  A    between atoms: O_22  and  C_23
REMARK    8  A    between atoms: C_23  and  C_24
REMARK    9  A    between atoms: C_30  and  C_33
REMARK   10  A    between atoms: C_30  and  C_40
REMARK   11  A    between atoms: O_36  and  C_38
REMARK   12  A    between atoms: C_37  and  N_41
REMARK   13  A    between atoms: C_40  and  N_41
REMARK                            x       y       z     vdW  Elec       q    Type
REMARK                         _______ _______ _______ _____ _____    ______ ____
ROOT
ATOM      1  C   UNL A   1     -23.433   0.012  28.027  0.00  0.00    +0.046 C 
ATOM      2  C   UNL A   1     -24.798   1.392  27.600  0.00  0.00    +0.049 C 
ATOM      3  C   UNL A   1     -24.909  -0.015  28.149  0.00  0.00    +0.063 C 
ATOM      4  C   UNL A   1     -23.395   1.321  27.232  0.00  0.00    +0.118 C 
ENDROOT
BRANCH   2   5
ATOM      5  C   UNL A   1     -25.688   1.614  26.461  0.00  0.00    +0.074 C 
ATOM      6  C   UNL A   1     -26.250   2.920  26.395  0.00  0.00    +0.055 C 
ATOM      7  C   UNL A   1     -27.438   3.091  25.645  0.00  0.00    +0.102 C 
ATOM      8  N   UNL A   1     -28.075   2.089  25.003  0.00  0.00    -0.212 NA
ATOM      9  C   UNL A   1     -27.543   0.849  25.079  0.00  0.00    +0.234 C 
ATOM     10  C   UNL A   1     -26.354   0.576  25.777  0.00  0.00    +0.240 C 
ATOM     11  F   UNL A   1     -25.860  -0.681  25.795  0.00  0.00    -0.227 F 
BRANCH   6  12
ATOM     12  C   UNL A   1     -25.642   4.093  27.123  0.00  0.00    +0.262 C 
ATOM     13  N   UNL A   1     -25.614   5.252  26.449  0.00  0.00    -0.200 NA
ATOM     14  C   UNL A   1     -25.026   6.479  26.963  0.00  0.00    +0.139 C 
ATOM     15  O   UNL A   1     -25.143   3.966  28.243  0.00  0.00    -0.269 OA
ENDBRANCH   6  12
BRANCH   9  16
ATOM     16  O   UNL A   1     -28.193  -0.208  24.477  0.00  0.00    -0.459 OA
BRANCH  16  17
ATOM     17  C   UNL A   1     -29.460   0.005  23.866  0.00  0.00    +0.242 C 
BRANCH  17  18
ATOM     18  C   UNL A   1     -30.065  -1.377  23.573  0.00  0.00    +0.229 C 
ATOM     19  O   UNL A   1     -30.729  -1.878  24.721  0.00  0.00    -0.216 OA
ENDBRANCH  17  18
ENDBRANCH  16  17
ENDBRANCH   9  16
ENDBRANCH   2   5
BRANCH   4  21
ATOM     20  C   UNL A   1     -21.067   1.456  27.947  0.00  0.00    +0.174 C 
ATOM     21  O   UNL A   1     -22.070   1.774  26.980  0.00  0.00    -0.353 OA
ENDBRANCH   4  21
BRANCH   3  22
ATOM     22  N   UNL A   1     -25.594  -0.198  29.250  0.00  0.00    -0.270 NA
BRANCH  22  23
ATOM     23  C   UNL A   1     -24.855  -1.012  30.143  0.00  0.00    +0.096 C 
BRANCH  23  24
ATOM     24  C   UNL A   1     -24.973  -2.505  29.788  0.00  0.00    -0.006 C 
ATOM     25  C   UNL A   1     -23.906  -3.173  29.146  0.00  0.00    -0.003 C 
ATOM     26  C   UNL A   1     -23.989  -4.549  28.853  0.00  0.00    -0.000 C 
ATOM     27  C   UNL A   1     -25.137  -5.280  29.205  0.00  0.00    -0.000 C 
ATOM     28  C   UNL A   1     -26.232  -4.611  29.784  0.00  0.00    -0.000 C 
ATOM     29  C   UNL A   1     -26.155  -3.232  30.065  0.00  0.00    -0.003 C 
ENDBRANCH  23  24
BRANCH  23  30
ATOM     30  C   UNL A   1     -25.387  -0.679  31.571  0.00  0.00    +0.092 C 
ATOM     31  C   UNL A   1     -25.189   0.773  32.028  0.00  0.00    +0.021 C 
ATOM     32  C   UNL A   1     -25.336   0.684  33.544  0.00  0.00    +0.020 C 
ATOM     33  C   UNL A   1     -24.829  -0.715  33.905  0.00  0.00    +0.089 C 
ATOM     34  N   UNL A   1     -24.758  -1.481  32.646  0.00  0.00    -0.218 NA
ENDBRANCH  23  30
ENDBRANCH  22  23
BRANCH  22  35
ATOM     35  C   UNL A   1     -26.673   0.780  29.489  0.00  0.00    +0.072 C 
BRANCH  35  36
ATOM     36  C   UNL A   1     -27.978   0.109  29.098  0.00  0.00    +0.017 C 
BRANCH  36  40
ATOM     37  C   UNL A   1     -29.189   2.874  31.101  0.00  0.00    +0.152 C 
ATOM     38  C   UNL A   1     -28.994   1.715  32.060  0.00  0.00    +0.033 C 
ATOM     39  C   UNL A   1     -29.291   0.445  31.284  0.00  0.00    +0.003 C 
ATOM     40  C   UNL A   1     -29.205   0.769  29.779  0.00  0.00    +0.004 C 
ATOM     41  C   UNL A   1     -29.071   2.299  29.693  0.00  0.00    +0.033 C 
ATOM     42  O   UNL A   1     -28.094   3.777  31.333  0.00  0.00    -0.223 OA
ENDBRANCH  36  40
ENDBRANCH  35  36
ENDBRANCH  22  35
ENDBRANCH   3  22
TORSDOF 13
