MODEL 690
MODEL 1
REMARK VINA RESULT:    -5.523      0.000      0.000
REMARK INTER + INTRA:         -10.084
REMARK INTER:                  -8.751
REMARK INTRA:                  -1.333
REMARK UNBOUND:                -1.333
REMARK  Name = No_690-gen_results/8p0m/2024-11-27-11-27-31/
REMARK  10 active torsions:
REMARK  status: ('A' for Active; 'I' for Inactive)
REMARK    1  A    between atoms: C_1  and  C_2
REMARK    2  A    between atoms: C_1  and  O_4
REMARK    3  A    between atoms: O_4  and  C_7
REMARK    4  A    between atoms: C_7  and  C_9
REMARK    5  A    between atoms: C_9  and  O_10
REMARK    6  A    between atoms: C_9  and  C_12
REMARK    7  A    between atoms: O_10  and  C_14
REMARK    8  A    between atoms: C_15  and  C_16
REMARK    9  A    between atoms: C_17  and  C_18
REMARK   10  A    between atoms: C_19  and  C_20
REMARK                            x       y       z     vdW  Elec       q    Type
REMARK                         _______ _______ _______ _____ _____    ______ ____
ROOT
ATOM      1  C   UNL A   1     -24.415  -0.197  31.249  0.00  0.00    +0.258 C 
ENDROOT
BRANCH   1   2
ATOM      2  C   UNL A   1     -23.510  -0.833  31.014  0.00  0.00    +0.314 C 
ATOM      3  O   UNL A   1     -22.794  -1.169  32.233  0.00  0.00    -0.186 OA
BRANCH   2   4
ATOM      4  O   UNL A   1     -23.786  -2.078  30.495  0.00  0.00    -0.291 OA
BRANCH   4   5
ATOM      5  C   UNL A   1     -23.599  -2.460  29.190  0.00  0.00    +0.376 C 
ATOM      6  F   UNL A   1     -22.950  -1.727  28.980  0.00  0.00    -0.194 F 
BRANCH   5   7
ATOM      7  C   UNL A   1     -24.668  -2.747  28.703  0.00  0.00    +0.456 C 
ATOM      8  F   UNL A   1     -24.653  -3.818  28.088  0.00  0.00    -0.165 F 
ATOM      9  F   UNL A   1     -25.759  -2.864  29.560  0.00  0.00    -0.165 F 
ATOM     10  F   UNL A   1     -25.105  -1.778  27.793  0.00  0.00    -0.165 F 
ENDBRANCH   5   7
ENDBRANCH   4   5
ENDBRANCH   2   4
ENDBRANCH   1   2
BRANCH   1  11
ATOM     11  C   UNL A   1     -24.974   0.060  32.703  0.00  0.00    +0.231 C 
ATOM     12  O   UNL A   1     -26.122  -0.456  32.807  0.00  0.00    -0.216 OA
ENDBRANCH   1  11
BRANCH   1  13
ATOM     13  O   UNL A   1     -24.356   1.132  31.044  0.00  0.00    -0.468 OA
BRANCH  13  14
ATOM     14  C   UNL A   1     -23.554   1.640  30.019  0.00  0.00    +0.172 C 
ATOM     15  C   UNL A   1     -23.726   1.504  28.802  0.00  0.00    +0.040 C 
BRANCH  15  16
ATOM     16  C   UNL A   1     -22.834   1.972  27.796  0.00  0.00    +0.003 C 
ATOM     17  C   UNL A   1     -23.098   1.705  26.579  0.00  0.00    +0.000 C 
BRANCH  17  18
ATOM     18  C   UNL A   1     -24.288   1.051  26.230  0.00  0.00    -0.000 C 
ATOM     19  C   UNL A   1     -24.560   0.656  25.279  0.00  0.00    -0.000 C 
BRANCH  19  20
ATOM     20  C   UNL A   1     -25.729  -0.179  24.830  0.00  0.00    -0.005 C 
ATOM     21  C   UNL A   1     -26.914   0.555  24.724  0.00  0.00    -0.026 C 
ATOM     22  C   UNL A   1     -28.087  -0.033  24.277  0.00  0.00    +0.031 C 
ENDBRANCH  19  20
ENDBRANCH  17  18
ENDBRANCH  15  16
ENDBRANCH  13  14
ENDBRANCH   1  13
TORSDOF 10
ENDMDL
ENDMDL
