REMARK  Name = outputs/IAG933/test6/raw/output_6913_IAG933_linker_design_.xyz
REMARK  12 active torsions:
REMARK  status: ('A' for Active; 'I' for Inactive)
REMARK    1  A    between atoms: C_1  and  C_2
REMARK    2  A    between atoms: C_1  and  C_8
REMARK    3  A    between atoms: C_13  and  C_40
REMARK    4  A    between atoms: C_14  and  C_15
REMARK    5  A    between atoms: C_21  and  O_22
REMARK    6  A    between atoms: O_22  and  C_23
REMARK    7  A    between atoms: C_23  and  C_24
REMARK    8  A    between atoms: C_28  and  C_34
REMARK    9  A    between atoms: C_31  and  N_36
REMARK   10  A    between atoms: C_35  and  O_44
REMARK   11  A    between atoms: C_35  and  N_45
REMARK   12  A    between atoms: O_37  and  O_44
REMARK                            x       y       z     vdW  Elec       q    Type
REMARK                         _______ _______ _______ _____ _____    ______ ____
ROOT
ATOM      1  C   UNL A   1     -24.855  -1.012  30.143  0.00  0.00    +0.097 C 
ATOM      2  C   UNL A   1     -24.966   0.626  29.108  0.00  0.00    +0.099 C 
ATOM      3  N   UNL A   1     -25.916  -0.424  29.187  0.00  0.00    -0.265 NA
ENDROOT
BRANCH   1   4
ATOM      4  C   UNL A   1     -24.973  -2.505  29.788  0.00  0.00    -0.006 C 
ATOM      5  C   UNL A   1     -23.906  -3.173  29.146  0.00  0.00    -0.003 C 
ATOM      6  C   UNL A   1     -23.989  -4.549  28.853  0.00  0.00    -0.000 C 
ATOM      7  C   UNL A   1     -25.137  -5.280  29.205  0.00  0.00    -0.000 C 
ATOM      8  C   UNL A   1     -26.232  -4.611  29.784  0.00  0.00    -0.000 C 
ATOM      9  C   UNL A   1     -26.155  -3.232  30.065  0.00  0.00    -0.003 C 
ENDBRANCH   1   4
BRANCH   2  10
ATOM     10  C   UNL A   1     -23.919   0.793  28.128  0.00  0.00    -0.010 C 
ATOM     11  C   UNL A   1     -23.210   1.679  26.002  0.00  0.00    -0.004 C 
ATOM     12  C   UNL A   1     -22.585   0.686  28.515  0.00  0.00    -0.003 C 
ATOM     13  C   UNL A   1     -21.580   1.154  27.667  0.00  0.00    -0.000 C 
ATOM     14  C   UNL A   1     -24.267   1.372  26.859  0.00  0.00    -0.018 C 
ATOM     15  C   UNL A   1     -21.897   1.628  26.404  0.00  0.00    -0.000 C 
BRANCH  14  16
ATOM     16  C   UNL A   1     -25.688   1.614  26.461  0.00  0.00    +0.092 C 
ATOM     17  C   UNL A   1     -26.250   2.920  26.395  0.00  0.00    +0.059 C 
ATOM     18  C   UNL A   1     -27.438   3.091  25.645  0.00  0.00    +0.102 C 
ATOM     19  N   UNL A   1     -28.075   2.089  25.003  0.00  0.00    -0.212 NA
ATOM     20  C   UNL A   1     -27.543   0.849  25.079  0.00  0.00    +0.234 C 
ATOM     21  C   UNL A   1     -26.354   0.576  25.777  0.00  0.00    +0.244 C 
ATOM     22  F   UNL A   1     -25.860  -0.681  25.795  0.00  0.00    -0.227 F 
BRANCH  17  23
ATOM     23  C   UNL A   1     -25.642   4.093  27.123  0.00  0.00    +0.263 C 
ATOM     24  N   UNL A   1     -25.614   5.252  26.449  0.00  0.00    -0.200 NA
ATOM     25  C   UNL A   1     -25.026   6.479  26.963  0.00  0.00    +0.139 C 
ATOM     26  O   UNL A   1     -25.143   3.966  28.243  0.00  0.00    -0.269 OA
ENDBRANCH  17  23
BRANCH  20  27
ATOM     27  O   UNL A   1     -28.193  -0.208  24.477  0.00  0.00    -0.459 OA
BRANCH  27  28
ATOM     28  C   UNL A   1     -29.460   0.005  23.866  0.00  0.00    +0.242 C 
BRANCH  28  29
ATOM     29  C   UNL A   1     -30.065  -1.377  23.573  0.00  0.00    +0.229 C 
ATOM     30  O   UNL A   1     -30.729  -1.878  24.721  0.00  0.00    -0.216 OA
ENDBRANCH  28  29
ENDBRANCH  27  28
ENDBRANCH  20  27
ENDBRANCH  14  16
ENDBRANCH   2  10
BRANCH   3  32
ATOM     31  C   UNL A   1     -27.685   1.347  28.969  0.00  0.00    +0.019 C 
ATOM     32  C   UNL A   1     -27.419  -0.078  28.747  0.00  0.00    +0.074 C 
ATOM     33  C   UNL A   1     -28.983   1.694  28.235  0.00  0.00    +0.019 C 
ATOM     34  C   UNL A   1     -30.099   0.691  28.500  0.00  0.00    +0.074 C 
ATOM     35  C   UNL A   1     -28.548  -0.978  29.190  0.00  0.00    +0.090 C 
ATOM     36  N   UNL A   1     -29.774  -0.280  29.466  0.00  0.00    -0.244 NA
BRANCH  36  37
ATOM     37  C   UNL A   1     -30.245  -0.151  30.874  0.00  0.00    +0.259 C 
BRANCH  37  38
ATOM     38  O   UNL A   1     -30.481  -1.285  31.803  0.00  0.00    -0.202 OA
BRANCH  38  40
ATOM     39  C   UNL A   1     -31.839  -2.466  30.429  0.00  0.00    +0.217 C 
ATOM     40  O   UNL A   1     -30.584  -2.457  31.090  0.00  0.00    -0.216 OA
ENDBRANCH  38  40
ENDBRANCH  37  38
ENDBRANCH  36  37
ENDBRANCH   3  32
BRANCH   1  41
ATOM     41  C   UNL A   1     -25.387  -0.679  31.571  0.00  0.00    +0.092 C 
ATOM     42  C   UNL A   1     -25.189   0.773  32.028  0.00  0.00    +0.021 C 
ATOM     43  C   UNL A   1     -25.336   0.684  33.544  0.00  0.00    +0.020 C 
ATOM     44  C   UNL A   1     -24.829  -0.715  33.905  0.00  0.00    +0.089 C 
ATOM     45  N   UNL A   1     -24.758  -1.481  32.646  0.00  0.00    -0.218 NA
ENDBRANCH   1  41
TORSDOF 12
