REMARK  Name = outputs/IAG933/test6/raw/output_6916_IAG933_linker_design_.xyz
REMARK  8 active torsions:
REMARK  status: ('A' for Active; 'I' for Inactive)
REMARK    1  A    between atoms: C_1  and  C_2
REMARK    2  A    between atoms: C_13  and  N_32
REMARK    3  A    between atoms: C_14  and  C_15
REMARK    4  A    between atoms: C_21  and  O_22
REMARK    5  A    between atoms: O_22  and  C_23
REMARK    6  A    between atoms: C_23  and  C_24
REMARK    7  A    between atoms: C_30  and  C_34
REMARK    8  A    between atoms: C_33  and  O_39
REMARK                            x       y       z     vdW  Elec       q    Type
REMARK                         _______ _______ _______ _____ _____    ______ ____
ROOT
ATOM      1  C   UNL A   1     -24.855  -1.012  30.143  0.00  0.00    +0.040 C 
ATOM      2  C   UNL A   1     -25.387  -0.679  31.571  0.00  0.00    +0.077 C 
ATOM      3  C   UNL A   1     -25.189   0.773  32.028  0.00  0.00    +0.020 C 
ATOM      4  C   UNL A   1     -25.336   0.684  33.544  0.00  0.00    +0.020 C 
ATOM      5  C   UNL A   1     -24.829  -0.715  33.905  0.00  0.00    +0.089 C 
ATOM      6  N   UNL A   1     -24.758  -1.481  32.646  0.00  0.00    -0.219 NA
ATOM      7  C   UNL A   1     -23.428   1.801  26.757  0.00  0.00    +0.260 C 
ATOM      8  C   UNL A   1     -25.333   2.290  31.531  0.00  0.00    +0.034 C 
ATOM      9  C   UNL A   1     -24.328   1.496  29.240  0.00  0.00    +0.005 C 
ATOM     10  N   UNL A   1     -24.624   1.204  26.942  0.00  0.00    -0.254 N 
ATOM     11  C   UNL A   1     -22.486   1.419  27.762  0.00  0.00    +0.233 C 
ATOM     12  C   UNL A   1     -25.172   0.138  29.013  0.00  0.00    +0.026 C 
ATOM     13  C   UNL A   1     -24.641  -0.102  27.486  0.00  0.00    +0.099 C 
ATOM     14  O   UNL A   1     -23.112   2.565  25.752  0.00  0.00    -0.272 OA
ATOM     15  C   UNL A   1     -22.840   1.169  29.100  0.00  0.00    +0.043 C 
ATOM     16  C   UNL A   1     -24.616   2.433  30.307  0.00  0.00    +0.003 C 
ENDROOT
BRANCH  10  17
ATOM     17  C   UNL A   1     -25.688   1.614  26.461  0.00  0.00    +0.092 C 
ATOM     18  C   UNL A   1     -26.250   2.920  26.395  0.00  0.00    +0.090 C 
ATOM     19  C   UNL A   1     -27.438   3.091  25.645  0.00  0.00    +0.108 C 
ATOM     20  N   UNL A   1     -28.075   2.089  25.003  0.00  0.00    -0.208 NA
ATOM     21  C   UNL A   1     -27.543   0.849  25.079  0.00  0.00    +0.255 C 
ATOM     22  C   UNL A   1     -26.354   0.576  25.777  0.00  0.00    +0.207 C 
ATOM     23  F   UNL A   1     -25.860  -0.681  25.795  0.00  0.00    -0.198 F 
BRANCH  18  24
ATOM     24  C   UNL A   1     -25.642   4.093  27.123  0.00  0.00    +0.268 C 
ATOM     25  N   UNL A   1     -25.614   5.252  26.449  0.00  0.00    -0.200 NA
ATOM     26  C   UNL A   1     -25.026   6.479  26.963  0.00  0.00    +0.139 C 
ATOM     27  O   UNL A   1     -25.143   3.966  28.243  0.00  0.00    -0.268 OA
ENDBRANCH  18  24
BRANCH  21  28
ATOM     28  O   UNL A   1     -28.193  -0.208  24.477  0.00  0.00    -0.456 OA
BRANCH  28  29
ATOM     29  C   UNL A   1     -29.460   0.005  23.866  0.00  0.00    +0.243 C 
BRANCH  29  30
ATOM     30  C   UNL A   1     -30.065  -1.377  23.573  0.00  0.00    +0.229 C 
ATOM     31  O   UNL A   1     -30.729  -1.878  24.721  0.00  0.00    -0.216 OA
ENDBRANCH  29  30
ENDBRANCH  28  29
ENDBRANCH  21  28
ENDBRANCH  10  17
BRANCH   1  32
ATOM     32  C   UNL A   1     -24.973  -2.505  29.788  0.00  0.00    -0.021 C 
ATOM     33  C   UNL A   1     -23.906  -3.173  29.146  0.00  0.00    -0.004 C 
ATOM     34  C   UNL A   1     -23.989  -4.549  28.853  0.00  0.00    -0.000 C 
ATOM     35  C   UNL A   1     -25.137  -5.280  29.205  0.00  0.00    -0.000 C 
ATOM     36  C   UNL A   1     -26.232  -4.611  29.784  0.00  0.00    -0.000 C 
ATOM     37  C   UNL A   1     -26.155  -3.232  30.065  0.00  0.00    -0.004 C 
ENDBRANCH   1  32
BRANCH  11  39
ATOM     38  F   UNL A   1     -20.303   1.509  28.113  0.00  0.00    -0.046 F 
ATOM     39  O   UNL A   1     -21.281   1.327  27.332  0.00  0.00    -0.173 OA
ENDBRANCH  11  39
BRANCH   8  40
ATOM     40  C   UNL A   1     -25.702   3.991  31.508  0.00  0.00    +0.182 C 
ATOM     41  O   UNL A   1     -24.718   4.625  32.373  0.00  0.00    -0.220 OA
ENDBRANCH   8  40
TORSDOF 8
