MODEL 691
MODEL 1
REMARK VINA RESULT:    -6.069      0.000      0.000
REMARK INTER + INTRA:          -8.041
REMARK INTER:                  -7.488
REMARK INTRA:                  -0.553
REMARK UNBOUND:                -0.553
REMARK  Name = No_691-gen_results/8p0m/2024-11-27-11-27-31/
REMARK  4 active torsions:
REMARK  status: ('A' for Active; 'I' for Inactive)
REMARK    1  A    between atoms: C_3  and  C_8
REMARK    2  A    between atoms: C_6  and  O_7
REMARK    3  A    between atoms: O_7  and  C_14
REMARK    4  A    between atoms: C_14  and  C_15
REMARK                            x       y       z     vdW  Elec       q    Type
REMARK                         _______ _______ _______ _____ _____    ______ ____
ROOT
ATOM      1  C   UNL A   1     -29.417  -9.861  32.719  0.00  0.00    +0.037 A 
ATOM      2  C   UNL A   1     -29.755  -9.966  31.563  0.00  0.00    +0.003 A 
ATOM      3  C   UNL A   1     -29.262 -10.943  30.700  0.00  0.00    +0.000 A 
ATOM      4  C   UNL A   1     -28.244 -11.859  31.178  0.00  0.00    +0.003 A 
ATOM      5  C   UNL A   1     -27.892 -11.671  32.534  0.00  0.00    +0.037 A 
ATOM      6  C   UNL A   1     -28.408 -10.717  33.267  0.00  0.00    +0.139 A 
ENDROOT
BRANCH   3   7
ATOM      7  C   UNL A   1     -29.634 -11.135  29.260  0.00  0.00    +0.000 A 
ATOM      8  C   UNL A   1     -28.938 -11.963  28.492  0.00  0.00    +0.000 A 
ATOM      9  C   UNL A   1     -29.252 -12.076  27.091  0.00  0.00    +0.000 A 
ATOM     10  C   UNL A   1     -30.190 -11.274  26.489  0.00  0.00    +0.000 A 
ATOM     11  C   UNL A   1     -30.572 -10.278  28.621  0.00  0.00    +0.000 A 
ATOM     12  C   UNL A   1     -30.863 -10.371  27.236  0.00  0.00    +0.000 A 
ENDBRANCH   3   7
BRANCH   6  13
ATOM     13  O   UNL A   1     -27.953 -10.598  34.550  0.00  0.00    -0.464 OA
BRANCH  13  14
ATOM     14  C   UNL A   1     -26.898  -9.786  34.901  0.00  0.00    +0.319 C 
BRANCH  14  15
ATOM     15  C   UNL A   1     -27.325  -8.668  35.638  0.00  0.00    +0.408 C 
ATOM     16  O   UNL A   1     -28.406  -8.539  36.086  0.00  0.00    -0.241 OA
ATOM     17  O   UNL A   1     -26.369  -7.751  35.981  0.00  0.00    -0.241 OA
ENDBRANCH  14  15
ENDBRANCH  13  14
ENDBRANCH   6  13
TORSDOF 4
ENDMDL
ENDMDL
