REMARK  Name = outputs/IAG933/test6/raw/output_6921_IAG933_linker_design_.xyz
REMARK  16 active torsions:
REMARK  status: ('A' for Active; 'I' for Inactive)
REMARK    1  A    between atoms: C_1  and  C_2
REMARK    2  A    between atoms: C_1  and  C_8
REMARK    3  A    between atoms: C_1  and  C_33
REMARK    4  A    between atoms: C_13  and  C_43
REMARK    5  A    between atoms: C_14  and  C_15
REMARK    6  A    between atoms: C_21  and  O_22
REMARK    7  A    between atoms: O_22  and  C_23
REMARK    8  A    between atoms: C_23  and  C_24
REMARK    9  A    between atoms: C_28  and  C_38
REMARK   10  A    between atoms: C_31  and  C_42
REMARK   11  A    between atoms: C_33  and  N_34
REMARK   12  A    between atoms: C_33  and  C_40
REMARK   13  A    between atoms: N_34  and  C_43
REMARK   14  A    between atoms: C_38  and  C_43
REMARK   15  A    between atoms: C_40  and  C_41
REMARK   16  A    between atoms: C_41  and  C_42
REMARK                            x       y       z     vdW  Elec       q    Type
REMARK                         _______ _______ _______ _____ _____    ______ ____
ROOT
ATOM      1  C   UNL A   1     -26.012  -0.215  29.369  0.00  0.00    +0.086 C 
ENDROOT
BRANCH   1   2
ATOM      2  C   UNL A   1     -24.855  -1.012  30.143  0.00  0.00    +0.055 C 
BRANCH   2   3
ATOM      3  C   UNL A   1     -24.973  -2.505  29.788  0.00  0.00    -0.020 C 
ATOM      4  C   UNL A   1     -23.906  -3.173  29.146  0.00  0.00    -0.004 C 
ATOM      5  C   UNL A   1     -23.989  -4.549  28.853  0.00  0.00    -0.000 C 
ATOM      6  C   UNL A   1     -25.137  -5.280  29.205  0.00  0.00    -0.000 C 
ATOM      7  C   UNL A   1     -26.232  -4.611  29.784  0.00  0.00    -0.000 C 
ATOM      8  C   UNL A   1     -26.155  -3.232  30.065  0.00  0.00    -0.004 C 
ENDBRANCH   2   3
BRANCH   2   9
ATOM      9  C   UNL A   1     -25.387  -0.679  31.571  0.00  0.00    +0.078 C 
ATOM     10  C   UNL A   1     -25.189   0.773  32.028  0.00  0.00    +0.019 C 
ATOM     11  C   UNL A   1     -25.336   0.684  33.544  0.00  0.00    +0.020 C 
ATOM     12  C   UNL A   1     -24.829  -0.715  33.905  0.00  0.00    +0.089 C 
ATOM     13  N   UNL A   1     -24.758  -1.481  32.646  0.00  0.00    -0.219 NA
ENDBRANCH   2   9
ENDBRANCH   1   2
BRANCH   1  14
ATOM     14  N   UNL A   1     -25.284   0.909  28.816  0.00  0.00    -0.218 NA
BRANCH  14  15
ATOM     15  C   UNL A   1     -24.785   1.278  27.520  0.00  0.00    +0.102 C 
BRANCH  15  16
ATOM     16  C   UNL A   1     -25.688   1.614  26.461  0.00  0.00    +0.088 C 
ATOM     17  C   UNL A   1     -26.250   2.920  26.395  0.00  0.00    +0.056 C 
ATOM     18  C   UNL A   1     -27.438   3.091  25.645  0.00  0.00    +0.102 C 
ATOM     19  N   UNL A   1     -28.075   2.089  25.003  0.00  0.00    -0.212 NA
ATOM     20  C   UNL A   1     -27.543   0.849  25.079  0.00  0.00    +0.234 C 
ATOM     21  C   UNL A   1     -26.354   0.576  25.777  0.00  0.00    +0.241 C 
ATOM     22  F   UNL A   1     -25.860  -0.681  25.795  0.00  0.00    -0.227 F 
BRANCH  17  23
ATOM     23  C   UNL A   1     -25.642   4.093  27.123  0.00  0.00    +0.263 C 
ATOM     24  N   UNL A   1     -25.614   5.252  26.449  0.00  0.00    -0.200 NA
ATOM     25  C   UNL A   1     -25.026   6.479  26.963  0.00  0.00    +0.139 C 
ATOM     26  O   UNL A   1     -25.143   3.966  28.243  0.00  0.00    -0.269 OA
ENDBRANCH  17  23
BRANCH  20  27
ATOM     27  O   UNL A   1     -28.193  -0.208  24.477  0.00  0.00    -0.459 OA
BRANCH  27  28
ATOM     28  C   UNL A   1     -29.460   0.005  23.866  0.00  0.00    +0.242 C 
BRANCH  28  29
ATOM     29  C   UNL A   1     -30.065  -1.377  23.573  0.00  0.00    +0.229 C 
ATOM     30  O   UNL A   1     -30.729  -1.878  24.721  0.00  0.00    -0.216 OA
ENDBRANCH  28  29
ENDBRANCH  27  28
ENDBRANCH  20  27
ENDBRANCH  15  16
BRANCH  15  32
ATOM     31 CL   UNL A   1     -22.875   2.119  25.729  0.00  0.00    -0.105 Cl
ATOM     32  C   UNL A   1     -23.522   1.463  27.217  0.00  0.00    +0.153 C 
BRANCH  32  33
ATOM     33  C   UNL A   1     -22.555   0.754  28.049  0.00  0.00    +0.167 C 
ATOM     34  O   UNL A   1     -22.822  -0.119  28.930  0.00  0.00    -0.295 OA
ATOM     35  C   UNL A   1     -21.106   1.333  27.878  0.00  0.00    +0.074 C 
ENDBRANCH  32  33
ENDBRANCH  15  32
ENDBRANCH  14  15
ENDBRANCH   1  14
BRANCH   1  36
ATOM     36  C   UNL A   1     -27.396   0.659  29.584  0.00  0.00    +0.085 C 
BRANCH  36  38
ATOM     37  O   UNL A   1     -29.279   1.950  28.780  0.00  0.00    -0.293 OA
ATOM     38  C   UNL A   1     -28.830   0.845  28.963  0.00  0.00    +0.185 C 
BRANCH  38  40
ATOM     39  O   UNL A   1     -29.096  -1.393  29.959  0.00  0.00    -0.212 OA
ATOM     40  C   UNL A   1     -29.583  -0.534  28.920  0.00  0.00    +0.236 C 
BRANCH  40  42
ATOM     41  O   UNL A   1     -30.954  -1.657  27.433  0.00  0.00    -0.223 OA
ATOM     42  C   UNL A   1     -31.034  -0.864  28.617  0.00  0.00    +0.161 C 
ATOM     43  C   UNL A   1     -32.006   0.330  28.256  0.00  0.00    +0.036 C 
ATOM     44  C   UNL A   1     -31.657  -1.500  29.881  0.00  0.00    +0.036 C 
ENDBRANCH  40  42
ENDBRANCH  38  40
ENDBRANCH  36  38
ENDBRANCH   1  36
TORSDOF 16
