REMARK  Name = outputs/IAG933/test6/raw/output_6924_IAG933_linker_design_.xyz
REMARK  13 active torsions:
REMARK  status: ('A' for Active; 'I' for Inactive)
REMARK    1  A    between atoms: C_1  and  C_2
REMARK    2  A    between atoms: C_1  and  C_8
REMARK    3  A    between atoms: C_1  and  C_31
REMARK    4  A    between atoms: C_13  and  C_38
REMARK    5  A    between atoms: C_14  and  C_15
REMARK    6  A    between atoms: C_21  and  O_22
REMARK    7  A    between atoms: O_22  and  C_23
REMARK    8  A    between atoms: C_23  and  C_24
REMARK    9  A    between atoms: C_30  and  O_32
REMARK   10  A    between atoms: C_31  and  N_35
REMARK   11  A    between atoms: C_31  and  C_41
REMARK   12  A    between atoms: O_32  and  C_39
REMARK   13  A    between atoms: C_33  and  C_41
REMARK                            x       y       z     vdW  Elec       q    Type
REMARK                         _______ _______ _______ _____ _____    ______ ____
ROOT
ATOM      1  C   UNL A   1     -23.389   2.152  25.808  0.00  0.00    +0.013 C 
ATOM      2  C   UNL A   1     -21.108   1.337  27.832  0.00  0.00    +0.345 C 
ATOM      3  C   UNL A   1     -22.223   0.781  28.362  0.00  0.00    +0.220 C 
ATOM      4  C   UNL A   1     -23.659   1.129  27.966  0.00  0.00    +0.059 C 
ATOM      5  O   UNL A   1     -19.872   1.303  28.443  0.00  0.00    -0.247 OA
ATOM      6  C   UNL A   1     -24.253   1.608  26.750  0.00  0.00    -0.035 C 
ATOM      7  C   UNL A   1     -22.022   2.315  25.893  0.00  0.00    +0.234 C 
ATOM      8  O   UNL A   1     -21.131   1.811  26.686  0.00  0.00    -0.442 OA
ENDROOT
BRANCH   6   9
ATOM      9  C   UNL A   1     -25.688   1.614  26.461  0.00  0.00    +0.088 C 
ATOM     10  C   UNL A   1     -26.250   2.920  26.395  0.00  0.00    +0.059 C 
ATOM     11  C   UNL A   1     -27.438   3.091  25.645  0.00  0.00    +0.102 C 
ATOM     12  N   UNL A   1     -28.075   2.089  25.003  0.00  0.00    -0.212 NA
ATOM     13  C   UNL A   1     -27.543   0.849  25.079  0.00  0.00    +0.234 C 
ATOM     14  C   UNL A   1     -26.354   0.576  25.777  0.00  0.00    +0.244 C 
ATOM     15  F   UNL A   1     -25.860  -0.681  25.795  0.00  0.00    -0.227 F 
BRANCH  10  16
ATOM     16  C   UNL A   1     -25.642   4.093  27.123  0.00  0.00    +0.263 C 
ATOM     17  N   UNL A   1     -25.614   5.252  26.449  0.00  0.00    -0.200 NA
ATOM     18  C   UNL A   1     -25.026   6.479  26.963  0.00  0.00    +0.139 C 
ATOM     19  O   UNL A   1     -25.143   3.966  28.243  0.00  0.00    -0.269 OA
ENDBRANCH  10  16
BRANCH  13  20
ATOM     20  O   UNL A   1     -28.193  -0.208  24.477  0.00  0.00    -0.459 OA
BRANCH  20  21
ATOM     21  C   UNL A   1     -29.460   0.005  23.866  0.00  0.00    +0.242 C 
BRANCH  21  22
ATOM     22  C   UNL A   1     -30.065  -1.377  23.573  0.00  0.00    +0.229 C 
ATOM     23  O   UNL A   1     -30.729  -1.878  24.721  0.00  0.00    -0.216 OA
ENDBRANCH  21  22
ENDBRANCH  20  21
ENDBRANCH  13  20
ENDBRANCH   6   9
BRANCH   3  24
ATOM     24  O   UNL A   1     -22.347  -0.598  28.974  0.00  0.00    -0.315 OA
BRANCH  24  26
ATOM     25  O   UNL A   1     -20.788  -1.132  28.140  0.00  0.00    -0.184 OA
ATOM     26  C   UNL A   1     -21.370  -0.725  29.210  0.00  0.00    +0.329 C 
ENDBRANCH  24  26
ENDBRANCH   3  24
BRANCH   4  27
ATOM     27  C   UNL A   1     -24.193   0.934  29.010  0.00  0.00    +0.029 C 
BRANCH  27  28
ATOM     28  C   UNL A   1     -25.440   0.011  29.065  0.00  0.00    +0.104 C 
BRANCH  28  30
ATOM     29  O   UNL A   1     -28.267   0.894  30.340  0.00  0.00    -0.221 OA
ATOM     30  N   UNL A   1     -26.483   0.956  28.978  0.00  0.00    -0.167 NA
ATOM     31  C   UNL A   1     -27.619   0.369  29.406  0.00  0.00    +0.463 C 
ATOM     32  O   UNL A   1     -27.993  -0.625  28.795  0.00  0.00    -0.221 OA
ENDBRANCH  28  30
BRANCH  28  33
ATOM     33  C   UNL A   1     -24.855  -1.012  30.143  0.00  0.00    +0.058 C 
BRANCH  33  34
ATOM     34  C   UNL A   1     -24.973  -2.505  29.788  0.00  0.00    -0.019 C 
ATOM     35  C   UNL A   1     -23.906  -3.173  29.146  0.00  0.00    -0.004 C 
ATOM     36  C   UNL A   1     -23.989  -4.549  28.853  0.00  0.00    -0.000 C 
ATOM     37  C   UNL A   1     -25.137  -5.280  29.205  0.00  0.00    -0.000 C 
ATOM     38  C   UNL A   1     -26.232  -4.611  29.784  0.00  0.00    -0.000 C 
ATOM     39  C   UNL A   1     -26.155  -3.232  30.065  0.00  0.00    -0.004 C 
ENDBRANCH  33  34
BRANCH  33  40
ATOM     40  C   UNL A   1     -25.387  -0.679  31.571  0.00  0.00    +0.079 C 
ATOM     41  C   UNL A   1     -25.189   0.773  32.028  0.00  0.00    +0.019 C 
ATOM     42  C   UNL A   1     -25.336   0.684  33.544  0.00  0.00    +0.020 C 
ATOM     43  C   UNL A   1     -24.829  -0.715  33.905  0.00  0.00    +0.089 C 
ATOM     44  N   UNL A   1     -24.758  -1.481  32.646  0.00  0.00    -0.219 NA
ENDBRANCH  33  40
ENDBRANCH  28  33
ENDBRANCH  27  28
ENDBRANCH   4  27
TORSDOF 13
