MODEL 692
MODEL 1
REMARK VINA RESULT:    -8.520      0.000      0.000
REMARK INTER + INTRA:          -9.671
REMARK INTER:                 -11.010
REMARK INTRA:                   1.339
REMARK UNBOUND:                 1.339
REMARK  Name = No_692-gen_results/8p0m/2024-11-27-11-27-31/
REMARK  5 active torsions:
REMARK  status: ('A' for Active; 'I' for Inactive)
REMARK    1  A    between atoms: C_1  and  C_6
REMARK    2  A    between atoms: C_5  and  C_10
REMARK    3  A    between atoms: N_12  and  C_13
REMARK    4  A    between atoms: C_17  and  C_20
REMARK    5  A    between atoms: C_19  and  C_23
REMARK                            x       y       z     vdW  Elec       q    Type
REMARK                         _______ _______ _______ _____ _____    ______ ____
ROOT
ATOM      1  C   UNL A   1     -25.215   0.014  30.131  0.00  0.00    +0.259 C 
ATOM      2  O   UNL A   1     -25.041   1.043  29.602  0.00  0.00    -0.269 OA
ATOM      3  N   UNL A   1     -24.636  -1.081  29.630  0.00  0.00    -0.201 N 
ATOM      4  C   UNL A   1     -23.441  -0.796  28.831  0.00  0.00    +0.259 C 
ATOM      5  O   UNL A   1     -22.392  -1.608  28.946  0.00  0.00    -0.269 OA
ENDROOT
BRANCH   1  10
ATOM      6  C   UNL A   1     -25.804  -0.379  33.729  0.00  0.00    +0.026 A 
ATOM      7  C   UNL A   1     -27.009  -0.320  33.819  0.00  0.00    -0.000 A 
ATOM      8  C   UNL A   1     -27.873  -0.040  32.774  0.00  0.00    -0.000 A 
ATOM      9  C   UNL A   1     -27.291   0.165  31.488  0.00  0.00    +0.004 A 
ATOM     10  C   UNL A   1     -25.963  -0.055  31.396  0.00  0.00    +0.054 A 
ATOM     11  C   UNL A   1     -25.253  -0.345  32.474  0.00  0.00    +0.004 A 
BRANCH   6  12
ATOM     12  C   UNL A   1     -25.014  -0.743  34.873  0.00  0.00    +0.262 C 
ATOM     13 CL   UNL A   1     -25.461  -0.679  36.451  0.00  0.00    -0.072 Cl
ATOM     14  F   UNL A   1     -23.689  -0.947  34.759  0.00  0.00    -0.214 F 
ENDBRANCH   6  12
ENDBRANCH   1  10
BRANCH   3  15
ATOM     15  C   UNL A   1     -24.754  -2.386  30.068  0.00  0.00    +0.061 A 
ATOM     16  C   UNL A   1     -24.020  -3.280  29.302  0.00  0.00    +0.015 A 
ATOM     17  C   UNL A   1     -24.466  -4.088  28.783  0.00  0.00    +0.002 A 
ATOM     18  C   UNL A   1     -25.810  -4.719  29.193  0.00  0.00    +0.007 A 
ATOM     19  C   UNL A   1     -26.545  -3.850  30.035  0.00  0.00    +0.081 A 
ATOM     20  C   UNL A   1     -26.333  -2.679  30.010  0.00  0.00    +0.022 A 
BRANCH  19  21
ATOM     21  C   UNL A   1     -27.981  -4.418  30.371  0.00  0.00    +0.388 C 
ATOM     22  O   UNL A   1     -28.269  -5.333  30.904  0.00  0.00    -0.241 OA
ATOM     23  O   UNL A   1     -28.930  -3.474  30.055  0.00  0.00    -0.241 OA
ENDBRANCH  19  21
ENDBRANCH   3  15
BRANCH   4  24
ATOM     24  C   UNL A   1     -23.368   0.132  28.082  0.00  0.00    +0.054 A 
ATOM     25  C   UNL A   1     -22.270   0.930  28.181  0.00  0.00    +0.004 A 
ATOM     26  C   UNL A   1     -22.071   1.984  27.255  0.00  0.00    +0.000 A 
ATOM     27  C   UNL A   1     -23.036   2.090  26.215  0.00  0.00    +0.000 A 
ATOM     28  C   UNL A   1     -24.096   1.254  26.071  0.00  0.00    +0.000 A 
ATOM     29  C   UNL A   1     -24.234   0.300  26.982  0.00  0.00    +0.004 A 
ENDBRANCH   4  24
TORSDOF 5
ENDMDL
ENDMDL
