REMARK  Name = outputs/IAG933/test6/raw/output_6932_IAG933_linker_design_.xyz
REMARK  19 active torsions:
REMARK  status: ('A' for Active; 'I' for Inactive)
REMARK    1  A    between atoms: C_1  and  C_2
REMARK    2  A    between atoms: C_1  and  C_8
REMARK    3  A    between atoms: C_1  and  N_36
REMARK    4  A    between atoms: C_13  and  C_47
REMARK    5  A    between atoms: C_14  and  C_15
REMARK    6  A    between atoms: C_21  and  O_22
REMARK    7  A    between atoms: O_22  and  C_23
REMARK    8  A    between atoms: C_23  and  C_24
REMARK    9  A    between atoms: C_29  and  C_32
REMARK   10  A    between atoms: C_29  and  C_42
REMARK   11  A    between atoms: C_29  and  C_46
REMARK   12  A    between atoms: C_31  and  N_33
REMARK   13  A    between atoms: C_31  and  N_36
REMARK   14  A    between atoms: C_31  and  C_47
REMARK   15  A    between atoms: C_37  and  N_43
REMARK   16  A    between atoms: C_38  and  C_41
REMARK   17  A    between atoms: C_38  and  C_42
REMARK   18  A    between atoms: C_40  and  N_43
REMARK   19  A    between atoms: N_43  and  C_47
REMARK                            x       y       z     vdW  Elec       q    Type
REMARK                         _______ _______ _______ _____ _____    ______ ____
ROOT
ATOM      1  C   UNL A   1     -25.551   0.819  28.744  0.00  0.00    +0.183 C 
ENDROOT
BRANCH   1   2
ATOM      2  N   UNL A   1     -26.674   1.216  29.307  0.00  0.00    -0.187 NA
ATOM      3  O   UNL A   1     -27.782  -0.802  29.256  0.00  0.00    -0.273 OA
ATOM      4  C   UNL A   1     -27.744   0.391  29.417  0.00  0.00    +0.253 C 
BRANCH   4   5
ATOM      5  C   UNL A   1     -28.992   1.197  29.434  0.00  0.00    +0.181 C 
BRANCH   5   7
ATOM      6  O   UNL A   1     -28.466   2.977  30.867  0.00  0.00    -0.245 OA
ATOM      7  C   UNL A   1     -29.327   2.172  30.511  0.00  0.00    +0.373 C 
ATOM      8  O   UNL A   1     -30.492   2.153  30.952  0.00  0.00    -0.245 OA
ENDBRANCH   5   7
BRANCH   5   9
ATOM      9  C   UNL A   1     -29.798   1.025  28.351  0.00  0.00    +0.021 C 
BRANCH   9  10
ATOM     10  C   UNL A   1     -30.114  -0.141  27.541  0.00  0.00    +0.001 C 
BRANCH  10  12
ATOM     11  C   UNL A   1     -32.514   0.247  28.053  0.00  0.00    +0.000 C 
ATOM     12  C   UNL A   1     -31.473  -0.799  27.786  0.00  0.00    +0.000 C 
ENDBRANCH  10  12
ENDBRANCH   9  10
ENDBRANCH   5   9
ENDBRANCH   4   5
ENDBRANCH   1   2
BRANCH   1  13
ATOM     13  N   UNL A   1     -24.967  -0.176  29.114  0.00  0.00    -0.193 NA
BRANCH  13  14
ATOM     14  C   UNL A   1     -24.855  -1.012  30.143  0.00  0.00    +0.113 C 
BRANCH  14  15
ATOM     15  C   UNL A   1     -24.973  -2.505  29.788  0.00  0.00    -0.005 C 
ATOM     16  C   UNL A   1     -23.906  -3.173  29.146  0.00  0.00    -0.003 C 
ATOM     17  C   UNL A   1     -23.989  -4.549  28.853  0.00  0.00    -0.000 C 
ATOM     18  C   UNL A   1     -25.137  -5.280  29.205  0.00  0.00    -0.000 C 
ATOM     19  C   UNL A   1     -26.232  -4.611  29.784  0.00  0.00    -0.000 C 
ATOM     20  C   UNL A   1     -26.155  -3.232  30.065  0.00  0.00    -0.003 C 
ENDBRANCH  14  15
BRANCH  14  21
ATOM     21  C   UNL A   1     -25.387  -0.679  31.571  0.00  0.00    +0.093 C 
ATOM     22  C   UNL A   1     -25.189   0.773  32.028  0.00  0.00    +0.021 C 
ATOM     23  C   UNL A   1     -25.336   0.684  33.544  0.00  0.00    +0.020 C 
ATOM     24  C   UNL A   1     -24.829  -0.715  33.905  0.00  0.00    +0.089 C 
ATOM     25  N   UNL A   1     -24.758  -1.481  32.646  0.00  0.00    -0.218 NA
ENDBRANCH  14  21
ENDBRANCH  13  14
ENDBRANCH   1  13
BRANCH   1  26
ATOM     26  C   UNL A   1     -24.822   1.305  27.543  0.00  0.00    +0.107 C 
BRANCH  26  27
ATOM     27  C   UNL A   1     -25.688   1.614  26.461  0.00  0.00    +0.088 C 
ATOM     28  C   UNL A   1     -26.250   2.920  26.395  0.00  0.00    +0.056 C 
ATOM     29  C   UNL A   1     -27.438   3.091  25.645  0.00  0.00    +0.102 C 
ATOM     30  N   UNL A   1     -28.075   2.089  25.003  0.00  0.00    -0.212 NA
ATOM     31  C   UNL A   1     -27.543   0.849  25.079  0.00  0.00    +0.234 C 
ATOM     32  C   UNL A   1     -26.354   0.576  25.777  0.00  0.00    +0.241 C 
ATOM     33  F   UNL A   1     -25.860  -0.681  25.795  0.00  0.00    -0.227 F 
BRANCH  28  34
ATOM     34  C   UNL A   1     -25.642   4.093  27.123  0.00  0.00    +0.263 C 
ATOM     35  N   UNL A   1     -25.614   5.252  26.449  0.00  0.00    -0.200 NA
ATOM     36  C   UNL A   1     -25.026   6.479  26.963  0.00  0.00    +0.139 C 
ATOM     37  O   UNL A   1     -25.143   3.966  28.243  0.00  0.00    -0.269 OA
ENDBRANCH  28  34
BRANCH  31  38
ATOM     38  O   UNL A   1     -28.193  -0.208  24.477  0.00  0.00    -0.459 OA
BRANCH  38  39
ATOM     39  C   UNL A   1     -29.460   0.005  23.866  0.00  0.00    +0.242 C 
BRANCH  39  40
ATOM     40  C   UNL A   1     -30.065  -1.377  23.573  0.00  0.00    +0.229 C 
ATOM     41  O   UNL A   1     -30.729  -1.878  24.721  0.00  0.00    -0.216 OA
ENDBRANCH  39  40
ENDBRANCH  38  39
ENDBRANCH  31  38
ENDBRANCH  26  27
BRANCH  26  42
ATOM     42  N   UNL A   1     -23.485   1.341  27.540  0.00  0.00    -0.202 NA
BRANCH  42  44
ATOM     43 CL   UNL A   1     -22.738   2.484  25.258  0.00  0.00    -0.059 Cl
ATOM     44  C   UNL A   1     -22.594   1.929  26.779  0.00  0.00    +0.305 C 
ATOM     45  F   UNL A   1     -21.473   1.460  27.458  0.00  0.00    -0.200 F 
ENDBRANCH  42  44
BRANCH  42  46
ATOM     46  C   UNL A   1     -22.820   1.282  28.859  0.00  0.00    +0.262 C 
ATOM     47  O   UNL A   1     -22.308  -0.018  29.283  0.00  0.00    -0.200 OA
ENDBRANCH  42  46
ENDBRANCH  26  42
ENDBRANCH   1  26
TORSDOF 19
