REMARK  Name = outputs/IAG933/test6/raw/output_6933_IAG933_linker_design_.xyz
REMARK  10 active torsions:
REMARK  status: ('A' for Active; 'I' for Inactive)
REMARK    1  A    between atoms: C_1  and  C_2
REMARK    2  A    between atoms: C_1  and  C_8
REMARK    3  A    between atoms: C_1  and  N_31
REMARK    4  A    between atoms: C_13  and  C_36
REMARK    5  A    between atoms: C_14  and  C_15
REMARK    6  A    between atoms: C_21  and  O_22
REMARK    7  A    between atoms: O_22  and  C_23
REMARK    8  A    between atoms: C_23  and  C_24
REMARK    9  A    between atoms: N_31  and  C_35
REMARK   10  A    between atoms: C_34  and  C_36
REMARK                            x       y       z     vdW  Elec       q    Type
REMARK                         _______ _______ _______ _____ _____    ______ ____
ROOT
ATOM      1  C   UNL A   1     -21.288   1.550  26.992  0.00  0.00    -0.000 C 
ATOM      2  C   UNL A   1     -22.020   0.047  28.803  0.00  0.00    +0.019 C 
ATOM      3  C   UNL A   1     -20.999   0.668  28.032  0.00  0.00    +0.002 C 
ATOM      4  C   UNL A   1     -22.671   1.903  26.697  0.00  0.00    -0.003 C 
ATOM      5  C   UNL A   1     -23.675   1.236  27.472  0.00  0.00    -0.004 C 
ATOM      6  C   UNL A   1     -23.447   0.430  28.573  0.00  0.00    +0.081 C 
ENDROOT
BRANCH   6   8
ATOM      7  O   UNL A   1     -25.870   0.451  28.636  0.00  0.00    -0.084 OA
ATOM      8  N   UNL A   1     -24.859  -0.128  29.097  0.00  0.00    -0.203 N 
BRANCH   8   9
ATOM      9  C   UNL A   1     -24.855  -1.012  30.143  0.00  0.00    +0.150 C 
BRANCH   9  10
ATOM     10  C   UNL A   1     -24.973  -2.505  29.788  0.00  0.00    +0.002 C 
ATOM     11  C   UNL A   1     -23.906  -3.173  29.146  0.00  0.00    -0.002 C 
ATOM     12  C   UNL A   1     -23.989  -4.549  28.853  0.00  0.00    -0.000 C 
ATOM     13  C   UNL A   1     -25.137  -5.280  29.205  0.00  0.00    -0.000 C 
ATOM     14  C   UNL A   1     -26.232  -4.611  29.784  0.00  0.00    -0.000 C 
ATOM     15  C   UNL A   1     -26.155  -3.232  30.065  0.00  0.00    -0.002 C 
ENDBRANCH   9  10
BRANCH   9  16
ATOM     16  C   UNL A   1     -25.387  -0.679  31.571  0.00  0.00    +0.100 C 
ATOM     17  C   UNL A   1     -25.189   0.773  32.028  0.00  0.00    +0.021 C 
ATOM     18  C   UNL A   1     -25.336   0.684  33.544  0.00  0.00    +0.020 C 
ATOM     19  C   UNL A   1     -24.829  -0.715  33.905  0.00  0.00    +0.089 C 
ATOM     20  N   UNL A   1     -24.758  -1.481  32.646  0.00  0.00    -0.217 NA
ENDBRANCH   9  16
ENDBRANCH   8   9
ENDBRANCH   6   8
BRANCH   5  21
ATOM     21  C   UNL A   1     -24.369   1.482  26.828  0.00  0.00    +0.036 C 
BRANCH  21  22
ATOM     22  C   UNL A   1     -25.688   1.614  26.461  0.00  0.00    +0.075 C 
ATOM     23  C   UNL A   1     -26.250   2.920  26.395  0.00  0.00    +0.055 C 
ATOM     24  C   UNL A   1     -27.438   3.091  25.645  0.00  0.00    +0.102 C 
ATOM     25  N   UNL A   1     -28.075   2.089  25.003  0.00  0.00    -0.212 NA
ATOM     26  C   UNL A   1     -27.543   0.849  25.079  0.00  0.00    +0.234 C 
ATOM     27  C   UNL A   1     -26.354   0.576  25.777  0.00  0.00    +0.240 C 
ATOM     28  F   UNL A   1     -25.860  -0.681  25.795  0.00  0.00    -0.227 F 
BRANCH  23  29
ATOM     29  C   UNL A   1     -25.642   4.093  27.123  0.00  0.00    +0.262 C 
ATOM     30  N   UNL A   1     -25.614   5.252  26.449  0.00  0.00    -0.200 NA
ATOM     31  C   UNL A   1     -25.026   6.479  26.963  0.00  0.00    +0.139 C 
ATOM     32  O   UNL A   1     -25.143   3.966  28.243  0.00  0.00    -0.269 OA
ENDBRANCH  23  29
BRANCH  26  33
ATOM     33  O   UNL A   1     -28.193  -0.208  24.477  0.00  0.00    -0.459 OA
BRANCH  33  34
ATOM     34  C   UNL A   1     -29.460   0.005  23.866  0.00  0.00    +0.242 C 
BRANCH  34  35
ATOM     35  C   UNL A   1     -30.065  -1.377  23.573  0.00  0.00    +0.229 C 
ATOM     36  O   UNL A   1     -30.729  -1.878  24.721  0.00  0.00    -0.216 OA
ENDBRANCH  34  35
ENDBRANCH  33  34
ENDBRANCH  26  33
ENDBRANCH  21  22
ENDBRANCH   5  21
TORSDOF 10
