REMARK  Name = outputs/IAG933/test6/raw/output_6939_IAG933_linker_design_.xyz
REMARK  14 active torsions:
REMARK  status: ('A' for Active; 'I' for Inactive)
REMARK    1  A    between atoms: C_1  and  C_2
REMARK    2  A    between atoms: C_1  and  C_8
REMARK    3  A    between atoms: C_9  and  C_37
REMARK    4  A    between atoms: C_13  and  N_41
REMARK    5  A    between atoms: C_14  and  C_15
REMARK    6  A    between atoms: C_21  and  O_22
REMARK    7  A    between atoms: O_22  and  C_23
REMARK    8  A    between atoms: C_23  and  C_24
REMARK    9  A    between atoms: C_31  and  C_42
REMARK   10  A    between atoms: C_32  and  C_33
REMARK   11  A    between atoms: C_33  and  N_41
REMARK   12  A    between atoms: C_34  and  O_38
REMARK   13  A    between atoms: C_37  and  O_38
REMARK   14  A    between atoms: C_37  and  N_43
REMARK                            x       y       z     vdW  Elec       q    Type
REMARK                         _______ _______ _______ _____ _____    ______ ____
ROOT
ATOM      1  C   UNL A   1     -23.886   1.150  29.300  0.00  0.00    +0.412 C 
ATOM      2  N   UNL A   1     -22.724   0.967  29.764  0.00  0.00    +0.194 NA
ATOM      3  N   UNL A   1     -24.875   1.784  29.796  0.00  0.00    -0.002 NA
ENDROOT
BRANCH   1   4
ATOM      4  C   UNL A   1     -24.253   0.379  28.009  0.00  0.00    +0.225 C 
BRANCH   4   7
ATOM      5  C   UNL A   1     -23.409   2.003  26.419  0.00  0.00    +0.266 C 
ATOM      6  O   UNL A   1     -23.512   3.009  25.603  0.00  0.00    -0.272 OA
ATOM      7  N   UNL A   1     -24.485   1.388  26.949  0.00  0.00    -0.242 N 
BRANCH   7   8
ATOM      8  C   UNL A   1     -25.688   1.614  26.461  0.00  0.00    +0.093 C 
ATOM      9  C   UNL A   1     -26.250   2.920  26.395  0.00  0.00    +0.090 C 
ATOM     10  C   UNL A   1     -27.438   3.091  25.645  0.00  0.00    +0.108 C 
ATOM     11  N   UNL A   1     -28.075   2.089  25.003  0.00  0.00    -0.208 NA
ATOM     12  C   UNL A   1     -27.543   0.849  25.079  0.00  0.00    +0.255 C 
ATOM     13  C   UNL A   1     -26.354   0.576  25.777  0.00  0.00    +0.207 C 
ATOM     14  F   UNL A   1     -25.860  -0.681  25.795  0.00  0.00    -0.198 F 
BRANCH   9  15
ATOM     15  C   UNL A   1     -25.642   4.093  27.123  0.00  0.00    +0.268 C 
ATOM     16  N   UNL A   1     -25.614   5.252  26.449  0.00  0.00    -0.200 NA
ATOM     17  C   UNL A   1     -25.026   6.479  26.963  0.00  0.00    +0.139 C 
ATOM     18  O   UNL A   1     -25.143   3.966  28.243  0.00  0.00    -0.268 OA
ENDBRANCH   9  15
BRANCH  12  19
ATOM     19  O   UNL A   1     -28.193  -0.208  24.477  0.00  0.00    -0.456 OA
BRANCH  19  20
ATOM     20  C   UNL A   1     -29.460   0.005  23.866  0.00  0.00    +0.243 C 
BRANCH  20  21
ATOM     21  C   UNL A   1     -30.065  -1.377  23.573  0.00  0.00    +0.229 C 
ATOM     22  O   UNL A   1     -30.729  -1.878  24.721  0.00  0.00    -0.216 OA
ENDBRANCH  20  21
ENDBRANCH  19  20
ENDBRANCH  12  19
ENDBRANCH   7   8
BRANCH   5  24
ATOM     23  F   UNL A   1     -21.148   2.079  25.845  0.00  0.00    -0.224 F 
ATOM     24  C   UNL A   1     -22.025   1.780  26.891  0.00  0.00    +0.278 C 
ENDBRANCH   5  24
ENDBRANCH   4   7
ENDBRANCH   1   4
BRANCH   3  25
ATOM     25  C   UNL A   1     -25.320   2.058  31.125  0.00  0.00    +0.326 C 
BRANCH  25  27
ATOM     26  C   UNL A   1     -25.387  -0.679  31.571  0.00  0.00    +0.084 C 
ATOM     27  C   UNL A   1     -25.189   0.773  32.028  0.00  0.00    +0.095 C 
ATOM     28  C   UNL A   1     -25.336   0.684  33.544  0.00  0.00    +0.027 C 
ATOM     29  C   UNL A   1     -24.829  -0.715  33.905  0.00  0.00    +0.089 C 
ATOM     30  N   UNL A   1     -24.758  -1.481  32.646  0.00  0.00    -0.219 NA
BRANCH  26  31
ATOM     31  C   UNL A   1     -24.855  -1.012  30.143  0.00  0.00    +0.044 C 
BRANCH  31  32
ATOM     32  C   UNL A   1     -24.973  -2.505  29.788  0.00  0.00    -0.021 C 
ATOM     33  C   UNL A   1     -23.906  -3.173  29.146  0.00  0.00    -0.004 C 
ATOM     34  C   UNL A   1     -23.989  -4.549  28.853  0.00  0.00    -0.000 C 
ATOM     35  C   UNL A   1     -25.137  -5.280  29.205  0.00  0.00    -0.000 C 
ATOM     36  C   UNL A   1     -26.232  -4.611  29.784  0.00  0.00    -0.000 C 
ATOM     37  C   UNL A   1     -26.155  -3.232  30.065  0.00  0.00    -0.004 C 
ENDBRANCH  31  32
ENDBRANCH  26  31
ENDBRANCH  25  27
BRANCH  25  38
ATOM     38  O   UNL A   1     -24.801   3.388  31.528  0.00  0.00    -0.311 OA
BRANCH  38  42
ATOM     39  C   UNL A   1     -26.855   4.215  32.176  0.00  0.00    +0.001 C 
ATOM     40  C   UNL A   1     -25.603   5.934  34.050  0.00  0.00    +0.041 C 
ATOM     41  C   UNL A   1     -27.432   5.626  32.600  0.00  0.00    -0.028 C 
ATOM     42  C   UNL A   1     -25.617   3.877  32.626  0.00  0.00    +0.171 C 
ATOM     43  O   UNL A   1     -24.508   5.865  32.075  0.00  0.00    -0.220 OA
ATOM     44  C   UNL A   1     -26.496   6.587  33.316  0.00  0.00    +0.029 C 
ATOM     45  C   UNL A   1     -24.861   5.032  33.179  0.00  0.00    +0.184 C 
ENDBRANCH  38  42
ENDBRANCH  25  38
ENDBRANCH   3  25
TORSDOF 14
