MODEL 693
MODEL 1
REMARK VINA RESULT:    -5.643      0.000      0.000
REMARK INTER + INTRA:          -7.690
REMARK INTER:                  -7.292
REMARK INTRA:                  -0.398
REMARK UNBOUND:                -0.398
REMARK  Name = No_693-gen_results/8p0m/2024-11-27-11-27-31/
REMARK  5 active torsions:
REMARK  status: ('A' for Active; 'I' for Inactive)
REMARK    1  A    between atoms: C_2  and  C_9
REMARK    2  A    between atoms: C_6  and  O_7
REMARK    3  A    between atoms: C_10  and  C_11
REMARK    4  A    between atoms: C_12  and  C_13
REMARK    5  A    between atoms: C_13  and  C_14
REMARK                            x       y       z     vdW  Elec       q    Type
REMARK                         _______ _______ _______ _____ _____    ______ ____
ROOT
ATOM      1  C   UNL A   1     -25.511  -2.536  29.677  0.00  0.00    +0.037 A 
ATOM      2  C   UNL A   1     -24.360  -2.657  29.327  0.00  0.00    +0.003 A 
ATOM      3  C   UNL A   1     -23.877  -3.874  28.857  0.00  0.00    +0.000 A 
ATOM      4  C   UNL A   1     -24.444  -4.796  28.840  0.00  0.00    +0.003 A 
ATOM      5  C   UNL A   1     -25.865  -4.866  29.273  0.00  0.00    +0.037 A 
ATOM      6  C   UNL A   1     -26.349  -3.725  29.707  0.00  0.00    +0.139 A 
ENDROOT
BRANCH   6   7
ATOM      7  O   UNL A   1     -27.645  -3.690  30.147  0.00  0.00    -0.471 OA
ATOM      8  C   UNL A   1     -28.093  -2.671  30.912  0.00  0.00    +0.253 C 
ENDBRANCH   6   7
BRANCH   2   9
ATOM      9  C   UNL A   1     -23.409  -1.441  29.335  0.00  0.00    +0.000 C 
ATOM     10  C   UNL A   1     -23.273  -0.527  28.838  0.00  0.00    -0.000 C 
BRANCH  10  11
ATOM     11  C   UNL A   1     -24.301  -0.226  27.688  0.00  0.00    -0.004 C 
ATOM     12  C   UNL A   1     -24.293   0.594  26.781  0.00  0.00    -0.020 C 
BRANCH  12  13
ATOM     13  C   UNL A   1     -23.290   1.619  26.778  0.00  0.00    +0.075 C 
BRANCH  13  14
ATOM     14  C   UNL A   1     -23.973   2.927  26.777  0.00  0.00    +0.100 C 
ATOM     15  N   UNL A   1     -24.465   3.426  27.820  0.00  0.00    -0.151 NA
ENDBRANCH  13  14
ENDBRANCH  12  13
ENDBRANCH  10  11
ENDBRANCH   2   9
TORSDOF 5
ENDMDL
ENDMDL
