REMARK  Name = No_694-gen_results/8p0m/2024-11-27-11-27-31/
REMARK  1 active torsions:
REMARK  status: ('A' for Active; 'I' for Inactive)
REMARK    1  A    between atoms: C_7  and  C_16
REMARK                            x       y       z     vdW  Elec       q    Type
REMARK                         _______ _______ _______ _____ _____    ______ ____
ROOT
ATOM      1  C   UNL A   1     -28.016  -0.814  28.878  0.00  0.00    +0.007 A 
ATOM      2  C   UNL A   1     -27.064  -0.119  28.608  0.00  0.00    +0.007 A 
ATOM      3  C   UNL A   1     -25.765  -0.390  29.036  0.00  0.00    +0.000 A 
ATOM      4  C   UNL A   1     -24.552   0.406  28.765  0.00  0.00    -0.000 A 
ATOM      5  C   UNL A   1     -24.696   1.448  27.799  0.00  0.00    -0.004 A 
ATOM      6  C   UNL A   1     -25.976   1.725  27.308  0.00  0.00    -0.015 A 
ATOM      7  C   UNL A   1     -27.072   1.013  27.654  0.00  0.00    +0.076 A 
ATOM      8  C   UNL A   1     -27.965  -1.622  30.136  0.00  0.00    +0.035 A 
ATOM      9 BR   UNL A   1     -29.410  -2.559  30.662  0.00  0.00    -0.049 Br
ATOM     10  C   UNL A   1     -23.484   2.197  27.487  0.00  0.00    -0.000 A 
ATOM     11  C   UNL A   1     -22.316   1.685  27.367  0.00  0.00    -0.000 A 
ATOM     12  C   UNL A   1     -21.885   0.683  28.353  0.00  0.00    -0.000 A 
ATOM     13  C   UNL A   1     -23.184  -0.138  29.032  0.00  0.00    -0.000 A 
ATOM     14  C   UNL A   1     -26.701  -2.500  30.151  0.00  0.00    +0.007 A 
ATOM     15  C   UNL A   1     -25.475  -1.606  29.983  0.00  0.00    +0.001 A 
ATOM     16  C   UNL A   1     -26.091   2.930  26.461  0.00  0.00    +0.031 C 
ENDROOT
BRANCH   7  17
ATOM     17  C   UNL A   1     -28.376   1.397  27.093  0.00  0.00    +0.387 C 
ATOM     18  O   UNL A   1     -29.163   0.744  26.829  0.00  0.00    -0.241 OA
ATOM     19  O   UNL A   1     -28.752   2.646  27.011  0.00  0.00    -0.241 OA
ENDBRANCH   7  17
TORSDOF 1
