MODEL 694
MODEL 1
REMARK VINA RESULT:    -6.736      0.000      0.000
REMARK INTER + INTRA:          -6.929
REMARK INTER:                  -7.130
REMARK INTRA:                   0.200
REMARK UNBOUND:                 0.200
REMARK  Name = No_694-gen_results/8p0m/2024-11-27-11-27-31/
REMARK  1 active torsions:
REMARK  status: ('A' for Active; 'I' for Inactive)
REMARK    1  A    between atoms: C_7  and  C_16
REMARK                            x       y       z     vdW  Elec       q    Type
REMARK                         _______ _______ _______ _____ _____    ______ ____
ROOT
ATOM      1  C   UNL A   1     -29.301  -9.077  34.166  0.00  0.00    +0.007 A 
ATOM      2  C   UNL A   1     -29.282  -9.773  33.177  0.00  0.00    +0.007 A 
ATOM      3  C   UNL A   1     -30.020  -9.499  32.027  0.00  0.00    +0.000 A 
ATOM      4  C   UNL A   1     -30.066 -10.296  30.785  0.00  0.00    -0.000 A 
ATOM      5  C   UNL A   1     -29.100 -11.343  30.684  0.00  0.00    -0.004 A 
ATOM      6  C   UNL A   1     -28.306 -11.623  31.800  0.00  0.00    -0.015 A 
ATOM      7  C   UNL A   1     -28.362 -10.910  32.947  0.00  0.00    +0.076 A 
ATOM      8  C   UNL A   1     -30.528  -8.262  34.431  0.00  0.00    +0.035 A 
ATOM      9 BR   UNL A   1     -30.670  -7.323  35.960  0.00  0.00    -0.049 Br
ATOM     10  C   UNL A   1     -29.106 -12.094  29.433  0.00  0.00    -0.000 A 
ATOM     11  C   UNL A   1     -29.280 -11.582  28.272  0.00  0.00    -0.000 A 
ATOM     12  C   UNL A   1     -30.337 -10.575  28.100  0.00  0.00    -0.000 A 
ATOM     13  C   UNL A   1     -30.665  -9.751  29.527  0.00  0.00    -0.000 A 
ATOM     14  C   UNL A   1     -30.855  -7.384  33.210  0.00  0.00    +0.007 A 
ATOM     15  C   UNL A   1     -31.004  -8.278  31.982  0.00  0.00    +0.001 A 
ATOM     16  C   UNL A   1     -27.463 -12.833  31.700  0.00  0.00    +0.031 C 
ENDROOT
BRANCH   7  17
ATOM     17  C   UNL A   1     -27.494 -11.297  34.069  0.00  0.00    +0.387 C 
ATOM     18  O   UNL A   1     -26.702 -10.729  34.475  0.00  0.00    -0.241 OA
ATOM     19  O   UNL A   1     -27.735 -12.357  34.795  0.00  0.00    -0.241 OA
ENDBRANCH   7  17
TORSDOF 1
ENDMDL
ENDMDL
