REMARK  Name = outputs/IAG933/test6/raw/output_6951_IAG933_linker_design_.xyz
REMARK  16 active torsions:
REMARK  status: ('A' for Active; 'I' for Inactive)
REMARK    1  A    between atoms: C_1  and  C_2
REMARK    2  A    between atoms: C_1  and  C_8
REMARK    3  A    between atoms: C_1  and  C_35
REMARK    4  A    between atoms: C_13  and  C_42
REMARK    5  A    between atoms: C_14  and  C_15
REMARK    6  A    between atoms: C_21  and  O_22
REMARK    7  A    between atoms: O_22  and  C_23
REMARK    8  A    between atoms: C_23  and  C_24
REMARK    9  A    between atoms: C_28  and  C_42
REMARK   10  A    between atoms: C_28  and  C_43
REMARK   11  A    between atoms: N_29  and  C_35
REMARK   12  A    between atoms: N_29  and  C_39
REMARK   13  A    between atoms: C_30  and  C_34
REMARK   14  A    between atoms: C_30  and  C_44
REMARK   15  A    between atoms: C_35  and  C_42
REMARK   16  A    between atoms: C_39  and  C_44
REMARK                            x       y       z     vdW  Elec       q    Type
REMARK                         _______ _______ _______ _____ _____    ______ ____
ROOT
ATOM      1  C   UNL A   1     -24.984   0.041  28.889  0.00  0.00    +0.080 C 
ENDROOT
BRANCH   1   2
ATOM      2  C   UNL A   1     -24.855  -1.012  30.143  0.00  0.00    +0.054 C 
BRANCH   2   3
ATOM      3  C   UNL A   1     -24.973  -2.505  29.788  0.00  0.00    -0.020 C 
ATOM      4  C   UNL A   1     -23.906  -3.173  29.146  0.00  0.00    -0.004 C 
ATOM      5  C   UNL A   1     -23.989  -4.549  28.853  0.00  0.00    -0.000 C 
ATOM      6  C   UNL A   1     -25.137  -5.280  29.205  0.00  0.00    -0.000 C 
ATOM      7  C   UNL A   1     -26.232  -4.611  29.784  0.00  0.00    -0.000 C 
ATOM      8  C   UNL A   1     -26.155  -3.232  30.065  0.00  0.00    -0.004 C 
ENDBRANCH   2   3
BRANCH   2   9
ATOM      9  C   UNL A   1     -25.387  -0.679  31.571  0.00  0.00    +0.078 C 
ATOM     10  C   UNL A   1     -25.189   0.773  32.028  0.00  0.00    +0.019 C 
ATOM     11  C   UNL A   1     -25.336   0.684  33.544  0.00  0.00    +0.020 C 
ATOM     12  C   UNL A   1     -24.829  -0.715  33.905  0.00  0.00    +0.089 C 
ATOM     13  N   UNL A   1     -24.758  -1.481  32.646  0.00  0.00    -0.219 NA
ENDBRANCH   2   9
ENDBRANCH   1   2
BRANCH   1  14
ATOM     14  N   UNL A   1     -26.426  -0.196  28.934  0.00  0.00    -0.216 NA
BRANCH  14  15
ATOM     15  C   UNL A   1     -27.648  -0.638  28.882  0.00  0.00    +0.122 C 
BRANCH  15  17
ATOM     16  O   UNL A   1     -29.986  -0.534  28.289  0.00  0.00    -0.221 OA
ATOM     17  C   UNL A   1     -28.815   0.165  28.336  0.00  0.00    +0.174 C 
BRANCH  17  18
ATOM     18  C   UNL A   1     -29.067   1.481  29.091  0.00  0.00    +0.061 C 
BRANCH  18  20
ATOM     19  C   UNL A   1     -31.052   3.620  26.596  0.00  0.00    -0.000 C 
ATOM     20  C   UNL A   1     -30.278   2.190  28.409  0.00  0.00    -0.020 C 
ATOM     21  C   UNL A   1     -30.202   2.649  27.086  0.00  0.00    -0.004 C 
ATOM     22  C   UNL A   1     -32.135   3.962  27.374  0.00  0.00    -0.000 C 
ATOM     23  C   UNL A   1     -32.391   3.315  28.578  0.00  0.00    -0.000 C 
ATOM     24  C   UNL A   1     -31.437   2.421  29.121  0.00  0.00    -0.004 C 
ENDBRANCH  18  20
ENDBRANCH  17  18
ENDBRANCH  15  17
ENDBRANCH  14  15
ENDBRANCH   1  14
BRANCH   1  25
ATOM     25  C   UNL A   1     -24.820   1.166  27.745  0.00  0.00    +0.040 C 
BRANCH  25  26
ATOM     26  C   UNL A   1     -25.688   1.614  26.461  0.00  0.00    +0.073 C 
ATOM     27  C   UNL A   1     -26.250   2.920  26.395  0.00  0.00    +0.055 C 
ATOM     28  C   UNL A   1     -27.438   3.091  25.645  0.00  0.00    +0.102 C 
ATOM     29  N   UNL A   1     -28.075   2.089  25.003  0.00  0.00    -0.212 NA
ATOM     30  C   UNL A   1     -27.543   0.849  25.079  0.00  0.00    +0.234 C 
ATOM     31  C   UNL A   1     -26.354   0.576  25.777  0.00  0.00    +0.240 C 
ATOM     32  F   UNL A   1     -25.860  -0.681  25.795  0.00  0.00    -0.227 F 
BRANCH  27  33
ATOM     33  C   UNL A   1     -25.642   4.093  27.123  0.00  0.00    +0.262 C 
ATOM     34  N   UNL A   1     -25.614   5.252  26.449  0.00  0.00    -0.200 NA
ATOM     35  C   UNL A   1     -25.026   6.479  26.963  0.00  0.00    +0.139 C 
ATOM     36  O   UNL A   1     -25.143   3.966  28.243  0.00  0.00    -0.269 OA
ENDBRANCH  27  33
BRANCH  30  37
ATOM     37  O   UNL A   1     -28.193  -0.208  24.477  0.00  0.00    -0.459 OA
BRANCH  37  38
ATOM     38  C   UNL A   1     -29.460   0.005  23.866  0.00  0.00    +0.242 C 
BRANCH  38  39
ATOM     39  C   UNL A   1     -30.065  -1.377  23.573  0.00  0.00    +0.229 C 
ATOM     40  O   UNL A   1     -30.729  -1.878  24.721  0.00  0.00    -0.216 OA
ENDBRANCH  38  39
ENDBRANCH  37  38
ENDBRANCH  30  37
ENDBRANCH  25  26
BRANCH  25  41
ATOM     41  C   UNL A   1     -23.355   1.335  27.080  0.00  0.00    +0.099 C 
ATOM     42 CL   UNL A   1     -22.954   1.687  25.314  0.00  0.00    -0.113 Cl
BRANCH  41  44
ATOM     43  C   UNL A   1     -21.067   1.683  27.354  0.00  0.00    +0.022 C 
ATOM     44  C   UNL A   1     -22.356   1.897  28.102  0.00  0.00    +0.107 C 
ATOM     45  N   UNL A   1     -22.474   1.373  29.467  0.00  0.00    -0.132 NA
ENDBRANCH  41  44
ENDBRANCH  25  41
ENDBRANCH   1  25
TORSDOF 16
