REMARK  Name = outputs/IAG933/test6/raw/output_6956_IAG933_linker_design_.xyz
REMARK  11 active torsions:
REMARK  status: ('A' for Active; 'I' for Inactive)
REMARK    1  A    between atoms: C_1  and  C_2
REMARK    2  A    between atoms: C_1  and  C_8
REMARK    3  A    between atoms: C_1  and  CA_34
REMARK    4  A    between atoms: C_13  and  N_36
REMARK    5  A    between atoms: C_14  and  C_15
REMARK    6  A    between atoms: C_21  and  O_22
REMARK    7  A    between atoms: O_22  and  C_23
REMARK    8  A    between atoms: C_23  and  C_24
REMARK    9  A    between atoms: C_29  and  N_31
REMARK   10  A    between atoms: N_31  and  CA_34
REMARK   11  A    between atoms: CA_34  and  C_40
REMARK                            x       y       z     vdW  Elec       q    Type
REMARK                         _______ _______ _______ _____ _____    ______ ____
ROOT
ATOM      1  C   UNL A   1     -22.241   1.380  27.408  0.00  0.00    +0.053 C 
ATOM      2  C   UNL A   1     -24.278   0.882  28.011  0.00  0.00    +0.178 C 
ATOM      3  C   UNL A   1     -23.328   1.844  26.509  0.00  0.00    +0.254 C 
ATOM      4  C   UNL A   1     -20.149   0.741  28.176  0.00  0.00    +0.000 C 
ATOM      5  O   UNL A   1     -23.004   2.566  25.560  0.00  0.00    -0.270 OA
ATOM      6  C   UNL A   1     -22.820   0.579  28.209  0.00  0.00    +0.017 C 
ATOM      7  N   UNL A   1     -24.504   1.451  26.953  0.00  0.00    -0.236 N 
ATOM      8  C   UNL A   1     -22.150  -0.369  28.924  0.00  0.00    -0.001 C 
ATOM      9  C   UNL A   1     -20.885   1.616  27.441  0.00  0.00    +0.004 C 
ATOM     10  C   UNL A   1     -20.768  -0.314  28.824  0.00  0.00    -0.000 C 
ENDROOT
BRANCH   7  11
ATOM     11  C   UNL A   1     -25.688   1.614  26.461  0.00  0.00    +0.094 C 
ATOM     12  C   UNL A   1     -26.250   2.920  26.395  0.00  0.00    +0.090 C 
ATOM     13  C   UNL A   1     -27.438   3.091  25.645  0.00  0.00    +0.108 C 
ATOM     14  N   UNL A   1     -28.075   2.089  25.003  0.00  0.00    -0.208 NA
ATOM     15  C   UNL A   1     -27.543   0.849  25.079  0.00  0.00    +0.255 C 
ATOM     16  C   UNL A   1     -26.354   0.576  25.777  0.00  0.00    +0.207 C 
ATOM     17  F   UNL A   1     -25.860  -0.681  25.795  0.00  0.00    -0.198 F 
BRANCH  12  18
ATOM     18  C   UNL A   1     -25.642   4.093  27.123  0.00  0.00    +0.268 C 
ATOM     19  N   UNL A   1     -25.614   5.252  26.449  0.00  0.00    -0.200 NA
ATOM     20  C   UNL A   1     -25.026   6.479  26.963  0.00  0.00    +0.139 C 
ATOM     21  O   UNL A   1     -25.143   3.966  28.243  0.00  0.00    -0.268 OA
ENDBRANCH  12  18
BRANCH  15  22
ATOM     22  O   UNL A   1     -28.193  -0.208  24.477  0.00  0.00    -0.456 OA
BRANCH  22  23
ATOM     23  C   UNL A   1     -29.460   0.005  23.866  0.00  0.00    +0.243 C 
BRANCH  23  24
ATOM     24  C   UNL A   1     -30.065  -1.377  23.573  0.00  0.00    +0.229 C 
ATOM     25  O   UNL A   1     -30.729  -1.878  24.721  0.00  0.00    -0.216 OA
ENDBRANCH  23  24
ENDBRANCH  22  23
ENDBRANCH  15  22
ENDBRANCH   7  11
BRANCH   2  26
ATOM     26  N   UNL A   1     -25.038   0.970  28.929  0.00  0.00    -0.185 NA
BRANCH  26  27
ATOM     27  CA  UNL A   1     -25.749  -0.304  29.090  0.00  0.00    +0.183 C 
BRANCH  27  30
ATOM     28  O   UNL A   1     -27.882  -0.930  29.071  0.00  0.00    -0.244 OA
ATOM     29  OXT UNL A   1     -27.425   1.364  29.237  0.00  0.00    -0.244 OA
ATOM     30  C   UNL A   1     -27.148   0.126  29.445  0.00  0.00    +0.381 C 
ENDBRANCH  27  30
BRANCH  27  31
ATOM     31  C   UNL A   1     -24.855  -1.012  30.143  0.00  0.00    +0.065 C 
BRANCH  31  32
ATOM     32  C   UNL A   1     -24.973  -2.505  29.788  0.00  0.00    -0.019 C 
ATOM     33  C   UNL A   1     -23.906  -3.173  29.146  0.00  0.00    -0.004 C 
ATOM     34  C   UNL A   1     -23.989  -4.549  28.853  0.00  0.00    -0.000 C 
ATOM     35  C   UNL A   1     -25.137  -5.280  29.205  0.00  0.00    -0.000 C 
ATOM     36  C   UNL A   1     -26.232  -4.611  29.784  0.00  0.00    -0.000 C 
ATOM     37  C   UNL A   1     -26.155  -3.232  30.065  0.00  0.00    -0.004 C 
ENDBRANCH  31  32
BRANCH  31  38
ATOM     38  C   UNL A   1     -25.387  -0.679  31.571  0.00  0.00    +0.079 C 
ATOM     39  C   UNL A   1     -25.189   0.773  32.028  0.00  0.00    +0.019 C 
ATOM     40  C   UNL A   1     -25.336   0.684  33.544  0.00  0.00    +0.020 C 
ATOM     41  C   UNL A   1     -24.829  -0.715  33.905  0.00  0.00    +0.089 C 
ATOM     42  N   UNL A   1     -24.758  -1.481  32.646  0.00  0.00    -0.219 NA
ENDBRANCH  31  38
ENDBRANCH  27  31
ENDBRANCH  26  27
ENDBRANCH   2  26
TORSDOF 11
