REMARK  Name = outputs/IAG933/test6/raw/output_6958_IAG933_linker_design_.xyz
REMARK  12 active torsions:
REMARK  status: ('A' for Active; 'I' for Inactive)
REMARK    1  A    between atoms: C_1  and  C_2
REMARK    2  A    between atoms: C_1  and  C_8
REMARK    3  A    between atoms: C_1  and  C_36
REMARK    4  A    between atoms: C_13  and  C_43
REMARK    5  A    between atoms: C_14  and  C_15
REMARK    6  A    between atoms: C_21  and  O_22
REMARK    7  A    between atoms: O_22  and  C_23
REMARK    8  A    between atoms: C_23  and  C_24
REMARK    9  A    between atoms: O_34  and  C_39
REMARK   10  A    between atoms: O_34  and  C_40
REMARK   11  A    between atoms: O_38  and  C_40
REMARK   12  A    between atoms: C_40  and  C_44
REMARK                            x       y       z     vdW  Elec       q    Type
REMARK                         _______ _______ _______ _____ _____    ______ ____
ROOT
ATOM      1  C   UNL A   1     -22.531   1.801  26.807  0.00  0.00    +0.095 C 
ATOM      2  C   UNL A   1     -23.515   1.097  27.477  0.00  0.00    +0.017 C 
ATOM      3  N   UNL A   1     -21.244  -1.242  29.207  0.00  0.00    -0.088 NA
ATOM      4  C   UNL A   1     -21.182   1.635  27.126  0.00  0.00    +0.193 C 
ATOM      5  C   UNL A   1     -21.798  -0.163  28.629  0.00  0.00    +0.234 C 
ATOM      6  C   UNL A   1     -24.487  -0.117  29.196  0.00  0.00    +0.021 C 
ATOM      7  O   UNL A   1     -20.845   0.723  28.085  0.00  0.00    -0.433 OA
ATOM      8  C   UNL A   1     -25.434   0.599  28.616  0.00  0.00    +0.135 C 
ATOM      9 CL   UNL A   1     -22.906   2.897  25.527  0.00  0.00    -0.079 Cl
ATOM     10  C   UNL A   1     -23.200   0.166  28.498  0.00  0.00    +0.052 C 
ATOM     11  C   UNL A   1     -24.837   1.203  27.375  0.00  0.00    +0.020 C 
ENDROOT
BRANCH  11  12
ATOM     12  C   UNL A   1     -25.688   1.614  26.461  0.00  0.00    +0.095 C 
ATOM     13  C   UNL A   1     -26.250   2.920  26.395  0.00  0.00    +0.059 C 
ATOM     14  C   UNL A   1     -27.438   3.091  25.645  0.00  0.00    +0.102 C 
ATOM     15  N   UNL A   1     -28.075   2.089  25.003  0.00  0.00    -0.212 NA
ATOM     16  C   UNL A   1     -27.543   0.849  25.079  0.00  0.00    +0.234 C 
ATOM     17  C   UNL A   1     -26.354   0.576  25.777  0.00  0.00    +0.244 C 
ATOM     18  F   UNL A   1     -25.860  -0.681  25.795  0.00  0.00    -0.227 F 
BRANCH  13  19
ATOM     19  C   UNL A   1     -25.642   4.093  27.123  0.00  0.00    +0.263 C 
ATOM     20  N   UNL A   1     -25.614   5.252  26.449  0.00  0.00    -0.200 NA
ATOM     21  C   UNL A   1     -25.026   6.479  26.963  0.00  0.00    +0.139 C 
ATOM     22  O   UNL A   1     -25.143   3.966  28.243  0.00  0.00    -0.269 OA
ENDBRANCH  13  19
BRANCH  16  23
ATOM     23  O   UNL A   1     -28.193  -0.208  24.477  0.00  0.00    -0.459 OA
BRANCH  23  24
ATOM     24  C   UNL A   1     -29.460   0.005  23.866  0.00  0.00    +0.242 C 
BRANCH  24  25
ATOM     25  C   UNL A   1     -30.065  -1.377  23.573  0.00  0.00    +0.229 C 
ATOM     26  O   UNL A   1     -30.729  -1.878  24.721  0.00  0.00    -0.216 OA
ENDBRANCH  24  25
ENDBRANCH  23  24
ENDBRANCH  16  23
ENDBRANCH  11  12
BRANCH   6  27
ATOM     27  C   UNL A   1     -24.855  -1.012  30.143  0.00  0.00    +0.064 C 
BRANCH  27  28
ATOM     28  C   UNL A   1     -24.973  -2.505  29.788  0.00  0.00    -0.017 C 
ATOM     29  C   UNL A   1     -23.906  -3.173  29.146  0.00  0.00    -0.004 C 
ATOM     30  C   UNL A   1     -23.989  -4.549  28.853  0.00  0.00    -0.000 C 
ATOM     31  C   UNL A   1     -25.137  -5.280  29.205  0.00  0.00    -0.000 C 
ATOM     32  C   UNL A   1     -26.232  -4.611  29.784  0.00  0.00    -0.000 C 
ATOM     33  C   UNL A   1     -26.155  -3.232  30.065  0.00  0.00    -0.004 C 
ENDBRANCH  27  28
BRANCH  27  34
ATOM     34  C   UNL A   1     -25.387  -0.679  31.571  0.00  0.00    +0.081 C 
ATOM     35  C   UNL A   1     -25.189   0.773  32.028  0.00  0.00    +0.019 C 
ATOM     36  C   UNL A   1     -25.336   0.684  33.544  0.00  0.00    +0.020 C 
ATOM     37  C   UNL A   1     -24.829  -0.715  33.905  0.00  0.00    +0.089 C 
ATOM     38  N   UNL A   1     -24.758  -1.481  32.646  0.00  0.00    -0.219 NA
ENDBRANCH  27  34
ENDBRANCH   6  27
BRANCH   8  39
ATOM     39  O   UNL A   1     -26.667   0.991  28.938  0.00  0.00    -0.448 OA
BRANCH  39  40
ATOM     40  C   UNL A   1     -27.581  -0.020  29.497  0.00  0.00    +0.356 C 
BRANCH  40  42
ATOM     41  O   UNL A   1     -28.819   1.661  30.652  0.00  0.00    -0.281 OA
ATOM     42  C   UNL A   1     -28.721   0.480  30.402  0.00  0.00    +0.283 C 
ENDBRANCH  40  42
BRANCH  40  44
ATOM     43  C   UNL A   1     -29.347  -0.560  28.093  0.00  0.00    +0.178 C 
ATOM     44  O   UNL A   1     -27.996  -0.774  28.356  0.00  0.00    -0.312 OA
ENDBRANCH  40  44
ENDBRANCH  39  40
ENDBRANCH   8  39
TORSDOF 12
