MODEL 695
MODEL 1
REMARK VINA RESULT:    -3.596      0.000      0.000
REMARK INTER + INTRA:          -4.304
REMARK INTER:                  -4.226
REMARK INTRA:                  -0.078
REMARK UNBOUND:                -0.078
REMARK  Name = No_695-gen_results/8p0m/2024-11-27-11-27-31/
REMARK  3 active torsions:
REMARK  status: ('A' for Active; 'I' for Inactive)
REMARK    1  A    between atoms: N_3  and  C_4
REMARK    2  A    between atoms: C_4  and  C_5
REMARK    3  A    between atoms: C_5  and  C_6
REMARK                            x       y       z     vdW  Elec       q    Type
REMARK                         _______ _______ _______ _____ _____    ______ ____
ROOT
ATOM      1  C   UNL A   1     -24.209  -1.922  29.704  0.00  0.00    +0.125 C 
ENDROOT
BRANCH   1   4
ATOM      2  C   UNL A   1     -21.150  -0.291  28.753  0.00  0.00    +0.053 C 
ATOM      3  C   UNL A   1     -22.183  -0.536  29.333  0.00  0.00    +0.067 C 
ATOM      4  N   UNL A   1     -22.975  -1.581  29.053  0.00  0.00    -0.274 NA
ENDBRANCH   1   4
BRANCH   1   5
ATOM      5  C   UNL A   1     -25.008  -3.060  29.333  0.00  0.00    +0.026 C 
BRANCH   5   6
ATOM      6  C   UNL A   1     -24.256  -4.131  28.818  0.00  0.00    +0.002 C 
ATOM      7  C   UNL A   1     -24.684  -5.430  28.853  0.00  0.00    +0.000 C 
ENDBRANCH   5   6
ENDBRANCH   1   5
TORSDOF 3
ENDMDL
ENDMDL
