REMARK  Name = outputs/IAG933/test6/raw/output_6963_IAG933_linker_design_.xyz
REMARK  14 active torsions:
REMARK  status: ('A' for Active; 'I' for Inactive)
REMARK    1  A    between atoms: C_1  and  C_2
REMARK    2  A    between atoms: C_1  and  C_8
REMARK    3  A    between atoms: C_9  and  C_28
REMARK    4  A    between atoms: C_13  and  C_38
REMARK    5  A    between atoms: C_14  and  C_15
REMARK    6  A    between atoms: C_21  and  O_22
REMARK    7  A    between atoms: O_22  and  C_23
REMARK    8  A    between atoms: C_23  and  C_24
REMARK    9  A    between atoms: C_28  and  C_30
REMARK   10  A    between atoms: C_28  and  N_31
REMARK   11  A    between atoms: N_31  and  N_37
REMARK   12  A    between atoms: C_34  and  C_36
REMARK   13  A    between atoms: C_34  and  N_37
REMARK   14  A    between atoms: C_34  and  C_38
REMARK                            x       y       z     vdW  Elec       q    Type
REMARK                         _______ _______ _______ _____ _____    ______ ____
ROOT
ATOM      1  C   UNL A   1     -23.409   2.071  27.629  0.00  0.00    +0.195 C 
ENDROOT
BRANCH   1   3
ATOM      2  O   UNL A   1     -21.265   1.337  26.940  0.00  0.00    -0.244 OA
ATOM      3  C   UNL A   1     -22.093   1.349  27.848  0.00  0.00    +0.382 C 
ATOM      4  O   UNL A   1     -21.934   0.721  28.944  0.00  0.00    -0.244 OA
ENDBRANCH   1   3
BRANCH   1   5
ATOM      5  N   UNL A   1     -24.153   2.158  28.902  0.00  0.00    -0.121 NA
BRANCH   5   6
ATOM      6  N   UNL A   1     -24.497   1.665  30.094  0.00  0.00    -0.129 NA
BRANCH   6   7
ATOM      7  C   UNL A   1     -25.617   1.863  31.089  0.00  0.00    +0.136 C 
BRANCH   7   9
ATOM      8  C   UNL A   1     -25.387  -0.679  31.571  0.00  0.00    +0.079 C 
ATOM      9  C   UNL A   1     -25.189   0.773  32.028  0.00  0.00    +0.039 C 
ATOM     10  C   UNL A   1     -25.336   0.684  33.544  0.00  0.00    +0.022 C 
ATOM     11  C   UNL A   1     -24.829  -0.715  33.905  0.00  0.00    +0.089 C 
ATOM     12  N   UNL A   1     -24.758  -1.481  32.646  0.00  0.00    -0.219 NA
BRANCH   8  13
ATOM     13  C   UNL A   1     -24.855  -1.012  30.143  0.00  0.00    +0.044 C 
BRANCH  13  14
ATOM     14  C   UNL A   1     -24.973  -2.505  29.788  0.00  0.00    -0.021 C 
ATOM     15  C   UNL A   1     -23.906  -3.173  29.146  0.00  0.00    -0.004 C 
ATOM     16  C   UNL A   1     -23.989  -4.549  28.853  0.00  0.00    -0.000 C 
ATOM     17  C   UNL A   1     -25.137  -5.280  29.205  0.00  0.00    -0.000 C 
ATOM     18  C   UNL A   1     -26.232  -4.611  29.784  0.00  0.00    -0.000 C 
ATOM     19  C   UNL A   1     -26.155  -3.232  30.065  0.00  0.00    -0.004 C 
ENDBRANCH  13  14
ENDBRANCH   8  13
ENDBRANCH   7   9
BRANCH   7  21
ATOM     20  O   UNL A   1     -26.126   4.276  31.000  0.00  0.00    -0.266 OA
ATOM     21  C   UNL A   1     -25.356   3.289  31.524  0.00  0.00    +0.245 C 
ATOM     22  S   UNL A   1     -26.101   4.295  32.344  0.00  0.00    +0.141 S 
ATOM     23  O   UNL A   1     -26.874   3.873  33.408  0.00  0.00    -0.125 OA
ATOM     24  N   UNL A   1     -25.670   5.796  32.711  0.00  0.00    -0.025 NA
ENDBRANCH   7  21
ENDBRANCH   6   7
ENDBRANCH   5   6
ENDBRANCH   1   5
BRANCH   1  25
ATOM     25  C   UNL A   1     -24.360   1.270  26.775  0.00  0.00    +0.038 C 
BRANCH  25  26
ATOM     26  C   UNL A   1     -25.688   1.614  26.461  0.00  0.00    +0.072 C 
ATOM     27  C   UNL A   1     -26.250   2.920  26.395  0.00  0.00    +0.055 C 
ATOM     28  C   UNL A   1     -27.438   3.091  25.645  0.00  0.00    +0.102 C 
ATOM     29  N   UNL A   1     -28.075   2.089  25.003  0.00  0.00    -0.212 NA
ATOM     30  C   UNL A   1     -27.543   0.849  25.079  0.00  0.00    +0.234 C 
ATOM     31  C   UNL A   1     -26.354   0.576  25.777  0.00  0.00    +0.240 C 
ATOM     32  F   UNL A   1     -25.860  -0.681  25.795  0.00  0.00    -0.227 F 
BRANCH  27  33
ATOM     33  C   UNL A   1     -25.642   4.093  27.123  0.00  0.00    +0.262 C 
ATOM     34  N   UNL A   1     -25.614   5.252  26.449  0.00  0.00    -0.200 NA
ATOM     35  C   UNL A   1     -25.026   6.479  26.963  0.00  0.00    +0.139 C 
ATOM     36  O   UNL A   1     -25.143   3.966  28.243  0.00  0.00    -0.269 OA
ENDBRANCH  27  33
BRANCH  30  37
ATOM     37  O   UNL A   1     -28.193  -0.208  24.477  0.00  0.00    -0.459 OA
BRANCH  37  38
ATOM     38  C   UNL A   1     -29.460   0.005  23.866  0.00  0.00    +0.242 C 
BRANCH  38  39
ATOM     39  C   UNL A   1     -30.065  -1.377  23.573  0.00  0.00    +0.229 C 
ATOM     40  O   UNL A   1     -30.729  -1.878  24.721  0.00  0.00    -0.216 OA
ENDBRANCH  38  39
ENDBRANCH  37  38
ENDBRANCH  30  37
ENDBRANCH  25  26
ENDBRANCH   1  25
TORSDOF 14
