REMARK  Name = outputs/IAG933/test6/raw/output_6964_IAG933_linker_design_.xyz
REMARK  13 active torsions:
REMARK  status: ('A' for Active; 'I' for Inactive)
REMARK    1  A    between atoms: C_1  and  C_2
REMARK    2  A    between atoms: C_1  and  C_8
REMARK    3  A    between atoms: C_1  and  C_42
REMARK    4  A    between atoms: C_13  and  C_33
REMARK    5  A    between atoms: C_14  and  C_15
REMARK    6  A    between atoms: C_21  and  O_22
REMARK    7  A    between atoms: O_22  and  C_23
REMARK    8  A    between atoms: C_23  and  C_24
REMARK    9  A    between atoms: N_28  and  C_41
REMARK   10  A    between atoms: O_31  and  C_32
REMARK   11  A    between atoms: O_31  and  C_39
REMARK   12  A    between atoms: C_32  and  C_41
REMARK   13  A    between atoms: C_39  and  C_42
REMARK                            x       y       z     vdW  Elec       q    Type
REMARK                         _______ _______ _______ _____ _____    ______ ____
ROOT
ATOM      1  C   UNL A   1     -23.162   0.266  28.897  0.00  0.00    -0.008 C 
ATOM      2  C   UNL A   1     -24.583   1.056  27.238  0.00  0.00    -0.002 C 
ATOM      3 CL   UNL A   1     -23.023   2.041  25.295  0.00  0.00    -0.082 Cl
ATOM      4 CL   UNL A   1     -20.917   1.636  27.741  0.00  0.00    -0.082 Cl
ATOM      5  C   UNL A   1     -24.697   0.025  28.801  0.00  0.00    +0.071 C 
ATOM      6  C   UNL A   1     -23.386   1.363  26.862  0.00  0.00    +0.064 C 
ATOM      7  C   UNL A   1     -22.565   1.085  27.787  0.00  0.00    +0.064 C 
ENDROOT
BRANCH   2   8
ATOM      8  C   UNL A   1     -25.688   1.614  26.461  0.00  0.00    +0.035 C 
ATOM      9  C   UNL A   1     -26.250   2.920  26.395  0.00  0.00    +0.076 C 
ATOM     10  C   UNL A   1     -27.438   3.091  25.645  0.00  0.00    +0.107 C 
ATOM     11  N   UNL A   1     -28.075   2.089  25.003  0.00  0.00    -0.208 NA
ATOM     12  C   UNL A   1     -27.543   0.849  25.079  0.00  0.00    +0.253 C 
ATOM     13  C   UNL A   1     -26.354   0.576  25.777  0.00  0.00    +0.193 C 
ATOM     14  F   UNL A   1     -25.860  -0.681  25.795  0.00  0.00    -0.199 F 
BRANCH   9  15
ATOM     15  C   UNL A   1     -25.642   4.093  27.123  0.00  0.00    +0.266 C 
ATOM     16  N   UNL A   1     -25.614   5.252  26.449  0.00  0.00    -0.200 NA
ATOM     17  C   UNL A   1     -25.026   6.479  26.963  0.00  0.00    +0.139 C 
ATOM     18  O   UNL A   1     -25.143   3.966  28.243  0.00  0.00    -0.268 OA
ENDBRANCH   9  15
BRANCH  12  19
ATOM     19  O   UNL A   1     -28.193  -0.208  24.477  0.00  0.00    -0.456 OA
BRANCH  19  20
ATOM     20  C   UNL A   1     -29.460   0.005  23.866  0.00  0.00    +0.243 C 
BRANCH  20  21
ATOM     21  C   UNL A   1     -30.065  -1.377  23.573  0.00  0.00    +0.229 C 
ATOM     22  O   UNL A   1     -30.729  -1.878  24.721  0.00  0.00    -0.216 OA
ENDBRANCH  20  21
ENDBRANCH  19  20
ENDBRANCH  12  19
ENDBRANCH   2   8
BRANCH   5  23
ATOM     23  C   UNL A   1     -24.855  -1.012  30.143  0.00  0.00    +0.048 C 
BRANCH  23  24
ATOM     24  C   UNL A   1     -24.973  -2.505  29.788  0.00  0.00    -0.021 C 
ATOM     25  C   UNL A   1     -23.906  -3.173  29.146  0.00  0.00    -0.004 C 
ATOM     26  C   UNL A   1     -23.989  -4.549  28.853  0.00  0.00    -0.000 C 
ATOM     27  C   UNL A   1     -25.137  -5.280  29.205  0.00  0.00    -0.000 C 
ATOM     28  C   UNL A   1     -26.232  -4.611  29.784  0.00  0.00    -0.000 C 
ATOM     29  C   UNL A   1     -26.155  -3.232  30.065  0.00  0.00    -0.004 C 
ENDBRANCH  23  24
BRANCH  23  30
ATOM     30  C   UNL A   1     -25.387  -0.679  31.571  0.00  0.00    +0.077 C 
ATOM     31  C   UNL A   1     -25.189   0.773  32.028  0.00  0.00    +0.019 C 
ATOM     32  C   UNL A   1     -25.336   0.684  33.544  0.00  0.00    +0.020 C 
ATOM     33  C   UNL A   1     -24.829  -0.715  33.905  0.00  0.00    +0.089 C 
ATOM     34  N   UNL A   1     -24.758  -1.481  32.646  0.00  0.00    -0.219 NA
ENDBRANCH  23  30
ENDBRANCH   5  23
BRANCH   5  35
ATOM     35  C   UNL A   1     -26.263  -0.478  28.545  0.00  0.00    +0.150 C 
BRANCH  35  36
ATOM     36  O   UNL A   1     -26.925   0.268  29.344  0.00  0.00    -0.352 OA
BRANCH  36  37
ATOM     37  C   UNL A   1     -28.386   0.244  29.264  0.00  0.00    +0.160 C 
BRANCH  37  38
ATOM     38  C   UNL A   1     -28.994   1.513  29.356  0.00  0.00    +0.106 C 
BRANCH  38  39
ATOM     39  N   UNL A   1     -28.458   2.654  30.084  0.00  0.00    -0.253 NA
ATOM     40  O   UNL A   1     -29.237   5.531  31.001  0.00  0.00    -0.203 OA
ATOM     41  C   UNL A   1     -29.132   2.581  31.341  0.00  0.00    +0.151 C 
ATOM     42  N   UNL A   1     -30.262   3.450  31.205  0.00  0.00    -0.232 NA
ATOM     43  C   UNL A   1     -28.737   3.815  29.479  0.00  0.00    +0.124 C 
ATOM     44  C   UNL A   1     -29.769   4.445  30.226  0.00  0.00    +0.230 C 
ATOM     45  C   UNL A   1     -31.615   2.797  31.018  0.00  0.00    +0.093 C 
ENDBRANCH  38  39
ENDBRANCH  37  38
ENDBRANCH  36  37
ENDBRANCH  35  36
ENDBRANCH   5  35
TORSDOF 13
