REMARK  Name = outputs/IAG933/test6/raw/output_6969_IAG933_linker_design_.xyz
REMARK  8 active torsions:
REMARK  status: ('A' for Active; 'I' for Inactive)
REMARK    1  A    between atoms: C_1  and  C_2
REMARK    2  A    between atoms: C_13  and  C_33
REMARK    3  A    between atoms: C_14  and  C_15
REMARK    4  A    between atoms: C_21  and  O_22
REMARK    5  A    between atoms: O_22  and  C_23
REMARK    6  A    between atoms: C_23  and  C_24
REMARK    7  A    between atoms: C_32  and  O_39
REMARK    8  A    between atoms: C_32  and  C_40
REMARK                            x       y       z     vdW  Elec       q    Type
REMARK                         _______ _______ _______ _____ _____    ______ ____
ROOT
ATOM      1  C   UNL A   1     -24.855  -1.012  30.143  0.00  0.00    +0.043 C 
ATOM      2  C   UNL A   1     -25.387  -0.679  31.571  0.00  0.00    +0.078 C 
ATOM      3  C   UNL A   1     -25.189   0.773  32.028  0.00  0.00    +0.036 C 
ATOM      4  C   UNL A   1     -25.336   0.684  33.544  0.00  0.00    +0.022 C 
ATOM      5  C   UNL A   1     -24.829  -0.715  33.905  0.00  0.00    +0.089 C 
ATOM      6  N   UNL A   1     -24.758  -1.481  32.646  0.00  0.00    -0.219 NA
ATOM      7  N   UNL A   1     -24.177   1.888  30.069  0.00  0.00    -0.190 NA
ATOM      8  C   UNL A   1     -23.560   0.921  29.177  0.00  0.00    +0.175 C 
ATOM      9  C   UNL A   1     -22.234   1.356  28.626  0.00  0.00    +0.046 C 
ATOM     10  F   UNL A   1     -20.954   1.723  26.769  0.00  0.00    -0.205 F 
ATOM     11  C   UNL A   1     -24.411   1.340  26.971  0.00  0.00    +0.168 C 
ATOM     12  C   UNL A   1     -22.141   1.661  27.286  0.00  0.00    +0.140 C 
ATOM     13  C   UNL A   1     -23.484  -0.416  29.918  0.00  0.00    +0.054 C 
ATOM     14  O   UNL A   1     -24.413   0.542  28.096  0.00  0.00    -0.333 OA
ATOM     15  C   UNL A   1     -23.195   2.102  25.145  0.00  0.00    +0.168 C 
ATOM     16  C   UNL A   1     -24.076   1.771  31.549  0.00  0.00    +0.106 C 
ATOM     17  C   UNL A   1     -23.268   1.750  26.466  0.00  0.00    +0.066 C 
ATOM     18  F   UNL A   1     -22.078   2.660  24.671  0.00  0.00    -0.202 F 
ENDROOT
BRANCH  11  19
ATOM     19  C   UNL A   1     -25.688   1.614  26.461  0.00  0.00    +0.047 C 
ATOM     20  C   UNL A   1     -26.250   2.920  26.395  0.00  0.00    +0.075 C 
ATOM     21  C   UNL A   1     -27.438   3.091  25.645  0.00  0.00    +0.106 C 
ATOM     22  N   UNL A   1     -28.075   2.089  25.003  0.00  0.00    -0.208 NA
ATOM     23  C   UNL A   1     -27.543   0.849  25.079  0.00  0.00    +0.253 C 
ATOM     24  C   UNL A   1     -26.354   0.576  25.777  0.00  0.00    +0.192 C 
ATOM     25  F   UNL A   1     -25.860  -0.681  25.795  0.00  0.00    -0.200 F 
BRANCH  20  26
ATOM     26  C   UNL A   1     -25.642   4.093  27.123  0.00  0.00    +0.266 C 
ATOM     27  N   UNL A   1     -25.614   5.252  26.449  0.00  0.00    -0.200 NA
ATOM     28  C   UNL A   1     -25.026   6.479  26.963  0.00  0.00    +0.139 C 
ATOM     29  O   UNL A   1     -25.143   3.966  28.243  0.00  0.00    -0.268 OA
ENDBRANCH  20  26
BRANCH  23  30
ATOM     30  O   UNL A   1     -28.193  -0.208  24.477  0.00  0.00    -0.456 OA
BRANCH  30  31
ATOM     31  C   UNL A   1     -29.460   0.005  23.866  0.00  0.00    +0.243 C 
BRANCH  31  32
ATOM     32  C   UNL A   1     -30.065  -1.377  23.573  0.00  0.00    +0.229 C 
ATOM     33  O   UNL A   1     -30.729  -1.878  24.721  0.00  0.00    -0.216 OA
ENDBRANCH  31  32
ENDBRANCH  30  31
ENDBRANCH  23  30
ENDBRANCH  11  19
BRANCH   1  34
ATOM     34  C   UNL A   1     -24.973  -2.505  29.788  0.00  0.00    -0.021 C 
ATOM     35  C   UNL A   1     -23.906  -3.173  29.146  0.00  0.00    -0.004 C 
ATOM     36  C   UNL A   1     -23.989  -4.549  28.853  0.00  0.00    -0.000 C 
ATOM     37  C   UNL A   1     -25.137  -5.280  29.205  0.00  0.00    -0.000 C 
ATOM     38  C   UNL A   1     -26.232  -4.611  29.784  0.00  0.00    -0.000 C 
ATOM     39  C   UNL A   1     -26.155  -3.232  30.065  0.00  0.00    -0.004 C 
ENDBRANCH   1  34
BRANCH  16  40
ATOM     40  C   UNL A   1     -24.305   3.165  32.194  0.00  0.00    +0.160 C 
BRANCH  40  42
ATOM     41  C   UNL A   1     -25.625   5.220  32.367  0.00  0.00    +0.174 C 
ATOM     42  O   UNL A   1     -25.123   4.183  31.516  0.00  0.00    -0.350 OA
ENDBRANCH  40  42
ENDBRANCH  16  40
TORSDOF 8
