MODEL 696
MODEL 1
REMARK VINA RESULT:    -4.343      0.000      0.000
REMARK INTER + INTRA:          -4.343
REMARK INTER:                  -4.343
REMARK INTRA:                   0.000
REMARK UNBOUND:                 0.000
REMARK  Name = No_696-gen_results/8p0m/2024-11-27-11-27-31/
REMARK  0 active torsions:
REMARK  status: ('A' for Active; 'I' for Inactive)
REMARK                            x       y       z     vdW  Elec       q    Type
REMARK                         _______ _______ _______ _____ _____    ______ ____
ROOT
ATOM      1  C   UNL A   1     -24.940  -5.402  29.105  0.00  0.00    +0.000 A 
ATOM      2  C   UNL A   1     -24.220  -4.736  28.719  0.00  0.00    +0.000 A 
ATOM      3  C   UNL A   1     -26.132  -4.730  29.637  0.00  0.00    +0.000 A 
ATOM      4  C   UNL A   1     -26.203  -3.406  29.782  0.00  0.00    +0.000 A 
ATOM      5  C   UNL A   1     -24.069  -3.303  28.778  0.00  0.00    +0.000 A 
ATOM      6  C   UNL A   1     -25.175  -2.699  29.298  0.00  0.00    +0.000 A 
ENDROOT
TORSDOF 0
ENDMDL
ENDMDL
