REMARK  Name = No_697-gen_results/8p0m/2024-11-27-11-27-31/
REMARK  3 active torsions:
REMARK  status: ('A' for Active; 'I' for Inactive)
REMARK    1  A    between atoms: C_2  and  N_7
REMARK    2  A    between atoms: C_11  and  C_12
REMARK    3  A    between atoms: C_12  and  C_13
REMARK                            x       y       z     vdW  Elec       q    Type
REMARK                         _______ _______ _______ _____ _____    ______ ____
ROOT
ATOM      1  N   UNL A   1     -26.865   1.055  27.793  0.00  0.00    -0.308 N 
ATOM      2  C   UNL A   1     -27.692   1.564  27.152  0.00  0.00    +0.080 A 
ATOM      3  C   UNL A   1     -27.401   2.646  26.267  0.00  0.00    +0.020 A 
ATOM      4  C   UNL A   1     -25.983   2.882  26.251  0.00  0.00    +0.015 A 
ATOM      5  C   UNL A   1     -25.530   1.720  27.370  0.00  0.00    +0.046 A 
ENDROOT
BRANCH   1   7
ATOM      6  C   UNL A   1     -28.016  -0.814  28.878  0.00  0.00    +0.018 A 
ATOM      7  C   UNL A   1     -27.064  -0.119  28.608  0.00  0.00    +0.064 A 
ATOM      8  C   UNL A   1     -25.792  -0.430  29.076  0.00  0.00    +0.018 A 
ATOM      9  C   UNL A   1     -25.576  -1.565  29.936  0.00  0.00    +0.002 A 
ATOM     10  C   UNL A   1     -26.735  -2.300  30.217  0.00  0.00    +0.000 A 
ATOM     11  C   UNL A   1     -27.918  -1.954  29.763  0.00  0.00    +0.002 A 
ENDBRANCH   1   7
BRANCH   5  12
ATOM     12  C   UNL A   1     -24.792   2.233  28.579  0.00  0.00    +0.070 C 
BRANCH  12  13
ATOM     13  C   UNL A   1     -23.555   1.580  28.876  0.00  0.00    -0.016 A 
ATOM     14  C   UNL A   1     -22.878   0.814  28.017  0.00  0.00    -0.004 A 
ATOM     15  C   UNL A   1     -21.612   0.270  28.394  0.00  0.00    -0.000 A 
ATOM     16  C   UNL A   1     -21.413  -0.310  29.647  0.00  0.00    -0.000 A 
ATOM     17  C   UNL A   1     -22.379   0.226  30.646  0.00  0.00    -0.000 A 
ATOM     18  C   UNL A   1     -23.392   1.178  30.343  0.00  0.00    -0.004 A 
ENDBRANCH  12  13
ENDBRANCH   5  12
TORSDOF 3
