REMARK  Name = outputs/IAG933/test6/raw/output_6970_IAG933_linker_design_.xyz
REMARK  9 active torsions:
REMARK  status: ('A' for Active; 'I' for Inactive)
REMARK    1  A    between atoms: C_1  and  C_2
REMARK    2  A    between atoms: C_1  and  C_8
REMARK    3  A    between atoms: C_1  and  C_41
REMARK    4  A    between atoms: C_13  and  C_31
REMARK    5  A    between atoms: C_14  and  C_15
REMARK    6  A    between atoms: C_21  and  O_22
REMARK    7  A    between atoms: O_22  and  C_23
REMARK    8  A    between atoms: C_23  and  C_24
REMARK    9  A    between atoms: C_35  and  C_43
REMARK                            x       y       z     vdW  Elec       q    Type
REMARK                         _______ _______ _______ _____ _____    ______ ____
ROOT
ATOM      1  O   UNL A   1     -27.554  -0.424  28.468  0.00  0.00    -0.270 OA
ATOM      2  C   UNL A   1     -24.886   1.129  27.470  0.00  0.00    +0.050 A 
ATOM      3  C   UNL A   1     -22.608   1.747  26.629  0.00  0.00    +0.218 C 
ATOM      4  O   UNL A   1     -21.406   1.394  27.066  0.00  0.00    -0.332 OA
ATOM      5  C   UNL A   1     -21.508   0.625  28.390  0.00  0.00    +0.171 C 
ATOM      6  C   UNL A   1     -26.750   0.570  28.886  0.00  0.00    +0.258 C 
ATOM      7  C   UNL A   1     -23.079   0.307  28.628  0.00  0.00    +0.020 A 
ATOM      8  C   UNL A   1     -23.554   1.219  27.501  0.00  0.00    +0.032 A 
ATOM      9  N   UNL A   1     -25.486   0.508  28.549  0.00  0.00    -0.284 N 
ATOM     10  C   UNL A   1     -24.507  -0.067  29.204  0.00  0.00    +0.047 A 
ATOM     11 CL   UNL A   1     -23.017   2.539  25.111  0.00  0.00    -0.077 Cl
ENDROOT
BRANCH   2  12
ATOM     12  C   UNL A   1     -25.688   1.614  26.461  0.00  0.00    +0.108 C 
ATOM     13  C   UNL A   1     -26.250   2.920  26.395  0.00  0.00    +0.060 C 
ATOM     14  C   UNL A   1     -27.438   3.091  25.645  0.00  0.00    +0.102 C 
ATOM     15  N   UNL A   1     -28.075   2.089  25.003  0.00  0.00    -0.212 NA
ATOM     16  C   UNL A   1     -27.543   0.849  25.079  0.00  0.00    +0.234 C 
ATOM     17  C   UNL A   1     -26.354   0.576  25.777  0.00  0.00    +0.245 C 
ATOM     18  F   UNL A   1     -25.860  -0.681  25.795  0.00  0.00    -0.227 F 
BRANCH  13  19
ATOM     19  C   UNL A   1     -25.642   4.093  27.123  0.00  0.00    +0.263 C 
ATOM     20  N   UNL A   1     -25.614   5.252  26.449  0.00  0.00    -0.200 NA
ATOM     21  C   UNL A   1     -25.026   6.479  26.963  0.00  0.00    +0.139 C 
ATOM     22  O   UNL A   1     -25.143   3.966  28.243  0.00  0.00    -0.269 OA
ENDBRANCH  13  19
BRANCH  16  23
ATOM     23  O   UNL A   1     -28.193  -0.208  24.477  0.00  0.00    -0.459 OA
BRANCH  23  24
ATOM     24  C   UNL A   1     -29.460   0.005  23.866  0.00  0.00    +0.242 C 
BRANCH  24  25
ATOM     25  C   UNL A   1     -30.065  -1.377  23.573  0.00  0.00    +0.229 C 
ATOM     26  O   UNL A   1     -30.729  -1.878  24.721  0.00  0.00    -0.216 OA
ENDBRANCH  24  25
ENDBRANCH  23  24
ENDBRANCH  16  23
ENDBRANCH   2  12
BRANCH   6  32
ATOM     27  N   UNL A   1     -29.372   3.139  29.341  0.00  0.00    -0.255 NA
ATOM     28  C   UNL A   1     -30.551   3.564  29.980  0.00  0.00    +0.091 C 
ATOM     29  C   UNL A   1     -28.254   3.995  29.341  0.00  0.00    +0.164 C 
ATOM     30  C   UNL A   1     -29.295   1.969  28.565  0.00  0.00    +0.101 C 
ATOM     31  N   UNL A   1     -27.031   2.821  29.226  0.00  0.00    -0.191 NA
ATOM     32  C   UNL A   1     -27.485   1.681  29.219  0.00  0.00    +0.169 C 
ENDBRANCH   6  32
BRANCH  10  33
ATOM     33  C   UNL A   1     -24.855  -1.012  30.143  0.00  0.00    +0.077 C 
BRANCH  33  34
ATOM     34  C   UNL A   1     -24.973  -2.505  29.788  0.00  0.00    -0.016 C 
ATOM     35  C   UNL A   1     -23.906  -3.173  29.146  0.00  0.00    -0.004 C 
ATOM     36  C   UNL A   1     -23.989  -4.549  28.853  0.00  0.00    -0.000 C 
ATOM     37  C   UNL A   1     -25.137  -5.280  29.205  0.00  0.00    -0.000 C 
ATOM     38  C   UNL A   1     -26.232  -4.611  29.784  0.00  0.00    -0.000 C 
ATOM     39  C   UNL A   1     -26.155  -3.232  30.065  0.00  0.00    -0.004 C 
ENDBRANCH  33  34
BRANCH  33  40
ATOM     40  C   UNL A   1     -25.387  -0.679  31.571  0.00  0.00    +0.082 C 
ATOM     41  C   UNL A   1     -25.189   0.773  32.028  0.00  0.00    +0.020 C 
ATOM     42  C   UNL A   1     -25.336   0.684  33.544  0.00  0.00    +0.020 C 
ATOM     43  C   UNL A   1     -24.829  -0.715  33.905  0.00  0.00    +0.089 C 
ATOM     44  N   UNL A   1     -24.758  -1.481  32.646  0.00  0.00    -0.219 NA
ENDBRANCH  33  40
ENDBRANCH  10  33
TORSDOF 9
