REMARK  Name = outputs/IAG933/test6/raw/output_6973_IAG933_linker_design_.xyz
REMARK  11 active torsions:
REMARK  status: ('A' for Active; 'I' for Inactive)
REMARK    1  A    between atoms: C_1  and  C_2
REMARK    2  A    between atoms: C_1  and  C_8
REMARK    3  A    between atoms: C_1  and  C_40
REMARK    4  A    between atoms: C_13  and  C_37
REMARK    5  A    between atoms: C_14  and  C_15
REMARK    6  A    between atoms: C_21  and  O_22
REMARK    7  A    between atoms: O_22  and  C_23
REMARK    8  A    between atoms: C_23  and  C_24
REMARK    9  A    between atoms: C_32  and  C_40
REMARK   10  A    between atoms: C_33  and  O_38
REMARK   11  A    between atoms: N_34  and  C_40
REMARK                            x       y       z     vdW  Elec       q    Type
REMARK                         _______ _______ _______ _____ _____    ______ ____
ROOT
ATOM      1  C   UNL A   1     -23.060   0.794  28.547  0.00  0.00    +0.170 C 
ATOM      2  F   UNL A   1     -22.610   0.290  29.568  0.00  0.00    -0.202 F 
ATOM      3  C   UNL A   1     -24.446   0.717  28.201  0.00  0.00    +0.053 C 
ATOM      4  C   UNL A   1     -22.444   2.020  26.488  0.00  0.00    +0.168 C 
ATOM      5  C   UNL A   1     -23.715   2.074  26.211  0.00  0.00    +0.039 C 
ATOM      6  C   UNL A   1     -24.631   1.415  26.983  0.00  0.00    +0.008 C 
ATOM      7  C   UNL A   1     -22.107   1.450  27.691  0.00  0.00    +0.201 C 
ATOM      8  F   UNL A   1     -20.813   1.597  27.973  0.00  0.00    -0.199 F 
ENDROOT
BRANCH   6   9
ATOM      9  C   UNL A   1     -25.688   1.614  26.461  0.00  0.00    +0.038 C 
ATOM     10  C   UNL A   1     -26.250   2.920  26.395  0.00  0.00    +0.076 C 
ATOM     11  C   UNL A   1     -27.438   3.091  25.645  0.00  0.00    +0.107 C 
ATOM     12  N   UNL A   1     -28.075   2.089  25.003  0.00  0.00    -0.208 NA
ATOM     13  C   UNL A   1     -27.543   0.849  25.079  0.00  0.00    +0.253 C 
ATOM     14  C   UNL A   1     -26.354   0.576  25.777  0.00  0.00    +0.193 C 
ATOM     15  F   UNL A   1     -25.860  -0.681  25.795  0.00  0.00    -0.199 F 
BRANCH  10  16
ATOM     16  C   UNL A   1     -25.642   4.093  27.123  0.00  0.00    +0.266 C 
ATOM     17  N   UNL A   1     -25.614   5.252  26.449  0.00  0.00    -0.200 NA
ATOM     18  C   UNL A   1     -25.026   6.479  26.963  0.00  0.00    +0.139 C 
ATOM     19  O   UNL A   1     -25.143   3.966  28.243  0.00  0.00    -0.268 OA
ENDBRANCH  10  16
BRANCH  13  20
ATOM     20  O   UNL A   1     -28.193  -0.208  24.477  0.00  0.00    -0.456 OA
BRANCH  20  21
ATOM     21  C   UNL A   1     -29.460   0.005  23.866  0.00  0.00    +0.243 C 
BRANCH  21  22
ATOM     22  C   UNL A   1     -30.065  -1.377  23.573  0.00  0.00    +0.229 C 
ATOM     23  O   UNL A   1     -30.729  -1.878  24.721  0.00  0.00    -0.216 OA
ENDBRANCH  21  22
ENDBRANCH  20  21
ENDBRANCH  13  20
ENDBRANCH   6   9
BRANCH   4  25
ATOM     24  C   UNL A   1     -22.156   3.082  24.444  0.00  0.00    +0.253 C 
ATOM     25  O   UNL A   1     -21.518   2.516  25.609  0.00  0.00    -0.469 OA
ENDBRANCH   4  25
BRANCH   3  27
ATOM     26  O   UNL A   1     -26.520  -0.718  28.252  0.00  0.00    -0.200 OA
ATOM     27  C   UNL A   1     -25.561   0.001  29.033  0.00  0.00    +0.240 C 
BRANCH  27  29
ATOM     28  O   UNL A   1     -27.695   1.373  29.226  0.00  0.00    -0.097 OA
ATOM     29  N   UNL A   1     -26.406   1.148  29.497  0.00  0.00    -0.015 NA
ENDBRANCH  27  29
BRANCH  27  30
ATOM     30  C   UNL A   1     -24.855  -1.012  30.143  0.00  0.00    +0.088 C 
BRANCH  30  31
ATOM     31  C   UNL A   1     -24.973  -2.505  29.788  0.00  0.00    -0.017 C 
ATOM     32  C   UNL A   1     -23.906  -3.173  29.146  0.00  0.00    -0.004 C 
ATOM     33  C   UNL A   1     -23.989  -4.549  28.853  0.00  0.00    -0.000 C 
ATOM     34  C   UNL A   1     -25.137  -5.280  29.205  0.00  0.00    -0.000 C 
ATOM     35  C   UNL A   1     -26.232  -4.611  29.784  0.00  0.00    -0.000 C 
ATOM     36  C   UNL A   1     -26.155  -3.232  30.065  0.00  0.00    -0.004 C 
ENDBRANCH  30  31
BRANCH  30  37
ATOM     37  C   UNL A   1     -25.387  -0.679  31.571  0.00  0.00    +0.081 C 
ATOM     38  C   UNL A   1     -25.189   0.773  32.028  0.00  0.00    +0.019 C 
ATOM     39  C   UNL A   1     -25.336   0.684  33.544  0.00  0.00    +0.020 C 
ATOM     40  C   UNL A   1     -24.829  -0.715  33.905  0.00  0.00    +0.089 C 
ATOM     41  N   UNL A   1     -24.758  -1.481  32.646  0.00  0.00    -0.219 NA
ENDBRANCH  30  37
ENDBRANCH  27  30
ENDBRANCH   3  27
TORSDOF 11
