MODEL 697
MODEL 1
REMARK VINA RESULT:    -7.139      0.000      0.000
REMARK INTER + INTRA:          -9.466
REMARK INTER:                  -8.392
REMARK INTRA:                  -1.075
REMARK UNBOUND:                -1.075
REMARK  Name = No_697-gen_results/8p0m/2024-11-27-11-27-31/
REMARK  3 active torsions:
REMARK  status: ('A' for Active; 'I' for Inactive)
REMARK    1  A    between atoms: C_2  and  N_7
REMARK    2  A    between atoms: C_11  and  C_12
REMARK    3  A    between atoms: C_12  and  C_13
REMARK                            x       y       z     vdW  Elec       q    Type
REMARK                         _______ _______ _______ _____ _____    ______ ____
ROOT
ATOM      1  N   UNL A   1     -23.979  -1.281  28.556  0.00  0.00    -0.308 N 
ATOM      2  C   UNL A   1     -24.523  -0.521  27.864  0.00  0.00    +0.080 A 
ATOM      3  C   UNL A   1     -23.950   0.747  27.540  0.00  0.00    +0.020 A 
ATOM      4  C   UNL A   1     -22.631   0.834  28.106  0.00  0.00    +0.015 A 
ATOM      5  C   UNL A   1     -22.597  -0.655  28.874  0.00  0.00    +0.046 A 
ENDROOT
BRANCH   1   7
ATOM      6  C   UNL A   1     -23.964  -3.727  28.681  0.00  0.00    +0.018 A 
ATOM      7  C   UNL A   1     -24.438  -2.623  28.822  0.00  0.00    +0.064 A 
ATOM      8  C   UNL A   1     -25.684  -2.447  29.413  0.00  0.00    +0.018 A 
ATOM      9  C   UNL A   1     -26.471  -3.578  29.833  0.00  0.00    +0.002 A 
ATOM     10  C   UNL A   1     -25.857  -4.818  29.611  0.00  0.00    +0.000 A 
ATOM     11  C   UNL A   1     -24.683  -4.931  29.033  0.00  0.00    +0.002 A 
ENDBRANCH   1   7
BRANCH   5  12
ATOM     12  C   UNL A   1     -22.367  -0.614  30.362  0.00  0.00    +0.070 C 
BRANCH  12  13
ATOM     13  C   UNL A   1     -23.498  -0.244  31.156  0.00  0.00    -0.016 A 
ATOM     14  C   UNL A   1     -23.923   1.010  31.329  0.00  0.00    -0.004 A 
ATOM     15  C   UNL A   1     -25.111   1.261  32.083  0.00  0.00    -0.000 A 
ATOM     16  C   UNL A   1     -25.353   0.614  33.295  0.00  0.00    -0.000 A 
ATOM     17  C   UNL A   1     -24.622  -0.681  33.368  0.00  0.00    -0.000 A 
ATOM     18  C   UNL A   1     -23.762  -1.169  32.345  0.00  0.00    -0.004 A 
ENDBRANCH  12  13
ENDBRANCH   5  12
TORSDOF 3
ENDMDL
ENDMDL
