REMARK  Name = outputs/IAG933/test6/raw/output_6985_IAG933_linker_design_.xyz
REMARK  13 active torsions:
REMARK  status: ('A' for Active; 'I' for Inactive)
REMARK    1  A    between atoms: C_1  and  C_2
REMARK    2  A    between atoms: C_1  and  C_8
REMARK    3  A    between atoms: C_9  and  C_34
REMARK    4  A    between atoms: C_13  and  C_33
REMARK    5  A    between atoms: C_14  and  C_15
REMARK    6  A    between atoms: C_21  and  O_22
REMARK    7  A    between atoms: O_22  and  C_23
REMARK    8  A    between atoms: C_23  and  C_24
REMARK    9  A    between atoms: N_29  and  C_34
REMARK   10  A    between atoms: C_34  and  C_42
REMARK   11  A    between atoms: C_36  and  O_39
REMARK   12  A    between atoms: O_37  and  C_41
REMARK   13  A    between atoms: O_39  and  C_42
REMARK                            x       y       z     vdW  Elec       q    Type
REMARK                         _______ _______ _______ _____ _____    ______ ____
ROOT
ATOM      1  C   UNL A   1     -21.790   1.376  28.307  0.00  0.00    +0.006 C 
ATOM      2  C   UNL A   1     -21.883   1.659  26.955  0.00  0.00    +0.042 C 
ATOM      3  C   UNL A   1     -24.381   1.503  27.120  0.00  0.00    +0.075 C 
ATOM      4  C   UNL A   1     -22.930   1.182  29.069  0.00  0.00    +0.037 C 
ATOM      5  C   UNL A   1     -24.220   1.311  28.513  0.00  0.00    +0.142 C 
ATOM      6  C   UNL A   1     -23.144   1.718  26.372  0.00  0.00    +0.192 C 
ENDROOT
BRANCH   3   7
ATOM      7  C   UNL A   1     -25.688   1.614  26.461  0.00  0.00    +0.044 C 
ATOM      8  C   UNL A   1     -26.250   2.920  26.395  0.00  0.00    +0.077 C 
ATOM      9  C   UNL A   1     -27.438   3.091  25.645  0.00  0.00    +0.107 C 
ATOM     10  N   UNL A   1     -28.075   2.089  25.003  0.00  0.00    -0.208 NA
ATOM     11  C   UNL A   1     -27.543   0.849  25.079  0.00  0.00    +0.253 C 
ATOM     12  C   UNL A   1     -26.354   0.576  25.777  0.00  0.00    +0.193 C 
ATOM     13  F   UNL A   1     -25.860  -0.681  25.795  0.00  0.00    -0.199 F 
BRANCH   8  14
ATOM     14  C   UNL A   1     -25.642   4.093  27.123  0.00  0.00    +0.266 C 
ATOM     15  N   UNL A   1     -25.614   5.252  26.449  0.00  0.00    -0.200 NA
ATOM     16  C   UNL A   1     -25.026   6.479  26.963  0.00  0.00    +0.139 C 
ATOM     17  O   UNL A   1     -25.143   3.966  28.243  0.00  0.00    -0.268 OA
ENDBRANCH   8  14
BRANCH  11  18
ATOM     18  O   UNL A   1     -28.193  -0.208  24.477  0.00  0.00    -0.456 OA
BRANCH  18  19
ATOM     19  C   UNL A   1     -29.460   0.005  23.866  0.00  0.00    +0.243 C 
BRANCH  19  20
ATOM     20  C   UNL A   1     -30.065  -1.377  23.573  0.00  0.00    +0.229 C 
ATOM     21  O   UNL A   1     -30.729  -1.878  24.721  0.00  0.00    -0.216 OA
ENDBRANCH  19  20
ENDBRANCH  18  19
ENDBRANCH  11  18
ENDBRANCH   3   7
BRANCH   6  22
ATOM     22  O   UNL A   1     -23.117   2.021  25.058  0.00  0.00    -0.292 OA
ATOM     23  F   UNL A   1     -21.975   2.632  24.660  0.00  0.00    +0.014 F 
ENDBRANCH   6  22
BRANCH   5  24
ATOM     24  O   UNL A   1     -25.290   1.287  29.376  0.00  0.00    -0.474 OA
BRANCH  24  25
ATOM     25  C   UNL A   1     -26.537   1.612  30.036  0.00  0.00    +0.225 C 
BRANCH  25  26
ATOM     26  C   UNL A   1     -26.256   1.807  31.532  0.00  0.00    +0.141 C 
BRANCH  26  28
ATOM     27  C   UNL A   1     -25.387  -0.679  31.571  0.00  0.00    +0.079 C 
ATOM     28  C   UNL A   1     -25.189   0.773  32.028  0.00  0.00    +0.040 C 
ATOM     29  C   UNL A   1     -25.336   0.684  33.544  0.00  0.00    +0.022 C 
ATOM     30  C   UNL A   1     -24.829  -0.715  33.905  0.00  0.00    +0.089 C 
ATOM     31  N   UNL A   1     -24.758  -1.481  32.646  0.00  0.00    -0.219 NA
BRANCH  27  32
ATOM     32  C   UNL A   1     -24.855  -1.012  30.143  0.00  0.00    +0.044 C 
BRANCH  32  33
ATOM     33  C   UNL A   1     -24.973  -2.505  29.788  0.00  0.00    -0.021 C 
ATOM     34  C   UNL A   1     -23.906  -3.173  29.146  0.00  0.00    -0.004 C 
ATOM     35  C   UNL A   1     -23.989  -4.549  28.853  0.00  0.00    -0.000 C 
ATOM     36  C   UNL A   1     -25.137  -5.280  29.205  0.00  0.00    -0.000 C 
ATOM     37  C   UNL A   1     -26.232  -4.611  29.784  0.00  0.00    -0.000 C 
ATOM     38  C   UNL A   1     -26.155  -3.232  30.065  0.00  0.00    -0.004 C 
ENDBRANCH  32  33
ENDBRANCH  27  32
ENDBRANCH  26  28
BRANCH  26  39
ATOM     39  N   UNL A   1     -26.073   3.217  31.881  0.00  0.00    -0.114 NA
ATOM     40  O   UNL A   1     -26.625   4.420  31.537  0.00  0.00    -0.398 OA
ATOM     41  C   UNL A   1     -25.003   3.491  32.658  0.00  0.00    +0.143 C 
ATOM     42  C   UNL A   1     -24.962   4.888  33.011  0.00  0.00    +0.037 C 
ATOM     43  C   UNL A   1     -25.969   5.421  32.214  0.00  0.00    +0.198 C 
ENDBRANCH  26  39
ENDBRANCH  25  26
ENDBRANCH  24  25
ENDBRANCH   5  24
TORSDOF 13
