REMARK  Name = outputs/IAG933/test6/raw/output_6989_IAG933_linker_design_.xyz
REMARK  16 active torsions:
REMARK  status: ('A' for Active; 'I' for Inactive)
REMARK    1  A    between atoms: C_1  and  C_2
REMARK    2  A    between atoms: C_1  and  C_8
REMARK    3  A    between atoms: C_1  and  N_40
REMARK    4  A    between atoms: C_13  and  C_28
REMARK    5  A    between atoms: C_14  and  C_15
REMARK    6  A    between atoms: C_21  and  O_22
REMARK    7  A    between atoms: O_22  and  C_23
REMARK    8  A    between atoms: C_23  and  C_24
REMARK    9  A    between atoms: C_29  and  O_31
REMARK   10  A    between atoms: O_31  and  C_38
REMARK   11  A    between atoms: C_32  and  N_40
REMARK   12  A    between atoms: O_34  and  N_36
REMARK   13  A    between atoms: C_38  and  C_44
REMARK   14  A    between atoms: C_39  and  C_44
REMARK   15  A    between atoms: C_39  and  C_46
REMARK   16  A    between atoms: N_40  and  C_46
REMARK                            x       y       z     vdW  Elec       q    Type
REMARK                         _______ _______ _______ _____ _____    ______ ____
ROOT
ATOM      1  N   UNL A   1     -25.456  -0.053  29.169  0.00  0.00    -0.267 NA
ENDROOT
BRANCH   1   3
ATOM      2  C   UNL A   1     -24.494   1.418  27.165  0.00  0.00    -0.009 C 
ATOM      3  C   UNL A   1     -24.517   0.793  28.425  0.00  0.00    +0.080 C 
ATOM      4  C   UNL A   1     -22.024   1.013  28.587  0.00  0.00    +0.006 C 
ATOM      5  C   UNL A   1     -23.168   0.041  28.522  0.00  0.00    +0.021 C 
ATOM      6  C   UNL A   1     -22.025   2.071  27.404  0.00  0.00    +0.026 C 
ATOM      7  C   UNL A   1     -23.273   1.992  26.510  0.00  0.00    -0.029 C 
BRANCH   2   8
ATOM      8  C   UNL A   1     -25.688   1.614  26.461  0.00  0.00    +0.035 C 
ATOM      9  C   UNL A   1     -26.250   2.920  26.395  0.00  0.00    +0.076 C 
ATOM     10  C   UNL A   1     -27.438   3.091  25.645  0.00  0.00    +0.107 C 
ATOM     11  N   UNL A   1     -28.075   2.089  25.003  0.00  0.00    -0.208 NA
ATOM     12  C   UNL A   1     -27.543   0.849  25.079  0.00  0.00    +0.253 C 
ATOM     13  C   UNL A   1     -26.354   0.576  25.777  0.00  0.00    +0.193 C 
ATOM     14  F   UNL A   1     -25.860  -0.681  25.795  0.00  0.00    -0.199 F 
BRANCH   9  15
ATOM     15  C   UNL A   1     -25.642   4.093  27.123  0.00  0.00    +0.266 C 
ATOM     16  N   UNL A   1     -25.614   5.252  26.449  0.00  0.00    -0.200 NA
ATOM     17  C   UNL A   1     -25.026   6.479  26.963  0.00  0.00    +0.139 C 
ATOM     18  O   UNL A   1     -25.143   3.966  28.243  0.00  0.00    -0.268 OA
ENDBRANCH   9  15
BRANCH  12  19
ATOM     19  O   UNL A   1     -28.193  -0.208  24.477  0.00  0.00    -0.456 OA
BRANCH  19  20
ATOM     20  C   UNL A   1     -29.460   0.005  23.866  0.00  0.00    +0.243 C 
BRANCH  20  21
ATOM     21  C   UNL A   1     -30.065  -1.377  23.573  0.00  0.00    +0.229 C 
ATOM     22  O   UNL A   1     -30.729  -1.878  24.721  0.00  0.00    -0.216 OA
ENDBRANCH  20  21
ENDBRANCH  19  20
ENDBRANCH  12  19
ENDBRANCH   2   8
ENDBRANCH   1   3
BRANCH   1  23
ATOM     23  C   UNL A   1     -24.855  -1.012  30.143  0.00  0.00    +0.097 C 
BRANCH  23  24
ATOM     24  C   UNL A   1     -24.973  -2.505  29.788  0.00  0.00    -0.006 C 
ATOM     25  C   UNL A   1     -23.906  -3.173  29.146  0.00  0.00    -0.003 C 
ATOM     26  C   UNL A   1     -23.989  -4.549  28.853  0.00  0.00    -0.000 C 
ATOM     27  C   UNL A   1     -25.137  -5.280  29.205  0.00  0.00    -0.000 C 
ATOM     28  C   UNL A   1     -26.232  -4.611  29.784  0.00  0.00    -0.000 C 
ATOM     29  C   UNL A   1     -26.155  -3.232  30.065  0.00  0.00    -0.003 C 
ENDBRANCH  23  24
BRANCH  23  30
ATOM     30  C   UNL A   1     -25.387  -0.679  31.571  0.00  0.00    +0.092 C 
ATOM     31  C   UNL A   1     -25.189   0.773  32.028  0.00  0.00    +0.021 C 
ATOM     32  C   UNL A   1     -25.336   0.684  33.544  0.00  0.00    +0.020 C 
ATOM     33  C   UNL A   1     -24.829  -0.715  33.905  0.00  0.00    +0.089 C 
ATOM     34  N   UNL A   1     -24.758  -1.481  32.646  0.00  0.00    -0.218 NA
ENDBRANCH  23  30
ENDBRANCH   1  23
BRANCH   1  35
ATOM     35  C   UNL A   1     -26.864  -0.000  29.142  0.00  0.00    +0.073 C 
BRANCH  35  36
ATOM     36  C   UNL A   1     -28.348   0.046  29.570  0.00  0.00    +0.021 C 
BRANCH  36  37
ATOM     37  C   UNL A   1     -29.197  -0.024  28.289  0.00  0.00    +0.049 C 
BRANCH  37  38
ATOM     38  C   UNL A   1     -30.424   0.875  28.386  0.00  0.00    +0.205 C 
BRANCH  38  39
ATOM     39  O   UNL A   1     -30.324   1.899  27.403  0.00  0.00    -0.475 OA
BRANCH  39  40
ATOM     40  C   UNL A   1     -30.606   3.214  27.711  0.00  0.00    +0.140 C 
ATOM     41  C   UNL A   1     -30.525   5.069  29.313  0.00  0.00    +0.024 C 
ATOM     42  C   UNL A   1     -30.511   3.693  29.000  0.00  0.00    +0.039 C 
ATOM     43  N   UNL A   1     -31.901   6.039  27.450  0.00  0.00    -0.214 N 
ATOM     44  C   UNL A   1     -31.608   5.176  26.414  0.00  0.00    +0.108 C 
ATOM     45  C   UNL A   1     -30.856   4.029  26.521  0.00  0.00    +0.058 C 
ATOM     46  C   UNL A   1     -31.121   6.119  28.607  0.00  0.00    +0.105 C 
BRANCH  43  47
ATOM     47  O   UNL A   1     -32.905   6.656  27.317  0.00  0.00    -0.250 OA
ATOM     48  C   UNL A   1     -32.621   7.509  26.282  0.00  0.00    +0.209 C 
ENDBRANCH  43  47
ENDBRANCH  39  40
ENDBRANCH  38  39
ENDBRANCH  37  38
ENDBRANCH  36  37
ENDBRANCH  35  36
ENDBRANCH   1  35
TORSDOF 16
