MODEL 698
MODEL 1
REMARK VINA RESULT:    -4.710      0.000      0.000
REMARK INTER + INTRA:          -5.002
REMARK INTER:                  -4.985
REMARK INTRA:                  -0.017
REMARK UNBOUND:                -0.017
REMARK  Name = No_698-gen_results/8p0m/2024-11-27-11-27-31/
REMARK  1 active torsions:
REMARK  status: ('A' for Active; 'I' for Inactive)
REMARK    1  A    between atoms: C_2  and  C_5
REMARK                            x       y       z     vdW  Elec       q    Type
REMARK                         _______ _______ _______ _____ _____    ______ ____
ROOT
ATOM      1  C   UNL A   1     -26.141  -4.806  29.648  0.00  0.00    -0.002 A 
ATOM      2  C   UNL A   1     -26.139  -3.753  29.666  0.00  0.00    +0.011 A 
ATOM      3  C   UNL A   1     -24.987  -5.383  28.959  0.00  0.00    -0.000 A 
ATOM      4  C   UNL A   1     -24.087  -4.743  28.611  0.00  0.00    -0.000 A 
ATOM      5  C   UNL A   1     -24.031  -3.332  28.697  0.00  0.00    -0.000 A 
ATOM      6  C   UNL A   1     -25.144  -2.734  29.352  0.00  0.00    -0.002 A 
ENDROOT
BRANCH   2   7
ATOM      7  C   UNL A   1     -27.307  -3.032  30.392  0.00  0.00    +0.209 C 
ATOM      8  O   UNL A   1     -28.521  -3.506  30.047  0.00  0.00    -0.215 OA
ENDBRANCH   2   7
TORSDOF 1
ENDMDL
ENDMDL
