REMARK  Name = outputs/IAG933/test6/raw/output_699_IAG933_linker_design_.xyz
REMARK  15 active torsions:
REMARK  status: ('A' for Active; 'I' for Inactive)
REMARK    1  A    between atoms: C_1  and  C_2
REMARK    2  A    between atoms: C_1  and  C_8
REMARK    3  A    between atoms: C_1  and  N_33
REMARK    4  A    between atoms: C_14  and  C_15
REMARK    5  A    between atoms: C_15  and  O_18
REMARK    6  A    between atoms: O_18  and  C_32
REMARK    7  A    between atoms: C_21  and  O_22
REMARK    8  A    between atoms: O_22  and  C_23
REMARK    9  A    between atoms: C_23  and  C_24
REMARK   10  A    between atoms: C_29  and  C_39
REMARK   11  A    between atoms: C_30  and  C_40
REMARK   12  A    between atoms: C_32  and  C_34
REMARK   13  A    between atoms: C_32  and  C_38
REMARK   14  A    between atoms: C_36  and  C_38
REMARK   15  A    between atoms: O_37  and  C_39
REMARK                            x       y       z     vdW  Elec       q    Type
REMARK                         _______ _______ _______ _____ _____    ______ ____
ROOT
ATOM      1  C   UNL A   1     -25.079   2.999  29.170  0.00  0.00    +0.219 C 
ENDROOT
BRANCH   1   3
ATOM      2  C   UNL A   1     -27.363   4.149  30.411  0.00  0.00    +0.202 C 
ATOM      3  C   UNL A   1     -25.780   3.855  30.451  0.00  0.00    +0.061 C 
ATOM      4  O   UNL A   1     -27.953   3.528  29.216  0.00  0.00    -0.289 OA
BRANCH   2   5
ATOM      5  C   UNL A   1     -27.958   5.184  31.306  0.00  0.00    +0.211 C 
BRANCH   5   6
ATOM      6  O   UNL A   1     -29.076   5.818  30.689  0.00  0.00    -0.343 OA
ATOM      7  C   UNL A   1     -30.413   5.353  30.880  0.00  0.00    +0.175 C 
ENDBRANCH   5   6
ENDBRANCH   2   5
ENDBRANCH   1   3
BRANCH   1   9
ATOM      8  C   UNL A   1     -23.044   2.612  27.818  0.00  0.00    +0.065 C 
ATOM      9  C   UNL A   1     -23.968   2.077  28.690  0.00  0.00    +0.081 C 
BRANCH   8  12
ATOM     10  O   UNL A   1     -21.652   1.970  25.821  0.00  0.00    -0.267 OA
ATOM     11  N   UNL A   1     -20.881   1.566  27.834  0.00  0.00    -0.084 NA
ATOM     12  C   UNL A   1     -21.831   2.028  27.093  0.00  0.00    +0.284 C 
ENDBRANCH   8  12
BRANCH   9  15
ATOM     13  O   UNL A   1     -22.597   0.263  29.489  0.00  0.00    -0.269 OA
ATOM     14  N   UNL A   1     -24.883  -0.083  29.207  0.00  0.00    -0.198 NA
ATOM     15  C   UNL A   1     -23.801   0.722  29.175  0.00  0.00    +0.265 C 
BRANCH  14  16
ATOM     16  C   UNL A   1     -24.855  -1.012  30.143  0.00  0.00    +0.134 C 
BRANCH  16  17
ATOM     17  C   UNL A   1     -24.973  -2.505  29.788  0.00  0.00    -0.001 C 
ATOM     18  C   UNL A   1     -23.906  -3.173  29.146  0.00  0.00    -0.003 C 
ATOM     19  C   UNL A   1     -23.989  -4.549  28.853  0.00  0.00    -0.000 C 
ATOM     20  C   UNL A   1     -25.137  -5.280  29.205  0.00  0.00    -0.000 C 
ATOM     21  C   UNL A   1     -26.232  -4.611  29.784  0.00  0.00    -0.000 C 
ATOM     22  C   UNL A   1     -26.155  -3.232  30.065  0.00  0.00    -0.003 C 
ENDBRANCH  16  17
BRANCH  16  23
ATOM     23  C   UNL A   1     -25.387  -0.679  31.571  0.00  0.00    +0.097 C 
ATOM     24  C   UNL A   1     -25.189   0.773  32.028  0.00  0.00    +0.021 C 
ATOM     25  C   UNL A   1     -25.336   0.684  33.544  0.00  0.00    +0.020 C 
ATOM     26  C   UNL A   1     -24.829  -0.715  33.905  0.00  0.00    +0.089 C 
ATOM     27  N   UNL A   1     -24.758  -1.481  32.646  0.00  0.00    -0.217 NA
ENDBRANCH  16  23
ENDBRANCH  14  16
ENDBRANCH   9  15
ENDBRANCH   1   9
BRANCH   1  28
ATOM     28  O   UNL A   1     -25.143   3.966  28.243  0.00  0.00    -0.455 OA
BRANCH  28  29
ATOM     29  C   UNL A   1     -25.642   4.093  27.123  0.00  0.00    +0.223 C 
ATOM     30  N   UNL A   1     -25.614   5.252  26.449  0.00  0.00    -0.236 NA
ATOM     31  C   UNL A   1     -25.026   6.479  26.963  0.00  0.00    +0.155 C 
BRANCH  29  33
ATOM     32  C   UNL A   1     -25.688   1.614  26.461  0.00  0.00    +0.041 C 
ATOM     33  C   UNL A   1     -26.250   2.920  26.395  0.00  0.00    +0.074 C 
ATOM     34  C   UNL A   1     -27.438   3.091  25.645  0.00  0.00    +0.107 C 
ATOM     35  N   UNL A   1     -28.075   2.089  25.003  0.00  0.00    -0.208 NA
ATOM     36  C   UNL A   1     -27.543   0.849  25.079  0.00  0.00    +0.253 C 
ATOM     37  C   UNL A   1     -26.354   0.576  25.777  0.00  0.00    +0.193 C 
ATOM     38  F   UNL A   1     -25.860  -0.681  25.795  0.00  0.00    -0.199 F 
BRANCH  36  39
ATOM     39  O   UNL A   1     -28.193  -0.208  24.477  0.00  0.00    -0.456 OA
BRANCH  39  40
ATOM     40  C   UNL A   1     -29.460   0.005  23.866  0.00  0.00    +0.243 C 
BRANCH  40  41
ATOM     41  C   UNL A   1     -30.065  -1.377  23.573  0.00  0.00    +0.229 C 
ATOM     42  O   UNL A   1     -30.729  -1.878  24.721  0.00  0.00    -0.216 OA
ENDBRANCH  40  41
ENDBRANCH  39  40
ENDBRANCH  36  39
ENDBRANCH  29  33
ENDBRANCH  28  29
ENDBRANCH   1  28
TORSDOF 15
