REMARK  Name = outputs/IAG933/test6/raw/output_6991_IAG933_linker_design_.xyz
REMARK  9 active torsions:
REMARK  status: ('A' for Active; 'I' for Inactive)
REMARK    1  A    between atoms: C_1  and  C_2
REMARK    2  A    between atoms: C_13  and  C_30
REMARK    3  A    between atoms: C_14  and  C_15
REMARK    4  A    between atoms: C_21  and  O_22
REMARK    5  A    between atoms: O_22  and  C_23
REMARK    6  A    between atoms: C_23  and  C_24
REMARK    7  A    between atoms: C_32  and  C_39
REMARK    8  A    between atoms: C_35  and  C_39
REMARK    9  A    between atoms: C_35  and  C_42
REMARK                            x       y       z     vdW  Elec       q    Type
REMARK                         _______ _______ _______ _____ _____    ______ ____
ROOT
ATOM      1  C   UNL A   1     -24.855  -1.012  30.143  0.00  0.00    +0.154 C 
ATOM      2  C   UNL A   1     -25.387  -0.679  31.571  0.00  0.00    +0.106 C 
ATOM      3  C   UNL A   1     -25.189   0.773  32.028  0.00  0.00    +0.040 C 
ATOM      4  C   UNL A   1     -25.336   0.684  33.544  0.00  0.00    +0.022 C 
ATOM      5  C   UNL A   1     -24.829  -0.715  33.905  0.00  0.00    +0.089 C 
ATOM      6  N   UNL A   1     -24.758  -1.481  32.646  0.00  0.00    -0.217 NA
ATOM      7  N   UNL A   1     -23.940   2.175  30.340  0.00  0.00    -0.241 NA
ATOM      8  C   UNL A   1     -24.387   1.356  27.059  0.00  0.00    +0.013 C 
ATOM      9  C   UNL A   1     -23.487   1.326  29.218  0.00  0.00    +0.074 C 
ATOM     10  C   UNL A   1     -24.998   2.073  31.331  0.00  0.00    +0.094 C 
ATOM     11  O   UNL A   1     -25.150  -0.241  28.929  0.00  0.00    -0.343 OA
ATOM     12  C   UNL A   1     -21.927   1.079  28.999  0.00  0.00    +0.014 C 
ATOM     13  C   UNL A   1     -24.361   0.812  28.408  0.00  0.00    +0.175 C 
ATOM     14  C   UNL A   1     -23.311   1.729  26.162  0.00  0.00    -0.002 C 
ATOM     15  C   UNL A   1     -21.884   1.776  26.452  0.00  0.00    -0.000 C 
ATOM     16  C   UNL A   1     -21.167   1.407  27.728  0.00  0.00    +0.001 C 
ENDROOT
BRANCH   8  17
ATOM     17  C   UNL A   1     -25.688   1.614  26.461  0.00  0.00    +0.037 C 
ATOM     18  C   UNL A   1     -26.250   2.920  26.395  0.00  0.00    +0.076 C 
ATOM     19  C   UNL A   1     -27.438   3.091  25.645  0.00  0.00    +0.107 C 
ATOM     20  N   UNL A   1     -28.075   2.089  25.003  0.00  0.00    -0.208 NA
ATOM     21  C   UNL A   1     -27.543   0.849  25.079  0.00  0.00    +0.253 C 
ATOM     22  C   UNL A   1     -26.354   0.576  25.777  0.00  0.00    +0.193 C 
ATOM     23  F   UNL A   1     -25.860  -0.681  25.795  0.00  0.00    -0.199 F 
BRANCH  18  24
ATOM     24  C   UNL A   1     -25.642   4.093  27.123  0.00  0.00    +0.266 C 
ATOM     25  N   UNL A   1     -25.614   5.252  26.449  0.00  0.00    -0.200 NA
ATOM     26  C   UNL A   1     -25.026   6.479  26.963  0.00  0.00    +0.139 C 
ATOM     27  O   UNL A   1     -25.143   3.966  28.243  0.00  0.00    -0.268 OA
ENDBRANCH  18  24
BRANCH  21  28
ATOM     28  O   UNL A   1     -28.193  -0.208  24.477  0.00  0.00    -0.456 OA
BRANCH  28  29
ATOM     29  C   UNL A   1     -29.460   0.005  23.866  0.00  0.00    +0.243 C 
BRANCH  29  30
ATOM     30  C   UNL A   1     -30.065  -1.377  23.573  0.00  0.00    +0.229 C 
ATOM     31  O   UNL A   1     -30.729  -1.878  24.721  0.00  0.00    -0.216 OA
ENDBRANCH  29  30
ENDBRANCH  28  29
ENDBRANCH  21  28
ENDBRANCH   8  17
BRANCH   1  32
ATOM     32  C   UNL A   1     -24.973  -2.505  29.788  0.00  0.00    +0.006 C 
ATOM     33  C   UNL A   1     -23.906  -3.173  29.146  0.00  0.00    -0.002 C 
ATOM     34  C   UNL A   1     -23.989  -4.549  28.853  0.00  0.00    -0.000 C 
ATOM     35  C   UNL A   1     -25.137  -5.280  29.205  0.00  0.00    -0.000 C 
ATOM     36  C   UNL A   1     -26.232  -4.611  29.784  0.00  0.00    -0.000 C 
ATOM     37  C   UNL A   1     -26.155  -3.232  30.065  0.00  0.00    -0.002 C 
ENDBRANCH   1  32
BRANCH  10  38
ATOM     38  C   UNL A   1     -25.787   3.325  31.667  0.00  0.00    +0.022 C 
BRANCH  38  39
ATOM     39  C   UNL A   1     -27.318   3.311  31.817  0.00  0.00    +0.002 C 
BRANCH  39  42
ATOM     40  C   UNL A   1     -27.956   1.195  30.059  0.00  0.00    +0.000 C 
ATOM     41  C   UNL A   1     -28.015   2.549  29.382  0.00  0.00    +0.000 C 
ATOM     42  C   UNL A   1     -28.181   2.511  30.888  0.00  0.00    +0.000 C 
ENDBRANCH  39  42
ENDBRANCH  38  39
ENDBRANCH  10  38
TORSDOF 9
