REMARK  Name = outputs/IAG933/test6/raw/output_6999_IAG933_linker_design_.xyz
REMARK  15 active torsions:
REMARK  status: ('A' for Active; 'I' for Inactive)
REMARK    1  A    between atoms: C_1  and  C_2
REMARK    2  A    between atoms: C_1  and  C_8
REMARK    3  A    between atoms: C_9  and  N_35
REMARK    4  A    between atoms: C_14  and  C_15
REMARK    5  A    between atoms: C_15  and  O_18
REMARK    6  A    between atoms: O_18  and  C_42
REMARK    7  A    between atoms: C_21  and  O_22
REMARK    8  A    between atoms: O_22  and  C_23
REMARK    9  A    between atoms: C_23  and  C_24
REMARK   10  A    between atoms: C_28  and  C_36
REMARK   11  A    between atoms: C_32  and  N_35
REMARK   12  A    between atoms: C_32  and  C_36
REMARK   13  A    between atoms: C_32  and  C_42
REMARK   14  A    between atoms: C_37  and  O_38
REMARK   15  A    between atoms: O_38  and  O_40
REMARK                            x       y       z     vdW  Elec       q    Type
REMARK                         _______ _______ _______ _____ _____    ______ ____
ROOT
ATOM      1  C   UNL A   1     -24.905   2.475  30.323  0.00  0.00    +0.127 C 
ENDROOT
BRANCH   1   3
ATOM      2  N   UNL A   1     -27.360   3.085  32.664  0.00  0.00    -0.089 NA
ATOM      3  N   UNL A   1     -25.825   1.885  31.274  0.00  0.00    -0.258 N 
ATOM      4  C   UNL A   1     -26.195   3.090  31.952  0.00  0.00    +0.343 C 
BRANCH   3   6
ATOM      5  C   UNL A   1     -25.387  -0.679  31.571  0.00  0.00    +0.095 C 
ATOM      6  C   UNL A   1     -25.189   0.773  32.028  0.00  0.00    +0.095 C 
ATOM      7  C   UNL A   1     -25.336   0.684  33.544  0.00  0.00    +0.040 C 
ATOM      8  C   UNL A   1     -24.829  -0.715  33.905  0.00  0.00    +0.090 C 
ATOM      9  N   UNL A   1     -24.758  -1.481  32.646  0.00  0.00    -0.217 NA
BRANCH   5  10
ATOM     10  C   UNL A   1     -24.855  -1.012  30.143  0.00  0.00    +0.045 C 
BRANCH  10  11
ATOM     11  C   UNL A   1     -24.973  -2.505  29.788  0.00  0.00    -0.021 C 
ATOM     12  C   UNL A   1     -23.906  -3.173  29.146  0.00  0.00    -0.004 C 
ATOM     13  C   UNL A   1     -23.989  -4.549  28.853  0.00  0.00    -0.000 C 
ATOM     14  C   UNL A   1     -25.137  -5.280  29.205  0.00  0.00    -0.000 C 
ATOM     15  C   UNL A   1     -26.232  -4.611  29.784  0.00  0.00    -0.000 C 
ATOM     16  C   UNL A   1     -26.155  -3.232  30.065  0.00  0.00    -0.004 C 
ENDBRANCH  10  11
ENDBRANCH   5  10
ENDBRANCH   3   6
BRANCH   4  17
ATOM     17  O   UNL A   1     -25.207   4.136  32.541  0.00  0.00    -0.296 OA
BRANCH  17  19
ATOM     18  C   UNL A   1     -26.576   5.208  34.007  0.00  0.00    +0.232 C 
ATOM     19  O   UNL A   1     -25.536   4.306  33.787  0.00  0.00    -0.167 OA
ENDBRANCH  17  19
ENDBRANCH   4  17
ENDBRANCH   1   3
BRANCH   1  20
ATOM     20  C   UNL A   1     -23.480   1.835  30.452  0.00  0.00    +0.069 C 
BRANCH  20  21
ATOM     21  C   UNL A   1     -22.935   1.798  29.051  0.00  0.00    +0.061 C 
ATOM     22  C   UNL A   1     -21.071   1.277  27.486  0.00  0.00    +0.098 C 
ATOM     23  C   UNL A   1     -21.648   1.954  26.391  0.00  0.00    +0.021 C 
ATOM     24  C   UNL A   1     -22.890   2.572  26.616  0.00  0.00    +0.003 C 
ATOM     25  N   UNL A   1     -21.701   1.184  28.776  0.00  0.00    -0.248 NA
ATOM     26  C   UNL A   1     -23.391   2.387  27.897  0.00  0.00    +0.015 C 
ENDBRANCH  20  21
ENDBRANCH   1  20
BRANCH   1  27
ATOM     27  C   UNL A   1     -25.411   3.587  29.540  0.00  0.00    +0.227 C 
BRANCH  27  28
ATOM     28  O   UNL A   1     -25.143   3.966  28.243  0.00  0.00    -0.459 OA
BRANCH  28  29
ATOM     29  C   UNL A   1     -25.642   4.093  27.123  0.00  0.00    +0.222 C 
ATOM     30  N   UNL A   1     -25.614   5.252  26.449  0.00  0.00    -0.236 NA
ATOM     31  C   UNL A   1     -25.026   6.479  26.963  0.00  0.00    +0.155 C 
BRANCH  29  33
ATOM     32  C   UNL A   1     -25.688   1.614  26.461  0.00  0.00    +0.041 C 
ATOM     33  C   UNL A   1     -26.250   2.920  26.395  0.00  0.00    +0.074 C 
ATOM     34  C   UNL A   1     -27.438   3.091  25.645  0.00  0.00    +0.107 C 
ATOM     35  N   UNL A   1     -28.075   2.089  25.003  0.00  0.00    -0.208 NA
ATOM     36  C   UNL A   1     -27.543   0.849  25.079  0.00  0.00    +0.253 C 
ATOM     37  C   UNL A   1     -26.354   0.576  25.777  0.00  0.00    +0.193 C 
ATOM     38  F   UNL A   1     -25.860  -0.681  25.795  0.00  0.00    -0.199 F 
BRANCH  36  39
ATOM     39  O   UNL A   1     -28.193  -0.208  24.477  0.00  0.00    -0.456 OA
BRANCH  39  40
ATOM     40  C   UNL A   1     -29.460   0.005  23.866  0.00  0.00    +0.243 C 
BRANCH  40  41
ATOM     41  C   UNL A   1     -30.065  -1.377  23.573  0.00  0.00    +0.229 C 
ATOM     42  O   UNL A   1     -30.729  -1.878  24.721  0.00  0.00    -0.216 OA
ENDBRANCH  40  41
ENDBRANCH  39  40
ENDBRANCH  36  39
ENDBRANCH  29  33
ENDBRANCH  28  29
ENDBRANCH  27  28
ENDBRANCH   1  27
TORSDOF 15
