MODEL 699
MODEL 1
REMARK VINA RESULT:    -6.214      0.000      0.000
REMARK INTER + INTRA:          -8.348
REMARK INTER:                  -7.668
REMARK INTRA:                  -0.680
REMARK UNBOUND:                -0.680
REMARK  Name = No_699-gen_results/8p0m/2024-11-27-11-27-31/
REMARK  4 active torsions:
REMARK  status: ('A' for Active; 'I' for Inactive)
REMARK    1  A    between atoms: C_2  and  C_10
REMARK    2  A    between atoms: C_5  and  N_7
REMARK    3  A    between atoms: C_10  and  C_11
REMARK    4  A    between atoms: C_11  and  C_12
REMARK                            x       y       z     vdW  Elec       q    Type
REMARK                         _______ _______ _______ _____ _____    ______ ____
ROOT
ATOM      1  C   UNL A   1     -25.505  -2.066  30.037  0.00  0.00    -0.003 A 
ATOM      2  C   UNL A   1     -24.832  -2.838  29.394  0.00  0.00    -0.022 A 
ATOM      3  C   UNL A   1     -25.182  -4.156  29.172  0.00  0.00    -0.003 A 
ATOM      4  C   UNL A   1     -26.423  -4.614  29.698  0.00  0.00    +0.014 A 
ATOM      5  C   UNL A   1     -27.215  -3.672  30.261  0.00  0.00    +0.048 A 
ATOM      6  C   UNL A   1     -26.814  -2.422  30.395  0.00  0.00    +0.014 A 
ENDROOT
BRANCH   5   7
ATOM      7  N   UNL A   1     -28.488  -3.909  30.761  0.00  0.00    -0.304 N 
ATOM      8  C   UNL A   1     -29.369  -2.971  30.851  0.00  0.00    +0.112 C 
ATOM      9  C   UNL A   1     -28.894  -5.200  31.198  0.00  0.00    +0.112 C 
ENDBRANCH   5   7
BRANCH   2  10
ATOM     10  C   UNL A   1     -23.465  -2.260  28.930  0.00  0.00    +0.031 C 
BRANCH  10  11
ATOM     11  C   UNL A   1     -22.941  -1.149  29.426  0.00  0.00    +0.031 C 
BRANCH  11  12
ATOM     12  C   UNL A   1     -22.567  -0.289  28.783  0.00  0.00    -0.022 A 
ATOM     13  C   UNL A   1     -21.577   0.345  28.598  0.00  0.00    -0.004 A 
ATOM     14  C   UNL A   1     -21.357   1.468  27.616  0.00  0.00    -0.000 A 
ATOM     15  C   UNL A   1     -22.442   1.850  26.894  0.00  0.00    -0.000 A 
ATOM     16  C   UNL A   1     -23.620   1.220  27.068  0.00  0.00    -0.000 A 
ATOM     17  C   UNL A   1     -23.754   0.280  27.913  0.00  0.00    -0.004 A 
ENDBRANCH  11  12
ENDBRANCH  10  11
ENDBRANCH   2  10
TORSDOF 4
ENDMDL
ENDMDL
