MODEL 69
MODEL 1
REMARK VINA RESULT:    -6.693      0.000      0.000
REMARK INTER + INTRA:          -6.693
REMARK INTER:                  -6.693
REMARK INTRA:                   0.000
REMARK UNBOUND:                 0.000
REMARK  Name = No_69-gen_results/8p0m/2024-11-27-11-27-31/
REMARK  0 active torsions:
REMARK  status: ('A' for Active; 'I' for Inactive)
REMARK                            x       y       z     vdW  Elec       q    Type
REMARK                         _______ _______ _______ _____ _____    ______ ____
ROOT
ATOM      1  C   UNL A   1     -23.821  -3.232  29.009  0.00  0.00    +0.004 A 
ATOM      2  C   UNL A   1     -24.054  -2.209  29.108  0.00  0.00    +0.050 A 
ATOM      3  C   UNL A   1     -24.952  -4.188  29.318  0.00  0.00    +0.000 A 
ATOM      4  C   UNL A   1     -26.242  -3.675  29.568  0.00  0.00    -0.000 A 
ATOM      5  C   UNL A   1     -25.293  -1.427  29.314  0.00  0.00    -0.016 A 
ATOM      6  C   UNL A   1     -26.357  -2.273  29.595  0.00  0.00    -0.004 A 
ATOM      7  C   UNL A   1     -22.876  -1.171  28.772  0.00  0.00    +0.249 C 
ATOM      8  O   UNL A   1     -21.852  -1.579  28.919  0.00  0.00    -0.270 OA
ATOM      9  N   UNL A   1     -23.167   0.103  28.274  0.00  0.00    -0.277 N 
ATOM     10  C   UNL A   1     -22.073   0.960  27.943  0.00  0.00    +0.094 C 
ATOM     11  C   UNL A   1     -22.094   1.782  27.366  0.00  0.00    +0.022 C 
ATOM     12  C   UNL A   1     -23.374   2.246  26.782  0.00  0.00    +0.004 C 
ATOM     13  C   UNL A   1     -24.535   1.457  27.003  0.00  0.00    +0.020 C 
ATOM     14  C   UNL A   1     -24.421   0.328  27.662  0.00  0.00    +0.080 C 
ATOM     15  C   UNL A   1     -25.595  -0.384  28.135  0.00  0.00    +0.046 C 
ENDROOT
TORSDOF 0
ENDMDL
ENDMDL
