REMARK  Name = outputs/IAG933/test6/raw/output_70_IAG933_linker_design_.xyz
REMARK  14 active torsions:
REMARK  status: ('A' for Active; 'I' for Inactive)
REMARK    1  A    between atoms: C_1  and  C_2
REMARK    2  A    between atoms: C_1  and  C_8
REMARK    3  A    between atoms: C_1  and  C_39
REMARK    4  A    between atoms: C_13  and  O_42
REMARK    5  A    between atoms: C_14  and  C_15
REMARK    6  A    between atoms: C_21  and  O_22
REMARK    7  A    between atoms: O_22  and  C_23
REMARK    8  A    between atoms: C_23  and  C_24
REMARK    9  A    between atoms: O_30  and  C_34
REMARK   10  A    between atoms: C_34  and  C_44
REMARK   11  A    between atoms: N_36  and  C_39
REMARK   12  A    between atoms: C_38  and  C_41
REMARK   13  A    between atoms: C_39  and  C_44
REMARK   14  A    between atoms: O_42  and  C_44
REMARK                            x       y       z     vdW  Elec       q    Type
REMARK                         _______ _______ _______ _____ _____    ______ ____
ROOT
ATOM      1  C   UNL A   1     -25.288  -0.013  29.009  0.00  0.00    +0.139 C 
ENDROOT
BRANCH   1   3
ATOM      2  O   UNL A   1     -28.544  -0.714  28.431  0.00  0.00    -0.271 OA
ATOM      3  N   UNL A   1     -26.617   0.256  28.637  0.00  0.00    -0.202 NA
ATOM      4  C   UNL A   1     -27.984   0.306  28.659  0.00  0.00    +0.269 C 
BRANCH   4   9
ATOM      5  O   UNL A   1     -31.359   2.283  31.677  0.00  0.00    -0.223 OA
ATOM      6  C   UNL A   1     -29.838   0.406  31.810  0.00  0.00    +0.036 C 
ATOM      7  O   UNL A   1     -27.868   1.863  30.636  0.00  0.00    -0.344 OA
ATOM      8  C   UNL A   1     -28.822   2.759  31.259  0.00  0.00    +0.173 C 
ATOM      9  C   UNL A   1     -28.638   1.369  29.456  0.00  0.00    +0.195 C 
ATOM     10  C   UNL A   1     -30.092   1.836  31.179  0.00  0.00    +0.157 C 
ATOM     11  C   UNL A   1     -30.144   1.643  29.620  0.00  0.00    +0.072 C 
ENDBRANCH   4   9
ENDBRANCH   1   3
BRANCH   1  12
ATOM     12  C   UNL A   1     -24.855  -1.012  30.143  0.00  0.00    +0.061 C 
BRANCH  12  13
ATOM     13  C   UNL A   1     -24.973  -2.505  29.788  0.00  0.00    -0.019 C 
ATOM     14  C   UNL A   1     -23.906  -3.173  29.146  0.00  0.00    -0.004 C 
ATOM     15  C   UNL A   1     -23.989  -4.549  28.853  0.00  0.00    -0.000 C 
ATOM     16  C   UNL A   1     -25.137  -5.280  29.205  0.00  0.00    -0.000 C 
ATOM     17  C   UNL A   1     -26.232  -4.611  29.784  0.00  0.00    -0.000 C 
ATOM     18  C   UNL A   1     -26.155  -3.232  30.065  0.00  0.00    -0.004 C 
ENDBRANCH  12  13
BRANCH  12  19
ATOM     19  C   UNL A   1     -25.387  -0.679  31.571  0.00  0.00    +0.079 C 
ATOM     20  C   UNL A   1     -25.189   0.773  32.028  0.00  0.00    +0.019 C 
ATOM     21  C   UNL A   1     -25.336   0.684  33.544  0.00  0.00    +0.020 C 
ATOM     22  C   UNL A   1     -24.829  -0.715  33.905  0.00  0.00    +0.089 C 
ATOM     23  N   UNL A   1     -24.758  -1.481  32.646  0.00  0.00    -0.219 NA
ENDBRANCH  12  19
ENDBRANCH   1  12
BRANCH   1  24
ATOM     24  C   UNL A   1     -24.212   0.523  28.081  0.00  0.00    +0.234 C 
BRANCH  24  26
ATOM     25  O   UNL A   1     -22.460  -0.259  29.535  0.00  0.00    -0.247 OA
ATOM     26  C   UNL A   1     -22.852   0.468  28.580  0.00  0.00    +0.346 C 
BRANCH  26  27
ATOM     27  O   UNL A   1     -21.980   1.270  27.978  0.00  0.00    -0.443 OA
ATOM     28  C   UNL A   1     -21.779   2.026  26.749  0.00  0.00    +0.256 C 
ENDBRANCH  26  27
ENDBRANCH  24  26
BRANCH  24  29
ATOM     29  O   UNL A   1     -24.344   1.338  26.797  0.00  0.00    -0.338 OA
BRANCH  29  30
ATOM     30  C   UNL A   1     -25.688   1.614  26.461  0.00  0.00    +0.186 C 
ATOM     31  C   UNL A   1     -26.250   2.920  26.395  0.00  0.00    +0.082 C 
ATOM     32  C   UNL A   1     -27.438   3.091  25.645  0.00  0.00    +0.104 C 
ATOM     33  N   UNL A   1     -28.075   2.089  25.003  0.00  0.00    -0.212 NA
ATOM     34  C   UNL A   1     -27.543   0.849  25.079  0.00  0.00    +0.237 C 
ATOM     35  C   UNL A   1     -26.354   0.576  25.777  0.00  0.00    +0.267 C 
ATOM     36  F   UNL A   1     -25.860  -0.681  25.795  0.00  0.00    -0.224 F 
BRANCH  31  37
ATOM     37  C   UNL A   1     -25.642   4.093  27.123  0.00  0.00    +0.265 C 
ATOM     38  N   UNL A   1     -25.614   5.252  26.449  0.00  0.00    -0.200 NA
ATOM     39  C   UNL A   1     -25.026   6.479  26.963  0.00  0.00    +0.139 C 
ATOM     40  O   UNL A   1     -25.143   3.966  28.243  0.00  0.00    -0.269 OA
ENDBRANCH  31  37
BRANCH  34  41
ATOM     41  O   UNL A   1     -28.193  -0.208  24.477  0.00  0.00    -0.459 OA
BRANCH  41  42
ATOM     42  C   UNL A   1     -29.460   0.005  23.866  0.00  0.00    +0.242 C 
BRANCH  42  43
ATOM     43  C   UNL A   1     -30.065  -1.377  23.573  0.00  0.00    +0.229 C 
ATOM     44  O   UNL A   1     -30.729  -1.878  24.721  0.00  0.00    -0.216 OA
ENDBRANCH  42  43
ENDBRANCH  41  42
ENDBRANCH  34  41
ENDBRANCH  29  30
ENDBRANCH  24  29
ENDBRANCH   1  24
TORSDOF 14
