REMARK  Name = outputs/IAG933/test6/raw/output_7000_IAG933_linker_design_.xyz
REMARK  11 active torsions:
REMARK  status: ('A' for Active; 'I' for Inactive)
REMARK    1  A    between atoms: C_1  and  C_2
REMARK    2  A    between atoms: C_1  and  C_8
REMARK    3  A    between atoms: C_1  and  C_34
REMARK    4  A    between atoms: C_13  and  C_37
REMARK    5  A    between atoms: C_14  and  C_15
REMARK    6  A    between atoms: C_21  and  O_22
REMARK    7  A    between atoms: O_22  and  C_23
REMARK    8  A    between atoms: C_23  and  C_24
REMARK    9  A    between atoms: C_28  and  C_34
REMARK   10  A    between atoms: C_34  and  N_38
REMARK   11  A    between atoms: C_35  and  O_39
REMARK                            x       y       z     vdW  Elec       q    Type
REMARK                         _______ _______ _______ _____ _____    ______ ____
ROOT
ATOM      1  C   UNL A   1     -24.289   0.600  28.338  0.00  0.00    +0.025 C 
ATOM      2  C   UNL A   1     -21.929   1.411  26.888  0.00  0.00    +0.043 C 
ATOM      3  C   UNL A   1     -21.780   0.861  28.132  0.00  0.00    +0.033 C 
ATOM      4  C   UNL A   1     -23.211   1.630  26.419  0.00  0.00    +0.189 C 
ATOM      5  C   UNL A   1     -22.897   0.452  28.806  0.00  0.00    +0.138 C 
ATOM      6  C   UNL A   1     -24.392   1.282  27.089  0.00  0.00    +0.040 C 
ATOM      7  F   UNL A   1     -22.567  -0.003  30.044  0.00  0.00    -0.204 F 
ENDROOT
BRANCH   6   8
ATOM      8  C   UNL A   1     -25.688   1.614  26.461  0.00  0.00    +0.041 C 
ATOM      9  C   UNL A   1     -26.250   2.920  26.395  0.00  0.00    +0.077 C 
ATOM     10  C   UNL A   1     -27.438   3.091  25.645  0.00  0.00    +0.107 C 
ATOM     11  N   UNL A   1     -28.075   2.089  25.003  0.00  0.00    -0.208 NA
ATOM     12  C   UNL A   1     -27.543   0.849  25.079  0.00  0.00    +0.253 C 
ATOM     13  C   UNL A   1     -26.354   0.576  25.777  0.00  0.00    +0.193 C 
ATOM     14  F   UNL A   1     -25.860  -0.681  25.795  0.00  0.00    -0.199 F 
BRANCH   9  15
ATOM     15  C   UNL A   1     -25.642   4.093  27.123  0.00  0.00    +0.266 C 
ATOM     16  N   UNL A   1     -25.614   5.252  26.449  0.00  0.00    -0.200 NA
ATOM     17  C   UNL A   1     -25.026   6.479  26.963  0.00  0.00    +0.139 C 
ATOM     18  O   UNL A   1     -25.143   3.966  28.243  0.00  0.00    -0.268 OA
ENDBRANCH   9  15
BRANCH  12  19
ATOM     19  O   UNL A   1     -28.193  -0.208  24.477  0.00  0.00    -0.456 OA
BRANCH  19  20
ATOM     20  C   UNL A   1     -29.460   0.005  23.866  0.00  0.00    +0.243 C 
BRANCH  20  21
ATOM     21  C   UNL A   1     -30.065  -1.377  23.573  0.00  0.00    +0.229 C 
ATOM     22  O   UNL A   1     -30.729  -1.878  24.721  0.00  0.00    -0.216 OA
ENDBRANCH  20  21
ENDBRANCH  19  20
ENDBRANCH  12  19
ENDBRANCH   6   8
BRANCH   4  23
ATOM     23  O   UNL A   1     -23.437   2.138  25.159  0.00  0.00    -0.292 OA
ATOM     24  F   UNL A   1     -22.423   2.620  24.808  0.00  0.00    +0.014 F 
ENDBRANCH   4  23
BRANCH   1  25
ATOM     25  C   UNL A   1     -25.251   0.032  29.097  0.00  0.00    +0.106 C 
BRANCH  25  29
ATOM     26  C   UNL A   1     -28.996   1.560  28.223  0.00  0.00    +0.204 C 
ATOM     27  C   UNL A   1     -27.633  -0.514  28.774  0.00  0.00    +0.128 C 
ATOM     28  O   UNL A   1     -29.943  -0.741  28.244  0.00  0.00    -0.219 OA
ATOM     29  N   UNL A   1     -26.562   0.456  28.962  0.00  0.00    -0.172 NA
ATOM     30  O   UNL A   1     -28.087   2.338  29.067  0.00  0.00    -0.249 OA
ATOM     31  C   UNL A   1     -28.989   0.153  28.842  0.00  0.00    +0.201 C 
ATOM     32  N   UNL A   1     -27.188   1.559  29.702  0.00  0.00    -0.002 NA
ENDBRANCH  25  29
BRANCH  25  33
ATOM     33  C   UNL A   1     -24.855  -1.012  30.143  0.00  0.00    +0.059 C 
BRANCH  33  34
ATOM     34  C   UNL A   1     -24.973  -2.505  29.788  0.00  0.00    -0.019 C 
ATOM     35  C   UNL A   1     -23.906  -3.173  29.146  0.00  0.00    -0.004 C 
ATOM     36  C   UNL A   1     -23.989  -4.549  28.853  0.00  0.00    -0.000 C 
ATOM     37  C   UNL A   1     -25.137  -5.280  29.205  0.00  0.00    -0.000 C 
ATOM     38  C   UNL A   1     -26.232  -4.611  29.784  0.00  0.00    -0.000 C 
ATOM     39  C   UNL A   1     -26.155  -3.232  30.065  0.00  0.00    -0.004 C 
ENDBRANCH  33  34
BRANCH  33  40
ATOM     40  C   UNL A   1     -25.387  -0.679  31.571  0.00  0.00    +0.079 C 
ATOM     41  C   UNL A   1     -25.189   0.773  32.028  0.00  0.00    +0.019 C 
ATOM     42  C   UNL A   1     -25.336   0.684  33.544  0.00  0.00    +0.020 C 
ATOM     43  C   UNL A   1     -24.829  -0.715  33.905  0.00  0.00    +0.089 C 
ATOM     44  N   UNL A   1     -24.758  -1.481  32.646  0.00  0.00    -0.219 NA
ENDBRANCH  33  40
ENDBRANCH  25  33
ENDBRANCH   1  25
TORSDOF 11
