REMARK  Name = outputs/IAG933/test6/raw/output_7006_IAG933_linker_design_.xyz
REMARK  10 active torsions:
REMARK  status: ('A' for Active; 'I' for Inactive)
REMARK    1  A    between atoms: C_1  and  C_2
REMARK    2  A    between atoms: C_1  and  C_8
REMARK    3  A    between atoms: C_1  and  C_39
REMARK    4  A    between atoms: C_13  and  N_34
REMARK    5  A    between atoms: C_14  and  C_15
REMARK    6  A    between atoms: C_21  and  O_22
REMARK    7  A    between atoms: O_22  and  C_23
REMARK    8  A    between atoms: C_23  and  C_24
REMARK    9  A    between atoms: C_28  and  C_37
REMARK   10  A    between atoms: C_33  and  C_41
REMARK                            x       y       z     vdW  Elec       q    Type
REMARK                         _______ _______ _______ _____ _____    ______ ____
ROOT
ATOM      1  C   UNL A   1     -21.531   1.470  27.434  0.00  0.00    +0.007 C 
ATOM      2  C   UNL A   1     -23.863   0.475  28.659  0.00  0.00    +0.014 A 
ATOM      3  N   UNL A   1     -25.098   1.189  27.608  0.00  0.00    -0.320 N 
ATOM      4  C   UNL A   1     -21.453   0.812  28.649  0.00  0.00    +0.000 C 
ATOM      5  C   UNL A   1     -26.189   0.451  28.563  0.00  0.00    +0.092 A 
ATOM      6  C   UNL A   1     -22.550   0.272  29.267  0.00  0.00    +0.001 C 
ATOM      7  C   UNL A   1     -25.288  -0.118  29.221  0.00  0.00    +0.003 A 
ATOM      8  C   UNL A   1     -22.809   1.601  26.916  0.00  0.00    +0.084 C 
ATOM      9  C   UNL A   1     -23.943   1.182  27.625  0.00  0.00    +0.065 A 
ENDROOT
BRANCH   3  10
ATOM     10  C   UNL A   1     -25.688   1.614  26.461  0.00  0.00    +0.156 C 
ATOM     11  C   UNL A   1     -26.250   2.920  26.395  0.00  0.00    +0.076 C 
ATOM     12  C   UNL A   1     -27.438   3.091  25.645  0.00  0.00    +0.104 C 
ATOM     13  N   UNL A   1     -28.075   2.089  25.003  0.00  0.00    -0.212 NA
ATOM     14  C   UNL A   1     -27.543   0.849  25.079  0.00  0.00    +0.236 C 
ATOM     15  C   UNL A   1     -26.354   0.576  25.777  0.00  0.00    +0.261 C 
ATOM     16  F   UNL A   1     -25.860  -0.681  25.795  0.00  0.00    -0.225 F 
BRANCH  11  17
ATOM     17  C   UNL A   1     -25.642   4.093  27.123  0.00  0.00    +0.264 C 
ATOM     18  N   UNL A   1     -25.614   5.252  26.449  0.00  0.00    -0.200 NA
ATOM     19  C   UNL A   1     -25.026   6.479  26.963  0.00  0.00    +0.139 C 
ATOM     20  O   UNL A   1     -25.143   3.966  28.243  0.00  0.00    -0.269 OA
ENDBRANCH  11  17
BRANCH  14  21
ATOM     21  O   UNL A   1     -28.193  -0.208  24.477  0.00  0.00    -0.459 OA
BRANCH  21  22
ATOM     22  C   UNL A   1     -29.460   0.005  23.866  0.00  0.00    +0.242 C 
BRANCH  22  23
ATOM     23  C   UNL A   1     -30.065  -1.377  23.573  0.00  0.00    +0.229 C 
ATOM     24  O   UNL A   1     -30.729  -1.878  24.721  0.00  0.00    -0.216 OA
ENDBRANCH  22  23
ENDBRANCH  21  22
ENDBRANCH  14  21
ENDBRANCH   3  10
BRANCH   5  25
ATOM     25  C   UNL A   1     -27.621   0.499  28.850  0.00  0.00    +0.189 C 
ATOM     26  C   UNL A   1     -28.256   1.841  29.183  0.00  0.00    +0.079 C 
ATOM     27  O   UNL A   1     -28.270  -0.480  28.875  0.00  0.00    -0.290 OA
ENDBRANCH   5  25
BRANCH   8  29
ATOM     28  O   UNL A   1     -23.729   2.202  24.875  0.00  0.00    -0.254 OA
ATOM     29  C   UNL A   1     -22.758   2.096  25.547  0.00  0.00    +0.335 C 
ATOM     30  F   UNL A   1     -21.640   2.390  24.971  0.00  0.00    -0.159 F 
ENDBRANCH   8  29
BRANCH   7  31
ATOM     31  C   UNL A   1     -24.855  -1.012  30.143  0.00  0.00    +0.062 C 
BRANCH  31  32
ATOM     32  C   UNL A   1     -24.973  -2.505  29.788  0.00  0.00    -0.017 C 
ATOM     33  C   UNL A   1     -23.906  -3.173  29.146  0.00  0.00    -0.004 C 
ATOM     34  C   UNL A   1     -23.989  -4.549  28.853  0.00  0.00    -0.000 C 
ATOM     35  C   UNL A   1     -25.137  -5.280  29.205  0.00  0.00    -0.000 C 
ATOM     36  C   UNL A   1     -26.232  -4.611  29.784  0.00  0.00    -0.000 C 
ATOM     37  C   UNL A   1     -26.155  -3.232  30.065  0.00  0.00    -0.004 C 
ENDBRANCH  31  32
BRANCH  31  38
ATOM     38  C   UNL A   1     -25.387  -0.679  31.571  0.00  0.00    +0.081 C 
ATOM     39  C   UNL A   1     -25.189   0.773  32.028  0.00  0.00    +0.019 C 
ATOM     40  C   UNL A   1     -25.336   0.684  33.544  0.00  0.00    +0.020 C 
ATOM     41  C   UNL A   1     -24.829  -0.715  33.905  0.00  0.00    +0.089 C 
ATOM     42  N   UNL A   1     -24.758  -1.481  32.646  0.00  0.00    -0.219 NA
ENDBRANCH  31  38
ENDBRANCH   7  31
TORSDOF 10
