REMARK  Name = outputs/IAG933/test6/raw/output_7007_IAG933_linker_design_.xyz
REMARK  11 active torsions:
REMARK  status: ('A' for Active; 'I' for Inactive)
REMARK    1  A    between atoms: C_1  and  C_2
REMARK    2  A    between atoms: C_1  and  C_8
REMARK    3  A    between atoms: C_1  and  C_36
REMARK    4  A    between atoms: C_14  and  C_15
REMARK    5  A    between atoms: C_15  and  O_18
REMARK    6  A    between atoms: O_18  and  S_35
REMARK    7  A    between atoms: C_21  and  O_22
REMARK    8  A    between atoms: O_22  and  C_23
REMARK    9  A    between atoms: C_23  and  C_24
REMARK   10  A    between atoms: N_28  and  C_33
REMARK   11  A    between atoms: O_30  and  C_38
REMARK                            x       y       z     vdW  Elec       q    Type
REMARK                         _______ _______ _______ _____ _____    ______ ____
ROOT
ATOM      1  N   UNL A   1     -24.732   1.228  29.134  0.00  0.00    -0.223 N 
ATOM      2  C   UNL A   1     -27.007   2.432  29.268  0.00  0.00    +0.191 C 
ATOM      3  O   UNL A   1     -24.845   3.137  30.617  0.00  0.00    -0.114 OA
ATOM      4  O   UNL A   1     -28.103   0.439  29.615  0.00  0.00    -0.293 OA
ATOM      5  S   UNL A   1     -25.582   2.932  29.148  0.00  0.00    +0.148 S 
ATOM      6  C   UNL A   1     -25.665   0.013  29.228  0.00  0.00    +0.151 C 
ATOM      7  C   UNL A   1     -27.123   0.983  29.395  0.00  0.00    +0.186 C 
ENDROOT
BRANCH   1   9
ATOM      8  C   UNL A   1     -21.329  -0.092  28.971  0.00  0.00    +0.004 C 
ATOM      9  C   UNL A   1     -23.418   1.029  28.801  0.00  0.00    +0.064 C 
ATOM     10  C   UNL A   1     -21.738   1.503  27.171  0.00  0.00    +0.140 C 
ATOM     11  C   UNL A   1     -22.618   0.087  29.450  0.00  0.00    +0.016 C 
ATOM     12  C   UNL A   1     -22.935   1.758  27.751  0.00  0.00    +0.052 C 
ATOM     13  C   UNL A   1     -20.888   0.641  27.873  0.00  0.00    +0.037 C 
BRANCH  10  14
ATOM     14  O   UNL A   1     -21.419   1.998  25.922  0.00  0.00    -0.471 OA
ATOM     15  C   UNL A   1     -22.545   2.215  25.072  0.00  0.00    +0.253 C 
ENDBRANCH  10  14
ENDBRANCH   1   9
BRANCH   6  16
ATOM     16  C   UNL A   1     -24.855  -1.012  30.143  0.00  0.00    +0.065 C 
BRANCH  16  17
ATOM     17  C   UNL A   1     -24.973  -2.505  29.788  0.00  0.00    -0.019 C 
ATOM     18  C   UNL A   1     -23.906  -3.173  29.146  0.00  0.00    -0.004 C 
ATOM     19  C   UNL A   1     -23.989  -4.549  28.853  0.00  0.00    -0.000 C 
ATOM     20  C   UNL A   1     -25.137  -5.280  29.205  0.00  0.00    -0.000 C 
ATOM     21  C   UNL A   1     -26.232  -4.611  29.784  0.00  0.00    -0.000 C 
ATOM     22  C   UNL A   1     -26.155  -3.232  30.065  0.00  0.00    -0.004 C 
ENDBRANCH  16  17
BRANCH  16  23
ATOM     23  C   UNL A   1     -25.387  -0.679  31.571  0.00  0.00    +0.079 C 
ATOM     24  C   UNL A   1     -25.189   0.773  32.028  0.00  0.00    +0.019 C 
ATOM     25  C   UNL A   1     -25.336   0.684  33.544  0.00  0.00    +0.020 C 
ATOM     26  C   UNL A   1     -24.829  -0.715  33.905  0.00  0.00    +0.089 C 
ATOM     27  N   UNL A   1     -24.758  -1.481  32.646  0.00  0.00    -0.219 NA
ENDBRANCH  16  23
ENDBRANCH   6  16
BRANCH   5  28
ATOM     28  O   UNL A   1     -25.143   3.966  28.243  0.00  0.00    -0.385 OA
BRANCH  28  29
ATOM     29  C   UNL A   1     -25.642   4.093  27.123  0.00  0.00    +0.238 C 
ATOM     30  N   UNL A   1     -25.614   5.252  26.449  0.00  0.00    -0.235 NA
ATOM     31  C   UNL A   1     -25.026   6.479  26.963  0.00  0.00    +0.155 C 
BRANCH  29  33
ATOM     32  C   UNL A   1     -25.688   1.614  26.461  0.00  0.00    +0.041 C 
ATOM     33  C   UNL A   1     -26.250   2.920  26.395  0.00  0.00    +0.075 C 
ATOM     34  C   UNL A   1     -27.438   3.091  25.645  0.00  0.00    +0.107 C 
ATOM     35  N   UNL A   1     -28.075   2.089  25.003  0.00  0.00    -0.208 NA
ATOM     36  C   UNL A   1     -27.543   0.849  25.079  0.00  0.00    +0.253 C 
ATOM     37  C   UNL A   1     -26.354   0.576  25.777  0.00  0.00    +0.193 C 
ATOM     38  F   UNL A   1     -25.860  -0.681  25.795  0.00  0.00    -0.199 F 
BRANCH  36  39
ATOM     39  O   UNL A   1     -28.193  -0.208  24.477  0.00  0.00    -0.456 OA
BRANCH  39  40
ATOM     40  C   UNL A   1     -29.460   0.005  23.866  0.00  0.00    +0.243 C 
BRANCH  40  41
ATOM     41  C   UNL A   1     -30.065  -1.377  23.573  0.00  0.00    +0.229 C 
ATOM     42  O   UNL A   1     -30.729  -1.878  24.721  0.00  0.00    -0.216 OA
ENDBRANCH  40  41
ENDBRANCH  39  40
ENDBRANCH  36  39
ENDBRANCH  29  33
ENDBRANCH  28  29
ENDBRANCH   5  28
TORSDOF 11
