REMARK  Name = outputs/IAG933/test6/raw/output_7009_IAG933_linker_design_.xyz
REMARK  9 active torsions:
REMARK  status: ('A' for Active; 'I' for Inactive)
REMARK    1  A    between atoms: C_1  and  C_2
REMARK    2  A    between atoms: C_1  and  C_8
REMARK    3  A    between atoms: C_1  and  N_37
REMARK    4  A    between atoms: C_14  and  C_15
REMARK    5  A    between atoms: C_21  and  O_22
REMARK    6  A    between atoms: O_22  and  C_23
REMARK    7  A    between atoms: C_23  and  C_24
REMARK    8  A    between atoms: C_31  and  N_37
REMARK    9  A    between atoms: C_31  and  C_38
REMARK                            x       y       z     vdW  Elec       q    Type
REMARK                         _______ _______ _______ _____ _____    ______ ____
ROOT
ATOM      1  C   UNL A   1     -25.688   1.614  26.461  0.00  0.00    +0.060 C 
ATOM      2  C   UNL A   1     -26.250   2.920  26.395  0.00  0.00    +0.080 C 
ATOM      3  C   UNL A   1     -27.438   3.091  25.645  0.00  0.00    +0.107 C 
ATOM      4  N   UNL A   1     -28.075   2.089  25.003  0.00  0.00    -0.211 NA
ATOM      5  C   UNL A   1     -27.543   0.849  25.079  0.00  0.00    +0.239 C 
ATOM      6  C   UNL A   1     -26.354   0.576  25.777  0.00  0.00    +0.265 C 
ATOM      7  F   UNL A   1     -25.860  -0.681  25.795  0.00  0.00    -0.222 F 
ATOM      8  C   UNL A   1     -24.735   1.235  27.419  0.00  0.00    -0.091 C 
ATOM      9  C   UNL A   1     -24.320   0.653  28.109  0.00  0.00    +0.083 C 
ENDROOT
BRANCH   9  16
ATOM     10  C   UNL A   1     -22.014   0.569  28.448  0.00  0.00    +0.330 C 
ATOM     11  C   UNL A   1     -22.750   1.787  26.536  0.00  0.00    +0.203 C 
ATOM     12  O   UNL A   1     -22.131  -0.201  29.410  0.00  0.00    -0.249 OA
ATOM     13  F   UNL A   1     -23.550   2.020  25.413  0.00  0.00    -0.231 F 
ATOM     14  C   UNL A   1     -20.514   1.968  27.266  0.00  0.00    +0.181 C 
ATOM     15  C   UNL A   1     -21.510   2.384  26.429  0.00  0.00    +0.050 C 
ATOM     16  C   UNL A   1     -23.172   1.018  27.641  0.00  0.00    +0.179 C 
ATOM     17  O   UNL A   1     -20.744   1.006  28.178  0.00  0.00    -0.421 OA
ENDBRANCH   9  16
BRANCH   2  18
ATOM     18  C   UNL A   1     -25.642   4.093  27.123  0.00  0.00    +0.267 C 
ATOM     19  N   UNL A   1     -25.614   5.252  26.449  0.00  0.00    -0.200 NA
ATOM     20  C   UNL A   1     -25.026   6.479  26.963  0.00  0.00    +0.139 C 
ATOM     21  O   UNL A   1     -25.143   3.966  28.243  0.00  0.00    -0.268 OA
ENDBRANCH   2  18
BRANCH   9  23
ATOM     22  C   UNL A   1     -26.487   0.415  29.055  0.00  0.00    +0.451 C 
ATOM     23  N   UNL A   1     -25.161  -0.005  29.052  0.00  0.00    -0.215 N 
ATOM     24  O   UNL A   1     -26.691   1.615  29.315  0.00  0.00    -0.222 OA
ATOM     25  O   UNL A   1     -27.492  -0.383  28.810  0.00  0.00    -0.222 OA
BRANCH  23  26
ATOM     26  C   UNL A   1     -24.855  -1.012  30.143  0.00  0.00    +0.122 C 
BRANCH  26  27
ATOM     27  C   UNL A   1     -24.973  -2.505  29.788  0.00  0.00    -0.003 C 
ATOM     28  C   UNL A   1     -23.906  -3.173  29.146  0.00  0.00    -0.003 C 
ATOM     29  C   UNL A   1     -23.989  -4.549  28.853  0.00  0.00    -0.000 C 
ATOM     30  C   UNL A   1     -25.137  -5.280  29.205  0.00  0.00    -0.000 C 
ATOM     31  C   UNL A   1     -26.232  -4.611  29.784  0.00  0.00    -0.000 C 
ATOM     32  C   UNL A   1     -26.155  -3.232  30.065  0.00  0.00    -0.003 C 
ENDBRANCH  26  27
BRANCH  26  33
ATOM     33  C   UNL A   1     -25.387  -0.679  31.571  0.00  0.00    +0.096 C 
ATOM     34  C   UNL A   1     -25.189   0.773  32.028  0.00  0.00    +0.021 C 
ATOM     35  C   UNL A   1     -25.336   0.684  33.544  0.00  0.00    +0.020 C 
ATOM     36  C   UNL A   1     -24.829  -0.715  33.905  0.00  0.00    +0.089 C 
ATOM     37  N   UNL A   1     -24.758  -1.481  32.646  0.00  0.00    -0.217 NA
ENDBRANCH  26  33
ENDBRANCH  23  26
ENDBRANCH   9  23
BRANCH   5  38
ATOM     38  O   UNL A   1     -28.193  -0.208  24.477  0.00  0.00    -0.458 OA
BRANCH  38  39
ATOM     39  C   UNL A   1     -29.460   0.005  23.866  0.00  0.00    +0.242 C 
BRANCH  39  40
ATOM     40  C   UNL A   1     -30.065  -1.377  23.573  0.00  0.00    +0.229 C 
ATOM     41  O   UNL A   1     -30.729  -1.878  24.721  0.00  0.00    -0.216 OA
ENDBRANCH  39  40
ENDBRANCH  38  39
ENDBRANCH   5  38
TORSDOF 9
