MODEL 700
MODEL 1
REMARK VINA RESULT:    -5.969      0.000      0.000
REMARK INTER + INTRA:          -6.973
REMARK INTER:                  -6.667
REMARK INTRA:                  -0.306
REMARK UNBOUND:                -0.306
REMARK  Name = No_700-gen_results/8p0m/2024-11-27-11-27-31/
REMARK  2 active torsions:
REMARK  status: ('A' for Active; 'I' for Inactive)
REMARK    1  A    between atoms: C_3  and  C_4
REMARK    2  A    between atoms: C_8  and  C_9
REMARK                            x       y       z     vdW  Elec       q    Type
REMARK                         _______ _______ _______ _____ _____    ______ ____
ROOT
ATOM      1  C   UNL A   1     -25.506  -2.616  29.890  0.00  0.00    -0.000 A 
ATOM      2  C   UNL A   1     -26.223  -3.384  29.973  0.00  0.00    +0.000 A 
ATOM      3  C   UNL A   1     -24.264  -2.935  29.298  0.00  0.00    -0.000 A 
ATOM      4  C   UNL A   1     -26.175  -4.805  29.583  0.00  0.00    +0.000 A 
ATOM      5  C   UNL A   1     -24.972  -5.193  28.993  0.00  0.00    +0.000 A 
ATOM      6  C   UNL A   1     -24.003  -4.264  28.791  0.00  0.00    -0.000 A 
ENDROOT
BRANCH   3   7
ATOM      7  C   UNL A   1     -23.190  -1.948  29.008  0.00  0.00    -0.000 C 
ATOM      8  C   UNL A   1     -23.091  -0.821  29.062  0.00  0.00    -0.000 C 
BRANCH   8   9
ATOM      9  C   UNL A   1     -21.990   0.041  28.778  0.00  0.00    -0.005 C 
ATOM     10  C   UNL A   1     -22.036   1.126  27.920  0.00  0.00    -0.026 C 
ATOM     11  C   UNL A   1     -23.233   1.370  27.238  0.00  0.00    +0.031 C 
ENDBRANCH   8   9
ENDBRANCH   3   7
TORSDOF 2
ENDMDL
ENDMDL
