REMARK  Name = No_701-gen_results/8p0m/2024-11-27-11-27-31/
REMARK  4 active torsions:
REMARK  status: ('A' for Active; 'I' for Inactive)
REMARK    1  A    between atoms: C_2  and  C_7
REMARK    2  A    between atoms: C_3  and  C_10
REMARK    3  A    between atoms: C_10  and  C_11
REMARK    4  A    between atoms: C_12  and  C_13
REMARK                            x       y       z     vdW  Elec       q    Type
REMARK                         _______ _______ _______ _____ _____    ______ ____
ROOT
ATOM      1  C   UNL A   1     -28.016  -0.814  28.878  0.00  0.00    +0.003 A 
ATOM      2  C   UNL A   1     -28.469  -0.785  29.829  0.00  0.00    +0.080 A 
ATOM      3  C   UNL A   1     -26.504  -0.778  28.877  0.00  0.00    -0.018 A 
ATOM      4  C   UNL A   1     -25.810  -0.853  30.103  0.00  0.00    -0.004 A 
ATOM      5  C   UNL A   1     -27.991  -0.892  31.226  0.00  0.00    +0.007 A 
ATOM      6  C   UNL A   1     -26.604  -0.868  31.265  0.00  0.00    -0.000 A 
ENDROOT
BRANCH   2   7
ATOM      7  C   UNL A   1     -30.077  -0.886  30.024  0.00  0.00    +0.388 C 
ATOM      8  O   UNL A   1     -30.641  -1.899  30.142  0.00  0.00    -0.241 OA
ATOM      9  O   UNL A   1     -30.731   0.255  29.803  0.00  0.00    -0.241 OA
ENDBRANCH   2   7
BRANCH   3  10
ATOM     10  C   UNL A   1     -25.667  -0.706  27.679  0.00  0.00    +0.053 C 
BRANCH  10  11
ATOM     11  C   UNL A   1     -25.930   0.375  26.778  0.00  0.00    -0.011 C 
ATOM     12  C   UNL A   1     -25.574   1.336  26.644  0.00  0.00    +0.074 C 
BRANCH  12  13
ATOM     13  C   UNL A   1     -24.642   1.934  27.709  0.00  0.00    +0.101 C 
ATOM     14  N   UNL A   1     -23.755   2.378  27.849  0.00  0.00    -0.191 NA
ENDBRANCH  12  13
ENDBRANCH  10  11
ENDBRANCH   3  10
TORSDOF 4
