REMARK  Name = outputs/IAG933/test6/raw/output_7014_IAG933_linker_design_.xyz
REMARK  7 active torsions:
REMARK  status: ('A' for Active; 'I' for Inactive)
REMARK    1  A    between atoms: C_1  and  C_2
REMARK    2  A    between atoms: C_1  and  C_8
REMARK    3  A    between atoms: C_1  and  C_38
REMARK    4  A    between atoms: C_21  and  O_22
REMARK    5  A    between atoms: O_22  and  C_23
REMARK    6  A    between atoms: C_23  and  C_24
REMARK    7  A    between atoms: C_30  and  C_35
REMARK                            x       y       z     vdW  Elec       q    Type
REMARK                         _______ _______ _______ _____ _____    ______ ____
ROOT
ATOM      1  C   UNL A   1     -25.688   1.614  26.461  0.00  0.00    +0.040 C 
ATOM      2  C   UNL A   1     -26.250   2.920  26.395  0.00  0.00    +0.074 C 
ATOM      3  C   UNL A   1     -25.642   4.093  27.123  0.00  0.00    +0.222 C 
ATOM      4  N   UNL A   1     -25.614   5.252  26.449  0.00  0.00    -0.236 NA
ATOM      5  C   UNL A   1     -25.026   6.479  26.963  0.00  0.00    +0.155 C 
ATOM      6  O   UNL A   1     -25.143   3.966  28.243  0.00  0.00    -0.459 OA
ATOM      7  C   UNL A   1     -27.438   3.091  25.645  0.00  0.00    +0.107 C 
ATOM      8  N   UNL A   1     -28.075   2.089  25.003  0.00  0.00    -0.208 NA
ATOM      9  C   UNL A   1     -27.543   0.849  25.079  0.00  0.00    +0.253 C 
ATOM     10  C   UNL A   1     -26.354   0.576  25.777  0.00  0.00    +0.193 C 
ATOM     11  F   UNL A   1     -25.860  -0.681  25.795  0.00  0.00    -0.199 F 
ATOM     12  C   UNL A   1     -22.150   1.495  27.632  0.00  0.00    +0.223 C 
ATOM     13  C   UNL A   1     -24.547   1.452  27.363  0.00  0.00    +0.031 C 
ATOM     14  C   UNL A   1     -26.447   2.652  29.720  0.00  0.00    +0.141 C 
ATOM     15  C   UNL A   1     -23.244   1.721  26.885  0.00  0.00    +0.102 C 
ATOM     16  N   UNL A   1     -26.151   1.395  29.176  0.00  0.00    -0.235 NA
ATOM     17 CL   UNL A   1     -23.037   2.430  25.368  0.00  0.00    -0.078 Cl
ATOM     18  C   UNL A   1     -25.503   3.827  29.604  0.00  0.00    +0.229 C 
ATOM     19  C   UNL A   1     -24.205   0.085  29.407  0.00  0.00    +0.014 C 
ATOM     20  N   UNL A   1     -21.959   0.736  28.699  0.00  0.00    -0.184 NA
ATOM     21  C   UNL A   1     -24.955   1.028  28.677  0.00  0.00    +0.064 C 
ATOM     22  F   UNL A   1     -20.996   2.033  27.146  0.00  0.00    -0.185 F 
ATOM     23  C   UNL A   1     -22.855   0.141  29.515  0.00  0.00    +0.085 C 
ENDROOT
BRANCH  14  25
ATOM     24  N   UNL A   1     -29.410   4.216  29.172  0.00  0.00    -0.213 NA
ATOM     25  C   UNL A   1     -27.807   2.828  29.560  0.00  0.00    +0.064 C 
ATOM     26  C   UNL A   1     -29.584   3.132  28.379  0.00  0.00    +0.114 C 
ATOM     27  C   UNL A   1     -28.679   2.142  28.696  0.00  0.00    +0.018 C 
ATOM     28  C   UNL A   1     -28.366   3.968  29.994  0.00  0.00    +0.095 C 
ATOM     29  C   UNL A   1     -28.623   0.705  28.174  0.00  0.00    +0.227 C 
ATOM     30  O   UNL A   1     -29.495   0.214  27.276  0.00  0.00    -0.284 OA
ENDBRANCH  14  25
BRANCH  19  31
ATOM     31  C   UNL A   1     -24.855  -1.012  30.143  0.00  0.00    +0.063 C 
BRANCH  31  32
ATOM     32  C   UNL A   1     -24.973  -2.505  29.788  0.00  0.00    -0.017 C 
ATOM     33  C   UNL A   1     -23.906  -3.173  29.146  0.00  0.00    -0.004 C 
ATOM     34  C   UNL A   1     -23.989  -4.549  28.853  0.00  0.00    -0.000 C 
ATOM     35  C   UNL A   1     -25.137  -5.280  29.205  0.00  0.00    -0.000 C 
ATOM     36  C   UNL A   1     -26.232  -4.611  29.784  0.00  0.00    -0.000 C 
ATOM     37  C   UNL A   1     -26.155  -3.232  30.065  0.00  0.00    -0.004 C 
ENDBRANCH  31  32
BRANCH  31  38
ATOM     38  C   UNL A   1     -25.387  -0.679  31.571  0.00  0.00    +0.081 C 
ATOM     39  C   UNL A   1     -25.189   0.773  32.028  0.00  0.00    +0.019 C 
ATOM     40  C   UNL A   1     -25.336   0.684  33.544  0.00  0.00    +0.020 C 
ATOM     41  C   UNL A   1     -24.829  -0.715  33.905  0.00  0.00    +0.089 C 
ATOM     42  N   UNL A   1     -24.758  -1.481  32.646  0.00  0.00    -0.219 NA
ENDBRANCH  31  38
ENDBRANCH  19  31
BRANCH   9  43
ATOM     43  O   UNL A   1     -28.193  -0.208  24.477  0.00  0.00    -0.456 OA
BRANCH  43  44
ATOM     44  C   UNL A   1     -29.460   0.005  23.866  0.00  0.00    +0.243 C 
BRANCH  44  45
ATOM     45  C   UNL A   1     -30.065  -1.377  23.573  0.00  0.00    +0.229 C 
ATOM     46  O   UNL A   1     -30.729  -1.878  24.721  0.00  0.00    -0.216 OA
ENDBRANCH  44  45
ENDBRANCH  43  44
ENDBRANCH   9  43
TORSDOF 7
