REMARK  Name = outputs/IAG933/test6/raw/output_7016_IAG933_linker_design_.xyz
REMARK  11 active torsions:
REMARK  status: ('A' for Active; 'I' for Inactive)
REMARK    1  A    between atoms: C_1  and  C_2
REMARK    2  A    between atoms: C_1  and  C_8
REMARK    3  A    between atoms: C_1  and  C_42
REMARK    4  A    between atoms: C_13  and  C_38
REMARK    5  A    between atoms: C_14  and  C_15
REMARK    6  A    between atoms: C_21  and  O_22
REMARK    7  A    between atoms: O_22  and  C_23
REMARK    8  A    between atoms: C_23  and  C_24
REMARK    9  A    between atoms: C_32  and  N_39
REMARK   10  A    between atoms: N_36  and  C_42
REMARK   11  A    between atoms: C_42  and  C_43
REMARK                            x       y       z     vdW  Elec       q    Type
REMARK                         _______ _______ _______ _____ _____    ______ ____
ROOT
ATOM      1  C   UNL A   1     -25.058   0.075  29.090  0.00  0.00    +0.124 C 
ENDROOT
BRANCH   1   8
ATOM      2  O   UNL A   1     -29.845   3.930  28.169  0.00  0.00    -0.206 OA
ATOM      3  C   UNL A   1     -27.529   0.015  29.073  0.00  0.00    +0.324 C 
ATOM      4  C   UNL A   1     -29.573   0.633  27.912  0.00  0.00    +0.099 C 
ATOM      5  O   UNL A   1     -27.730  -1.139  29.332  0.00  0.00    -0.251 OA
ATOM      6  C   UNL A   1     -30.159   2.830  28.906  0.00  0.00    +0.206 C 
ATOM      7  C   UNL A   1     -31.913   1.595  27.472  0.00  0.00    +0.006 C 
ATOM      8  N   UNL A   1     -26.374   0.637  28.923  0.00  0.00    -0.185 NA
ATOM      9  N   UNL A   1     -28.559   0.869  28.855  0.00  0.00    -0.259 N 
ATOM     10  C   UNL A   1     -28.814   2.066  29.544  0.00  0.00    +0.142 C 
ATOM     11  C   UNL A   1     -30.617   1.678  28.428  0.00  0.00    +0.065 C 
BRANCH   6  13
ATOM     12  C   UNL A   1     -32.554   3.608  29.441  0.00  0.00    +0.110 C 
ATOM     13  N   UNL A   1     -31.324   3.135  29.757  0.00  0.00    -0.190 NA
ENDBRANCH   6  13
ENDBRANCH   1   8
BRANCH   1  17
ATOM     14  C   UNL A   1     -21.649   0.987  28.043  0.00  0.00    -0.000 C 
ATOM     15  C   UNL A   1     -24.311   1.356  27.041  0.00  0.00    +0.000 C 
ATOM     16  C   UNL A   1     -23.194   1.921  26.382  0.00  0.00    -0.000 C 
ATOM     17  C   UNL A   1     -24.046   0.562  28.241  0.00  0.00    -0.002 C 
ATOM     18  C   UNL A   1     -21.917   1.784  26.920  0.00  0.00    -0.000 C 
ATOM     19  C   UNL A   1     -22.700   0.322  28.654  0.00  0.00    -0.003 C 
BRANCH  15  20
ATOM     20  C   UNL A   1     -25.688   1.614  26.461  0.00  0.00    +0.038 C 
ATOM     21  C   UNL A   1     -26.250   2.920  26.395  0.00  0.00    +0.076 C 
ATOM     22  C   UNL A   1     -27.438   3.091  25.645  0.00  0.00    +0.107 C 
ATOM     23  N   UNL A   1     -28.075   2.089  25.003  0.00  0.00    -0.208 NA
ATOM     24  C   UNL A   1     -27.543   0.849  25.079  0.00  0.00    +0.253 C 
ATOM     25  C   UNL A   1     -26.354   0.576  25.777  0.00  0.00    +0.193 C 
ATOM     26  F   UNL A   1     -25.860  -0.681  25.795  0.00  0.00    -0.199 F 
BRANCH  21  27
ATOM     27  C   UNL A   1     -25.642   4.093  27.123  0.00  0.00    +0.266 C 
ATOM     28  N   UNL A   1     -25.614   5.252  26.449  0.00  0.00    -0.200 NA
ATOM     29  C   UNL A   1     -25.026   6.479  26.963  0.00  0.00    +0.139 C 
ATOM     30  O   UNL A   1     -25.143   3.966  28.243  0.00  0.00    -0.268 OA
ENDBRANCH  21  27
BRANCH  24  31
ATOM     31  O   UNL A   1     -28.193  -0.208  24.477  0.00  0.00    -0.456 OA
BRANCH  31  32
ATOM     32  C   UNL A   1     -29.460   0.005  23.866  0.00  0.00    +0.243 C 
BRANCH  32  33
ATOM     33  C   UNL A   1     -30.065  -1.377  23.573  0.00  0.00    +0.229 C 
ATOM     34  O   UNL A   1     -30.729  -1.878  24.721  0.00  0.00    -0.216 OA
ENDBRANCH  32  33
ENDBRANCH  31  32
ENDBRANCH  24  31
ENDBRANCH  15  20
ENDBRANCH   1  17
BRANCH   1  35
ATOM     35  C   UNL A   1     -24.855  -1.012  30.143  0.00  0.00    +0.062 C 
BRANCH  35  36
ATOM     36  C   UNL A   1     -24.973  -2.505  29.788  0.00  0.00    -0.019 C 
ATOM     37  C   UNL A   1     -23.906  -3.173  29.146  0.00  0.00    -0.004 C 
ATOM     38  C   UNL A   1     -23.989  -4.549  28.853  0.00  0.00    -0.000 C 
ATOM     39  C   UNL A   1     -25.137  -5.280  29.205  0.00  0.00    -0.000 C 
ATOM     40  C   UNL A   1     -26.232  -4.611  29.784  0.00  0.00    -0.000 C 
ATOM     41  C   UNL A   1     -26.155  -3.232  30.065  0.00  0.00    -0.004 C 
ENDBRANCH  35  36
BRANCH  35  42
ATOM     42  C   UNL A   1     -25.387  -0.679  31.571  0.00  0.00    +0.079 C 
ATOM     43  C   UNL A   1     -25.189   0.773  32.028  0.00  0.00    +0.019 C 
ATOM     44  C   UNL A   1     -25.336   0.684  33.544  0.00  0.00    +0.020 C 
ATOM     45  C   UNL A   1     -24.829  -0.715  33.905  0.00  0.00    +0.089 C 
ATOM     46  N   UNL A   1     -24.758  -1.481  32.646  0.00  0.00    -0.219 NA
ENDBRANCH  35  42
ENDBRANCH   1  35
TORSDOF 11
