MODEL 701
MODEL 1
REMARK VINA RESULT:    -5.805      0.000      0.000
REMARK INTER + INTRA:          -7.543
REMARK INTER:                  -7.163
REMARK INTRA:                  -0.380
REMARK UNBOUND:                -0.380
REMARK  Name = No_701-gen_results/8p0m/2024-11-27-11-27-31/
REMARK  4 active torsions:
REMARK  status: ('A' for Active; 'I' for Inactive)
REMARK    1  A    between atoms: C_2  and  C_7
REMARK    2  A    between atoms: C_3  and  C_10
REMARK    3  A    between atoms: C_10  and  C_11
REMARK    4  A    between atoms: C_12  and  C_13
REMARK                            x       y       z     vdW  Elec       q    Type
REMARK                         _______ _______ _______ _____ _____    ______ ____
ROOT
ATOM      1  C   UNL A   1     -23.680   0.311  28.056  0.00  0.00    +0.003 A 
ATOM      2  C   UNL A   1     -22.990   0.967  27.604  0.00  0.00    +0.080 A 
ATOM      3  C   UNL A   1     -23.073  -0.791  28.896  0.00  0.00    -0.018 A 
ATOM      4  C   UNL A   1     -21.683  -0.792  29.136  0.00  0.00    -0.004 A 
ATOM      5  C   UNL A   1     -21.533   1.203  27.716  0.00  0.00    +0.007 A 
ATOM      6  C   UNL A   1     -20.941   0.211  28.486  0.00  0.00    -0.000 A 
ENDROOT
BRANCH   2   7
ATOM      7  C   UNL A   1     -23.463   2.249  26.728  0.00  0.00    +0.388 C 
ATOM      8  O   UNL A   1     -23.196   2.382  25.601  0.00  0.00    -0.241 OA
ATOM      9  O   UNL A   1     -23.975   3.249  27.446  0.00  0.00    -0.241 OA
ENDBRANCH   2   7
BRANCH   3  10
ATOM     10  C   UNL A   1     -23.826  -1.873  29.531  0.00  0.00    +0.053 C 
BRANCH  10  11
ATOM     11  C   UNL A   1     -23.817  -3.139  28.863  0.00  0.00    -0.011 C 
ATOM     12  C   UNL A   1     -24.475  -3.929  28.756  0.00  0.00    +0.074 C 
BRANCH  12  13
ATOM     13  C   UNL A   1     -25.754  -3.947  29.606  0.00  0.00    +0.101 C 
ATOM     14  N   UNL A   1     -26.661  -4.363  29.693  0.00  0.00    -0.191 NA
ENDBRANCH  12  13
ENDBRANCH  10  11
ENDBRANCH   3  10
TORSDOF 4
ENDMDL
ENDMDL
