REMARK  Name = outputs/IAG933/test6/raw/output_7023_IAG933_linker_design_.xyz
REMARK  11 active torsions:
REMARK  status: ('A' for Active; 'I' for Inactive)
REMARK    1  A    between atoms: C_1  and  C_2
REMARK    2  A    between atoms: C_1  and  C_8
REMARK    3  A    between atoms: C_1  and  C_30
REMARK    4  A    between atoms: C_13  and  C_32
REMARK    5  A    between atoms: C_14  and  C_15
REMARK    6  A    between atoms: C_21  and  O_22
REMARK    7  A    between atoms: O_22  and  C_23
REMARK    8  A    between atoms: C_23  and  C_24
REMARK    9  A    between atoms: N_28  and  C_30
REMARK   10  A    between atoms: N_29  and  C_30
REMARK   11  A    between atoms: C_33  and  C_37
REMARK                            x       y       z     vdW  Elec       q    Type
REMARK                         _______ _______ _______ _____ _____    ______ ____
ROOT
ATOM      1  C   UNL A   1     -25.430  -0.125  29.016  0.00  0.00    +0.160 C 
ENDROOT
BRANCH   1   2
ATOM      2  N   UNL A   1     -24.415   0.476  28.337  0.00  0.00    -0.254 NA
ATOM      3  C   UNL A   1     -24.462   1.154  27.103  0.00  0.00    +0.084 C 
ATOM      4  C   UNL A   1     -21.877   1.073  28.359  0.00  0.00    +0.017 C 
ATOM      5  C   UNL A   1     -23.332   1.344  26.367  0.00  0.00    +0.021 C 
ATOM      6  C   UNL A   1     -23.057   0.283  28.873  0.00  0.00    +0.074 C 
ATOM      7  C   UNL A   1     -21.991   1.499  26.948  0.00  0.00    +0.003 C 
BRANCH   3   8
ATOM      8  C   UNL A   1     -25.688   1.614  26.461  0.00  0.00    +0.030 C 
ATOM      9  C   UNL A   1     -26.250   2.920  26.395  0.00  0.00    +0.074 C 
ATOM     10  C   UNL A   1     -27.438   3.091  25.645  0.00  0.00    +0.106 C 
ATOM     11  N   UNL A   1     -28.075   2.089  25.003  0.00  0.00    -0.208 NA
ATOM     12  C   UNL A   1     -27.543   0.849  25.079  0.00  0.00    +0.253 C 
ATOM     13  C   UNL A   1     -26.354   0.576  25.777  0.00  0.00    +0.190 C 
ATOM     14  F   UNL A   1     -25.860  -0.681  25.795  0.00  0.00    -0.200 F 
BRANCH   9  15
ATOM     15  C   UNL A   1     -25.642   4.093  27.123  0.00  0.00    +0.266 C 
ATOM     16  N   UNL A   1     -25.614   5.252  26.449  0.00  0.00    -0.200 NA
ATOM     17  C   UNL A   1     -25.026   6.479  26.963  0.00  0.00    +0.139 C 
ATOM     18  O   UNL A   1     -25.143   3.966  28.243  0.00  0.00    -0.268 OA
ENDBRANCH   9  15
BRANCH  12  19
ATOM     19  O   UNL A   1     -28.193  -0.208  24.477  0.00  0.00    -0.456 OA
BRANCH  19  20
ATOM     20  C   UNL A   1     -29.460   0.005  23.866  0.00  0.00    +0.243 C 
BRANCH  20  21
ATOM     21  C   UNL A   1     -30.065  -1.377  23.573  0.00  0.00    +0.229 C 
ATOM     22  O   UNL A   1     -30.729  -1.878  24.721  0.00  0.00    -0.216 OA
ENDBRANCH  20  21
ENDBRANCH  19  20
ENDBRANCH  12  19
ENDBRANCH   3   8
ENDBRANCH   1   2
BRANCH   1  23
ATOM     23  N   UNL A   1     -26.699  -0.071  28.935  0.00  0.00    -0.190 NA
ATOM     24  C   UNL A   1     -28.014  -0.244  28.986  0.00  0.00    +0.243 C 
ATOM     25  O   UNL A   1     -28.510  -1.260  28.629  0.00  0.00    -0.273 OA
BRANCH  24  28
ATOM     26  C   UNL A   1     -30.158   0.869  30.123  0.00  0.00    +0.010 C 
ATOM     27  C   UNL A   1     -31.298   1.577  29.371  0.00  0.00    +0.001 C 
ATOM     28  C   UNL A   1     -28.883   1.049  29.352  0.00  0.00    +0.089 C 
ATOM     29  C   UNL A   1     -27.898   2.151  29.755  0.00  0.00    +0.067 C 
ATOM     30  C   UNL A   1     -30.438   3.917  29.907  0.00  0.00    +0.012 C 
ATOM     31  C   UNL A   1     -31.626   2.938  30.018  0.00  0.00    +0.001 C 
ATOM     32  C   UNL A   1     -29.571   3.867  31.194  0.00  0.00    +0.058 C 
ATOM     33  S   UNL A   1     -28.266   2.622  31.433  0.00  0.00    -0.140 S 
ENDBRANCH  24  28
ENDBRANCH   1  23
BRANCH   1  34
ATOM     34  C   UNL A   1     -24.855  -1.012  30.143  0.00  0.00    +0.074 C 
BRANCH  34  35
ATOM     35  C   UNL A   1     -24.973  -2.505  29.788  0.00  0.00    -0.018 C 
ATOM     36  C   UNL A   1     -23.906  -3.173  29.146  0.00  0.00    -0.004 C 
ATOM     37  C   UNL A   1     -23.989  -4.549  28.853  0.00  0.00    -0.000 C 
ATOM     38  C   UNL A   1     -25.137  -5.280  29.205  0.00  0.00    -0.000 C 
ATOM     39  C   UNL A   1     -26.232  -4.611  29.784  0.00  0.00    -0.000 C 
ATOM     40  C   UNL A   1     -26.155  -3.232  30.065  0.00  0.00    -0.004 C 
ENDBRANCH  34  35
BRANCH  34  41
ATOM     41  C   UNL A   1     -25.387  -0.679  31.571  0.00  0.00    +0.080 C 
ATOM     42  C   UNL A   1     -25.189   0.773  32.028  0.00  0.00    +0.019 C 
ATOM     43  C   UNL A   1     -25.336   0.684  33.544  0.00  0.00    +0.020 C 
ATOM     44  C   UNL A   1     -24.829  -0.715  33.905  0.00  0.00    +0.089 C 
ATOM     45  N   UNL A   1     -24.758  -1.481  32.646  0.00  0.00    -0.219 NA
ENDBRANCH  34  41
ENDBRANCH   1  34
TORSDOF 11
