REMARK  Name = outputs/IAG933/test6/raw/output_7027_IAG933_linker_design_.xyz
REMARK  9 active torsions:
REMARK  status: ('A' for Active; 'I' for Inactive)
REMARK    1  A    between atoms: C_1  and  C_2
REMARK    2  A    between atoms: C_1  and  C_8
REMARK    3  A    between atoms: C_1  and  C_28
REMARK    4  A    between atoms: C_13  and  C_34
REMARK    5  A    between atoms: C_14  and  C_15
REMARK    6  A    between atoms: C_21  and  O_22
REMARK    7  A    between atoms: O_22  and  C_23
REMARK    8  A    between atoms: C_23  and  C_24
REMARK    9  A    between atoms: N_30  and  C_32
REMARK                            x       y       z     vdW  Elec       q    Type
REMARK                         _______ _______ _______ _____ _____    ______ ____
ROOT
ATOM      1  C   UNL A   1     -23.961  -0.050  29.301  0.00  0.00    +0.089 C 
ATOM      2  CA  UNL A   1     -21.989   0.603  28.186  0.00  0.00    +0.141 C 
ATOM      3  C   UNL A   1     -24.710   0.826  28.441  0.00  0.00    +0.135 C 
ATOM      4  C   UNL A   1     -21.102  -0.112  28.998  0.00  0.00    +0.230 C 
ATOM      5  C   UNL A   1     -24.552   1.133  27.178  0.00  0.00    +0.034 C 
ATOM      6  N   UNL A   1     -22.549  -0.058  29.320  0.00  0.00    -0.241 NA
ATOM      7  O   UNL A   1     -19.887   0.059  28.624  0.00  0.00    -0.203 OA
ATOM      8  C   UNL A   1     -22.241   1.997  24.959  0.00  0.00    +0.361 C 
ATOM      9  C   UNL A   1     -23.462   1.307  26.478  0.00  0.00    +0.145 C 
ATOM     10  C   UNL A   1     -22.244   1.157  26.970  0.00  0.00    +0.193 C 
ATOM     11  O   UNL A   1     -21.384   1.760  25.994  0.00  0.00    -0.309 OA
ATOM     12  O   UNL A   1     -23.413   1.708  25.114  0.00  0.00    -0.450 OA
ENDROOT
BRANCH   5  13
ATOM     13  C   UNL A   1     -25.688   1.614  26.461  0.00  0.00    +0.038 C 
ATOM     14  C   UNL A   1     -26.250   2.920  26.395  0.00  0.00    +0.076 C 
ATOM     15  C   UNL A   1     -27.438   3.091  25.645  0.00  0.00    +0.107 C 
ATOM     16  N   UNL A   1     -28.075   2.089  25.003  0.00  0.00    -0.208 NA
ATOM     17  C   UNL A   1     -27.543   0.849  25.079  0.00  0.00    +0.253 C 
ATOM     18  C   UNL A   1     -26.354   0.576  25.777  0.00  0.00    +0.193 C 
ATOM     19  F   UNL A   1     -25.860  -0.681  25.795  0.00  0.00    -0.199 F 
BRANCH  14  20
ATOM     20  C   UNL A   1     -25.642   4.093  27.123  0.00  0.00    +0.266 C 
ATOM     21  N   UNL A   1     -25.614   5.252  26.449  0.00  0.00    -0.200 NA
ATOM     22  C   UNL A   1     -25.026   6.479  26.963  0.00  0.00    +0.139 C 
ATOM     23  O   UNL A   1     -25.143   3.966  28.243  0.00  0.00    -0.268 OA
ENDBRANCH  14  20
BRANCH  17  24
ATOM     24  O   UNL A   1     -28.193  -0.208  24.477  0.00  0.00    -0.456 OA
BRANCH  24  25
ATOM     25  C   UNL A   1     -29.460   0.005  23.866  0.00  0.00    +0.243 C 
BRANCH  25  26
ATOM     26  C   UNL A   1     -30.065  -1.377  23.573  0.00  0.00    +0.229 C 
ATOM     27  O   UNL A   1     -30.729  -1.878  24.721  0.00  0.00    -0.216 OA
ENDBRANCH  25  26
ENDBRANCH  24  25
ENDBRANCH  17  24
ENDBRANCH   5  13
BRANCH   3  29
ATOM     28  O   UNL A   1     -26.956  -0.402  28.427  0.00  0.00    -0.273 OA
ATOM     29  N   UNL A   1     -25.781   1.356  29.106  0.00  0.00    -0.201 NA
ATOM     30  C   UNL A   1     -26.922   0.744  28.898  0.00  0.00    +0.242 C 
ATOM     31  C   UNL A   1     -28.119   1.339  29.416  0.00  0.00    +0.096 C 
ENDBRANCH   3  29
BRANCH   1  32
ATOM     32  C   UNL A   1     -24.855  -1.012  30.143  0.00  0.00    +0.055 C 
BRANCH  32  33
ATOM     33  C   UNL A   1     -24.973  -2.505  29.788  0.00  0.00    -0.020 C 
ATOM     34  C   UNL A   1     -23.906  -3.173  29.146  0.00  0.00    -0.004 C 
ATOM     35  C   UNL A   1     -23.989  -4.549  28.853  0.00  0.00    -0.000 C 
ATOM     36  C   UNL A   1     -25.137  -5.280  29.205  0.00  0.00    -0.000 C 
ATOM     37  C   UNL A   1     -26.232  -4.611  29.784  0.00  0.00    -0.000 C 
ATOM     38  C   UNL A   1     -26.155  -3.232  30.065  0.00  0.00    -0.004 C 
ENDBRANCH  32  33
BRANCH  32  39
ATOM     39  C   UNL A   1     -25.387  -0.679  31.571  0.00  0.00    +0.078 C 
ATOM     40  C   UNL A   1     -25.189   0.773  32.028  0.00  0.00    +0.019 C 
ATOM     41  C   UNL A   1     -25.336   0.684  33.544  0.00  0.00    +0.020 C 
ATOM     42  C   UNL A   1     -24.829  -0.715  33.905  0.00  0.00    +0.089 C 
ATOM     43  N   UNL A   1     -24.758  -1.481  32.646  0.00  0.00    -0.219 NA
ENDBRANCH  32  39
ENDBRANCH   1  32
TORSDOF 9
