MODEL 702
MODEL 1
REMARK VINA RESULT:    -5.698      0.000      0.000
REMARK INTER + INTRA:          -5.698
REMARK INTER:                  -5.698
REMARK INTRA:                   0.000
REMARK UNBOUND:                 0.000
REMARK  Name = No_702-gen_results/8p0m/2024-11-27-11-27-31/
REMARK  0 active torsions:
REMARK  status: ('A' for Active; 'I' for Inactive)
REMARK                            x       y       z     vdW  Elec       q    Type
REMARK                         _______ _______ _______ _____ _____    ______ ____
ROOT
ATOM      1  C   UNL A   1     -21.822   1.178  27.784  0.00  0.00    -0.000 A 
ATOM      2  C   UNL A   1     -22.172   1.883  27.083  0.00  0.00    -0.004 A 
ATOM      3  C   UNL A   1     -22.840   0.217  28.207  0.00  0.00    -0.000 A 
ATOM      4  C   UNL A   1     -22.567  -0.929  29.101  0.00  0.00    -0.000 A 
ATOM      5  C   UNL A   1     -23.138   1.984  26.544  0.00  0.00    -0.022 A 
ATOM      6  C   UNL A   1     -23.504   3.110  25.492  0.00  0.00    +0.031 C 
ATOM      7  C   UNL A   1     -23.600  -1.873  29.281  0.00  0.00    -0.000 A 
ATOM      8  C   UNL A   1     -24.782  -1.755  28.557  0.00  0.00    -0.000 A 
ATOM      9  C   UNL A   1     -24.982  -0.762  27.688  0.00  0.00    -0.000 A 
ATOM     10  C   UNL A   1     -24.041   0.124  27.454  0.00  0.00    -0.000 A 
ATOM     11  C   UNL A   1     -24.219   1.184  26.545  0.00  0.00    -0.004 A 
ENDROOT
TORSDOF 0
ENDMDL
ENDMDL
