MODEL 703
MODEL 1
REMARK VINA RESULT:    -6.133      0.000      0.000
REMARK INTER + INTRA:          -7.151
REMARK INTER:                  -6.850
REMARK INTRA:                  -0.301
REMARK UNBOUND:                -0.301
REMARK  Name = No_703-gen_results/8p0m/2024-11-27-11-27-31/
REMARK  2 active torsions:
REMARK  status: ('A' for Active; 'I' for Inactive)
REMARK    1  A    between atoms: C_2  and  C_4
REMARK    2  A    between atoms: C_4  and  C_5
REMARK                            x       y       z     vdW  Elec       q    Type
REMARK                         _______ _______ _______ _____ _____    ______ ____
ROOT
ATOM      1  C   UNL A   1     -24.211  -1.335  28.750  0.00  0.00    -0.015 A 
ATOM      2  C   UNL A   1     -24.006  -0.208  27.814  0.00  0.00    +0.014 A 
ATOM      3  C   UNL A   1     -23.055   0.830  28.138  0.00  0.00    +0.081 A 
ATOM      4  C   UNL A   1     -22.630   1.812  27.159  0.00  0.00    +0.019 A 
ATOM      5  C   UNL A   1     -23.414   1.916  25.960  0.00  0.00    +0.002 A 
ATOM      6  C   UNL A   1     -24.485   1.033  25.784  0.00  0.00    +0.000 A 
ATOM      7  C   UNL A   1     -24.709   0.023  26.630  0.00  0.00    +0.001 A 
ATOM      8  N   UNL A   1     -22.261   0.479  29.174  0.00  0.00    -0.244 NA
ATOM      9  C   UNL A   1     -23.265  -1.340  29.884  0.00  0.00    +0.017 A 
ATOM     10  C   UNL A   1     -22.307  -0.418  30.082  0.00  0.00    +0.099 A 
ENDROOT
BRANCH   1  11
ATOM     11  C   UNL A   1     -24.900  -2.281  28.453  0.00  0.00    +0.079 C 
BRANCH  11  13
ATOM     12 CL   UNL A   1     -25.662  -4.368  29.455  0.00  0.00    -0.076 Cl
ATOM     13  C   UNL A   1     -24.737  -3.676  28.734  0.00  0.00    +0.243 C 
ATOM     14  F   UNL A   1     -23.704  -4.250  28.301  0.00  0.00    -0.219 F 
ENDBRANCH  11  13
ENDBRANCH   1  11
TORSDOF 2
ENDMDL
ENDMDL
