REMARK  Name = No_704-gen_results/8p0m/2024-11-27-11-27-31/
REMARK  2 active torsions:
REMARK  status: ('A' for Active; 'I' for Inactive)
REMARK    1  A    between atoms: C_2  and  O_7
REMARK    2  A    between atoms: O_7  and  C_8
REMARK                            x       y       z     vdW  Elec       q    Type
REMARK                         _______ _______ _______ _____ _____    ______ ____
ROOT
ATOM      1  O   UNL A   1     -27.123   1.023  27.850  0.00  0.00    -0.454 OA
ENDROOT
BRANCH   1   3
ATOM      2  C   UNL A   1     -28.016  -0.814  28.878  0.00  0.00    +0.037 A 
ATOM      3  C   UNL A   1     -27.064  -0.119  28.608  0.00  0.00    +0.145 A 
ATOM      4  C   UNL A   1     -25.792  -0.430  29.076  0.00  0.00    +0.037 A 
ATOM      5  C   UNL A   1     -25.576  -1.565  29.936  0.00  0.00    +0.003 A 
ATOM      6  C   UNL A   1     -26.735  -2.300  30.217  0.00  0.00    +0.000 A 
ATOM      7  C   UNL A   1     -27.918  -1.954  29.763  0.00  0.00    +0.003 A 
ENDBRANCH   1   3
BRANCH   1   8
ATOM      8  C   UNL A   1     -26.616   1.899  27.627  0.00  0.00    +0.145 A 
ATOM      9  C   UNL A   1     -26.319   2.875  28.494  0.00  0.00    +0.037 A 
ATOM     10  C   UNL A   1     -25.438   4.011  28.242  0.00  0.00    +0.003 A 
ATOM     11  C   UNL A   1     -24.812   3.999  26.974  0.00  0.00    +0.000 A 
ATOM     12  C   UNL A   1     -25.830   2.090  26.330  0.00  0.00    +0.037 A 
ATOM     13  C   UNL A   1     -25.030   3.109  26.046  0.00  0.00    +0.003 A 
ENDBRANCH   1   8
TORSDOF 2
