REMARK  Name = outputs/IAG933/test6/raw/output_7045_IAG933_linker_design_.xyz
REMARK  12 active torsions:
REMARK  status: ('A' for Active; 'I' for Inactive)
REMARK    1  A    between atoms: C_1  and  C_2
REMARK    2  A    between atoms: C_1  and  C_8
REMARK    3  A    between atoms: C_1  and  N_40
REMARK    4  A    between atoms: C_9  and  C_38
REMARK    5  A    between atoms: C_13  and  C_30
REMARK    6  A    between atoms: C_14  and  C_15
REMARK    7  A    between atoms: C_21  and  O_22
REMARK    8  A    between atoms: O_22  and  C_23
REMARK    9  A    between atoms: C_23  and  C_24
REMARK   10  A    between atoms: C_35  and  C_38
REMARK   11  A    between atoms: C_35  and  C_42
REMARK   12  A    between atoms: C_42  and  C_43
REMARK                            x       y       z     vdW  Elec       q    Type
REMARK                         _______ _______ _______ _____ _____    ______ ____
ROOT
ATOM      1  O   UNL A   1     -20.402   1.511  27.792  0.00  0.00    -0.244 OA
ATOM      2  O   UNL A   1     -23.768   3.178  25.093  0.00  0.00    -0.250 OA
ATOM      3  C   UNL A   1     -24.328   1.767  26.877  0.00  0.00    +0.131 C 
ATOM      4  O   UNL A   1     -22.033   2.263  26.287  0.00  0.00    -0.389 OA
ATOM      5  C   UNL A   1     -22.727   1.013  28.228  0.00  0.00    +0.160 C 
ATOM      6  C   UNL A   1     -23.988   1.393  28.025  0.00  0.00    +0.164 C 
ATOM      7  N   UNL A   1     -24.897   1.096  28.942  0.00  0.00    -0.033 NA
ATOM      8  C   UNL A   1     -22.826   0.081  29.224  0.00  0.00    +0.387 C 
ATOM      9  N   UNL A   1     -24.153   0.036  29.477  0.00  0.00    -0.101 N 
ATOM     10  C   UNL A   1     -23.371   2.364  26.007  0.00  0.00    +0.326 C 
ATOM     11  C   UNL A   1     -21.687   1.595  27.449  0.00  0.00    +0.352 C 
ATOM     12  N   UNL A   1     -21.853  -0.506  29.824  0.00  0.00    +0.211 NA
ENDROOT
BRANCH   3  13
ATOM     13  C   UNL A   1     -25.688   1.614  26.461  0.00  0.00    +0.083 C 
ATOM     14  C   UNL A   1     -26.250   2.920  26.395  0.00  0.00    +0.055 C 
ATOM     15  C   UNL A   1     -27.438   3.091  25.645  0.00  0.00    +0.102 C 
ATOM     16  N   UNL A   1     -28.075   2.089  25.003  0.00  0.00    -0.212 NA
ATOM     17  C   UNL A   1     -27.543   0.849  25.079  0.00  0.00    +0.234 C 
ATOM     18  C   UNL A   1     -26.354   0.576  25.777  0.00  0.00    +0.241 C 
ATOM     19  F   UNL A   1     -25.860  -0.681  25.795  0.00  0.00    -0.227 F 
BRANCH  14  20
ATOM     20  C   UNL A   1     -25.642   4.093  27.123  0.00  0.00    +0.263 C 
ATOM     21  N   UNL A   1     -25.614   5.252  26.449  0.00  0.00    -0.200 NA
ATOM     22  C   UNL A   1     -25.026   6.479  26.963  0.00  0.00    +0.139 C 
ATOM     23  O   UNL A   1     -25.143   3.966  28.243  0.00  0.00    -0.269 OA
ENDBRANCH  14  20
BRANCH  17  24
ATOM     24  O   UNL A   1     -28.193  -0.208  24.477  0.00  0.00    -0.459 OA
BRANCH  24  25
ATOM     25  C   UNL A   1     -29.460   0.005  23.866  0.00  0.00    +0.242 C 
BRANCH  25  26
ATOM     26  C   UNL A   1     -30.065  -1.377  23.573  0.00  0.00    +0.229 C 
ATOM     27  O   UNL A   1     -30.729  -1.878  24.721  0.00  0.00    -0.216 OA
ENDBRANCH  25  26
ENDBRANCH  24  25
ENDBRANCH  17  24
ENDBRANCH   3  13
BRANCH   9  28
ATOM     28  C   UNL A   1     -24.855  -1.012  30.143  0.00  0.00    +0.219 C 
BRANCH  28  29
ATOM     29  C   UNL A   1     -24.973  -2.505  29.788  0.00  0.00    +0.023 C 
ATOM     30  C   UNL A   1     -23.906  -3.173  29.146  0.00  0.00    -0.000 C 
ATOM     31  C   UNL A   1     -23.989  -4.549  28.853  0.00  0.00    -0.000 C 
ATOM     32  C   UNL A   1     -25.137  -5.280  29.205  0.00  0.00    -0.000 C 
ATOM     33  C   UNL A   1     -26.232  -4.611  29.784  0.00  0.00    -0.000 C 
ATOM     34  C   UNL A   1     -26.155  -3.232  30.065  0.00  0.00    -0.000 C 
ENDBRANCH  28  29
BRANCH  28  35
ATOM     35  C   UNL A   1     -25.387  -0.679  31.571  0.00  0.00    +0.121 C 
ATOM     36  C   UNL A   1     -25.189   0.773  32.028  0.00  0.00    +0.022 C 
ATOM     37  C   UNL A   1     -25.336   0.684  33.544  0.00  0.00    +0.020 C 
ATOM     38  C   UNL A   1     -24.829  -0.715  33.905  0.00  0.00    +0.089 C 
ATOM     39  N   UNL A   1     -24.758  -1.481  32.646  0.00  0.00    -0.215 NA
BRANCH  36  40
ATOM     40  C   UNL A   1     -25.798   2.067  31.520  0.00  0.00    +0.002 C 
BRANCH  40  41
ATOM     41  C   UNL A   1     -24.913   3.278  31.803  0.00  0.00    +0.010 C 
BRANCH  41  42
ATOM     42  C   UNL A   1     -25.810   4.421  32.330  0.00  0.00    +0.088 C 
BRANCH  42  45
ATOM     43  N   UNL A   1     -25.851   4.857  34.689  0.00  0.00    -0.088 NA
ATOM     44  O   UNL A   1     -27.195   3.319  33.985  0.00  0.00    -0.272 OA
ATOM     45  C   UNL A   1     -26.353   4.150  33.722  0.00  0.00    +0.261 C 
ENDBRANCH  42  45
ENDBRANCH  41  42
ENDBRANCH  40  41
ENDBRANCH  36  40
ENDBRANCH  28  35
ENDBRANCH   9  28
TORSDOF 12
