MODEL 704
MODEL 1
REMARK VINA RESULT:    -6.445      0.000      0.000
REMARK INTER + INTRA:          -7.561
REMARK INTER:                  -7.199
REMARK INTRA:                  -0.362
REMARK UNBOUND:                -0.362
REMARK  Name = No_704-gen_results/8p0m/2024-11-27-11-27-31/
REMARK  2 active torsions:
REMARK  status: ('A' for Active; 'I' for Inactive)
REMARK    1  A    between atoms: C_2  and  O_7
REMARK    2  A    between atoms: O_7  and  C_8
REMARK                            x       y       z     vdW  Elec       q    Type
REMARK                         _______ _______ _______ _____ _____    ______ ____
ROOT
ATOM      1  O   UNL A   1     -23.505  -1.981  29.537  0.00  0.00    -0.454 OA
ENDROOT
BRANCH   1   3
ATOM      2  C   UNL A   1     -21.692  -0.695  29.004  0.00  0.00    +0.037 A 
ATOM      3  C   UNL A   1     -22.875  -0.930  28.921  0.00  0.00    +0.145 A 
ATOM      4  C   UNL A   1     -23.719  -0.113  28.178  0.00  0.00    +0.037 A 
ATOM      5  C   UNL A   1     -23.219   1.067  27.521  0.00  0.00    +0.003 A 
ATOM      6  C   UNL A   1     -21.844   1.277  27.689  0.00  0.00    +0.000 A 
ATOM      7  C   UNL A   1     -21.092   0.483  28.416  0.00  0.00    +0.003 A 
ENDBRANCH   1   3
BRANCH   1   8
ATOM      8  C   UNL A   1     -24.204  -2.733  29.390  0.00  0.00    +0.145 A 
ATOM      9  C   UNL A   1     -23.942  -3.970  28.948  0.00  0.00    +0.037 A 
ATOM     10  C   UNL A   1     -24.876  -5.091  28.927  0.00  0.00    +0.003 A 
ATOM     11  C   UNL A   1     -26.140  -4.814  29.498  0.00  0.00    +0.000 A 
ATOM     12  C   UNL A   1     -25.621  -2.666  29.958  0.00  0.00    +0.037 A 
ATOM     13  C   UNL A   1     -26.512  -3.649  29.950  0.00  0.00    +0.003 A 
ENDBRANCH   1   8
TORSDOF 2
ENDMDL
ENDMDL
