REMARK  Name = No_705-gen_results/8p0m/2024-11-27-11-27-31/
REMARK  8 active torsions:
REMARK  status: ('A' for Active; 'I' for Inactive)
REMARK    1  A    between atoms: C_3  and  C_8
REMARK    2  A    between atoms: C_6  and  O_7
REMARK    3  A    between atoms: O_7  and  C_14
REMARK    4  A    between atoms: C_9  and  C_11
REMARK    5  A    between atoms: C_16  and  O_20
REMARK    6  A    between atoms: O_20  and  C_21
REMARK    7  A    between atoms: C_21  and  C_22
REMARK    8  A    between atoms: C_21  and  C_28
REMARK                            x       y       z     vdW  Elec       q    Type
REMARK                         _______ _______ _______ _____ _____    ______ ____
ROOT
ATOM      1  C   UNL A   1     -30.060  -2.242  30.543  0.00  0.00    +0.179 A 
ATOM      2  C   UNL A   1     -30.293  -1.279  30.907  0.00  0.00    +0.041 A 
ATOM      3  C   UNL A   1     -31.143  -3.321  30.416  0.00  0.00    +0.174 A 
ATOM      4  C   UNL A   1     -31.576  -0.760  31.348  0.00  0.00    +0.003 A 
ATOM      5  C   UNL A   1     -32.442  -2.918  30.749  0.00  0.00    +0.040 A 
ATOM      6  C   UNL A   1     -32.641  -1.646  31.275  0.00  0.00    +0.003 A 
ENDROOT
BRANCH   1   7
ATOM      7  O   UNL A   1     -28.930  -2.730  30.115  0.00  0.00    -0.450 OA
BRANCH   7  13
ATOM      8  C   UNL A   1     -28.016  -0.814  28.878  0.00  0.00    +0.037 A 
ATOM      9  C   UNL A   1     -27.064  -0.119  28.608  0.00  0.00    +0.003 A 
ATOM     10  C   UNL A   1     -25.765  -0.390  29.036  0.00  0.00    -0.000 A 
ATOM     11  C   UNL A   1     -25.530  -1.530  29.901  0.00  0.00    +0.003 A 
ATOM     12  C   UNL A   1     -26.689  -2.289  30.181  0.00  0.00    +0.037 A 
ATOM     13  C   UNL A   1     -27.873  -1.951  29.737  0.00  0.00    +0.145 A 
BRANCH  10  14
ATOM     14  C   UNL A   1     -24.539   0.421  28.742  0.00  0.00    -0.003 C 
ATOM     15  C   UNL A   1     -24.526   1.274  27.727  0.00  0.00    +0.022 C 
ATOM     16  C   UNL A   1     -25.557   1.607  26.896  0.00  0.00    +0.032 C 
BRANCH  15  17
ATOM     17  C   UNL A   1     -23.169   1.910  27.427  0.00  0.00    +0.337 C 
ATOM     18  F   UNL A   1     -22.299   1.794  28.352  0.00  0.00    -0.194 F 
ATOM     19  F   UNL A   1     -22.923   2.454  26.352  0.00  0.00    -0.194 F 
ENDBRANCH  15  17
ENDBRANCH  10  14
ENDBRANCH   7  13
ENDBRANCH   1   7
BRANCH   3  20
ATOM     20  O   UNL A   1     -30.945  -4.538  29.939  0.00  0.00    -0.467 OA
BRANCH  20  21
ATOM     21  C   UNL A   1     -31.814  -5.479  29.892  0.00  0.00    +0.210 C 
BRANCH  21  22
ATOM     22  C   UNL A   1     -32.140  -5.818  28.455  0.00  0.00    +0.017 C 
ATOM     23  C   UNL A   1     -33.229  -5.362  27.906  0.00  0.00    -0.023 C 
ATOM     24  C   UNL A   1     -34.008  -4.528  28.657  0.00  0.00    -0.013 C 
ATOM     25  C   UNL A   1     -35.131  -4.702  28.724  0.00  0.00    -0.044 C 
ATOM     26  C   UNL A   1     -35.865  -5.326  27.658  0.00  0.00    +0.026 C 
ATOM     27  C   UNL A   1     -34.233  -6.310  27.416  0.00  0.00    +0.026 C 
ATOM     28  C   UNL A   1     -36.111  -3.470  29.162  0.00  0.00    +0.026 C 
ATOM     29  C   UNL A   1     -33.912  -7.383  28.002  0.00  0.00    +0.005 C 
ENDBRANCH  21  22
BRANCH  21  30
ATOM     30  C   UNL A   1     -31.588  -6.559  30.691  0.00  0.00    +0.021 A 
ATOM     31  C   UNL A   1     -30.503  -6.439  31.538  0.00  0.00    -0.001 A 
ATOM     32  C   UNL A   1     -30.185  -7.522  32.500  0.00  0.00    -0.000 A 
ATOM     33  C   UNL A   1     -30.792  -8.734  32.274  0.00  0.00    -0.000 A 
ATOM     34  C   UNL A   1     -31.765  -8.901  31.330  0.00  0.00    -0.000 A 
ATOM     35  C   UNL A   1     -32.120  -7.822  30.556  0.00  0.00    -0.001 A 
ENDBRANCH  21  30
ENDBRANCH  20  21
ENDBRANCH   3  20
TORSDOF 8
