REMARK  Name = outputs/IAG933/test6/raw/output_7057_IAG933_linker_design_.xyz
REMARK  14 active torsions:
REMARK  status: ('A' for Active; 'I' for Inactive)
REMARK    1  A    between atoms: C_1  and  C_2
REMARK    2  A    between atoms: C_1  and  C_8
REMARK    3  A    between atoms: C_1  and  N_41
REMARK    4  A    between atoms: C_13  and  C_36
REMARK    5  A    between atoms: C_14  and  C_15
REMARK    6  A    between atoms: C_21  and  O_22
REMARK    7  A    between atoms: O_22  and  C_23
REMARK    8  A    between atoms: C_23  and  C_24
REMARK    9  A    between atoms: O_29  and  C_31
REMARK   10  A    between atoms: C_31  and  N_41
REMARK   11  A    between atoms: C_32  and  C_42
REMARK   12  A    between atoms: C_33  and  N_41
REMARK   13  A    between atoms: C_35  and  O_37
REMARK   14  A    between atoms: O_37  and  N_39
REMARK                            x       y       z     vdW  Elec       q    Type
REMARK                         _______ _______ _______ _____ _____    ______ ____
ROOT
ATOM      1  C   UNL A   1     -22.291   1.237  27.271  0.00  0.00    +0.238 A 
ATOM      2  C   UNL A   1     -24.093   0.497  28.139  0.00  0.00    +0.073 A 
ATOM      3  F   UNL A   1     -20.977   1.748  27.034  0.00  0.00    -0.182 F 
ATOM      4  C   UNL A   1     -24.365   1.253  26.977  0.00  0.00    +0.116 A 
ATOM      5  N   UNL A   1     -23.213   1.694  26.293  0.00  0.00    -0.147 N 
ATOM      6  C   UNL A   1     -22.769   0.424  28.242  0.00  0.00    +0.062 A 
ENDROOT
BRANCH   4   7
ATOM      7  C   UNL A   1     -25.688   1.614  26.461  0.00  0.00    +0.058 C 
ATOM      8  C   UNL A   1     -26.250   2.920  26.395  0.00  0.00    +0.078 C 
ATOM      9  C   UNL A   1     -27.438   3.091  25.645  0.00  0.00    +0.107 C 
ATOM     10  N   UNL A   1     -28.075   2.089  25.003  0.00  0.00    -0.208 NA
ATOM     11  C   UNL A   1     -27.543   0.849  25.079  0.00  0.00    +0.253 C 
ATOM     12  C   UNL A   1     -26.354   0.576  25.777  0.00  0.00    +0.195 C 
ATOM     13  F   UNL A   1     -25.860  -0.681  25.795  0.00  0.00    -0.199 F 
BRANCH   8  14
ATOM     14  C   UNL A   1     -25.642   4.093  27.123  0.00  0.00    +0.267 C 
ATOM     15  N   UNL A   1     -25.614   5.252  26.449  0.00  0.00    -0.200 NA
ATOM     16  C   UNL A   1     -25.026   6.479  26.963  0.00  0.00    +0.139 C 
ATOM     17  O   UNL A   1     -25.143   3.966  28.243  0.00  0.00    -0.268 OA
ENDBRANCH   8  14
BRANCH  11  18
ATOM     18  O   UNL A   1     -28.193  -0.208  24.477  0.00  0.00    -0.456 OA
BRANCH  18  19
ATOM     19  C   UNL A   1     -29.460   0.005  23.866  0.00  0.00    +0.243 C 
BRANCH  19  20
ATOM     20  C   UNL A   1     -30.065  -1.377  23.573  0.00  0.00    +0.229 C 
ATOM     21  O   UNL A   1     -30.729  -1.878  24.721  0.00  0.00    -0.216 OA
ENDBRANCH  19  20
ENDBRANCH  18  19
ENDBRANCH  11  18
ENDBRANCH   4   7
BRANCH   6  23
ATOM     22  C   UNL A   1     -20.606  -0.303  28.831  0.00  0.00    +0.000 C 
ATOM     23  C   UNL A   1     -21.846  -0.242  29.092  0.00  0.00    +0.005 C 
ENDBRANCH   6  23
BRANCH   5  24
ATOM     24  O   UNL A   1     -22.890   2.298  25.143  0.00  0.00    -0.354 OA
BRANCH  24  25
ATOM     25  C   UNL A   1     -23.268   1.595  23.984  0.00  0.00    +0.426 C 
ATOM     26  F   UNL A   1     -23.736   0.411  24.113  0.00  0.00    -0.179 F 
ENDBRANCH  24  25
ENDBRANCH   5  24
BRANCH   2  27
ATOM     27  N   UNL A   1     -25.039  -0.069  29.004  0.00  0.00    -0.278 N 
BRANCH  27  28
ATOM     28  C   UNL A   1     -24.855  -1.012  30.143  0.00  0.00    +0.114 C 
BRANCH  28  29
ATOM     29  C   UNL A   1     -24.973  -2.505  29.788  0.00  0.00    -0.003 C 
ATOM     30  C   UNL A   1     -23.906  -3.173  29.146  0.00  0.00    -0.003 C 
ATOM     31  C   UNL A   1     -23.989  -4.549  28.853  0.00  0.00    -0.000 C 
ATOM     32  C   UNL A   1     -25.137  -5.280  29.205  0.00  0.00    -0.000 C 
ATOM     33  C   UNL A   1     -26.232  -4.611  29.784  0.00  0.00    -0.000 C 
ATOM     34  C   UNL A   1     -26.155  -3.232  30.065  0.00  0.00    -0.003 C 
ENDBRANCH  28  29
BRANCH  28  35
ATOM     35  C   UNL A   1     -25.387  -0.679  31.571  0.00  0.00    +0.095 C 
ATOM     36  C   UNL A   1     -25.189   0.773  32.028  0.00  0.00    +0.021 C 
ATOM     37  C   UNL A   1     -25.336   0.684  33.544  0.00  0.00    +0.020 C 
ATOM     38  C   UNL A   1     -24.829  -0.715  33.905  0.00  0.00    +0.089 C 
ATOM     39  N   UNL A   1     -24.758  -1.481  32.646  0.00  0.00    -0.217 NA
ENDBRANCH  28  35
ENDBRANCH  27  28
BRANCH  27  40
ATOM     40  C   UNL A   1     -26.343   0.266  28.978  0.00  0.00    +0.241 C 
BRANCH  40  41
ATOM     41  O   UNL A   1     -27.471  -0.353  28.747  0.00  0.00    -0.332 OA
ATOM     42  C   UNL A   1     -28.431   0.324  27.887  0.00  0.00    +0.176 C 
ENDBRANCH  40  41
ENDBRANCH  27  40
ENDBRANCH   2  27
TORSDOF 14
