REMARK  Name = outputs/IAG933/test6/raw/output_7059_IAG933_linker_design_.xyz
REMARK  16 active torsions:
REMARK  status: ('A' for Active; 'I' for Inactive)
REMARK    1  A    between atoms: C_1  and  C_2
REMARK    2  A    between atoms: C_1  and  C_8
REMARK    3  A    between atoms: C_1  and  N_33
REMARK    4  A    between atoms: C_13  and  S_31
REMARK    5  A    between atoms: C_14  and  C_15
REMARK    6  A    between atoms: C_21  and  O_22
REMARK    7  A    between atoms: O_22  and  C_23
REMARK    8  A    between atoms: C_23  and  C_24
REMARK    9  A    between atoms: C_29  and  C_30
REMARK   10  A    between atoms: S_31  and  C_39
REMARK   11  A    between atoms: N_32  and  C_36
REMARK   12  A    between atoms: N_33  and  C_36
REMARK   13  A    between atoms: N_33  and  C_37
REMARK   14  A    between atoms: C_34  and  C_37
REMARK   15  A    between atoms: C_36  and  C_42
REMARK   16  A    between atoms: C_39  and  C_40
REMARK                            x       y       z     vdW  Elec       q    Type
REMARK                         _______ _______ _______ _____ _____    ______ ____
ROOT
ATOM      1  C   UNL A   1     -23.740   0.910  29.180  0.00  0.00    +0.221 C 
ENDROOT
BRANCH   1   2
ATOM      2  N   UNL A   1     -22.721   0.387  28.460  0.00  0.00    -0.177 NA
ATOM      3  C   UNL A   1     -21.923   1.266  27.839  0.00  0.00    +0.254 C 
ATOM      4  O   UNL A   1     -20.798   1.504  28.254  0.00  0.00    -0.272 OA
BRANCH   3   5
ATOM      5  C   UNL A   1     -22.381   1.989  26.594  0.00  0.00    +0.145 C 
BRANCH   5   6
ATOM      6  S   UNL A   1     -23.958   1.361  26.157  0.00  0.00    -0.123 S 
BRANCH   6   7
ATOM      7  C   UNL A   1     -25.688   1.614  26.461  0.00  0.00    +0.118 C 
ATOM      8  C   UNL A   1     -26.250   2.920  26.395  0.00  0.00    +0.065 C 
ATOM      9  C   UNL A   1     -27.438   3.091  25.645  0.00  0.00    +0.103 C 
ATOM     10  N   UNL A   1     -28.075   2.089  25.003  0.00  0.00    -0.212 NA
ATOM     11  C   UNL A   1     -27.543   0.849  25.079  0.00  0.00    +0.235 C 
ATOM     12  C   UNL A   1     -26.354   0.576  25.777  0.00  0.00    +0.250 C 
ATOM     13  F   UNL A   1     -25.860  -0.681  25.795  0.00  0.00    -0.226 F 
BRANCH   8  14
ATOM     14  C   UNL A   1     -25.642   4.093  27.123  0.00  0.00    +0.263 C 
ATOM     15  N   UNL A   1     -25.614   5.252  26.449  0.00  0.00    -0.200 NA
ATOM     16  C   UNL A   1     -25.026   6.479  26.963  0.00  0.00    +0.139 C 
ATOM     17  O   UNL A   1     -25.143   3.966  28.243  0.00  0.00    -0.269 OA
ENDBRANCH   8  14
BRANCH  11  18
ATOM     18  O   UNL A   1     -28.193  -0.208  24.477  0.00  0.00    -0.459 OA
BRANCH  18  19
ATOM     19  C   UNL A   1     -29.460   0.005  23.866  0.00  0.00    +0.242 C 
BRANCH  19  20
ATOM     20  C   UNL A   1     -30.065  -1.377  23.573  0.00  0.00    +0.229 C 
ATOM     21  O   UNL A   1     -30.729  -1.878  24.721  0.00  0.00    -0.216 OA
ENDBRANCH  19  20
ENDBRANCH  18  19
ENDBRANCH  11  18
ENDBRANCH   6   7
ENDBRANCH   5   6
ENDBRANCH   3   5
ENDBRANCH   1   2
BRANCH   1  23
ATOM     22  C   UNL A   1     -23.336   3.282  30.341  0.00  0.00    -0.016 C 
ATOM     23  C   UNL A   1     -23.474   1.947  29.850  0.00  0.00    -0.045 C 
BRANCH  22  24
ATOM     24  C   UNL A   1     -23.514   4.448  30.617  0.00  0.00    +0.284 C 
ATOM     25  O   UNL A   1     -24.297   5.264  31.201  0.00  0.00    -0.273 OA
ENDBRANCH  22  24
ENDBRANCH   1  23
BRANCH   1  26
ATOM     26  N   UNL A   1     -24.935   0.022  29.138  0.00  0.00    -0.234 NA
BRANCH  26  27
ATOM     27  C   UNL A   1     -24.855  -1.012  30.143  0.00  0.00    +0.099 C 
BRANCH  27  28
ATOM     28  C   UNL A   1     -24.973  -2.505  29.788  0.00  0.00    -0.006 C 
ATOM     29  C   UNL A   1     -23.906  -3.173  29.146  0.00  0.00    -0.003 C 
ATOM     30  C   UNL A   1     -23.989  -4.549  28.853  0.00  0.00    -0.000 C 
ATOM     31  C   UNL A   1     -25.137  -5.280  29.205  0.00  0.00    -0.000 C 
ATOM     32  C   UNL A   1     -26.232  -4.611  29.784  0.00  0.00    -0.000 C 
ATOM     33  C   UNL A   1     -26.155  -3.232  30.065  0.00  0.00    -0.003 C 
ENDBRANCH  27  28
BRANCH  27  34
ATOM     34  C   UNL A   1     -25.387  -0.679  31.571  0.00  0.00    +0.092 C 
ATOM     35  C   UNL A   1     -25.189   0.773  32.028  0.00  0.00    +0.021 C 
ATOM     36  C   UNL A   1     -25.336   0.684  33.544  0.00  0.00    +0.020 C 
ATOM     37  C   UNL A   1     -24.829  -0.715  33.905  0.00  0.00    +0.089 C 
ATOM     38  N   UNL A   1     -24.758  -1.481  32.646  0.00  0.00    -0.218 NA
ENDBRANCH  27  34
ENDBRANCH  26  27
BRANCH  26  39
ATOM     39  C   UNL A   1     -26.244  -0.218  28.456  0.00  0.00    +0.164 C 
BRANCH  39  41
ATOM     40  O   UNL A   1     -28.381  -0.392  29.172  0.00  0.00    -0.270 OA
ATOM     41  C   UNL A   1     -27.479   0.421  29.021  0.00  0.00    +0.277 C 
ATOM     42  N   UNL A   1     -27.475   1.659  29.455  0.00  0.00    -0.087 NA
ENDBRANCH  39  41
ENDBRANCH  26  39
ENDBRANCH   1  26
TORSDOF 16
