MODEL 705
MODEL 1
REMARK VINA RESULT:    -6.399      0.000      0.000
REMARK INTER + INTRA:         -13.872
REMARK INTER:                  -9.392
REMARK INTRA:                  -4.480
REMARK UNBOUND:                -4.480
REMARK  Name = No_705-gen_results/8p0m/2024-11-27-11-27-31/
REMARK  8 active torsions:
REMARK  status: ('A' for Active; 'I' for Inactive)
REMARK    1  A    between atoms: C_3  and  C_8
REMARK    2  A    between atoms: C_6  and  O_7
REMARK    3  A    between atoms: O_7  and  C_14
REMARK    4  A    between atoms: C_9  and  C_11
REMARK    5  A    between atoms: C_16  and  O_20
REMARK    6  A    between atoms: O_20  and  C_21
REMARK    7  A    between atoms: C_21  and  C_22
REMARK    8  A    between atoms: C_21  and  C_28
REMARK                            x       y       z     vdW  Elec       q    Type
REMARK                         _______ _______ _______ _____ _____    ______ ____
ROOT
ATOM      1  C   UNL A   1     -30.682 -13.069  11.208  0.00  0.00    +0.179 A 
ATOM      2  C   UNL A   1     -30.616 -13.070  12.261  0.00  0.00    +0.041 A 
ATOM      3  C   UNL A   1     -30.302 -14.312  10.392  0.00  0.00    +0.174 A 
ATOM      4  C   UNL A   1     -30.187 -14.141  13.144  0.00  0.00    +0.003 A 
ATOM      5  C   UNL A   1     -29.935 -15.438  11.139  0.00  0.00    +0.040 A 
ATOM      6  C   UNL A   1     -29.821 -15.325  12.521  0.00  0.00    +0.003 A 
ENDROOT
BRANCH   1   7
ATOM      7  O   UNL A   1     -31.087 -12.139  10.390  0.00  0.00    -0.450 OA
BRANCH   7  13
ATOM      8  C   UNL A   1     -28.862 -11.125  10.148  0.00  0.00    +0.037 A 
ATOM      9  C   UNL A   1     -28.132 -10.369   9.551  0.00  0.00    +0.003 A 
ATOM     10  C   UNL A   1     -28.565  -9.526   8.528  0.00  0.00    -0.000 A 
ATOM     11  C   UNL A   1     -29.950  -9.586   8.102  0.00  0.00    +0.003 A 
ATOM     12  C   UNL A   1     -30.740 -10.499   8.838  0.00  0.00    +0.037 A 
ATOM     13  C   UNL A   1     -30.241 -11.256   9.782  0.00  0.00    +0.145 A 
BRANCH  10  14
ATOM     14  C   UNL A   1     -27.723  -8.564   7.745  0.00  0.00    -0.003 C 
ATOM     15  C   UNL A   1     -27.541  -7.324   8.179  0.00  0.00    +0.022 C 
ATOM     16  C   UNL A   1     -27.970  -6.774   9.353  0.00  0.00    +0.032 C 
BRANCH  15  17
ATOM     17  C   UNL A   1     -26.809  -6.395   7.211  0.00  0.00    +0.337 C 
ATOM     18  F   UNL A   1     -26.989  -5.149   7.414  0.00  0.00    -0.194 F 
ATOM     19  F   UNL A   1     -26.066  -6.821   6.329  0.00  0.00    -0.194 F 
ENDBRANCH  15  17
ENDBRANCH  10  14
ENDBRANCH   7  13
ENDBRANCH   1   7
BRANCH   3  20
ATOM     20  O   UNL A   1     -30.388 -14.407   9.076  0.00  0.00    -0.467 OA
BRANCH  20  21
ATOM     21  C   UNL A   1     -29.442 -14.753   8.283  0.00  0.00    +0.210 C 
BRANCH  21  22
ATOM     22  C   UNL A   1     -29.859 -15.953   7.464  0.00  0.00    +0.017 C 
ATOM     23  C   UNL A   1     -29.293 -17.109   7.661  0.00  0.00    -0.023 C 
ATOM     24  C   UNL A   1     -28.373 -17.192   8.668  0.00  0.00    -0.013 C 
ATOM     25  C   UNL A   1     -27.365 -17.688   8.481  0.00  0.00    -0.044 C 
ATOM     26  C   UNL A   1     -27.204 -18.728   7.503  0.00  0.00    +0.026 C 
ATOM     27  C   UNL A   1     -28.558 -17.741   6.563  0.00  0.00    +0.026 C 
ATOM     28  C   UNL A   1     -26.497 -18.248   9.747  0.00  0.00    +0.026 C 
ATOM     29  C   UNL A   1     -28.365 -16.778   5.767  0.00  0.00    +0.005 C 
ENDBRANCH  21  22
BRANCH  21  30
ATOM     30  C   UNL A   1     -28.852 -13.755   7.567  0.00  0.00    +0.021 A 
ATOM     31  C   UNL A   1     -29.640 -13.209   6.572  0.00  0.00    -0.001 A 
ATOM     32  C   UNL A   1     -29.135 -12.077   5.759  0.00  0.00    -0.000 A 
ATOM     33  C   UNL A   1     -27.782 -11.841   5.818  0.00  0.00    -0.000 A 
ATOM     34  C   UNL A   1     -26.964 -12.488   6.699  0.00  0.00    -0.000 A 
ATOM     35  C   UNL A   1     -27.513 -13.436   7.530  0.00  0.00    -0.001 A 
ENDBRANCH  21  30
ENDBRANCH  20  21
ENDBRANCH   3  20
TORSDOF 8
ENDMDL
ENDMDL
