REMARK  Name = No_706-gen_results/8p0m/2024-11-27-11-27-31/
REMARK  7 active torsions:
REMARK  status: ('A' for Active; 'I' for Inactive)
REMARK    1  A    between atoms: C_3  and  N_16
REMARK    2  A    between atoms: C_4  and  C_8
REMARK    3  A    between atoms: N_16  and  C_17
REMARK    4  A    between atoms: C_17  and  C_18
REMARK    5  A    between atoms: C_21  and  C_29
REMARK    6  A    between atoms: C_30  and  C_31
REMARK    7  A    between atoms: C_32  and  C_33
REMARK                            x       y       z     vdW  Elec       q    Type
REMARK                         _______ _______ _______ _____ _____    ______ ____
ROOT
ATOM      1  C   UNL A   1     -26.029   0.144  26.671  0.00  0.00    +0.193 C 
ATOM      2 CL   UNL A   1     -25.349  -0.380  25.198  0.00  0.00    -0.086 Cl
ENDROOT
BRANCH   1   3
ATOM      3  C   UNL A   1     -26.705   1.269  26.805  0.00  0.00    +0.013 A 
ATOM      4  C   UNL A   1     -27.044   1.803  28.014  0.00  0.00    -0.001 A 
ATOM      5  C   UNL A   1     -27.725   3.106  28.116  0.00  0.00    -0.000 A 
ATOM      6  C   UNL A   1     -27.987   3.707  29.356  0.00  0.00    -0.000 A 
ATOM      7  C   UNL A   1     -28.701   4.891  29.476  0.00  0.00    -0.000 A 
ATOM      8  C   UNL A   1     -29.087   5.495  28.262  0.00  0.00    -0.000 A 
ATOM      9  C   UNL A   1     -28.829   4.963  27.034  0.00  0.00    -0.000 A 
ATOM     10  C   UNL A   1     -28.129   3.779  26.959  0.00  0.00    -0.000 A 
ATOM     11  C   UNL A   1     -26.859   2.135  25.587  0.00  0.00    -0.001 A 
ATOM     12  C   UNL A   1     -27.679   3.296  25.698  0.00  0.00    -0.000 A 
BRANCH   6  13
ATOM     13  C   UNL A   1     -27.649   3.008  30.661  0.00  0.00    -0.000 C 
ATOM     14  C   UNL A   1     -28.645   2.918  31.618  0.00  0.00    -0.000 C 
BRANCH  14  15
ATOM     15  C   UNL A   1     -29.923   3.190  31.477  0.00  0.00    -0.000 C 
ATOM     16  C   UNL A   1     -30.806   2.991  32.593  0.00  0.00    -0.000 C 
BRANCH  16  17
ATOM     17  C   UNL A   1     -32.184   3.236  32.475  0.00  0.00    -0.005 C 
ATOM     18  C   UNL A   1     -32.641   3.713  31.231  0.00  0.00    -0.026 C 
ATOM     19  C   UNL A   1     -31.854   3.899  30.161  0.00  0.00    +0.031 C 
ENDBRANCH  16  17
ENDBRANCH  14  15
ENDBRANCH   6  13
ENDBRANCH   1   3
BRANCH   1  20
ATOM     20  N   UNL A   1     -25.780  -0.703  27.708  0.00  0.00    -0.218 NA
BRANCH  20  23
ATOM     21  C   UNL A   1     -28.016  -0.814  28.878  0.00  0.00    +0.028 A 
ATOM     22  C   UNL A   1     -28.469  -0.785  29.829  0.00  0.00    +0.059 A 
ATOM     23  C   UNL A   1     -26.504  -0.778  28.877  0.00  0.00    +0.068 A 
ATOM     24  C   UNL A   1     -25.810  -0.853  30.103  0.00  0.00    +0.018 A 
ATOM     25  C   UNL A   1     -27.991  -0.892  31.226  0.00  0.00    +0.011 A 
ATOM     26  C   UNL A   1     -26.604  -0.868  31.265  0.00  0.00    +0.002 A 
ATOM     27 CL   UNL A   1     -30.294  -0.838  29.835  0.00  0.00    -0.082 Cl
BRANCH  24  28
ATOM     28  C   UNL A   1     -24.370  -0.821  30.139  0.00  0.00    +0.036 A 
ATOM     29  C   UNL A   1     -23.791   0.537  30.125  0.00  0.00    +0.006 A 
ATOM     30  C   UNL A   1     -22.563   0.696  29.436  0.00  0.00    +0.038 A 
ATOM     31  C   UNL A   1     -21.831  -0.485  29.051  0.00  0.00    +0.171 A 
ATOM     32  N   UNL A   1     -22.442  -1.662  29.060  0.00  0.00    -0.209 NA
ATOM     33  C   UNL A   1     -23.687  -1.818  29.515  0.00  0.00    +0.171 A 
ATOM     34  N   UNL A   1     -24.135  -3.045  29.447  0.00  0.00    -0.107 NA
ATOM     35  N   UNL A   1     -20.625  -0.208  28.513  0.00  0.00    -0.107 NA
ENDBRANCH  24  28
ENDBRANCH  20  23
ENDBRANCH   1  20
TORSDOF 7
