REMARK  Name = outputs/IAG933/test6/raw/output_7062_IAG933_linker_design_.xyz
REMARK  14 active torsions:
REMARK  status: ('A' for Active; 'I' for Inactive)
REMARK    1  A    between atoms: C_1  and  C_2
REMARK    2  A    between atoms: C_1  and  C_8
REMARK    3  A    between atoms: C_1  and  N_42
REMARK    4  A    between atoms: C_13  and  C_37
REMARK    5  A    between atoms: C_14  and  C_15
REMARK    6  A    between atoms: C_21  and  O_22
REMARK    7  A    between atoms: O_22  and  C_23
REMARK    8  A    between atoms: C_23  and  C_24
REMARK    9  A    between atoms: C_34  and  C_37
REMARK   10  A    between atoms: C_36  and  C_40
REMARK   11  A    between atoms: C_36  and  C_43
REMARK   12  A    between atoms: C_36  and  C_45
REMARK   13  A    between atoms: C_37  and  C_40
REMARK   14  A    between atoms: C_40  and  N_42
REMARK                            x       y       z     vdW  Elec       q    Type
REMARK                         _______ _______ _______ _____ _____    ______ ____
ROOT
ATOM      1  C   UNL A   1     -25.887   0.581  28.546  0.00  0.00    +0.080 C 
ENDROOT
BRANCH   1   2
ATOM      2  C   UNL A   1     -27.397   0.553  28.931  0.00  0.00    +0.052 C 
BRANCH   2   8
ATOM      3  C   UNL A   1     -30.716   1.350  31.587  0.00  0.00    +0.142 C 
ATOM      4  C   UNL A   1     -28.523   2.091  30.478  0.00  0.00    +0.005 C 
ATOM      5  C   UNL A   1     -29.617   2.375  31.437  0.00  0.00    +0.032 C 
ATOM      6  C   UNL A   1     -28.987  -0.326  31.167  0.00  0.00    +0.142 C 
ATOM      7  O   UNL A   1     -30.317   0.146  30.972  0.00  0.00    -0.354 OA
ATOM      8  C   UNL A   1     -27.973   0.694  30.417  0.00  0.00    +0.034 C 
ENDBRANCH   2   8
BRANCH   2   9
ATOM      9  C   UNL A   1     -27.844  -0.820  28.463  0.00  0.00    +0.183 C 
ATOM     10  O   UNL A   1     -29.224  -1.004  28.546  0.00  0.00    -0.220 OA
ENDBRANCH   2   9
ENDBRANCH   1   2
BRANCH   1  11
ATOM     11  C   UNL A   1     -25.090   1.111  27.593  0.00  0.00    +0.047 C 
BRANCH  11  12
ATOM     12  C   UNL A   1     -25.688   1.614  26.461  0.00  0.00    +0.076 C 
ATOM     13  C   UNL A   1     -26.250   2.920  26.395  0.00  0.00    +0.055 C 
ATOM     14  C   UNL A   1     -27.438   3.091  25.645  0.00  0.00    +0.102 C 
ATOM     15  N   UNL A   1     -28.075   2.089  25.003  0.00  0.00    -0.212 NA
ATOM     16  C   UNL A   1     -27.543   0.849  25.079  0.00  0.00    +0.234 C 
ATOM     17  C   UNL A   1     -26.354   0.576  25.777  0.00  0.00    +0.240 C 
ATOM     18  F   UNL A   1     -25.860  -0.681  25.795  0.00  0.00    -0.227 F 
BRANCH  13  19
ATOM     19  C   UNL A   1     -25.642   4.093  27.123  0.00  0.00    +0.263 C 
ATOM     20  N   UNL A   1     -25.614   5.252  26.449  0.00  0.00    -0.200 NA
ATOM     21  C   UNL A   1     -25.026   6.479  26.963  0.00  0.00    +0.139 C 
ATOM     22  O   UNL A   1     -25.143   3.966  28.243  0.00  0.00    -0.269 OA
ENDBRANCH  13  19
BRANCH  16  23
ATOM     23  O   UNL A   1     -28.193  -0.208  24.477  0.00  0.00    -0.459 OA
BRANCH  23  24
ATOM     24  C   UNL A   1     -29.460   0.005  23.866  0.00  0.00    +0.242 C 
BRANCH  24  25
ATOM     25  C   UNL A   1     -30.065  -1.377  23.573  0.00  0.00    +0.229 C 
ATOM     26  O   UNL A   1     -30.729  -1.878  24.721  0.00  0.00    -0.216 OA
ENDBRANCH  24  25
ENDBRANCH  23  24
ENDBRANCH  16  23
ENDBRANCH  11  12
BRANCH  11  30
ATOM     27  C   UNL A   1     -20.981   1.276  27.859  0.00  0.00    +0.099 C 
ATOM     28  C   UNL A   1     -22.891   2.021  26.692  0.00  0.00    -0.001 C 
ATOM     29  N   UNL A   1     -21.749   0.607  28.734  0.00  0.00    -0.243 NA
ATOM     30  C   UNL A   1     -23.660   1.265  27.593  0.00  0.00    -0.002 C 
ATOM     31  C   UNL A   1     -23.128   0.636  28.608  0.00  0.00    +0.095 C 
ATOM     32  C   UNL A   1     -21.518   2.012  26.819  0.00  0.00    +0.020 C 
ENDBRANCH  11  30
ENDBRANCH   1  11
BRANCH   1  33
ATOM     33  N   UNL A   1     -25.133  -0.014  29.190  0.00  0.00    -0.215 NA
BRANCH  33  34
ATOM     34  C   UNL A   1     -24.855  -1.012  30.143  0.00  0.00    +0.111 C 
BRANCH  34  35
ATOM     35  C   UNL A   1     -24.973  -2.505  29.788  0.00  0.00    -0.005 C 
ATOM     36  C   UNL A   1     -23.906  -3.173  29.146  0.00  0.00    -0.003 C 
ATOM     37  C   UNL A   1     -23.989  -4.549  28.853  0.00  0.00    -0.000 C 
ATOM     38  C   UNL A   1     -25.137  -5.280  29.205  0.00  0.00    -0.000 C 
ATOM     39  C   UNL A   1     -26.232  -4.611  29.784  0.00  0.00    -0.000 C 
ATOM     40  C   UNL A   1     -26.155  -3.232  30.065  0.00  0.00    -0.003 C 
ENDBRANCH  34  35
BRANCH  34  41
ATOM     41  C   UNL A   1     -25.387  -0.679  31.571  0.00  0.00    +0.093 C 
ATOM     42  C   UNL A   1     -25.189   0.773  32.028  0.00  0.00    +0.021 C 
ATOM     43  C   UNL A   1     -25.336   0.684  33.544  0.00  0.00    +0.020 C 
ATOM     44  C   UNL A   1     -24.829  -0.715  33.905  0.00  0.00    +0.089 C 
ATOM     45  N   UNL A   1     -24.758  -1.481  32.646  0.00  0.00    -0.218 NA
ENDBRANCH  34  41
ENDBRANCH  33  34
ENDBRANCH   1  33
TORSDOF 14
