REMARK  Name = outputs/IAG933/test6/raw/output_7068_IAG933_linker_design_.xyz
REMARK  12 active torsions:
REMARK  status: ('A' for Active; 'I' for Inactive)
REMARK    1  A    between atoms: C_1  and  C_2
REMARK    2  A    between atoms: C_1  and  C_8
REMARK    3  A    between atoms: C_9  and  N_39
REMARK    4  A    between atoms: C_13  and  C_35
REMARK    5  A    between atoms: C_14  and  C_15
REMARK    6  A    between atoms: C_21  and  O_22
REMARK    7  A    between atoms: O_22  and  C_23
REMARK    8  A    between atoms: C_23  and  C_24
REMARK    9  A    between atoms: N_34  and  C_36
REMARK   10  A    between atoms: C_36  and  N_39
REMARK   11  A    between atoms: C_37  and  N_39
REMARK   12  A    between atoms: C_37  and  C_40
REMARK                            x       y       z     vdW  Elec       q    Type
REMARK                         _______ _______ _______ _____ _____    ______ ____
ROOT
ATOM      1  C   UNL A   1     -23.083   2.200  25.184  0.00  0.00    +0.032 C 
ATOM      2  C   UNL A   1     -22.125   1.051  28.689  0.00  0.00    -0.005 C 
ATOM      3  C   UNL A   1     -23.380   0.668  29.219  0.00  0.00    +0.118 C 
ATOM      4  C   UNL A   1     -23.224   1.728  26.624  0.00  0.00    -0.009 C 
ATOM      5  N   UNL A   1     -24.518   1.306  28.718  0.00  0.00    -0.290 N 
ATOM      6  C   UNL A   1     -24.453   1.517  27.271  0.00  0.00    +0.048 C 
ATOM      7  C   UNL A   1     -22.058   1.627  27.412  0.00  0.00    -0.006 C 
ENDROOT
BRANCH   6   8
ATOM      8  C   UNL A   1     -25.688   1.614  26.461  0.00  0.00    +0.051 C 
ATOM      9  C   UNL A   1     -26.250   2.920  26.395  0.00  0.00    +0.078 C 
ATOM     10  C   UNL A   1     -27.438   3.091  25.645  0.00  0.00    +0.107 C 
ATOM     11  N   UNL A   1     -28.075   2.089  25.003  0.00  0.00    -0.208 NA
ATOM     12  C   UNL A   1     -27.543   0.849  25.079  0.00  0.00    +0.253 C 
ATOM     13  C   UNL A   1     -26.354   0.576  25.777  0.00  0.00    +0.194 C 
ATOM     14  F   UNL A   1     -25.860  -0.681  25.795  0.00  0.00    -0.199 F 
BRANCH   9  15
ATOM     15  C   UNL A   1     -25.642   4.093  27.123  0.00  0.00    +0.267 C 
ATOM     16  N   UNL A   1     -25.614   5.252  26.449  0.00  0.00    -0.200 NA
ATOM     17  C   UNL A   1     -25.026   6.479  26.963  0.00  0.00    +0.139 C 
ATOM     18  O   UNL A   1     -25.143   3.966  28.243  0.00  0.00    -0.268 OA
ENDBRANCH   9  15
BRANCH  12  19
ATOM     19  O   UNL A   1     -28.193  -0.208  24.477  0.00  0.00    -0.456 OA
BRANCH  19  20
ATOM     20  C   UNL A   1     -29.460   0.005  23.866  0.00  0.00    +0.243 C 
BRANCH  20  21
ATOM     21  C   UNL A   1     -30.065  -1.377  23.573  0.00  0.00    +0.229 C 
ATOM     22  O   UNL A   1     -30.729  -1.878  24.721  0.00  0.00    -0.216 OA
ENDBRANCH  20  21
ENDBRANCH  19  20
ENDBRANCH  12  19
ENDBRANCH   6   8
BRANCH   5  23
ATOM     23  C   UNL A   1     -25.654   1.735  29.695  0.00  0.00    +0.170 C 
BRANCH  23  24
ATOM     24  N   UNL A   1     -25.592   1.868  31.172  0.00  0.00    -0.246 NA
BRANCH  24  26
ATOM     25  C   UNL A   1     -25.387  -0.679  31.571  0.00  0.00    +0.092 C 
ATOM     26  C   UNL A   1     -25.189   0.773  32.028  0.00  0.00    +0.077 C 
ATOM     27  C   UNL A   1     -25.336   0.684  33.544  0.00  0.00    +0.036 C 
ATOM     28  C   UNL A   1     -24.829  -0.715  33.905  0.00  0.00    +0.090 C 
ATOM     29  N   UNL A   1     -24.758  -1.481  32.646  0.00  0.00    -0.218 NA
BRANCH  25  30
ATOM     30  C   UNL A   1     -24.855  -1.012  30.143  0.00  0.00    +0.045 C 
BRANCH  30  31
ATOM     31  C   UNL A   1     -24.973  -2.505  29.788  0.00  0.00    -0.021 C 
ATOM     32  C   UNL A   1     -23.906  -3.173  29.146  0.00  0.00    -0.004 C 
ATOM     33  C   UNL A   1     -23.989  -4.549  28.853  0.00  0.00    -0.000 C 
ATOM     34  C   UNL A   1     -25.137  -5.280  29.205  0.00  0.00    -0.000 C 
ATOM     35  C   UNL A   1     -26.232  -4.611  29.784  0.00  0.00    -0.000 C 
ATOM     36  C   UNL A   1     -26.155  -3.232  30.065  0.00  0.00    -0.004 C 
ENDBRANCH  30  31
ENDBRANCH  25  30
ENDBRANCH  24  26
BRANCH  24  37
ATOM     37  C   UNL A   1     -26.357   2.944  31.873  0.00  0.00    +0.189 C 
BRANCH  37  40
ATOM     38  O   UNL A   1     -26.035   5.211  32.698  0.00  0.00    -0.244 OA
ATOM     39  O   UNL A   1     -24.347   4.147  31.818  0.00  0.00    -0.244 OA
ATOM     40  C   UNL A   1     -25.516   4.193  32.180  0.00  0.00    +0.381 C 
ENDBRANCH  37  40
ENDBRANCH  24  37
ENDBRANCH  23  24
ENDBRANCH   5  23
TORSDOF 12
