MODEL 706
MODEL 1
REMARK VINA RESULT:    -6.355      0.000      0.000
REMARK INTER + INTRA:         -13.749
REMARK INTER:                  -8.955
REMARK INTRA:                  -4.793
REMARK UNBOUND:                -4.793
REMARK  Name = No_706-gen_results/8p0m/2024-11-27-11-27-31/
REMARK  7 active torsions:
REMARK  status: ('A' for Active; 'I' for Inactive)
REMARK    1  A    between atoms: C_3  and  N_16
REMARK    2  A    between atoms: C_4  and  C_8
REMARK    3  A    between atoms: N_16  and  C_17
REMARK    4  A    between atoms: C_17  and  C_18
REMARK    5  A    between atoms: C_21  and  C_29
REMARK    6  A    between atoms: C_30  and  C_31
REMARK    7  A    between atoms: C_32  and  C_33
REMARK                            x       y       z     vdW  Elec       q    Type
REMARK                         _______ _______ _______ _____ _____    ______ ____
ROOT
ATOM      1  C   UNL A   1     -26.546   1.524  25.607  0.00  0.00    +0.193 C 
ATOM      2 CL   UNL A   1     -26.944   0.734  24.149  0.00  0.00    -0.086 Cl
ENDROOT
BRANCH   1   3
ATOM      3  C   UNL A   1     -25.448   1.278  26.296  0.00  0.00    +0.013 A 
ATOM      4  C   UNL A   1     -25.294   0.189  27.103  0.00  0.00    -0.001 A 
ATOM      5  C   UNL A   1     -24.018  -0.089  27.786  0.00  0.00    -0.000 A 
ATOM      6  C   UNL A   1     -23.822  -1.258  28.535  0.00  0.00    -0.000 A 
ATOM      7  C   UNL A   1     -22.659  -1.497  29.254  0.00  0.00    -0.000 A 
ATOM      8  C   UNL A   1     -21.651  -0.520  29.125  0.00  0.00    -0.000 A 
ATOM      9  C   UNL A   1     -21.787   0.617  28.385  0.00  0.00    -0.000 A 
ATOM     10  C   UNL A   1     -22.962   0.823  27.697  0.00  0.00    -0.000 A 
ATOM     11  C   UNL A   1     -24.223   2.079  25.957  0.00  0.00    -0.001 A 
ATOM     12  C   UNL A   1     -23.066   1.897  26.769  0.00  0.00    -0.000 A 
BRANCH   6  13
ATOM     13  C   UNL A   1     -24.942  -2.262  28.744  0.00  0.00    -0.000 C 
ATOM     14  C   UNL A   1     -25.610  -2.236  29.956  0.00  0.00    -0.000 C 
BRANCH  14  15
ATOM     15  C   UNL A   1     -25.536  -1.321  30.896  0.00  0.00    -0.000 C 
ATOM     16  C   UNL A   1     -26.353  -0.143  30.789  0.00  0.00    -0.000 C 
BRANCH  16  17
ATOM     17  C   UNL A   1     -26.279   0.875  31.753  0.00  0.00    -0.005 C 
ATOM     18  C   UNL A   1     -25.591   2.049  31.388  0.00  0.00    -0.026 C 
ATOM     19  C   UNL A   1     -25.052   2.259  30.178  0.00  0.00    +0.031 C 
ENDBRANCH  16  17
ENDBRANCH  14  15
ENDBRANCH   6  13
ENDBRANCH   1   3
BRANCH   1  20
ATOM     20  N   UNL A   1     -27.493   2.417  26.008  0.00  0.00    -0.218 NA
BRANCH  20  23
ATOM     21  C   UNL A   1     -28.668   1.542  28.066  0.00  0.00    +0.028 A 
ATOM     22  C   UNL A   1     -29.020   1.827  29.018  0.00  0.00    +0.059 A 
ATOM     23  C   UNL A   1     -27.918   2.611  27.304  0.00  0.00    +0.068 A 
ATOM     24  C   UNL A   1     -27.615   3.832  27.943  0.00  0.00    +0.018 A 
ATOM     25  C   UNL A   1     -28.819   2.992  29.909  0.00  0.00    +0.011 A 
ATOM     26  C   UNL A   1     -28.126   3.995  29.244  0.00  0.00    +0.002 A 
ATOM     27 CL   UNL A   1     -29.919   0.537  29.945  0.00  0.00    -0.082 Cl
BRANCH  24  28
ATOM     28  C   UNL A   1     -26.902   4.873  27.246  0.00  0.00    +0.036 A 
ATOM     29  C   UNL A   1     -25.490   5.018  27.652  0.00  0.00    +0.006 A 
ATOM     30  C   UNL A   1     -24.961   6.333  27.646  0.00  0.00    +0.038 A 
ATOM     31  C   UNL A   1     -25.713   7.376  26.994  0.00  0.00    +0.171 A 
ATOM     32  N   UNL A   1     -26.989   7.170  26.697  0.00  0.00    -0.209 NA
ATOM     33  C   UNL A   1     -27.586   5.991  26.882  0.00  0.00    +0.171 A 
ATOM     34  N   UNL A   1     -28.847   5.966  26.539  0.00  0.00    -0.107 NA
ATOM     35  N   UNL A   1     -25.055   8.553  26.948  0.00  0.00    -0.107 NA
ENDBRANCH  24  28
ENDBRANCH  20  23
ENDBRANCH   1  20
TORSDOF 7
ENDMDL
ENDMDL
