REMARK  Name = outputs/IAG933/test6/raw/output_7072_IAG933_linker_design_.xyz
REMARK  15 active torsions:
REMARK  status: ('A' for Active; 'I' for Inactive)
REMARK    1  A    between atoms: C_1  and  C_2
REMARK    2  A    between atoms: C_1  and  C_8
REMARK    3  A    between atoms: C_1  and  C_38
REMARK    4  A    between atoms: C_13  and  N_33
REMARK    5  A    between atoms: C_14  and  C_15
REMARK    6  A    between atoms: C_21  and  O_22
REMARK    7  A    between atoms: O_22  and  C_23
REMARK    8  A    between atoms: C_23  and  C_24
REMARK    9  A    between atoms: N_29  and  CA_34
REMARK   10  A    between atoms: C_30  and  C_37
REMARK   11  A    between atoms: C_31  and  C_38
REMARK   12  A    between atoms: C_32  and  CA_34
REMARK   13  A    between atoms: N_33  and  C_36
REMARK   14  A    between atoms: N_33  and  C_38
REMARK   15  A    between atoms: C_36  and  C_37
REMARK                            x       y       z     vdW  Elec       q    Type
REMARK                         _______ _______ _______ _____ _____    ______ ____
ROOT
ATOM      1  N   UNK     1     -24.764   1.269  27.620  0.00  0.00    -0.256 NA
ENDROOT
BRANCH   1   2
ATOM      2  C   UNK     1     -25.688   1.614  26.461  0.00  0.00    +0.129 C 
ATOM      3  C   UNK     1     -26.250   2.920  26.395  0.00  0.00    +0.070 C 
ATOM      4  C   UNK     1     -27.438   3.091  25.645  0.00  0.00    +0.103 C 
ATOM      5  N   UNK     1     -28.075   2.089  25.003  0.00  0.00    -0.212 NA
ATOM      6  C   UNK     1     -27.543   0.849  25.079  0.00  0.00    +0.235 C 
ATOM      7  C   UNK     1     -26.354   0.576  25.777  0.00  0.00    +0.255 C 
ATOM      8  F   UNK     1     -25.860  -0.681  25.795  0.00  0.00    -0.225 F 
BRANCH   3   9
ATOM      9  C   UNK     1     -25.642   4.093  27.123  0.00  0.00    +0.264 C 
ATOM     10  N   UNK     1     -25.614   5.252  26.449  0.00  0.00    -0.200 NA
ATOM     11  C   UNK     1     -25.026   6.479  26.963  0.00  0.00    +0.139 C 
ATOM     12  O   UNK     1     -25.143   3.966  28.243  0.00  0.00    -0.269 OA
ENDBRANCH   3   9
BRANCH   6  13
ATOM     13  O   UNK     1     -28.193  -0.208  24.477  0.00  0.00    -0.459 OA
BRANCH  13  14
ATOM     14  C   UNK     1     -29.460   0.005  23.866  0.00  0.00    +0.242 C 
BRANCH  14  15
ATOM     15  C   UNK     1     -30.065  -1.377  23.573  0.00  0.00    +0.229 C 
ATOM     16  O   UNK     1     -30.729  -1.878  24.721  0.00  0.00    -0.216 OA
ENDBRANCH  14  15
ENDBRANCH  13  14
ENDBRANCH   6  13
ENDBRANCH   1   2
BRANCH   1  17
ATOM     17  C   UNK     1     -23.262   1.376  27.344  0.00  0.00    +0.116 C 
ATOM     18  C   UNK     1     -22.797   2.028  25.933  0.00  0.00    +0.025 C 
BRANCH  17  20
ATOM     19  O   UNK     1     -22.348  -0.140  29.280  0.00  0.00    -0.295 OA
ATOM     20  C   UNK     1     -22.235   0.462  28.191  0.00  0.00    +0.165 C 
BRANCH  20  22
ATOM     21  C   UNK     1     -19.880   0.062  28.494  0.00  0.00    +0.008 C 
ATOM     22  C   UNK     1     -20.932   1.029  27.872  0.00  0.00    +0.066 C 
ENDBRANCH  20  22
ENDBRANCH  17  20
ENDBRANCH   1  17
BRANCH   1  23
ATOM     23  C   UNK     1     -25.235   0.088  29.019  0.00  0.00    +0.142 C 
BRANCH  23  25
ATOM     24  N   ALA A   1     -27.132   1.659  29.478  0.00  0.00    -0.203 NA
ATOM     25  C   UNK     1     -26.799   0.390  29.112  0.00  0.00    +0.256 C 
ATOM     26  O   UNK     1     -27.501  -0.497  28.690  0.00  0.00    -0.272 OA
BRANCH  24  27
ATOM     27  CA  ALA A   1     -27.998   1.920  30.626  0.00  0.00    +0.128 C 
ATOM     28  CB  ALA A   1     -28.860   0.701  30.946  0.00  0.00    +0.026 C 
BRANCH  27  29
ATOM     29  C   ALA A   1     -28.962   3.067  30.323  0.00  0.00    +0.204 C 
ATOM     30  O   ALA A   1     -28.365   4.304  30.640  0.00  0.00    -0.218 OA
ENDBRANCH  27  29
ENDBRANCH  24  27
ENDBRANCH  23  25
BRANCH  23  31
ATOM     31  C   UNK     1     -24.855  -1.012  30.143  0.00  0.00    +0.062 C 
BRANCH  31  32
ATOM     32  C   UNK     1     -24.973  -2.505  29.788  0.00  0.00    -0.019 C 
ATOM     33  C   UNK     1     -23.906  -3.173  29.146  0.00  0.00    -0.004 C 
ATOM     34  C   UNK     1     -23.989  -4.549  28.853  0.00  0.00    -0.000 C 
ATOM     35  C   UNK     1     -25.137  -5.280  29.205  0.00  0.00    -0.000 C 
ATOM     36  C   UNK     1     -26.232  -4.611  29.784  0.00  0.00    -0.000 C 
ATOM     37  C   UNK     1     -26.155  -3.232  30.065  0.00  0.00    -0.004 C 
ENDBRANCH  31  32
BRANCH  31  38
ATOM     38  C   UNK     1     -25.387  -0.679  31.571  0.00  0.00    +0.079 C 
ATOM     39  C   UNK     1     -25.189   0.773  32.028  0.00  0.00    +0.019 C 
ATOM     40  C   UNK     1     -25.336   0.684  33.544  0.00  0.00    +0.020 C 
ATOM     41  C   UNK     1     -24.829  -0.715  33.905  0.00  0.00    +0.089 C 
ATOM     42  N   UNK     1     -24.758  -1.481  32.646  0.00  0.00    -0.219 NA
ENDBRANCH  31  38
ENDBRANCH  23  31
ENDBRANCH   1  23
TORSDOF 15
