REMARK  Name = outputs/IAG933/test6/raw/output_7074_IAG933_linker_design_.xyz
REMARK  15 active torsions:
REMARK  status: ('A' for Active; 'I' for Inactive)
REMARK    1  A    between atoms: C_1  and  C_2
REMARK    2  A    between atoms: C_1  and  C_8
REMARK    3  A    between atoms: C_1  and  N_45
REMARK    4  A    between atoms: C_13  and  C_37
REMARK    5  A    between atoms: C_14  and  C_15
REMARK    6  A    between atoms: C_21  and  O_22
REMARK    7  A    between atoms: O_22  and  C_23
REMARK    8  A    between atoms: C_23  and  C_24
REMARK    9  A    between atoms: C_29  and  N_45
REMARK   10  A    between atoms: C_30  and  C_32
REMARK   11  A    between atoms: C_30  and  N_33
REMARK   12  A    between atoms: C_32  and  C_36
REMARK   13  A    between atoms: N_33  and  O_38
REMARK   14  A    between atoms: C_36  and  C_40
REMARK   15  A    between atoms: O_38  and  C_41
REMARK                            x       y       z     vdW  Elec       q    Type
REMARK                         _______ _______ _______ _____ _____    ______ ____
ROOT
ATOM      1  C   UNL A   1     -26.800  -0.020  29.079  0.00  0.00    +0.230 C 
ATOM      2  O   UNL A   1     -27.507  -0.717  28.319  0.00  0.00    -0.275 OA
ATOM      3  N   UNL A   1     -25.362  -0.110  29.083  0.00  0.00    -0.255 N 
ENDROOT
BRANCH   3   5
ATOM      4  C   UNL A   1     -22.137   2.190  27.386  0.00  0.00    +0.030 C 
ATOM      5  C   UNL A   1     -24.380   0.663  28.337  0.00  0.00    +0.056 C 
ATOM      6  C   UNL A   1     -23.131   0.656  28.987  0.00  0.00    +0.015 C 
ATOM      7  C   UNL A   1     -23.311   2.114  26.663  0.00  0.00    +0.141 C 
ATOM      8  F   UNL A   1     -23.326   2.774  25.450  0.00  0.00    -0.204 F 
ATOM      9  C   UNL A   1     -24.418   1.402  27.126  0.00  0.00    +0.044 C 
ATOM     10  C   UNL A   1     -22.055   1.408  28.530  0.00  0.00    +0.004 C 
BRANCH   9  11
ATOM     11  C   UNL A   1     -25.688   1.614  26.461  0.00  0.00    +0.042 C 
ATOM     12  C   UNL A   1     -26.250   2.920  26.395  0.00  0.00    +0.077 C 
ATOM     13  C   UNL A   1     -27.438   3.091  25.645  0.00  0.00    +0.107 C 
ATOM     14  N   UNL A   1     -28.075   2.089  25.003  0.00  0.00    -0.208 NA
ATOM     15  C   UNL A   1     -27.543   0.849  25.079  0.00  0.00    +0.253 C 
ATOM     16  C   UNL A   1     -26.354   0.576  25.777  0.00  0.00    +0.193 C 
ATOM     17  F   UNL A   1     -25.860  -0.681  25.795  0.00  0.00    -0.199 F 
BRANCH  12  18
ATOM     18  C   UNL A   1     -25.642   4.093  27.123  0.00  0.00    +0.266 C 
ATOM     19  N   UNL A   1     -25.614   5.252  26.449  0.00  0.00    -0.200 NA
ATOM     20  C   UNL A   1     -25.026   6.479  26.963  0.00  0.00    +0.139 C 
ATOM     21  O   UNL A   1     -25.143   3.966  28.243  0.00  0.00    -0.268 OA
ENDBRANCH  12  18
BRANCH  15  22
ATOM     22  O   UNL A   1     -28.193  -0.208  24.477  0.00  0.00    -0.456 OA
BRANCH  22  23
ATOM     23  C   UNL A   1     -29.460   0.005  23.866  0.00  0.00    +0.243 C 
BRANCH  23  24
ATOM     24  C   UNL A   1     -30.065  -1.377  23.573  0.00  0.00    +0.229 C 
ATOM     25  O   UNL A   1     -30.729  -1.878  24.721  0.00  0.00    -0.216 OA
ENDBRANCH  23  24
ENDBRANCH  22  23
ENDBRANCH  15  22
ENDBRANCH   9  11
ENDBRANCH   3   5
BRANCH   3  26
ATOM     26  C   UNL A   1     -24.855  -1.012  30.143  0.00  0.00    +0.118 C 
BRANCH  26  27
ATOM     27  C   UNL A   1     -24.973  -2.505  29.788  0.00  0.00    -0.003 C 
ATOM     28  C   UNL A   1     -23.906  -3.173  29.146  0.00  0.00    -0.003 C 
ATOM     29  C   UNL A   1     -23.989  -4.549  28.853  0.00  0.00    -0.000 C 
ATOM     30  C   UNL A   1     -25.137  -5.280  29.205  0.00  0.00    -0.000 C 
ATOM     31  C   UNL A   1     -26.232  -4.611  29.784  0.00  0.00    -0.000 C 
ATOM     32  C   UNL A   1     -26.155  -3.232  30.065  0.00  0.00    -0.003 C 
ENDBRANCH  26  27
BRANCH  26  33
ATOM     33  C   UNL A   1     -25.387  -0.679  31.571  0.00  0.00    +0.096 C 
ATOM     34  C   UNL A   1     -25.189   0.773  32.028  0.00  0.00    +0.021 C 
ATOM     35  C   UNL A   1     -25.336   0.684  33.544  0.00  0.00    +0.020 C 
ATOM     36  C   UNL A   1     -24.829  -0.715  33.905  0.00  0.00    +0.089 C 
ATOM     37  N   UNL A   1     -24.758  -1.481  32.646  0.00  0.00    -0.217 NA
ENDBRANCH  26  33
ENDBRANCH   3  26
BRANCH   1  38
ATOM     38  C   UNL A   1     -27.550   0.909  30.186  0.00  0.00    +0.087 C 
BRANCH  38  39
ATOM     39  C   UNL A   1     -28.615   2.071  30.523  0.00  0.00    +0.029 C 
BRANCH  39  40
ATOM     40  C   UNL A   1     -27.846   3.268  29.990  0.00  0.00    +0.102 C 
BRANCH  40  41
ATOM     41  N   UNL A   1     -27.690   4.054  31.203  0.00  0.00    -0.162 NA
ATOM     42  C   UNL A   1     -26.651   4.988  31.308  0.00  0.00    +0.121 C 
BRANCH  41  43
ATOM     43  O   UNL A   1     -28.844   4.301  31.911  0.00  0.00    -0.246 OA
BRANCH  43  44
ATOM     44  C   UNL A   1     -28.715   5.405  32.704  0.00  0.00    +0.347 C 
ATOM     45  O   UNL A   1     -27.958   5.398  33.825  0.00  0.00    -0.182 OA
ENDBRANCH  43  44
ENDBRANCH  41  43
ENDBRANCH  40  41
ENDBRANCH  39  40
ENDBRANCH  38  39
ENDBRANCH   1  38
TORSDOF 15
