REMARK  Name = outputs/IAG933/test6/raw/output_7076_IAG933_linker_design_.xyz
REMARK  17 active torsions:
REMARK  status: ('A' for Active; 'I' for Inactive)
REMARK    1  A    between atoms: C_1  and  C_2
REMARK    2  A    between atoms: C_1  and  C_8
REMARK    3  A    between atoms: C_1  and  O_30
REMARK    4  A    between atoms: C_13  and  C_42
REMARK    5  A    between atoms: C_14  and  C_15
REMARK    6  A    between atoms: C_15  and  O_18
REMARK    7  A    between atoms: O_18  and  C_37
REMARK    8  A    between atoms: C_21  and  O_22
REMARK    9  A    between atoms: O_22  and  C_23
REMARK   10  A    between atoms: C_23  and  C_24
REMARK   11  A    between atoms: C_28  and  C_34
REMARK   12  A    between atoms: C_28  and  C_37
REMARK   13  A    between atoms: C_28  and  C_40
REMARK   14  A    between atoms: O_30  and  C_43
REMARK   15  A    between atoms: C_37  and  N_45
REMARK   16  A    between atoms: C_39  and  C_40
REMARK   17  A    between atoms: C_42  and  C_44
REMARK                            x       y       z     vdW  Elec       q    Type
REMARK                         _______ _______ _______ _____ _____    ______ ____
ROOT
ATOM      1  C   UNL A   1     -25.575   3.177  29.272  0.00  0.00    +0.281 C 
ENDROOT
BRANCH   1   3
ATOM      2  C   UNL A   1     -25.478   0.880  29.009  0.00  0.00    +0.279 C 
ATOM      3  N   UNL A   1     -25.339   1.952  29.329  0.00  0.00    -0.194 NA
BRANCH   2   4
ATOM      4  O   UNL A   1     -25.389  -0.448  29.159  0.00  0.00    -0.455 OA
BRANCH   4   5
ATOM      5  C   UNL A   1     -24.855  -1.012  30.143  0.00  0.00    +0.206 C 
BRANCH   5   6
ATOM      6  C   UNL A   1     -24.973  -2.505  29.788  0.00  0.00    +0.019 C 
ATOM      7  C   UNL A   1     -23.906  -3.173  29.146  0.00  0.00    -0.001 C 
ATOM      8  C   UNL A   1     -23.989  -4.549  28.853  0.00  0.00    -0.000 C 
ATOM      9  C   UNL A   1     -25.137  -5.280  29.205  0.00  0.00    -0.000 C 
ATOM     10  C   UNL A   1     -26.232  -4.611  29.784  0.00  0.00    -0.000 C 
ATOM     11  C   UNL A   1     -26.155  -3.232  30.065  0.00  0.00    -0.001 C 
ENDBRANCH   5   6
BRANCH   5  12
ATOM     12  C   UNL A   1     -25.387  -0.679  31.571  0.00  0.00    +0.117 C 
ATOM     13  C   UNL A   1     -25.189   0.773  32.028  0.00  0.00    +0.023 C 
ATOM     14  C   UNL A   1     -25.336   0.684  33.544  0.00  0.00    +0.020 C 
ATOM     15  C   UNL A   1     -24.829  -0.715  33.905  0.00  0.00    +0.089 C 
ATOM     16  N   UNL A   1     -24.758  -1.481  32.646  0.00  0.00    -0.215 NA
ENDBRANCH   5  12
ENDBRANCH   4   5
ENDBRANCH   2   4
ENDBRANCH   1   3
BRANCH   1  17
ATOM     17  C   UNL A   1     -26.259   3.855  30.544  0.00  0.00    +0.139 C 
BRANCH  17  19
ATOM     18  O   UNL A   1     -25.182   6.061  30.188  0.00  0.00    -0.211 OA
ATOM     19  C   UNL A   1     -26.494   5.286  30.104  0.00  0.00    +0.262 C 
BRANCH  19  21
ATOM     20  O   UNL A   1     -27.434   7.424  30.800  0.00  0.00    -0.243 OA
ATOM     21  C   UNL A   1     -27.564   6.137  30.712  0.00  0.00    +0.395 C 
ATOM     22  O   UNL A   1     -28.787   5.546  30.850  0.00  0.00    -0.243 OA
ENDBRANCH  19  21
ENDBRANCH  17  19
BRANCH  17  24
ATOM     23  O   UNL A   1     -28.462   2.887  30.532  0.00  0.00    -0.220 OA
ATOM     24  C   UNL A   1     -27.666   3.556  31.466  0.00  0.00    +0.191 C 
ENDBRANCH  17  24
ENDBRANCH   1  17
BRANCH   1  25
ATOM     25  O   UNL A   1     -25.143   3.966  28.243  0.00  0.00    -0.441 OA
BRANCH  25  26
ATOM     26  C   UNL A   1     -25.642   4.093  27.123  0.00  0.00    +0.220 C 
ATOM     27  N   UNL A   1     -25.614   5.252  26.449  0.00  0.00    -0.236 NA
ATOM     28  C   UNL A   1     -25.026   6.479  26.963  0.00  0.00    +0.155 C 
BRANCH  26  30
ATOM     29  C   UNL A   1     -25.688   1.614  26.461  0.00  0.00    +0.085 C 
ATOM     30  C   UNL A   1     -26.250   2.920  26.395  0.00  0.00    +0.054 C 
ATOM     31  C   UNL A   1     -27.438   3.091  25.645  0.00  0.00    +0.102 C 
ATOM     32  N   UNL A   1     -28.075   2.089  25.003  0.00  0.00    -0.212 NA
ATOM     33  C   UNL A   1     -27.543   0.849  25.079  0.00  0.00    +0.234 C 
ATOM     34  C   UNL A   1     -26.354   0.576  25.777  0.00  0.00    +0.241 C 
ATOM     35  F   UNL A   1     -25.860  -0.681  25.795  0.00  0.00    -0.227 F 
BRANCH  29  37
ATOM     36 BR   UNL A   1     -23.310   2.300  25.376  0.00  0.00    -0.076 Br
ATOM     37  C   UNL A   1     -24.166   1.543  26.797  0.00  0.00    +0.093 C 
BRANCH  37  41
ATOM     38  O   UNL A   1     -22.485  -0.163  29.827  0.00  0.00    -0.232 OA
ATOM     39  C   UNL A   1     -22.805   0.407  28.852  0.00  0.00    +0.126 C 
ATOM     40  C   UNL A   1     -21.745   1.480  27.726  0.00  0.00    +0.039 C 
ATOM     41  C   UNL A   1     -23.123   0.959  27.806  0.00  0.00    +0.042 C 
ENDBRANCH  37  41
ENDBRANCH  29  37
BRANCH  33  42
ATOM     42  O   UNL A   1     -28.193  -0.208  24.477  0.00  0.00    -0.459 OA
BRANCH  42  43
ATOM     43  C   UNL A   1     -29.460   0.005  23.866  0.00  0.00    +0.242 C 
BRANCH  43  44
ATOM     44  C   UNL A   1     -30.065  -1.377  23.573  0.00  0.00    +0.229 C 
ATOM     45  O   UNL A   1     -30.729  -1.878  24.721  0.00  0.00    -0.216 OA
ENDBRANCH  43  44
ENDBRANCH  42  43
ENDBRANCH  33  42
ENDBRANCH  26  30
ENDBRANCH  25  26
ENDBRANCH   1  25
TORSDOF 17
