REMARK  Name = outputs/IAG933/test6/raw/output_7079_IAG933_linker_design_.xyz
REMARK  11 active torsions:
REMARK  status: ('A' for Active; 'I' for Inactive)
REMARK    1  A    between atoms: C_1  and  C_2
REMARK    2  A    between atoms: C_1  and  C_8
REMARK    3  A    between atoms: C_1  and  N_28
REMARK    4  A    between atoms: C_13  and  N_39
REMARK    5  A    between atoms: C_14  and  C_15
REMARK    6  A    between atoms: C_21  and  O_22
REMARK    7  A    between atoms: O_22  and  C_23
REMARK    8  A    between atoms: C_23  and  C_24
REMARK    9  A    between atoms: C_31  and  O_35
REMARK   10  A    between atoms: C_31  and  C_37
REMARK   11  A    between atoms: C_32  and  C_37
REMARK                            x       y       z     vdW  Elec       q    Type
REMARK                         _______ _______ _______ _____ _____    ______ ____
ROOT
ATOM      1  N   UNL A   1     -24.200  -0.068  29.106  0.00  0.00    -0.263 N 
ATOM      2  N   UNL A   1     -22.706   1.899  26.361  0.00  0.00    +0.007 NA
ATOM      3  C   UNL A   1     -21.791   0.464  28.606  0.00  0.00    +0.305 C 
ATOM      4  C   UNL A   1     -25.223   0.847  28.836  0.00  0.00    +0.252 C 
ATOM      5  C   UNL A   1     -23.530   1.186  27.230  0.00  0.00    +0.344 C 
ATOM      6  C   UNL A   1     -23.066   0.523  28.229  0.00  0.00    +0.171 C 
ATOM      7  C   UNL A   1     -21.357   1.945  26.697  0.00  0.00    +0.423 C 
ATOM      8  N   UNL A   1     -21.534  -0.300  29.715  0.00  0.00    -0.080 NA
ATOM      9  N   UNL A   1     -24.776   1.138  27.426  0.00  0.00    -0.172 N 
ATOM     10  O   UNL A   1     -20.898   1.254  27.788  0.00  0.00    -0.417 OA
ENDROOT
BRANCH   9  11
ATOM     11  C   UNL A   1     -25.688   1.614  26.461  0.00  0.00    +0.232 C 
ATOM     12  C   UNL A   1     -26.250   2.920  26.395  0.00  0.00    +0.097 C 
ATOM     13  C   UNL A   1     -27.438   3.091  25.645  0.00  0.00    +0.106 C 
ATOM     14  N   UNL A   1     -28.075   2.089  25.003  0.00  0.00    -0.212 NA
ATOM     15  C   UNL A   1     -27.543   0.849  25.079  0.00  0.00    +0.238 C 
ATOM     16  C   UNL A   1     -26.354   0.576  25.777  0.00  0.00    +0.282 C 
ATOM     17  F   UNL A   1     -25.860  -0.681  25.795  0.00  0.00    -0.223 F 
BRANCH  12  18
ATOM     18  C   UNL A   1     -25.642   4.093  27.123  0.00  0.00    +0.266 C 
ATOM     19  N   UNL A   1     -25.614   5.252  26.449  0.00  0.00    -0.200 NA
ATOM     20  C   UNL A   1     -25.026   6.479  26.963  0.00  0.00    +0.139 C 
ATOM     21  O   UNL A   1     -25.143   3.966  28.243  0.00  0.00    -0.269 OA
ENDBRANCH  12  18
BRANCH  15  22
ATOM     22  O   UNL A   1     -28.193  -0.208  24.477  0.00  0.00    -0.458 OA
BRANCH  22  23
ATOM     23  C   UNL A   1     -29.460   0.005  23.866  0.00  0.00    +0.242 C 
BRANCH  23  24
ATOM     24  C   UNL A   1     -30.065  -1.377  23.573  0.00  0.00    +0.229 C 
ATOM     25  O   UNL A   1     -30.729  -1.878  24.721  0.00  0.00    -0.216 OA
ENDBRANCH  23  24
ENDBRANCH  22  23
ENDBRANCH  15  22
ENDBRANCH   9  11
BRANCH   1  26
ATOM     26  C   UNL A   1     -24.855  -1.012  30.143  0.00  0.00    +0.115 C 
BRANCH  26  27
ATOM     27  C   UNL A   1     -24.973  -2.505  29.788  0.00  0.00    -0.003 C 
ATOM     28  C   UNL A   1     -23.906  -3.173  29.146  0.00  0.00    -0.003 C 
ATOM     29  C   UNL A   1     -23.989  -4.549  28.853  0.00  0.00    -0.000 C 
ATOM     30  C   UNL A   1     -25.137  -5.280  29.205  0.00  0.00    -0.000 C 
ATOM     31  C   UNL A   1     -26.232  -4.611  29.784  0.00  0.00    -0.000 C 
ATOM     32  C   UNL A   1     -26.155  -3.232  30.065  0.00  0.00    -0.003 C 
ENDBRANCH  26  27
BRANCH  26  33
ATOM     33  C   UNL A   1     -25.387  -0.679  31.571  0.00  0.00    +0.095 C 
ATOM     34  C   UNL A   1     -25.189   0.773  32.028  0.00  0.00    +0.021 C 
ATOM     35  C   UNL A   1     -25.336   0.684  33.544  0.00  0.00    +0.020 C 
ATOM     36  C   UNL A   1     -24.829  -0.715  33.905  0.00  0.00    +0.089 C 
ATOM     37  N   UNL A   1     -24.758  -1.481  32.646  0.00  0.00    -0.217 NA
ENDBRANCH  26  33
ENDBRANCH   1  26
BRANCH   4  38
ATOM     38  C   UNL A   1     -26.666   0.483  29.055  0.00  0.00    +0.181 C 
BRANCH  38  39
ATOM     39  C   UNL A   1     -27.805   0.041  29.187  0.00  0.00    +0.361 C 
ATOM     40  O   UNL A   1     -28.804   0.620  30.034  0.00  0.00    -0.246 OA
BRANCH  39  41
ATOM     41  O   UNL A   1     -28.593  -1.058  28.843  0.00  0.00    -0.265 OA
ATOM     42  O   UNL A   1     -29.697  -1.228  29.681  0.00  0.00    +0.031 OA
ENDBRANCH  39  41
ENDBRANCH  38  39
ENDBRANCH   4  38
TORSDOF 11
