MODEL 707
MODEL 1
REMARK VINA RESULT:    -6.645      0.000      0.000
REMARK INTER + INTRA:          -7.226
REMARK INTER:                  -7.033
REMARK INTRA:                  -0.193
REMARK UNBOUND:                -0.193
REMARK  Name = No_707-gen_results/8p0m/2024-11-27-11-27-31/
REMARK  1 active torsions:
REMARK  status: ('A' for Active; 'I' for Inactive)
REMARK    1  A    between atoms: C_2  and  C_8
REMARK                            x       y       z     vdW  Elec       q    Type
REMARK                         _______ _______ _______ _____ _____    ______ ____
ROOT
ATOM      1  C   UNL A   1     -24.832  -1.693  30.002  0.00  0.00    +0.025 A 
ATOM      2  C   UNL A   1     -23.951  -2.051  29.255  0.00  0.00    +0.037 A 
ATOM      3  C   UNL A   1     -23.834  -3.318  28.710  0.00  0.00    +0.006 A 
ATOM      4  C   UNL A   1     -24.852  -4.262  29.037  0.00  0.00    +0.039 A 
ATOM      5  C   UNL A   1     -25.895  -3.787  29.749  0.00  0.00    +0.166 A 
ATOM      6  C   UNL A   1     -25.950  -2.516  30.153  0.00  0.00    +0.116 A 
ATOM      7  O   UNL A   1     -26.895  -4.678  29.993  0.00  0.00    -0.418 OA
ATOM      8  C   UNL A   1     -28.037  -4.330  30.405  0.00  0.00    +0.365 A 
ATOM      9  N   UNL A   1     -27.144  -2.301  30.739  0.00  0.00    -0.234 NA
ATOM     10  C   UNL A   1     -28.133  -3.025  30.775  0.00  0.00    +0.181 A 
ATOM     11  O   UNL A   1     -28.989  -5.207  30.607  0.00  0.00    -0.243 OA
ENDROOT
BRANCH   2  12
ATOM     12  C   UNL A   1     -22.878  -0.974  29.002  0.00  0.00    +0.162 A 
ATOM     13  N   UNL A   1     -21.680  -1.107  28.957  0.00  0.00    -0.225 NA
ATOM     14  C   UNL A   1     -20.825  -0.172  28.579  0.00  0.00    +0.102 A 
ATOM     15  C   UNL A   1     -21.176   0.892  27.984  0.00  0.00    +0.041 A 
ATOM     16  N   UNL A   1     -23.249   0.206  28.178  0.00  0.00    -0.225 NA
ATOM     17  C   UNL A   1     -22.468   1.139  27.806  0.00  0.00    +0.102 A 
ENDBRANCH   2  12
TORSDOF 1
ENDMDL
ENDMDL
