REMARK  Name = outputs/IAG933/test6/raw/output_7088_IAG933_linker_design_.xyz
REMARK  9 active torsions:
REMARK  status: ('A' for Active; 'I' for Inactive)
REMARK    1  A    between atoms: C_1  and  C_2
REMARK    2  A    between atoms: C_1  and  C_8
REMARK    3  A    between atoms: C_1  and  N_30
REMARK    4  A    between atoms: C_13  and  N_38
REMARK    5  A    between atoms: C_14  and  C_15
REMARK    6  A    between atoms: C_21  and  O_22
REMARK    7  A    between atoms: O_22  and  C_23
REMARK    8  A    between atoms: C_23  and  C_24
REMARK    9  A    between atoms: C_31  and  C_33
REMARK                            x       y       z     vdW  Elec       q    Type
REMARK                         _______ _______ _______ _____ _____    ______ ____
ROOT
ATOM      1  C   UNL A   1     -21.304   1.458  27.764  0.00  0.00    -0.001 C 
ATOM      2  C   UNL A   1     -20.257   0.727  28.222  0.00  0.00    -0.000 C 
ATOM      3  N   UNL A   1     -24.283  -0.095  29.171  0.00  0.00    -0.177 N 
ATOM      4  C   UNL A   1     -22.654   1.132  27.938  0.00  0.00    +0.019 C 
ATOM      5  C   UNL A   1     -23.531   1.640  27.102  0.00  0.00    +0.195 C 
ATOM      6  C   UNL A   1     -20.739  -0.344  28.762  0.00  0.00    +0.001 C 
ATOM      7  O   UNL A   1     -26.621   0.674  28.904  0.00  0.00    -0.138 OA
ATOM      8  O   UNL A   1     -24.798   2.140  29.775  0.00  0.00    -0.138 OA
ATOM      9  N   UNL A   1     -24.721   1.486  27.458  0.00  0.00    -0.124 NA
ATOM     10  S   UNL A   1     -25.286   1.215  28.897  0.00  0.00    +0.117 S 
ATOM     11  C   UNL A   1     -22.969   0.126  28.829  0.00  0.00    +0.068 C 
ATOM     12  C   UNL A   1     -21.945  -0.663  29.238  0.00  0.00    +0.016 C 
ENDROOT
BRANCH   9  13
ATOM     13  C   UNL A   1     -25.688   1.614  26.461  0.00  0.00    +0.151 C 
ATOM     14  C   UNL A   1     -26.250   2.920  26.395  0.00  0.00    +0.071 C 
ATOM     15  C   UNL A   1     -27.438   3.091  25.645  0.00  0.00    +0.103 C 
ATOM     16  N   UNL A   1     -28.075   2.089  25.003  0.00  0.00    -0.212 NA
ATOM     17  C   UNL A   1     -27.543   0.849  25.079  0.00  0.00    +0.236 C 
ATOM     18  C   UNL A   1     -26.354   0.576  25.777  0.00  0.00    +0.256 C 
ATOM     19  F   UNL A   1     -25.860  -0.681  25.795  0.00  0.00    -0.225 F 
BRANCH  14  20
ATOM     20  C   UNL A   1     -25.642   4.093  27.123  0.00  0.00    +0.264 C 
ATOM     21  N   UNL A   1     -25.614   5.252  26.449  0.00  0.00    -0.200 NA
ATOM     22  C   UNL A   1     -25.026   6.479  26.963  0.00  0.00    +0.139 C 
ATOM     23  O   UNL A   1     -25.143   3.966  28.243  0.00  0.00    -0.269 OA
ENDBRANCH  14  20
BRANCH  17  24
ATOM     24  O   UNL A   1     -28.193  -0.208  24.477  0.00  0.00    -0.459 OA
BRANCH  24  25
ATOM     25  C   UNL A   1     -29.460   0.005  23.866  0.00  0.00    +0.242 C 
BRANCH  25  26
ATOM     26  C   UNL A   1     -30.065  -1.377  23.573  0.00  0.00    +0.229 C 
ATOM     27  O   UNL A   1     -30.729  -1.878  24.721  0.00  0.00    -0.216 OA
ENDBRANCH  25  26
ENDBRANCH  24  25
ENDBRANCH  17  24
ENDBRANCH   9  13
BRANCH   5  28
ATOM     28  C   UNL A   1     -23.050   2.173  25.804  0.00  0.00    +0.331 C 
ATOM     29  F   UNL A   1     -21.760   2.030  25.263  0.00  0.00    -0.162 F 
ATOM     30  O   UNL A   1     -23.637   2.881  25.107  0.00  0.00    -0.257 OA
ENDBRANCH   5  28
BRANCH   3  31
ATOM     31  C   UNL A   1     -24.855  -1.012  30.143  0.00  0.00    +0.135 C 
BRANCH  31  32
ATOM     32  C   UNL A   1     -24.973  -2.505  29.788  0.00  0.00    -0.001 C 
ATOM     33  C   UNL A   1     -23.906  -3.173  29.146  0.00  0.00    -0.003 C 
ATOM     34  C   UNL A   1     -23.989  -4.549  28.853  0.00  0.00    -0.000 C 
ATOM     35  C   UNL A   1     -25.137  -5.280  29.205  0.00  0.00    -0.000 C 
ATOM     36  C   UNL A   1     -26.232  -4.611  29.784  0.00  0.00    -0.000 C 
ATOM     37  C   UNL A   1     -26.155  -3.232  30.065  0.00  0.00    -0.003 C 
ENDBRANCH  31  32
BRANCH  31  38
ATOM     38  C   UNL A   1     -25.387  -0.679  31.571  0.00  0.00    +0.097 C 
ATOM     39  C   UNL A   1     -25.189   0.773  32.028  0.00  0.00    +0.021 C 
ATOM     40  C   UNL A   1     -25.336   0.684  33.544  0.00  0.00    +0.020 C 
ATOM     41  C   UNL A   1     -24.829  -0.715  33.905  0.00  0.00    +0.089 C 
ATOM     42  N   UNL A   1     -24.758  -1.481  32.646  0.00  0.00    -0.217 NA
ENDBRANCH  31  38
ENDBRANCH   3  31
TORSDOF 9
