MODEL 708
MODEL 1
REMARK VINA RESULT:    -4.490      0.000      0.000
REMARK INTER + INTRA:          -4.490
REMARK INTER:                  -4.490
REMARK INTRA:                   0.000
REMARK UNBOUND:                 0.000
REMARK  Name = No_708-gen_results/8p0m/2024-11-27-11-27-31/
REMARK  0 active torsions:
REMARK  status: ('A' for Active; 'I' for Inactive)
REMARK                            x       y       z     vdW  Elec       q    Type
REMARK                         _______ _______ _______ _____ _____    ______ ____
ROOT
ATOM      1  F   UNL A   1     -24.958  -6.330  28.664  0.00  0.00    -0.204 F 
ATOM      2  C   UNL A   1     -24.993  -5.120  28.919  0.00  0.00    +0.140 A 
ATOM      3  C   UNL A   1     -23.968  -4.329  28.558  0.00  0.00    +0.030 A 
ATOM      4  C   UNL A   1     -26.174  -4.561  29.624  0.00  0.00    +0.030 A 
ATOM      5  C   UNL A   1     -26.166  -3.185  30.017  0.00  0.00    +0.002 A 
ATOM      6  C   UNL A   1     -23.991  -2.905  28.955  0.00  0.00    +0.002 A 
ATOM      7  C   UNL A   1     -25.066  -2.357  29.663  0.00  0.00    +0.000 A 
ENDROOT
TORSDOF 0
ENDMDL
ENDMDL
