REMARK  Name = outputs/IAG933/test6/raw/output_7091_IAG933_linker_design_.xyz
REMARK  17 active torsions:
REMARK  status: ('A' for Active; 'I' for Inactive)
REMARK    1  A    between atoms: C_1  and  C_2
REMARK    2  A    between atoms: C_1  and  C_8
REMARK    3  A    between atoms: C_1  and  N_29
REMARK    4  A    between atoms: C_13  and  C_31
REMARK    5  A    between atoms: C_14  and  C_15
REMARK    6  A    between atoms: C_21  and  O_22
REMARK    7  A    between atoms: O_22  and  C_23
REMARK    8  A    between atoms: C_23  and  C_24
REMARK    9  A    between atoms: C_28  and  C_33
REMARK   10  A    between atoms: C_28  and  O_39
REMARK   11  A    between atoms: N_29  and  C_46
REMARK   12  A    between atoms: C_31  and  O_39
REMARK   13  A    between atoms: C_31  and  C_46
REMARK   14  A    between atoms: C_37  and  C_43
REMARK   15  A    between atoms: C_37  and  C_46
REMARK   16  A    between atoms: C_41  and  C_42
REMARK   17  A    between atoms: C_41  and  C_43
REMARK                            x       y       z     vdW  Elec       q    Type
REMARK                         _______ _______ _______ _____ _____    ______ ____
ROOT
ATOM      1  C   UNL A   1     -26.781   0.282  28.451  0.00  0.00    +0.158 C 
ENDROOT
BRANCH   1   3
ATOM      2  O   UNL A   1     -29.077  -0.079  27.718  0.00  0.00    -0.294 OA
ATOM      3  C   UNL A   1     -28.226   0.435  28.485  0.00  0.00    +0.169 C 
BRANCH   3   4
ATOM      4  C   UNL A   1     -29.000   1.146  29.604  0.00  0.00    +0.071 C 
BRANCH   4   5
ATOM      5  C   UNL A   1     -29.464   2.252  28.503  0.00  0.00    +0.036 C 
BRANCH   5  10
ATOM      6  C   UNL A   1     -31.381   4.694  27.689  0.00  0.00    -0.020 C 
ATOM      7  C   UNL A   1     -30.081   4.502  28.072  0.00  0.00    -0.007 C 
ATOM      8  C   UNL A   1     -30.299   3.483  30.248  0.00  0.00    +0.094 C 
ATOM      9  N   UNL A   1     -31.610   3.633  30.504  0.00  0.00    -0.247 NA
ATOM     10  C   UNL A   1     -29.852   3.471  28.976  0.00  0.00    -0.003 C 
ATOM     11  C   UNL A   1     -32.535   3.842  29.593  0.00  0.00    +0.077 C 
ATOM     12  C   UNL A   1     -32.483   4.185  28.289  0.00  0.00    +0.073 C 
ENDBRANCH   5  10
ENDBRANCH   4   5
ENDBRANCH   3   4
ENDBRANCH   1   3
BRANCH   1  13
ATOM     13  C   UNL A   1     -25.676   1.188  27.849  0.00  0.00    +0.145 C 
BRANCH  13  14
ATOM     14  C   UNL A   1     -25.688   1.614  26.461  0.00  0.00    +0.099 C 
ATOM     15  C   UNL A   1     -26.250   2.920  26.395  0.00  0.00    +0.057 C 
ATOM     16  C   UNL A   1     -27.438   3.091  25.645  0.00  0.00    +0.102 C 
ATOM     17  N   UNL A   1     -28.075   2.089  25.003  0.00  0.00    -0.212 NA
ATOM     18  C   UNL A   1     -27.543   0.849  25.079  0.00  0.00    +0.234 C 
ATOM     19  C   UNL A   1     -26.354   0.576  25.777  0.00  0.00    +0.242 C 
ATOM     20  F   UNL A   1     -25.860  -0.681  25.795  0.00  0.00    -0.227 F 
BRANCH  15  21
ATOM     21  C   UNL A   1     -25.642   4.093  27.123  0.00  0.00    +0.263 C 
ATOM     22  N   UNL A   1     -25.614   5.252  26.449  0.00  0.00    -0.200 NA
ATOM     23  C   UNL A   1     -25.026   6.479  26.963  0.00  0.00    +0.139 C 
ATOM     24  O   UNL A   1     -25.143   3.966  28.243  0.00  0.00    -0.269 OA
ENDBRANCH  15  21
BRANCH  18  25
ATOM     25  O   UNL A   1     -28.193  -0.208  24.477  0.00  0.00    -0.459 OA
BRANCH  25  26
ATOM     26  C   UNL A   1     -29.460   0.005  23.866  0.00  0.00    +0.242 C 
BRANCH  26  27
ATOM     27  C   UNL A   1     -30.065  -1.377  23.573  0.00  0.00    +0.229 C 
ATOM     28  O   UNL A   1     -30.729  -1.878  24.721  0.00  0.00    -0.216 OA
ENDBRANCH  26  27
ENDBRANCH  25  26
ENDBRANCH  18  25
ENDBRANCH  13  14
BRANCH  13  29
ATOM     29  O   UNL A   1     -24.533   0.581  28.139  0.00  0.00    -0.354 OA
BRANCH  29  30
ATOM     30  C   UNL A   1     -23.610   1.309  27.533  0.00  0.00    +0.142 C 
BRANCH  30  31
ATOM     31  C   UNL A   1     -22.111   0.683  27.995  0.00  0.00    +0.030 C 
ATOM     32  C   UNL A   1     -22.137   0.328  29.444  0.00  0.00    +0.003 C 
ATOM     33  C   UNL A   1     -21.289   1.677  27.273  0.00  0.00    +0.003 C 
ENDBRANCH  30  31
ENDBRANCH  29  30
ENDBRANCH  13  29
ENDBRANCH   1  13
BRANCH   1  34
ATOM     34  N   UNL A   1     -26.014  -0.543  29.410  0.00  0.00    -0.205 NA
BRANCH  34  35
ATOM     35  C   UNL A   1     -24.855  -1.012  30.143  0.00  0.00    +0.111 C 
BRANCH  35  36
ATOM     36  C   UNL A   1     -24.973  -2.505  29.788  0.00  0.00    -0.005 C 
ATOM     37  C   UNL A   1     -23.906  -3.173  29.146  0.00  0.00    -0.003 C 
ATOM     38  C   UNL A   1     -23.989  -4.549  28.853  0.00  0.00    -0.000 C 
ATOM     39  C   UNL A   1     -25.137  -5.280  29.205  0.00  0.00    -0.000 C 
ATOM     40  C   UNL A   1     -26.232  -4.611  29.784  0.00  0.00    -0.000 C 
ATOM     41  C   UNL A   1     -26.155  -3.232  30.065  0.00  0.00    -0.003 C 
ENDBRANCH  35  36
BRANCH  35  42
ATOM     42  C   UNL A   1     -25.387  -0.679  31.571  0.00  0.00    +0.093 C 
ATOM     43  C   UNL A   1     -25.189   0.773  32.028  0.00  0.00    +0.021 C 
ATOM     44  C   UNL A   1     -25.336   0.684  33.544  0.00  0.00    +0.020 C 
ATOM     45  C   UNL A   1     -24.829  -0.715  33.905  0.00  0.00    +0.089 C 
ATOM     46  N   UNL A   1     -24.758  -1.481  32.646  0.00  0.00    -0.218 NA
ENDBRANCH  35  42
ENDBRANCH  34  35
ENDBRANCH   1  34
TORSDOF 17
