REMARK  Name = outputs/IAG933/test6/raw/output_7093_IAG933_linker_design_.xyz
REMARK  12 active torsions:
REMARK  status: ('A' for Active; 'I' for Inactive)
REMARK    1  A    between atoms: C_1  and  C_2
REMARK    2  A    between atoms: C_1  and  C_8
REMARK    3  A    between atoms: C_1  and  C_36
REMARK    4  A    between atoms: C_13  and  C_38
REMARK    5  A    between atoms: C_14  and  C_15
REMARK    6  A    between atoms: C_21  and  O_22
REMARK    7  A    between atoms: O_22  and  C_23
REMARK    8  A    between atoms: C_23  and  C_24
REMARK    9  A    between atoms: O_28  and  C_34
REMARK   10  A    between atoms: C_29  and  C_34
REMARK   11  A    between atoms: C_29  and  C_36
REMARK   12  A    between atoms: C_36  and  N_39
REMARK                            x       y       z     vdW  Elec       q    Type
REMARK                         _______ _______ _______ _____ _____    ______ ____
ROOT
ATOM      1  C   UNL A   1     -22.869   0.363  28.595  0.00  0.00    +0.073 C 
ATOM      2  C   UNL A   1     -22.994   1.655  26.481  0.00  0.00    +0.022 C 
ATOM      3  C   UNL A   1     -22.105   1.364  27.687  0.00  0.00    +0.019 C 
ATOM      4  C   UNL A   1     -24.305   1.290  27.061  0.00  0.00    +0.083 C 
ATOM      5  N   UNL A   1     -24.258   0.392  28.029  0.00  0.00    -0.265 NA
ENDROOT
BRANCH   4   6
ATOM      6  C   UNL A   1     -25.688   1.614  26.461  0.00  0.00    +0.030 C 
ATOM      7  C   UNL A   1     -26.250   2.920  26.395  0.00  0.00    +0.074 C 
ATOM      8  C   UNL A   1     -27.438   3.091  25.645  0.00  0.00    +0.106 C 
ATOM      9  N   UNL A   1     -28.075   2.089  25.003  0.00  0.00    -0.208 NA
ATOM     10  C   UNL A   1     -27.543   0.849  25.079  0.00  0.00    +0.253 C 
ATOM     11  C   UNL A   1     -26.354   0.576  25.777  0.00  0.00    +0.190 C 
ATOM     12  F   UNL A   1     -25.860  -0.681  25.795  0.00  0.00    -0.200 F 
BRANCH   7  13
ATOM     13  C   UNL A   1     -25.642   4.093  27.123  0.00  0.00    +0.266 C 
ATOM     14  N   UNL A   1     -25.614   5.252  26.449  0.00  0.00    -0.200 NA
ATOM     15  C   UNL A   1     -25.026   6.479  26.963  0.00  0.00    +0.139 C 
ATOM     16  O   UNL A   1     -25.143   3.966  28.243  0.00  0.00    -0.268 OA
ENDBRANCH   7  13
BRANCH  10  17
ATOM     17  O   UNL A   1     -28.193  -0.208  24.477  0.00  0.00    -0.456 OA
BRANCH  17  18
ATOM     18  C   UNL A   1     -29.460   0.005  23.866  0.00  0.00    +0.243 C 
BRANCH  18  19
ATOM     19  C   UNL A   1     -30.065  -1.377  23.573  0.00  0.00    +0.229 C 
ATOM     20  O   UNL A   1     -30.729  -1.878  24.721  0.00  0.00    -0.216 OA
ENDBRANCH  18  19
ENDBRANCH  17  18
ENDBRANCH  10  17
ENDBRANCH   4   6
BRANCH   5  21
ATOM     21  C   UNL A   1     -25.407  -0.061  28.946  0.00  0.00    +0.131 C 
BRANCH  21  22
ATOM     22  C   UNL A   1     -27.020   0.052  29.249  0.00  0.00    +0.242 C 
ATOM     23  O   UNL A   1     -27.736  -0.878  28.972  0.00  0.00    -0.285 OA
BRANCH  22  24
ATOM     24  C   UNL A   1     -27.622   1.315  29.857  0.00  0.00    +0.281 C 
ATOM     25  N   UNL A   1     -28.791   1.229  30.457  0.00  0.00    -0.104 NA
BRANCH  24  26
ATOM     26  O   UNL A   1     -27.094   2.453  29.741  0.00  0.00    -0.453 OA
ATOM     27  C   UNL A   1     -27.963   3.546  30.202  0.00  0.00    +0.254 C 
ENDBRANCH  24  26
ENDBRANCH  22  24
ENDBRANCH  21  22
BRANCH  21  28
ATOM     28  C   UNL A   1     -24.855  -1.012  30.143  0.00  0.00    +0.061 C 
BRANCH  28  29
ATOM     29  C   UNL A   1     -24.973  -2.505  29.788  0.00  0.00    -0.019 C 
ATOM     30  C   UNL A   1     -23.906  -3.173  29.146  0.00  0.00    -0.004 C 
ATOM     31  C   UNL A   1     -23.989  -4.549  28.853  0.00  0.00    -0.000 C 
ATOM     32  C   UNL A   1     -25.137  -5.280  29.205  0.00  0.00    -0.000 C 
ATOM     33  C   UNL A   1     -26.232  -4.611  29.784  0.00  0.00    -0.000 C 
ATOM     34  C   UNL A   1     -26.155  -3.232  30.065  0.00  0.00    -0.004 C 
ENDBRANCH  28  29
BRANCH  28  35
ATOM     35  C   UNL A   1     -25.387  -0.679  31.571  0.00  0.00    +0.079 C 
ATOM     36  C   UNL A   1     -25.189   0.773  32.028  0.00  0.00    +0.019 C 
ATOM     37  C   UNL A   1     -25.336   0.684  33.544  0.00  0.00    +0.020 C 
ATOM     38  C   UNL A   1     -24.829  -0.715  33.905  0.00  0.00    +0.089 C 
ATOM     39  N   UNL A   1     -24.758  -1.481  32.646  0.00  0.00    -0.219 NA
ENDBRANCH  28  35
ENDBRANCH  21  28
ENDBRANCH   5  21
TORSDOF 12
