REMARK  Name = outputs/IAG933/test6/raw/output_7095_IAG933_linker_design_.xyz
REMARK  9 active torsions:
REMARK  status: ('A' for Active; 'I' for Inactive)
REMARK    1  A    between atoms: C_1  and  C_2
REMARK    2  A    between atoms: C_1  and  C_8
REMARK    3  A    between atoms: C_1  and  N_39
REMARK    4  A    between atoms: C_13  and  C_40
REMARK    5  A    between atoms: C_14  and  C_15
REMARK    6  A    between atoms: C_21  and  O_22
REMARK    7  A    between atoms: O_22  and  C_23
REMARK    8  A    between atoms: C_23  and  C_24
REMARK    9  A    between atoms: C_32  and  N_39
REMARK                            x       y       z     vdW  Elec       q    Type
REMARK                         _______ _______ _______ _____ _____    ______ ____
ROOT
ATOM      1  C   UNL A   1     -22.298   0.612  28.962  0.00  0.00    +0.217 C 
ATOM      2  O   UNL A   1     -21.818  -0.057  30.009  0.00  0.00    -0.287 OA
ATOM      3  F   UNL A   1     -23.277   2.089  25.058  0.00  0.00    -0.200 F 
ATOM      4  C   UNL A   1     -21.492   1.158  27.956  0.00  0.00    +0.073 C 
ATOM      5  C   UNL A   1     -23.677   0.755  28.809  0.00  0.00    +0.243 C 
ATOM      6  N   UNL A   1     -24.285   1.346  28.175  0.00  0.00    -0.242 NA
ATOM      7  F   UNL A   1     -20.996   2.088  25.877  0.00  0.00    -0.202 F 
ATOM      8  C   UNL A   1     -23.224   1.768  26.303  0.00  0.00    +0.185 C 
ATOM      9  C   UNL A   1     -21.943   1.691  26.774  0.00  0.00    +0.172 C 
ATOM     10  C   UNL A   1     -24.400   1.476  27.013  0.00  0.00    +0.110 C 
ENDROOT
BRANCH  10  11
ATOM     11  C   UNL A   1     -25.688   1.614  26.461  0.00  0.00    +0.058 C 
ATOM     12  C   UNL A   1     -26.250   2.920  26.395  0.00  0.00    +0.078 C 
ATOM     13  C   UNL A   1     -27.438   3.091  25.645  0.00  0.00    +0.107 C 
ATOM     14  N   UNL A   1     -28.075   2.089  25.003  0.00  0.00    -0.208 NA
ATOM     15  C   UNL A   1     -27.543   0.849  25.079  0.00  0.00    +0.253 C 
ATOM     16  C   UNL A   1     -26.354   0.576  25.777  0.00  0.00    +0.195 C 
ATOM     17  F   UNL A   1     -25.860  -0.681  25.795  0.00  0.00    -0.199 F 
BRANCH  12  18
ATOM     18  C   UNL A   1     -25.642   4.093  27.123  0.00  0.00    +0.267 C 
ATOM     19  N   UNL A   1     -25.614   5.252  26.449  0.00  0.00    -0.200 NA
ATOM     20  C   UNL A   1     -25.026   6.479  26.963  0.00  0.00    +0.139 C 
ATOM     21  O   UNL A   1     -25.143   3.966  28.243  0.00  0.00    -0.268 OA
ENDBRANCH  12  18
BRANCH  15  22
ATOM     22  O   UNL A   1     -28.193  -0.208  24.477  0.00  0.00    -0.456 OA
BRANCH  22  23
ATOM     23  C   UNL A   1     -29.460   0.005  23.866  0.00  0.00    +0.243 C 
BRANCH  23  24
ATOM     24  C   UNL A   1     -30.065  -1.377  23.573  0.00  0.00    +0.229 C 
ATOM     25  O   UNL A   1     -30.729  -1.878  24.721  0.00  0.00    -0.216 OA
ENDBRANCH  23  24
ENDBRANCH  22  23
ENDBRANCH  15  22
ENDBRANCH  10  11
BRANCH   5  28
ATOM     26  O   UNL A   1     -27.073  -0.764  28.245  0.00  0.00    -0.275 OA
ATOM     27  C   UNL A   1     -27.426   1.284  29.280  0.00  0.00    +0.095 C 
ATOM     28  N   UNL A   1     -25.101   0.003  29.154  0.00  0.00    -0.252 N 
ATOM     29  C   UNL A   1     -26.562   0.133  28.863  0.00  0.00    +0.228 C 
BRANCH  28  30
ATOM     30  C   UNL A   1     -24.855  -1.012  30.143  0.00  0.00    +0.116 C 
BRANCH  30  31
ATOM     31  C   UNL A   1     -24.973  -2.505  29.788  0.00  0.00    -0.003 C 
ATOM     32  C   UNL A   1     -23.906  -3.173  29.146  0.00  0.00    -0.003 C 
ATOM     33  C   UNL A   1     -23.989  -4.549  28.853  0.00  0.00    -0.000 C 
ATOM     34  C   UNL A   1     -25.137  -5.280  29.205  0.00  0.00    -0.000 C 
ATOM     35  C   UNL A   1     -26.232  -4.611  29.784  0.00  0.00    -0.000 C 
ATOM     36  C   UNL A   1     -26.155  -3.232  30.065  0.00  0.00    -0.003 C 
ENDBRANCH  30  31
BRANCH  30  37
ATOM     37  C   UNL A   1     -25.387  -0.679  31.571  0.00  0.00    +0.095 C 
ATOM     38  C   UNL A   1     -25.189   0.773  32.028  0.00  0.00    +0.021 C 
ATOM     39  C   UNL A   1     -25.336   0.684  33.544  0.00  0.00    +0.020 C 
ATOM     40  C   UNL A   1     -24.829  -0.715  33.905  0.00  0.00    +0.089 C 
ATOM     41  N   UNL A   1     -24.758  -1.481  32.646  0.00  0.00    -0.217 NA
ENDBRANCH  30  37
ENDBRANCH  28  30
ENDBRANCH   5  28
TORSDOF 9
