MODEL 709
MODEL 1
REMARK VINA RESULT:    -8.144      0.000      0.000
REMARK INTER + INTRA:         -13.581
REMARK INTER:                 -11.953
REMARK INTRA:                  -1.628
REMARK UNBOUND:                -1.628
REMARK  Name = No_709-gen_results/8p0m/2024-11-27-11-27-31/
REMARK  8 active torsions:
REMARK  status: ('A' for Active; 'I' for Inactive)
REMARK    1  A    between atoms: C_2  and  O_15
REMARK    2  A    between atoms: C_3  and  C_7
REMARK    3  A    between atoms: O_15  and  C_16
REMARK    4  A    between atoms: C_19  and  C_21
REMARK    5  A    between atoms: C_27  and  C_29
REMARK    6  A    between atoms: C_29  and  O_31
REMARK    7  A    between atoms: O_31  and  C_33
REMARK    8  A    between atoms: C_33  and  C_34
REMARK                            x       y       z     vdW  Elec       q    Type
REMARK                         _______ _______ _______ _____ _____    ______ ____
ROOT
ATOM      1  C   UNL A   1     -10.462  -1.182  38.094  0.00  0.00    +0.145 A 
ATOM      2  C   UNL A   1     -11.316  -2.002  37.552  0.00  0.00    +0.037 A 
ATOM      3  C   UNL A   1     -10.471  -0.848  39.442  0.00  0.00    +0.042 A 
ATOM      4  C   UNL A   1     -11.262  -1.538  40.322  0.00  0.00    +0.057 A 
ATOM      5  C   UNL A   1     -12.180  -2.760  38.408  0.00  0.00    +0.003 A 
ATOM      6  C   UNL A   1     -12.144  -2.470  39.760  0.00  0.00    +0.005 A 
ENDROOT
BRANCH   4   7
ATOM      7  C   UNL A   1     -11.282  -1.321  41.739  0.00  0.00    +0.253 C 
ATOM      8  N   UNL A   1     -10.752  -1.942  42.556  0.00  0.00    -0.253 N 
ATOM      9  C   UNL A   1     -10.740  -2.030  43.832  0.00  0.00    +0.064 C 
ATOM     10  O   UNL A   1     -12.030  -0.364  42.192  0.00  0.00    -0.270 OA
ATOM     11  C   UNL A   1      -9.825  -2.973  44.434  0.00  0.00    +0.003 C 
ATOM     12  C   UNL A   1      -9.121  -3.607  43.555  0.00  0.00    +0.142 C 
ATOM     13  C   UNL A   1      -9.491  -3.104  42.252  0.00  0.00    +0.114 C 
BRANCH  12  14
ATOM     14  C   UNL A   1      -8.096  -4.586  43.681  0.00  0.00    +0.322 C 
ATOM     15  O   UNL A   1      -7.709  -4.936  44.791  0.00  0.00    -0.250 OA
BRANCH  14  16
ATOM     16  O   UNL A   1      -7.577  -5.036  42.636  0.00  0.00    -0.445 OA
BRANCH  16  17
ATOM     17  C   UNL A   1      -6.306  -5.259  42.446  0.00  0.00    +0.246 C 
BRANCH  17  18
ATOM     18  C   UNL A   1      -5.927  -6.417  41.792  0.00  0.00    +0.240 C 
ATOM     19  F   UNL A   1      -6.644  -6.881  41.029  0.00  0.00    -0.230 F 
ENDBRANCH  17  18
ENDBRANCH  16  17
ENDBRANCH  14  16
ENDBRANCH  12  14
ENDBRANCH   4   7
BRANCH   1  20
ATOM     20  O   UNL A   1      -9.684  -0.544  37.309  0.00  0.00    -0.453 OA
BRANCH  20  22
ATOM     21  C   UNL A   1     -11.140   0.960  36.434  0.00  0.00    +0.049 A 
ATOM     22  C   UNL A   1     -10.072   0.398  36.364  0.00  0.00    +0.148 A 
ATOM     23  C   UNL A   1      -9.099   0.705  35.413  0.00  0.00    +0.063 A 
ATOM     24  C   UNL A   1      -9.387   1.710  34.408  0.00  0.00    +0.144 A 
ATOM     25  C   UNL A   1     -10.656   2.317  34.548  0.00  0.00    +0.041 A 
ATOM     26  C   UNL A   1     -11.509   1.956  35.473  0.00  0.00    +0.063 A 
ATOM     27 CL   UNL A   1     -13.054   2.714  35.491  0.00  0.00    -0.082 Cl
ATOM     28  F   UNL A   1      -8.545   2.015  33.504  0.00  0.00    -0.204 F 
BRANCH  23  29
ATOM     29  C   UNL A   1      -7.764   0.066  35.275  0.00  0.00    +0.016 A 
ATOM     30  C   UNL A   1      -6.641   0.615  35.814  0.00  0.00    +0.058 A 
ATOM     31  C   UNL A   1      -5.395   0.014  35.624  0.00  0.00    +0.011 A 
ATOM     32  C   UNL A   1      -5.267  -1.210  34.892  0.00  0.00    +0.001 A 
ATOM     33  C   UNL A   1      -7.536  -1.118  34.550  0.00  0.00    +0.001 A 
ATOM     34  C   UNL A   1      -6.338  -1.708  34.375  0.00  0.00    +0.000 A 
ATOM     35 CL   UNL A   1      -6.738   2.035  36.779  0.00  0.00    -0.082 Cl
ENDBRANCH  23  29
ENDBRANCH  20  22
ENDBRANCH   1  20
TORSDOF 8
ENDMDL
ENDMDL
