MODEL 70
MODEL 1
REMARK VINA RESULT:    -8.277      0.000      0.000
REMARK INTER + INTRA:         -11.613
REMARK INTER:                 -10.697
REMARK INTRA:                  -0.916
REMARK UNBOUND:                -0.916
REMARK  Name = No_70-gen_results/8p0m/2024-11-27-11-27-31/
REMARK  5 active torsions:
REMARK  status: ('A' for Active; 'I' for Inactive)
REMARK    1  A    between atoms: C_3  and  C_4
REMARK    2  A    between atoms: C_6  and  O_16
REMARK    3  A    between atoms: C_10  and  C_13
REMARK    4  A    between atoms: O_16  and  C_17
REMARK    5  A    between atoms: C_17  and  C_18
REMARK                            x       y       z     vdW  Elec       q    Type
REMARK                         _______ _______ _______ _____ _____    ______ ____
ROOT
ATOM      1  C   UNL A   1     -24.125   1.063  26.513  0.00  0.00    +0.003 A 
ATOM      2  C   UNL A   1     -24.175   0.122  27.584  0.00  0.00    +0.037 A 
ATOM      3  C   UNL A   1     -23.067  -0.063  28.409  0.00  0.00    +0.139 A 
ATOM      4  C   UNL A   1     -21.979   0.818  28.233  0.00  0.00    +0.037 A 
ATOM      5  C   UNL A   1     -21.928   1.734  27.223  0.00  0.00    +0.003 A 
ATOM      6  C   UNL A   1     -23.062   1.908  26.343  0.00  0.00    +0.000 A 
ENDROOT
BRANCH   1   9
ATOM      7  C   UNL A   1     -27.238   2.342  25.074  0.00  0.00    +0.007 A 
ATOM      8  C   UNL A   1     -26.235   2.316  25.749  0.00  0.00    +0.000 A 
ATOM      9  C   UNL A   1     -25.380   1.219  25.723  0.00  0.00    +0.000 A 
ATOM     10  C   UNL A   1     -27.733   1.165  24.365  0.00  0.00    +0.080 A 
ATOM     11  C   UNL A   1     -26.906   0.074  24.196  0.00  0.00    +0.007 A 
ATOM     12  C   UNL A   1     -25.716   0.042  24.935  0.00  0.00    +0.000 A 
BRANCH  10  13
ATOM     13  C   UNL A   1     -28.991   1.175  23.597  0.00  0.00    +0.388 C 
ATOM     14  O   UNL A   1     -29.387   0.051  23.248  0.00  0.00    -0.241 OA
ATOM     15  O   UNL A   1     -29.539   2.199  23.192  0.00  0.00    -0.241 OA
ENDBRANCH  10  13
ENDBRANCH   1   9
BRANCH   3  16
ATOM     16  O   UNL A   1     -23.105  -0.935  29.391  0.00  0.00    -0.471 OA
BRANCH  16  17
ATOM     17  C   UNL A   1     -24.457  -1.307  29.822  0.00  0.00    +0.232 C 
BRANCH  17  18
ATOM     18  C   UNL A   1     -24.928  -2.589  29.663  0.00  0.00    +0.021 A 
ATOM     19  C   UNL A   1     -25.703  -3.164  29.945  0.00  0.00    -0.001 A 
ATOM     20  C   UNL A   1     -26.024  -4.600  29.580  0.00  0.00    -0.000 A 
ATOM     21  C   UNL A   1     -23.911  -3.583  28.899  0.00  0.00    -0.001 A 
ATOM     22  C   UNL A   1     -24.017  -4.778  28.591  0.00  0.00    -0.000 A 
ATOM     23  C   UNL A   1     -25.181  -5.380  28.921  0.00  0.00    -0.000 A 
ENDBRANCH  17  18
ENDBRANCH  16  17
ENDBRANCH   3  16
TORSDOF 5
ENDMDL
ENDMDL
