REMARK  Name = No_71-gen_results/8p0m/2024-11-27-11-27-31/
REMARK  9 active torsions:
REMARK  status: ('A' for Active; 'I' for Inactive)
REMARK    1  A    between atoms: C_2  and  C_20
REMARK    2  A    between atoms: C_6  and  O_7
REMARK    3  A    between atoms: O_7  and  C_9
REMARK    4  A    between atoms: C_9  and  C_10
REMARK    5  A    between atoms: C_10  and  C_11
REMARK    6  A    between atoms: C_10  and  O_13
REMARK    7  A    between atoms: O_13  and  C_26
REMARK    8  A    between atoms: C_18  and  C_34
REMARK    9  A    between atoms: C_27  and  C_28
REMARK                            x       y       z     vdW  Elec       q    Type
REMARK                         _______ _______ _______ _____ _____    ______ ____
ROOT
ATOM      1  C   UNL A   1     -29.950  -1.807  31.992  0.00  0.00    +0.284 C 
ENDROOT
BRANCH   1   2
ATOM      2  C   UNL A   1     -30.502  -0.873  31.303  0.00  0.00    +0.270 C 
ATOM      3  O   UNL A   1     -31.353  -1.110  30.566  0.00  0.00    -0.271 OA
ATOM      4  N   UNL A   1     -30.072   0.472  31.506  0.00  0.00    -0.277 N 
ATOM      5  C   UNL A   1     -30.599   1.590  30.743  0.00  0.00    +0.093 C 
ATOM      6  C   UNL A   1     -30.980   2.567  31.466  0.00  0.00    +0.022 C 
ATOM      7  C   UNL A   1     -30.272   2.950  32.657  0.00  0.00    +0.004 C 
ATOM      8  C   UNL A   1     -29.514   1.873  33.315  0.00  0.00    +0.020 C 
ATOM      9  C   UNL A   1     -29.419   0.730  32.697  0.00  0.00    +0.093 C 
BRANCH   8  10
ATOM     10  C   UNL A   1     -30.336   0.743  34.317  0.00  0.00    +0.002 C 
ATOM     11  C   UNL A   1     -31.659   1.001  34.236  0.00  0.00    +0.000 C 
ENDBRANCH   8  10
ENDBRANCH   1   2
BRANCH   1  12
ATOM     12  C   UNL A   1     -29.370  -2.823  31.447  0.00  0.00    +0.258 C 
BRANCH  12  13
ATOM     13  O   UNL A   1     -29.000  -2.701  30.115  0.00  0.00    -0.471 OA
BRANCH  13  19
ATOM     14  C   UNL A   1     -28.016  -0.814  28.878  0.00  0.00    +0.038 A 
ATOM     15  C   UNL A   1     -27.064  -0.119  28.608  0.00  0.00    +0.014 A 
ATOM     16  C   UNL A   1     -25.792  -0.430  29.076  0.00  0.00    +0.058 A 
ATOM     17  C   UNL A   1     -25.576  -1.565  29.936  0.00  0.00    +0.015 A 
ATOM     18  C   UNL A   1     -26.735  -2.300  30.217  0.00  0.00    +0.038 A 
ATOM     19  C   UNL A   1     -27.918  -1.954  29.763  0.00  0.00    +0.139 A 
ATOM     20 CL   UNL A   1     -24.350   0.489  28.750  0.00  0.00    -0.082 Cl
BRANCH  15  21
ATOM     21  C   UNL A   1     -27.133   1.148  27.734  0.00  0.00    +0.001 A 
ATOM     22  C   UNL A   1     -26.923   1.092  26.434  0.00  0.00    +0.000 A 
ATOM     23  C   UNL A   1     -26.998   2.108  25.635  0.00  0.00    +0.000 A 
ATOM     24  C   UNL A   1     -27.369   3.113  25.901  0.00  0.00    +0.000 A 
ATOM     25  C   UNL A   1     -27.727   3.455  27.309  0.00  0.00    +0.000 A 
ATOM     26  C   UNL A   1     -27.610   2.416  28.208  0.00  0.00    +0.000 A 
ENDBRANCH  15  21
ENDBRANCH  13  19
ENDBRANCH  12  13
ENDBRANCH   1  12
BRANCH   1  27
ATOM     27  O   UNL A   1     -29.907  -1.773  33.372  0.00  0.00    -0.463 OA
BRANCH  27  28
ATOM     28  C   UNL A   1     -30.876  -2.353  33.907  0.00  0.00    +0.173 C 
ATOM     29  C   UNL A   1     -31.024  -1.947  35.160  0.00  0.00    +0.040 C 
BRANCH  29  30
ATOM     30  C   UNL A   1     -30.097  -1.338  35.858  0.00  0.00    +0.003 A 
ATOM     31  C   UNL A   1     -29.539  -1.642  36.860  0.00  0.00    +0.000 A 
ATOM     32  C   UNL A   1     -28.381  -0.999  37.577  0.00  0.00    +0.000 A 
ATOM     33  C   UNL A   1     -27.908   0.217  36.979  0.00  0.00    +0.000 A 
ATOM     34  C   UNL A   1     -28.552   0.639  35.817  0.00  0.00    +0.000 A 
ATOM     35  C   UNL A   1     -29.562  -0.052  35.261  0.00  0.00    +0.000 A 
ENDBRANCH  29  30
ENDBRANCH  27  28
ENDBRANCH   1  27
TORSDOF 9
