REMARK  Name = outputs/IAG933/test6/raw/output_7101_IAG933_linker_design_.xyz
REMARK  12 active torsions:
REMARK  status: ('A' for Active; 'I' for Inactive)
REMARK    1  A    between atoms: C_1  and  C_2
REMARK    2  A    between atoms: C_1  and  C_8
REMARK    3  A    between atoms: C_1  and  N_33
REMARK    4  A    between atoms: C_14  and  C_15
REMARK    5  A    between atoms: C_15  and  O_18
REMARK    6  A    between atoms: O_18  and  C_29
REMARK    7  A    between atoms: C_21  and  O_22
REMARK    8  A    between atoms: O_22  and  C_23
REMARK    9  A    between atoms: C_23  and  C_24
REMARK   10  A    between atoms: C_29  and  C_34
REMARK   11  A    between atoms: N_36  and  C_37
REMARK   12  A    between atoms: C_39  and  O_40
REMARK                            x       y       z     vdW  Elec       q    Type
REMARK                         _______ _______ _______ _____ _____    ______ ____
ROOT
ATOM      1  C   UNL A   1     -24.688  -0.362  27.777  0.00  0.00    +0.233 C 
ATOM      2  N   UNL A   1     -25.528  -0.211  29.072  0.00  0.00    -0.190 N 
ATOM      3  C   UNL A   1     -24.138   1.649  28.963  0.00  0.00    +0.180 C 
ATOM      4  N   UNL A   1     -26.523   1.886  29.675  0.00  0.00    -0.044 NA
ATOM      5  C   UNL A   1     -23.512   0.707  27.954  0.00  0.00    +0.177 C 
ATOM      6  C   UNL A   1     -25.549   1.215  29.204  0.00  0.00    +0.306 C 
ENDROOT
BRANCH   4  10
ATOM      7  C   UNL A   1     -27.740   3.926  29.167  0.00  0.00    +0.047 C 
ATOM      8  C   UNL A   1     -27.664   5.838  30.643  0.00  0.00    +0.000 C 
ATOM      9  C   UNL A   1     -26.588   3.775  31.255  0.00  0.00    +0.047 C 
ATOM     10  C   UNL A   1     -26.931   3.167  30.036  0.00  0.00    +0.193 C 
ATOM     11  C   UNL A   1     -26.932   5.095  31.560  0.00  0.00    +0.004 C 
ATOM     12  C   UNL A   1     -28.047   5.263  29.434  0.00  0.00    +0.004 C 
ENDBRANCH   4  10
BRANCH   5  14
ATOM     13  C   UNL A   1     -21.452   1.878  27.793  0.00  0.00    +0.174 C 
ATOM     14  O   UNL A   1     -22.712   1.671  27.117  0.00  0.00    -0.349 OA
ENDBRANCH   5  14
BRANCH   2  15
ATOM     15  C   UNL A   1     -24.855  -1.012  30.143  0.00  0.00    +0.198 C 
BRANCH  15  16
ATOM     16  C   UNL A   1     -24.973  -2.505  29.788  0.00  0.00    +0.021 C 
ATOM     17  C   UNL A   1     -23.906  -3.173  29.146  0.00  0.00    -0.000 C 
ATOM     18  C   UNL A   1     -23.989  -4.549  28.853  0.00  0.00    -0.000 C 
ATOM     19  C   UNL A   1     -25.137  -5.280  29.205  0.00  0.00    -0.000 C 
ATOM     20  C   UNL A   1     -26.232  -4.611  29.784  0.00  0.00    -0.000 C 
ATOM     21  C   UNL A   1     -26.155  -3.232  30.065  0.00  0.00    -0.000 C 
ENDBRANCH  15  16
BRANCH  15  22
ATOM     22  C   UNL A   1     -25.387  -0.679  31.571  0.00  0.00    +0.120 C 
ATOM     23  C   UNL A   1     -25.189   0.773  32.028  0.00  0.00    +0.023 C 
ATOM     24  C   UNL A   1     -25.336   0.684  33.544  0.00  0.00    +0.020 C 
ATOM     25  C   UNL A   1     -24.829  -0.715  33.905  0.00  0.00    +0.089 C 
ATOM     26  N   UNL A   1     -24.758  -1.481  32.646  0.00  0.00    -0.215 NA
ENDBRANCH  15  22
ENDBRANCH   2  15
BRANCH   3  27
ATOM     27  C   UNL A   1     -24.321   3.156  28.901  0.00  0.00    +0.222 C 
BRANCH  27  28
ATOM     28  O   UNL A   1     -25.143   3.966  28.243  0.00  0.00    -0.460 OA
BRANCH  28  29
ATOM     29  C   UNL A   1     -25.642   4.093  27.123  0.00  0.00    +0.222 C 
ATOM     30  N   UNL A   1     -25.614   5.252  26.449  0.00  0.00    -0.236 NA
ATOM     31  C   UNL A   1     -25.026   6.479  26.963  0.00  0.00    +0.155 C 
BRANCH  29  33
ATOM     32  C   UNL A   1     -25.688   1.614  26.461  0.00  0.00    +0.041 C 
ATOM     33  C   UNL A   1     -26.250   2.920  26.395  0.00  0.00    +0.074 C 
ATOM     34  C   UNL A   1     -27.438   3.091  25.645  0.00  0.00    +0.107 C 
ATOM     35  N   UNL A   1     -28.075   2.089  25.003  0.00  0.00    -0.208 NA
ATOM     36  C   UNL A   1     -27.543   0.849  25.079  0.00  0.00    +0.253 C 
ATOM     37  C   UNL A   1     -26.354   0.576  25.777  0.00  0.00    +0.193 C 
ATOM     38  F   UNL A   1     -25.860  -0.681  25.795  0.00  0.00    -0.199 F 
BRANCH  36  39
ATOM     39  O   UNL A   1     -28.193  -0.208  24.477  0.00  0.00    -0.456 OA
BRANCH  39  40
ATOM     40  C   UNL A   1     -29.460   0.005  23.866  0.00  0.00    +0.243 C 
BRANCH  40  41
ATOM     41  C   UNL A   1     -30.065  -1.377  23.573  0.00  0.00    +0.229 C 
ATOM     42  O   UNL A   1     -30.729  -1.878  24.721  0.00  0.00    -0.216 OA
ENDBRANCH  40  41
ENDBRANCH  39  40
ENDBRANCH  36  39
ENDBRANCH  29  33
ENDBRANCH  28  29
ENDBRANCH  27  28
ENDBRANCH   3  27
TORSDOF 12
