REMARK  Name = outputs/IAG933/test6/raw/output_7105_IAG933_linker_design_.xyz
REMARK  13 active torsions:
REMARK  status: ('A' for Active; 'I' for Inactive)
REMARK    1  A    between atoms: C_1  and  C_2
REMARK    2  A    between atoms: C_1  and  C_8
REMARK    3  A    between atoms: C_1  and  N_35
REMARK    4  A    between atoms: C_13  and  N_41
REMARK    5  A    between atoms: C_14  and  C_15
REMARK    6  A    between atoms: C_15  and  O_18
REMARK    7  A    between atoms: O_18  and  C_29
REMARK    8  A    between atoms: C_21  and  O_22
REMARK    9  A    between atoms: O_22  and  C_23
REMARK   10  A    between atoms: C_23  and  C_24
REMARK   11  A    between atoms: C_28  and  C_29
REMARK   12  A    between atoms: N_35  and  C_40
REMARK   13  A    between atoms: N_41  and  C_43
REMARK                            x       y       z     vdW  Elec       q    Type
REMARK                         _______ _______ _______ _____ _____    ______ ____
ROOT
ATOM      1  C   UNL A   1     -25.688   1.614  26.461  0.00  0.00    +0.162 C 
ATOM      2  C   UNL A   1     -26.250   2.920  26.395  0.00  0.00    +0.072 C 
ATOM      3  C   UNL A   1     -27.438   3.091  25.645  0.00  0.00    +0.104 C 
ATOM      4  N   UNL A   1     -28.075   2.089  25.003  0.00  0.00    -0.212 NA
ATOM      5  C   UNL A   1     -27.543   0.849  25.079  0.00  0.00    +0.236 C 
ATOM      6  C   UNL A   1     -26.354   0.576  25.777  0.00  0.00    +0.260 C 
ATOM      7  F   UNL A   1     -25.860  -0.681  25.795  0.00  0.00    -0.225 F 
ENDROOT
BRANCH   2   8
ATOM      8  C   UNL A   1     -25.642   4.093  27.123  0.00  0.00    +0.220 C 
ATOM      9  N   UNL A   1     -25.614   5.252  26.449  0.00  0.00    -0.236 NA
ATOM     10  C   UNL A   1     -25.026   6.479  26.963  0.00  0.00    +0.155 C 
BRANCH   8  11
ATOM     11  O   UNL A   1     -25.143   3.966  28.243  0.00  0.00    -0.456 OA
BRANCH  11  12
ATOM     12  C   UNL A   1     -25.703   3.705  29.560  0.00  0.00    +0.234 C 
BRANCH  12  13
ATOM     13  C   UNL A   1     -25.969   5.042  30.224  0.00  0.00    +0.021 C 
ATOM     14  C   UNL A   1     -26.207   7.689  31.157  0.00  0.00    -0.000 C 
ATOM     15  C   UNL A   1     -26.922   7.296  30.006  0.00  0.00    -0.000 C 
ATOM     16  C   UNL A   1     -25.491   6.721  31.909  0.00  0.00    -0.000 C 
ATOM     17  C   UNL A   1     -26.797   5.970  29.539  0.00  0.00    -0.001 C 
ATOM     18  C   UNL A   1     -25.378   5.392  31.472  0.00  0.00    -0.001 C 
ENDBRANCH  12  13
ENDBRANCH  11  12
ENDBRANCH   8  11
ENDBRANCH   2   8
BRANCH   5  19
ATOM     19  O   UNL A   1     -28.193  -0.208  24.477  0.00  0.00    -0.459 OA
BRANCH  19  20
ATOM     20  C   UNL A   1     -29.460   0.005  23.866  0.00  0.00    +0.242 C 
BRANCH  20  21
ATOM     21  C   UNL A   1     -30.065  -1.377  23.573  0.00  0.00    +0.229 C 
ATOM     22  O   UNL A   1     -30.729  -1.878  24.721  0.00  0.00    -0.216 OA
ENDBRANCH  20  21
ENDBRANCH  19  20
ENDBRANCH   5  19
BRANCH   1  23
ATOM     23  N   UNL A   1     -24.864   1.113  27.447  0.00  0.00    -0.230 NA
BRANCH  23  30
ATOM     24  C   UNL A   1     -20.627   0.610  28.380  0.00  0.00    +0.181 C 
ATOM     25  O   UNL A   1     -20.522   1.635  27.526  0.00  0.00    -0.447 OA
ATOM     26  C   UNL A   1     -21.680  -0.027  28.920  0.00  0.00    +0.058 C 
ATOM     27  C   UNL A   1     -21.569   2.190  26.974  0.00  0.00    +0.181 C 
ATOM     28  C   UNL A   1     -22.857   2.059  27.148  0.00  0.00    +0.058 C 
ATOM     29  C   UNL A   1     -23.023   0.258  28.885  0.00  0.00    +0.084 C 
ATOM     30  C   UNL A   1     -23.559   1.140  27.867  0.00  0.00    +0.084 C 
BRANCH  29  31
ATOM     31  N   UNL A   1     -23.588  -0.420  29.923  0.00  0.00    -0.232 NA
BRANCH  31  32
ATOM     32  C   UNL A   1     -24.855  -1.012  30.143  0.00  0.00    +0.131 C 
BRANCH  32  33
ATOM     33  C   UNL A   1     -24.973  -2.505  29.788  0.00  0.00    -0.001 C 
ATOM     34  C   UNL A   1     -23.906  -3.173  29.146  0.00  0.00    -0.003 C 
ATOM     35  C   UNL A   1     -23.989  -4.549  28.853  0.00  0.00    -0.000 C 
ATOM     36  C   UNL A   1     -25.137  -5.280  29.205  0.00  0.00    -0.000 C 
ATOM     37  C   UNL A   1     -26.232  -4.611  29.784  0.00  0.00    -0.000 C 
ATOM     38  C   UNL A   1     -26.155  -3.232  30.065  0.00  0.00    -0.003 C 
ENDBRANCH  32  33
BRANCH  32  39
ATOM     39  C   UNL A   1     -25.387  -0.679  31.571  0.00  0.00    +0.097 C 
ATOM     40  C   UNL A   1     -25.189   0.773  32.028  0.00  0.00    +0.021 C 
ATOM     41  C   UNL A   1     -25.336   0.684  33.544  0.00  0.00    +0.020 C 
ATOM     42  C   UNL A   1     -24.829  -0.715  33.905  0.00  0.00    +0.089 C 
ATOM     43  N   UNL A   1     -24.758  -1.481  32.646  0.00  0.00    -0.217 NA
ENDBRANCH  32  39
ENDBRANCH  31  32
ENDBRANCH  29  31
ENDBRANCH  23  30
ENDBRANCH   1  23
TORSDOF 13
