REMARK  Name = outputs/IAG933/test6/raw/output_7106_IAG933_linker_design_.xyz
REMARK  12 active torsions:
REMARK  status: ('A' for Active; 'I' for Inactive)
REMARK    1  A    between atoms: C_1  and  C_2
REMARK    2  A    between atoms: C_1  and  C_8
REMARK    3  A    between atoms: C_1  and  C_42
REMARK    4  A    between atoms: C_13  and  C_29
REMARK    5  A    between atoms: C_14  and  C_15
REMARK    6  A    between atoms: C_21  and  O_22
REMARK    7  A    between atoms: O_22  and  C_23
REMARK    8  A    between atoms: C_23  and  C_24
REMARK    9  A    between atoms: C_29  and  N_38
REMARK   10  A    between atoms: C_29  and  C_39
REMARK   11  A    between atoms: C_33  and  C_39
REMARK   12  A    between atoms: C_37  and  C_39
REMARK                            x       y       z     vdW  Elec       q    Type
REMARK                         _______ _______ _______ _____ _____    ______ ____
ROOT
ATOM      1  C   UNL A   1     -24.618   1.319  27.340  0.00  0.00    +0.132 C 
ENDROOT
BRANCH   1   2
ATOM      2  C   UNL A   1     -25.688   1.614  26.461  0.00  0.00    +0.036 C 
ATOM      3  C   UNL A   1     -26.250   2.920  26.395  0.00  0.00    +0.074 C 
ATOM      4  C   UNL A   1     -27.438   3.091  25.645  0.00  0.00    +0.106 C 
ATOM      5  N   UNL A   1     -28.075   2.089  25.003  0.00  0.00    -0.208 NA
ATOM      6  C   UNL A   1     -27.543   0.849  25.079  0.00  0.00    +0.253 C 
ATOM      7  C   UNL A   1     -26.354   0.576  25.777  0.00  0.00    +0.191 C 
ATOM      8  F   UNL A   1     -25.860  -0.681  25.795  0.00  0.00    -0.200 F 
BRANCH   3   9
ATOM      9  C   UNL A   1     -25.642   4.093  27.123  0.00  0.00    +0.266 C 
ATOM     10  N   UNL A   1     -25.614   5.252  26.449  0.00  0.00    -0.200 NA
ATOM     11  C   UNL A   1     -25.026   6.479  26.963  0.00  0.00    +0.139 C 
ATOM     12  O   UNL A   1     -25.143   3.966  28.243  0.00  0.00    -0.268 OA
ENDBRANCH   3   9
BRANCH   6  13
ATOM     13  O   UNL A   1     -28.193  -0.208  24.477  0.00  0.00    -0.456 OA
BRANCH  13  14
ATOM     14  C   UNL A   1     -29.460   0.005  23.866  0.00  0.00    +0.243 C 
BRANCH  14  15
ATOM     15  C   UNL A   1     -30.065  -1.377  23.573  0.00  0.00    +0.229 C 
ATOM     16  O   UNL A   1     -30.729  -1.878  24.721  0.00  0.00    -0.216 OA
ENDBRANCH  14  15
ENDBRANCH  13  14
ENDBRANCH   6  13
ENDBRANCH   1   2
BRANCH   1  18
ATOM     17  O   UNL A   1     -26.562  -0.446  28.589  0.00  0.00    -0.273 OA
ATOM     18  N   UNL A   1     -24.809   0.939  28.605  0.00  0.00    -0.202 NA
ATOM     19  C   UNL A   1     -25.485  -0.152  29.070  0.00  0.00    +0.247 C 
BRANCH  19  20
ATOM     20  C   UNL A   1     -24.855  -1.012  30.143  0.00  0.00    +0.116 C 
BRANCH  20  21
ATOM     21  C   UNL A   1     -24.973  -2.505  29.788  0.00  0.00    -0.013 C 
ATOM     22  C   UNL A   1     -23.906  -3.173  29.146  0.00  0.00    -0.004 C 
ATOM     23  C   UNL A   1     -23.989  -4.549  28.853  0.00  0.00    -0.000 C 
ATOM     24  C   UNL A   1     -25.137  -5.280  29.205  0.00  0.00    -0.000 C 
ATOM     25  C   UNL A   1     -26.232  -4.611  29.784  0.00  0.00    -0.000 C 
ATOM     26  C   UNL A   1     -26.155  -3.232  30.065  0.00  0.00    -0.004 C 
ENDBRANCH  20  21
BRANCH  20  27
ATOM     27  C   UNL A   1     -25.387  -0.679  31.571  0.00  0.00    +0.086 C 
ATOM     28  C   UNL A   1     -25.189   0.773  32.028  0.00  0.00    +0.020 C 
ATOM     29  C   UNL A   1     -25.336   0.684  33.544  0.00  0.00    +0.020 C 
ATOM     30  C   UNL A   1     -24.829  -0.715  33.905  0.00  0.00    +0.089 C 
ATOM     31  N   UNL A   1     -24.758  -1.481  32.646  0.00  0.00    -0.219 NA
ENDBRANCH  20  27
ENDBRANCH  19  20
ENDBRANCH   1  18
BRANCH   1  32
ATOM     32  C   UNL A   1     -23.409   1.496  26.948  0.00  0.00    +0.146 C 
BRANCH  32  35
ATOM     33  F   UNL A   1     -19.935   2.159  28.067  0.00  0.00    -0.233 F 
ATOM     34  C   UNL A   1     -22.558  -0.087  29.768  0.00  0.00    +0.235 C 
ATOM     35  C   UNL A   1     -22.333   1.636  27.987  0.00  0.00    +0.123 C 
ATOM     36  N   UNL A   1     -22.636   0.477  28.849  0.00  0.00    -0.186 NA
ATOM     37  C   UNL A   1     -20.994   1.165  27.797  0.00  0.00    +0.207 C 
ATOM     38  C   UNL A   1     -20.452  -0.048  28.488  0.00  0.00    +0.180 C 
ATOM     39  O   UNL A   1     -21.257   0.009  29.678  0.00  0.00    -0.333 OA
ENDBRANCH  32  35
BRANCH  32  42
ATOM     40  O   UNL A   1     -22.018   2.281  25.228  0.00  0.00    -0.245 OA
ATOM     41  O   UNL A   1     -23.785   1.072  24.685  0.00  0.00    -0.245 OA
ATOM     42  C   UNL A   1     -23.063   1.645  25.582  0.00  0.00    +0.368 C 
ENDBRANCH  32  42
ENDBRANCH   1  32
TORSDOF 12
