MODEL 710
MODEL 1
REMARK VINA RESULT:    -6.184      0.000      0.000
REMARK INTER + INTRA:          -6.615
REMARK INTER:                  -6.546
REMARK INTRA:                  -0.069
REMARK UNBOUND:                -0.069
REMARK  Name = No_710-gen_results/8p0m/2024-11-27-11-27-31/
REMARK  1 active torsions:
REMARK  status: ('A' for Active; 'I' for Inactive)
REMARK    1  A    between atoms: C_9  and  N_13
REMARK                            x       y       z     vdW  Elec       q    Type
REMARK                         _______ _______ _______ _____ _____    ______ ____
ROOT
ATOM      1  C   UNL A   1     -30.592  -9.828  30.102  0.00  0.00    +0.042 A 
ATOM      2  C   UNL A   1     -30.018 -10.148  31.117  0.00  0.00    -0.000 A 
ATOM      3  C   UNL A   1     -29.024 -11.121  31.105  0.00  0.00    -0.016 A 
ATOM      4  C   UNL A   1     -28.679 -11.812  29.889  0.00  0.00    -0.001 A 
ATOM      5  C   UNL A   1     -29.409 -11.397  28.767  0.00  0.00    +0.042 A 
ATOM      6  C   UNL A   1     -30.350 -10.483  28.835  0.00  0.00    +0.196 A 
ATOM      7  O   UNL A   1     -31.039 -10.165  27.705  0.00  0.00    -0.287 OA
ATOM      8  C   UNL A   1     -28.232 -11.597  32.298  0.00  0.00    +0.074 C 
ATOM      9  C   UNL A   1     -28.188 -10.874  33.402  0.00  0.00    +0.087 C 
ATOM     10  C   UNL A   1     -28.513 -10.052  33.899  0.00  0.00    +0.017 C 
ATOM     11  C   UNL A   1     -29.378  -9.100  33.175  0.00  0.00    +0.001 C 
ATOM     12  C   UNL A   1     -29.992  -9.310  32.033  0.00  0.00    -0.000 C 
ENDROOT
BRANCH   9  13
ATOM     13  N   UNL A   1     -27.294 -11.600  34.493  0.00  0.00    -0.131 NA
ATOM     14  N   UNL A   1     -26.797 -12.642  33.781  0.00  0.00    -0.023 NA
ENDBRANCH   9  13
TORSDOF 1
ENDMDL
ENDMDL
