REMARK  Name = outputs/IAG933/test6/raw/output_7114_IAG933_linker_design_.xyz
REMARK  13 active torsions:
REMARK  status: ('A' for Active; 'I' for Inactive)
REMARK    1  A    between atoms: C_1  and  C_2
REMARK    2  A    between atoms: C_1  and  C_8
REMARK    3  A    between atoms: C_1  and  C_44
REMARK    4  A    between atoms: C_13  and  C_43
REMARK    5  A    between atoms: C_14  and  C_15
REMARK    6  A    between atoms: C_21  and  O_22
REMARK    7  A    between atoms: O_22  and  C_23
REMARK    8  A    between atoms: C_23  and  C_24
REMARK    9  A    between atoms: C_30  and  C_35
REMARK   10  A    between atoms: C_30  and  C_37
REMARK   11  A    between atoms: C_35  and  C_44
REMARK   12  A    between atoms: C_37  and  C_38
REMARK   13  A    between atoms: C_42  and  C_44
REMARK                            x       y       z     vdW  Elec       q    Type
REMARK                         _______ _______ _______ _____ _____    ______ ____
ROOT
ATOM      1  C   UNL A   1     -21.863   2.007  27.070  0.00  0.00    -0.024 C 
ATOM      2  C   UNL A   1     -21.209   1.261  28.073  0.00  0.00    +0.021 C 
ATOM      3  C   UNL A   1     -23.266   1.814  26.675  0.00  0.00    +0.030 C 
ATOM      4  C   UNL A   1     -23.187   0.168  28.726  0.00  0.00    -0.092 C 
ATOM      5  C   UNL A   1     -24.429   0.426  28.224  0.00  0.00    -0.004 C 
ATOM      6  C   UNL A   1     -24.481   1.226  27.164  0.00  0.00    +0.054 C 
ATOM      7  N   UNL A   1     -21.381  -0.558  29.608  0.00  0.00    -0.120 NA
ATOM      8  C   UNL A   1     -21.923   0.266  28.814  0.00  0.00    +0.122 C 
ATOM      9  C   UNL A   1     -23.430   2.187  25.250  0.00  0.00    +0.005 C 
ENDROOT
BRANCH   6  10
ATOM     10  C   UNL A   1     -25.688   1.614  26.461  0.00  0.00    +0.020 C 
ATOM     11  C   UNL A   1     -26.250   2.920  26.395  0.00  0.00    +0.073 C 
ATOM     12  C   UNL A   1     -27.438   3.091  25.645  0.00  0.00    +0.106 C 
ATOM     13  N   UNL A   1     -28.075   2.089  25.003  0.00  0.00    -0.208 NA
ATOM     14  C   UNL A   1     -27.543   0.849  25.079  0.00  0.00    +0.253 C 
ATOM     15  C   UNL A   1     -26.354   0.576  25.777  0.00  0.00    +0.189 C 
ATOM     16  F   UNL A   1     -25.860  -0.681  25.795  0.00  0.00    -0.200 F 
BRANCH  11  17
ATOM     17  C   UNL A   1     -25.642   4.093  27.123  0.00  0.00    +0.266 C 
ATOM     18  N   UNL A   1     -25.614   5.252  26.449  0.00  0.00    -0.200 NA
ATOM     19  C   UNL A   1     -25.026   6.479  26.963  0.00  0.00    +0.139 C 
ATOM     20  O   UNL A   1     -25.143   3.966  28.243  0.00  0.00    -0.268 OA
ENDBRANCH  11  17
BRANCH  14  21
ATOM     21  O   UNL A   1     -28.193  -0.208  24.477  0.00  0.00    -0.456 OA
BRANCH  21  22
ATOM     22  C   UNL A   1     -29.460   0.005  23.866  0.00  0.00    +0.243 C 
BRANCH  22  23
ATOM     23  C   UNL A   1     -30.065  -1.377  23.573  0.00  0.00    +0.229 C 
ATOM     24  O   UNL A   1     -30.729  -1.878  24.721  0.00  0.00    -0.216 OA
ENDBRANCH  22  23
ENDBRANCH  21  22
ENDBRANCH  14  21
ENDBRANCH   6  10
BRANCH   5  25
ATOM     25  C   UNL A   1     -25.497  -0.009  29.145  0.00  0.00    +0.031 C 
BRANCH  25  26
ATOM     26  C   UNL A   1     -24.855  -1.012  30.143  0.00  0.00    +0.043 C 
BRANCH  26  27
ATOM     27  C   UNL A   1     -24.973  -2.505  29.788  0.00  0.00    -0.021 C 
ATOM     28  C   UNL A   1     -23.906  -3.173  29.146  0.00  0.00    -0.004 C 
ATOM     29  C   UNL A   1     -23.989  -4.549  28.853  0.00  0.00    -0.000 C 
ATOM     30  C   UNL A   1     -25.137  -5.280  29.205  0.00  0.00    -0.000 C 
ATOM     31  C   UNL A   1     -26.232  -4.611  29.784  0.00  0.00    -0.000 C 
ATOM     32  C   UNL A   1     -26.155  -3.232  30.065  0.00  0.00    -0.004 C 
ENDBRANCH  26  27
BRANCH  26  33
ATOM     33  C   UNL A   1     -25.387  -0.679  31.571  0.00  0.00    +0.077 C 
ATOM     34  C   UNL A   1     -25.189   0.773  32.028  0.00  0.00    +0.019 C 
ATOM     35  C   UNL A   1     -25.336   0.684  33.544  0.00  0.00    +0.020 C 
ATOM     36  C   UNL A   1     -24.829  -0.715  33.905  0.00  0.00    +0.089 C 
ATOM     37  N   UNL A   1     -24.758  -1.481  32.646  0.00  0.00    -0.219 NA
ENDBRANCH  26  33
ENDBRANCH  25  26
BRANCH  25  38
ATOM     38  C   UNL A   1     -26.962   0.653  29.021  0.00  0.00    +0.005 C 
BRANCH  38  39
ATOM     39  C   UNL A   1     -27.654   1.757  29.791  0.00  0.00    +0.005 C 
BRANCH  39  40
ATOM     40  C   UNL A   1     -28.224   3.119  29.202  0.00  0.00    +0.029 C 
BRANCH  40  45
ATOM     41  C   UNL A   1     -26.050   6.229  31.108  0.00  0.00    +0.231 C 
ATOM     42  C   UNL A   1     -25.937   4.907  31.561  0.00  0.00    +0.020 C 
ATOM     43  O   UNL A   1     -26.926   6.678  30.126  0.00  0.00    -0.475 OA
ATOM     44  C   UNL A   1     -26.847   3.979  31.047  0.00  0.00    -0.003 C 
ATOM     45  C   UNL A   1     -27.622   4.298  29.914  0.00  0.00    +0.007 C 
ATOM     46  C   UNL A   1     -27.619   5.699  29.487  0.00  0.00    +0.113 C 
ATOM     47  C   UNL A   1     -28.402   6.145  28.283  0.00  0.00    +0.071 C 
ENDBRANCH  40  45
ENDBRANCH  39  40
ENDBRANCH  38  39
ENDBRANCH  25  38
ENDBRANCH   5  25
TORSDOF 13
