REMARK  Name = outputs/IAG933/test6/raw/output_7119_IAG933_linker_design_.xyz
REMARK  10 active torsions:
REMARK  status: ('A' for Active; 'I' for Inactive)
REMARK    1  A    between atoms: C_1  and  C_2
REMARK    2  A    between atoms: C_1  and  C_8
REMARK    3  A    between atoms: C_1  and  N_29
REMARK    4  A    between atoms: C_14  and  C_15
REMARK    5  A    between atoms: C_21  and  O_22
REMARK    6  A    between atoms: O_22  and  C_23
REMARK    7  A    between atoms: C_23  and  C_24
REMARK    8  A    between atoms: C_28  and  C_35
REMARK    9  A    between atoms: N_29  and  C_30
REMARK   10  A    between atoms: C_31  and  O_42
REMARK                            x       y       z     vdW  Elec       q    Type
REMARK                         _______ _______ _______ _____ _____    ______ ____
ROOT
ATOM      1  C   UNL A   1     -25.688   1.614  26.461  0.00  0.00    +0.059 C 
ATOM      2  C   UNL A   1     -26.250   2.920  26.395  0.00  0.00    +0.080 C 
ATOM      3  C   UNL A   1     -27.438   3.091  25.645  0.00  0.00    +0.107 C 
ATOM      4  N   UNL A   1     -28.075   2.089  25.003  0.00  0.00    -0.211 NA
ATOM      5  C   UNL A   1     -27.543   0.849  25.079  0.00  0.00    +0.239 C 
ATOM      6  C   UNL A   1     -26.354   0.576  25.777  0.00  0.00    +0.265 C 
ATOM      7  F   UNL A   1     -25.860  -0.681  25.795  0.00  0.00    -0.222 F 
ATOM      8  C   UNL A   1     -23.797   0.284  28.508  0.00  0.00    +0.088 C 
ATOM      9  C   UNL A   1     -22.576   1.357  26.646  0.00  0.00    +0.269 C 
ATOM     10  C   UNL A   1     -23.763   1.044  27.414  0.00  0.00    +0.083 C 
ATOM     11  C   UNL A   1     -20.067  -0.028  28.612  0.00  0.00    +0.040 C 
ATOM     12  C   UNL A   1     -22.529  -0.092  28.915  0.00  0.00    +0.159 C 
ATOM     13  O   UNL A   1     -21.411   1.210  27.215  0.00  0.00    -0.322 OA
ATOM     14  C   UNL A   1     -24.748   1.433  27.142  0.00  0.00    -0.101 C 
ATOM     15  F   UNL A   1     -22.312  -0.809  30.056  0.00  0.00    -0.205 F 
ATOM     16  C   UNL A   1     -21.370   0.357  28.261  0.00  0.00    +0.169 C 
ENDROOT
BRANCH   2  17
ATOM     17  C   UNL A   1     -25.642   4.093  27.123  0.00  0.00    +0.267 C 
ATOM     18  N   UNL A   1     -25.614   5.252  26.449  0.00  0.00    -0.200 NA
ATOM     19  C   UNL A   1     -25.026   6.479  26.963  0.00  0.00    +0.139 C 
ATOM     20  O   UNL A   1     -25.143   3.966  28.243  0.00  0.00    -0.268 OA
ENDBRANCH   2  17
BRANCH   8  22
ATOM     21  C   UNL A   1     -26.798   0.267  28.885  0.00  0.00    +0.229 C 
ATOM     22  N   UNL A   1     -25.084  -0.052  29.140  0.00  0.00    -0.253 N 
ATOM     23  O   UNL A   1     -27.424  -0.772  28.770  0.00  0.00    -0.275 OA
BRANCH  21  25
ATOM     24  C   UNL A   1     -27.728   2.633  29.832  0.00  0.00    +0.010 C 
ATOM     25  C   UNL A   1     -27.654   1.530  28.785  0.00  0.00    +0.077 C 
ATOM     26  C   UNL A   1     -29.055   1.298  28.284  0.00  0.00    +0.010 C 
ENDBRANCH  21  25
BRANCH  22  27
ATOM     27  C   UNL A   1     -24.855  -1.012  30.143  0.00  0.00    +0.118 C 
BRANCH  27  28
ATOM     28  C   UNL A   1     -24.973  -2.505  29.788  0.00  0.00    -0.003 C 
ATOM     29  C   UNL A   1     -23.906  -3.173  29.146  0.00  0.00    -0.003 C 
ATOM     30  C   UNL A   1     -23.989  -4.549  28.853  0.00  0.00    -0.000 C 
ATOM     31  C   UNL A   1     -25.137  -5.280  29.205  0.00  0.00    -0.000 C 
ATOM     32  C   UNL A   1     -26.232  -4.611  29.784  0.00  0.00    -0.000 C 
ATOM     33  C   UNL A   1     -26.155  -3.232  30.065  0.00  0.00    -0.003 C 
ENDBRANCH  27  28
BRANCH  27  34
ATOM     34  C   UNL A   1     -25.387  -0.679  31.571  0.00  0.00    +0.096 C 
ATOM     35  C   UNL A   1     -25.189   0.773  32.028  0.00  0.00    +0.021 C 
ATOM     36  C   UNL A   1     -25.336   0.684  33.544  0.00  0.00    +0.020 C 
ATOM     37  C   UNL A   1     -24.829  -0.715  33.905  0.00  0.00    +0.089 C 
ATOM     38  N   UNL A   1     -24.758  -1.481  32.646  0.00  0.00    -0.217 NA
ENDBRANCH  27  34
ENDBRANCH  22  27
ENDBRANCH   8  22
BRANCH   9  40
ATOM     39  C   UNL A   1     -22.862   3.140  24.964  0.00  0.00    +0.177 C 
ATOM     40  O   UNL A   1     -22.547   1.758  25.225  0.00  0.00    -0.324 OA
ENDBRANCH   9  40
BRANCH   5  41
ATOM     41  O   UNL A   1     -28.193  -0.208  24.477  0.00  0.00    -0.458 OA
BRANCH  41  42
ATOM     42  C   UNL A   1     -29.460   0.005  23.866  0.00  0.00    +0.242 C 
BRANCH  42  43
ATOM     43  C   UNL A   1     -30.065  -1.377  23.573  0.00  0.00    +0.229 C 
ATOM     44  O   UNL A   1     -30.729  -1.878  24.721  0.00  0.00    -0.216 OA
ENDBRANCH  42  43
ENDBRANCH  41  42
ENDBRANCH   5  41
TORSDOF 10
