MODEL 711
MODEL 1
REMARK VINA RESULT:    -6.605      0.000      0.000
REMARK INTER + INTRA:          -8.495
REMARK INTER:                  -7.763
REMARK INTRA:                  -0.731
REMARK UNBOUND:                -0.731
REMARK  Name = No_711-gen_results/8p0m/2024-11-27-11-27-31/
REMARK  3 active torsions:
REMARK  status: ('A' for Active; 'I' for Inactive)
REMARK    1  A    between atoms: C_3  and  C_4
REMARK    2  A    between atoms: C_7  and  C_16
REMARK    3  A    between atoms: C_16  and  N_17
REMARK                            x       y       z     vdW  Elec       q    Type
REMARK                         _______ _______ _______ _____ _____    ______ ____
ROOT
ATOM      1  C   UNL A   1     -23.990   1.060  28.992  0.00  0.00    +0.022 A 
ATOM      2  C   UNL A   1     -24.120  -0.100  29.307  0.00  0.00    +0.059 A 
ATOM      3  C   UNL A   1     -24.685  -1.043  28.512  0.00  0.00    +0.011 A 
ATOM      4  C   UNL A   1     -24.347   1.522  27.651  0.00  0.00    +0.056 A 
ATOM      5  C   UNL A   1     -24.934   0.652  26.833  0.00  0.00    +0.013 A 
ATOM      6  C   UNL A   1     -25.104  -0.725  27.187  0.00  0.00    -0.001 A 
ATOM      7 CL   UNL A   1     -24.055   3.142  27.294  0.00  0.00    -0.083 Cl
ATOM      8 CL   UNL A   1     -23.607  -0.622  30.932  0.00  0.00    -0.082 Cl
ENDROOT
BRANCH   3   9
ATOM      9  C   UNL A   1     -24.850  -2.467  28.882  0.00  0.00    +0.004 A 
ATOM     10  C   UNL A   1     -23.931  -3.468  28.624  0.00  0.00    +0.000 A 
ATOM     11  C   UNL A   1     -26.113  -2.891  29.444  0.00  0.00    +0.042 A 
ATOM     12  C   UNL A   1     -26.326  -4.255  29.777  0.00  0.00    +0.196 A 
ATOM     13  C   UNL A   1     -24.260  -4.870  28.749  0.00  0.00    +0.003 A 
ATOM     14  C   UNL A   1     -25.456  -5.217  29.379  0.00  0.00    +0.042 A 
ATOM     15  O   UNL A   1     -27.497  -4.671  30.318  0.00  0.00    -0.287 OA
ENDBRANCH   3   9
BRANCH   5  16
ATOM     16  C   UNL A   1     -25.375   1.046  25.438  0.00  0.00    +0.152 C 
BRANCH  16  17
ATOM     17  N   UNL A   1     -26.408   0.602  25.003  0.00  0.00    -0.269 NA
ATOM     18  C   UNL A   1     -27.258   0.750  24.419  0.00  0.00    +0.068 C 
ATOM     19  C   UNL A   1     -28.388  -0.202  24.051  0.00  0.00    +0.053 C 
ENDBRANCH  16  17
ENDBRANCH   5  16
TORSDOF 3
ENDMDL
ENDMDL
