REMARK  Name = No_712-gen_results/8p0m/2024-11-27-11-27-31/
REMARK  1 active torsions:
REMARK  status: ('A' for Active; 'I' for Inactive)
REMARK    1  A    between atoms: C_3  and  C_4
REMARK                            x       y       z     vdW  Elec       q    Type
REMARK                         _______ _______ _______ _____ _____    ______ ____
ROOT
ATOM      1  C   UNL A   1     -28.016  -0.814  28.878  0.00  0.00    -0.000 A 
ATOM      2  C   UNL A   1     -28.469  -0.785  29.829  0.00  0.00    -0.000 A 
ATOM      3  C   UNL A   1     -28.196   0.348  28.055  0.00  0.00    -0.000 A 
ATOM      4  C   UNL A   1     -29.472   0.121  30.352  0.00  0.00    -0.000 A 
ATOM      5  C   UNL A   1     -29.707   1.185  29.596  0.00  0.00    -0.000 A 
ATOM      6  C   UNL A   1     -29.036   1.367  28.402  0.00  0.00    -0.000 A 
ENDROOT
BRANCH   3   7
ATOM      7  C   UNL A   1     -27.442   0.510  26.795  0.00  0.00    -0.005 C 
ATOM      8  C   UNL A   1     -27.843   1.333  25.806  0.00  0.00    -0.026 C 
ATOM      9  C   UNL A   1     -27.153   1.426  24.624  0.00  0.00    +0.031 C 
ENDBRANCH   3   7
TORSDOF 1
