REMARK  Name = outputs/IAG933/test6/raw/output_7121_IAG933_linker_design_.xyz
REMARK  13 active torsions:
REMARK  status: ('A' for Active; 'I' for Inactive)
REMARK    1  A    between atoms: C_1  and  C_2
REMARK    2  A    between atoms: C_1  and  C_8
REMARK    3  A    between atoms: C_1  and  C_43
REMARK    4  A    between atoms: C_13  and  C_33
REMARK    5  A    between atoms: C_14  and  C_15
REMARK    6  A    between atoms: C_21  and  O_22
REMARK    7  A    between atoms: O_22  and  C_23
REMARK    8  A    between atoms: C_23  and  C_24
REMARK    9  A    between atoms: C_30  and  C_33
REMARK   10  A    between atoms: C_30  and  C_38
REMARK   11  A    between atoms: C_32  and  C_40
REMARK   12  A    between atoms: C_33  and  C_34
REMARK   13  A    between atoms: C_40  and  C_43
REMARK                            x       y       z     vdW  Elec       q    Type
REMARK                         _______ _______ _______ _____ _____    ______ ____
ROOT
ATOM      1  C   UNL A   1     -24.373   0.472  28.295  0.00  0.00    -0.006 C 
ATOM      2  C   UNL A   1     -25.276  -0.071  29.110  0.00  0.00    -0.044 C 
ENDROOT
BRANCH   1   6
ATOM      3  O   UNL A   1     -22.315  -0.220  29.607  0.00  0.00    -0.318 OA
ATOM      4  C   UNL A   1     -21.912   0.199  28.250  0.00  0.00    +0.310 C 
ATOM      5  F   UNL A   1     -20.666   0.678  28.205  0.00  0.00    -0.201 F 
ATOM      6  C   UNL A   1     -23.005   0.299  28.485  0.00  0.00    +0.198 C 
ENDBRANCH   1   6
BRANCH   2   7
ATOM      7  C   UNL A   1     -24.855  -1.012  30.143  0.00  0.00    +0.056 C 
BRANCH   7   8
ATOM      8  C   UNL A   1     -24.973  -2.505  29.788  0.00  0.00    -0.017 C 
ATOM      9  C   UNL A   1     -23.906  -3.173  29.146  0.00  0.00    -0.004 C 
ATOM     10  C   UNL A   1     -23.989  -4.549  28.853  0.00  0.00    -0.000 C 
ATOM     11  C   UNL A   1     -25.137  -5.280  29.205  0.00  0.00    -0.000 C 
ATOM     12  C   UNL A   1     -26.232  -4.611  29.784  0.00  0.00    -0.000 C 
ATOM     13  C   UNL A   1     -26.155  -3.232  30.065  0.00  0.00    -0.004 C 
ENDBRANCH   7   8
BRANCH   7  14
ATOM     14  C   UNL A   1     -25.387  -0.679  31.571  0.00  0.00    +0.081 C 
ATOM     15  C   UNL A   1     -25.189   0.773  32.028  0.00  0.00    +0.019 C 
ATOM     16  C   UNL A   1     -25.336   0.684  33.544  0.00  0.00    +0.020 C 
ATOM     17  C   UNL A   1     -24.829  -0.715  33.905  0.00  0.00    +0.089 C 
ATOM     18  N   UNL A   1     -24.758  -1.481  32.646  0.00  0.00    -0.219 NA
ENDBRANCH   7  14
ENDBRANCH   2   7
BRANCH   1  19
ATOM     19  C   UNL A   1     -24.465   1.314  27.110  0.00  0.00    +0.136 C 
BRANCH  19  20
ATOM     20  C   UNL A   1     -25.688   1.614  26.461  0.00  0.00    +0.029 C 
ATOM     21  C   UNL A   1     -26.250   2.920  26.395  0.00  0.00    +0.073 C 
ATOM     22  C   UNL A   1     -27.438   3.091  25.645  0.00  0.00    +0.106 C 
ATOM     23  N   UNL A   1     -28.075   2.089  25.003  0.00  0.00    -0.208 NA
ATOM     24  C   UNL A   1     -27.543   0.849  25.079  0.00  0.00    +0.253 C 
ATOM     25  C   UNL A   1     -26.354   0.576  25.777  0.00  0.00    +0.190 C 
ATOM     26  F   UNL A   1     -25.860  -0.681  25.795  0.00  0.00    -0.200 F 
BRANCH  21  27
ATOM     27  C   UNL A   1     -25.642   4.093  27.123  0.00  0.00    +0.266 C 
ATOM     28  N   UNL A   1     -25.614   5.252  26.449  0.00  0.00    -0.200 NA
ATOM     29  C   UNL A   1     -25.026   6.479  26.963  0.00  0.00    +0.139 C 
ATOM     30  O   UNL A   1     -25.143   3.966  28.243  0.00  0.00    -0.268 OA
ENDBRANCH  21  27
BRANCH  24  31
ATOM     31  O   UNL A   1     -28.193  -0.208  24.477  0.00  0.00    -0.456 OA
BRANCH  31  32
ATOM     32  C   UNL A   1     -29.460   0.005  23.866  0.00  0.00    +0.243 C 
BRANCH  32  33
ATOM     33  C   UNL A   1     -30.065  -1.377  23.573  0.00  0.00    +0.229 C 
ATOM     34  O   UNL A   1     -30.729  -1.878  24.721  0.00  0.00    -0.216 OA
ENDBRANCH  32  33
ENDBRANCH  31  32
ENDBRANCH  24  31
ENDBRANCH  19  20
BRANCH  19  35
ATOM     35  C   UNL A   1     -23.338   1.937  26.318  0.00  0.00    +0.318 C 
ATOM     36  F   UNL A   1     -22.104   1.889  26.591  0.00  0.00    -0.163 F 
ATOM     37  O   UNL A   1     -23.632   2.635  25.336  0.00  0.00    -0.258 OA
ENDBRANCH  19  35
ENDBRANCH   1  19
BRANCH   2  38
ATOM     38  C   UNL A   1     -26.756   0.266  29.033  0.00  0.00    +0.022 C 
BRANCH  38  40
ATOM     39  C   UNL A   1     -29.950  -0.257  30.745  0.00  0.00    +0.033 C 
ATOM     40  C   UNL A   1     -27.983  -0.731  29.234  0.00  0.00    +0.007 C 
ATOM     41  O   UNL A   1     -29.414   1.761  29.284  0.00  0.00    -0.223 OA
ATOM     42  C   UNL A   1     -30.106   0.441  29.364  0.00  0.00    +0.152 C 
ATOM     43  C   UNL A   1     -29.212  -0.377  28.428  0.00  0.00    +0.033 C 
ATOM     44  C   UNL A   1     -28.438  -0.679  30.723  0.00  0.00    +0.003 C 
ENDBRANCH  38  40
ENDBRANCH   2  38
TORSDOF 13
