REMARK  Name = outputs/IAG933/test6/raw/output_7124_IAG933_linker_design_.xyz
REMARK  12 active torsions:
REMARK  status: ('A' for Active; 'I' for Inactive)
REMARK    1  A    between atoms: C_1  and  C_2
REMARK    2  A    between atoms: C_1  and  C_8
REMARK    3  A    between atoms: C_1  and  C_46
REMARK    4  A    between atoms: C_13  and  C_47
REMARK    5  A    between atoms: C_14  and  C_15
REMARK    6  A    between atoms: C_21  and  O_22
REMARK    7  A    between atoms: O_22  and  C_23
REMARK    8  A    between atoms: C_23  and  C_24
REMARK    9  A    between atoms: C_24  and  O_25
REMARK   10  A    between atoms: O_25  and  C_49
REMARK   11  A    between atoms: C_28  and  C_41
REMARK   12  A    between atoms: N_42  and  C_46
REMARK                            x       y       z     vdW  Elec       q    Type
REMARK                         _______ _______ _______ _____ _____    ______ ____
ROOT
ATOM      1  C   UNL A   1     -25.688   1.614  26.461  0.00  0.00    +0.034 C 
ATOM      2  C   UNL A   1     -26.250   2.920  26.395  0.00  0.00    +0.074 C 
ATOM      3  C   UNL A   1     -27.438   3.091  25.645  0.00  0.00    +0.106 C 
ATOM      4  N   UNL A   1     -28.075   2.089  25.003  0.00  0.00    -0.208 NA
ATOM      5  C   UNL A   1     -27.543   0.849  25.079  0.00  0.00    +0.253 C 
ATOM      6  C   UNL A   1     -26.354   0.576  25.777  0.00  0.00    +0.191 C 
ATOM      7  F   UNL A   1     -25.860  -0.681  25.795  0.00  0.00    -0.200 F 
ENDROOT
BRANCH   1  13
ATOM      8  C   UNL A   1     -22.064   1.409  27.516  0.00  0.00    +0.087 C 
ATOM      9  C   UNL A   1     -23.205   2.005  26.672  0.00  0.00    +0.034 C 
ATOM     10  C   UNL A   1     -22.918   0.754  28.569  0.00  0.00    +0.226 C 
ATOM     11  O   UNL A   1     -22.448   0.092  29.659  0.00  0.00    -0.275 OA
ATOM     12  N   UNL A   1     -24.280   0.497  28.143  0.00  0.00    -0.277 N 
ATOM     13  C   UNL A   1     -24.330   1.120  27.001  0.00  0.00    +0.101 C 
BRANCH  12  14
ATOM     14  C   UNL A   1     -25.331  -0.185  28.953  0.00  0.00    +0.099 C 
BRANCH  14  15
ATOM     15  C   UNL A   1     -24.855  -1.012  30.143  0.00  0.00    +0.058 C 
BRANCH  15  16
ATOM     16  C   UNL A   1     -24.973  -2.505  29.788  0.00  0.00    -0.019 C 
ATOM     17  C   UNL A   1     -23.906  -3.173  29.146  0.00  0.00    -0.004 C 
ATOM     18  C   UNL A   1     -23.989  -4.549  28.853  0.00  0.00    -0.000 C 
ATOM     19  C   UNL A   1     -25.137  -5.280  29.205  0.00  0.00    -0.000 C 
ATOM     20  C   UNL A   1     -26.232  -4.611  29.784  0.00  0.00    -0.000 C 
ATOM     21  C   UNL A   1     -26.155  -3.232  30.065  0.00  0.00    -0.004 C 
ENDBRANCH  15  16
BRANCH  15  22
ATOM     22  C   UNL A   1     -25.387  -0.679  31.571  0.00  0.00    +0.079 C 
ATOM     23  C   UNL A   1     -25.189   0.773  32.028  0.00  0.00    +0.019 C 
ATOM     24  C   UNL A   1     -25.336   0.684  33.544  0.00  0.00    +0.020 C 
ATOM     25  C   UNL A   1     -24.829  -0.715  33.905  0.00  0.00    +0.089 C 
ATOM     26  N   UNL A   1     -24.758  -1.481  32.646  0.00  0.00    -0.219 NA
ENDBRANCH  15  22
ENDBRANCH  14  15
ENDBRANCH  12  14
ENDBRANCH   1  13
BRANCH   2  27
ATOM     27  C   UNL A   1     -25.642   4.093  27.123  0.00  0.00    +0.266 C 
ATOM     28  N   UNL A   1     -25.614   5.252  26.449  0.00  0.00    -0.200 NA
ATOM     29  C   UNL A   1     -25.026   6.479  26.963  0.00  0.00    +0.139 C 
ATOM     30  O   UNL A   1     -25.143   3.966  28.243  0.00  0.00    -0.268 OA
ENDBRANCH   2  27
BRANCH   5  31
ATOM     31  O   UNL A   1     -28.193  -0.208  24.477  0.00  0.00    -0.456 OA
BRANCH  31  32
ATOM     32  C   UNL A   1     -29.460   0.005  23.866  0.00  0.00    +0.239 C 
BRANCH  32  33
ATOM     33  C   UNL A   1     -30.065  -1.377  23.573  0.00  0.00    +0.190 C 
BRANCH  33  34
ATOM     34  O   UNL A   1     -30.729  -1.878  24.721  0.00  0.00    -0.346 OA
BRANCH  34  41
ATOM     35  O   UNL A   1     -32.294  -3.104  28.086  0.00  0.00    -0.277 OA
ATOM     36  O   UNL A   1     -30.196   0.095  28.316  0.00  0.00    -0.328 OA
ATOM     37  C   UNL A   1     -32.256  -3.034  26.606  0.00  0.00    +0.200 C 
ATOM     38  C   UNL A   1     -30.662  -1.652  29.878  0.00  0.00    +0.143 C 
ATOM     39  N   UNL A   1     -31.477  -2.005  28.601  0.00  0.00    -0.135 NA
ATOM     40  C   UNL A   1     -29.581  -0.653  29.377  0.00  0.00    +0.212 C 
ATOM     41  C   UNL A   1     -31.533  -1.630  26.200  0.00  0.00    +0.192 C 
ATOM     42  C   UNL A   1     -31.360  -0.830  27.658  0.00  0.00    +0.230 C 
BRANCH  40  43
ATOM     43  C   UNL A   1     -29.030   0.332  30.433  0.00  0.00    +0.268 C 
ATOM     44  O   UNL A   1     -28.310   1.262  30.045  0.00  0.00    -0.271 OA
ATOM     45  C   UNL A   1     -29.319   2.789  32.208  0.00  0.00    +0.111 C 
ATOM     46  N   UNL A   1     -29.339   0.246  31.767  0.00  0.00    -0.219 N 
ATOM     47  C   UNL A   1     -29.943  -0.410  33.846  0.00  0.00    +0.041 C 
ATOM     48  C   UNL A   1     -29.412  -0.900  32.615  0.00  0.00    +0.113 C 
ATOM     49  N   UNL A   1     -29.557   1.347  32.522  0.00  0.00    -0.202 NA
ATOM     50  C   UNL A   1     -30.145   0.976  33.711  0.00  0.00    +0.078 C 
ATOM     51  C   UNL A   1     -30.944   1.944  34.606  0.00  0.00    +0.019 C 
ENDBRANCH  40  43
ENDBRANCH  34  41
ENDBRANCH  33  34
ENDBRANCH  32  33
ENDBRANCH  31  32
ENDBRANCH   5  31
TORSDOF 12
