REMARK  Name = outputs/IAG933/test6/raw/output_7125_IAG933_linker_design_.xyz
REMARK  13 active torsions:
REMARK  status: ('A' for Active; 'I' for Inactive)
REMARK    1  A    between atoms: C_1  and  C_2
REMARK    2  A    between atoms: C_1  and  C_8
REMARK    3  A    between atoms: C_1  and  C_38
REMARK    4  A    between atoms: C_13  and  C_31
REMARK    5  A    between atoms: C_14  and  C_15
REMARK    6  A    between atoms: C_21  and  O_22
REMARK    7  A    between atoms: O_22  and  C_23
REMARK    8  A    between atoms: C_23  and  C_24
REMARK    9  A    between atoms: C_32  and  C_37
REMARK   10  A    between atoms: N_33  and  C_37
REMARK   11  A    between atoms: N_33  and  C_38
REMARK   12  A    between atoms: N_34  and  C_38
REMARK   13  A    between atoms: C_35  and  S_40
REMARK                            x       y       z     vdW  Elec       q    Type
REMARK                         _______ _______ _______ _____ _____    ______ ____
ROOT
ATOM      1  C   UNL A   1     -25.415  -0.153  28.960  0.00  0.00    +0.138 C 
ENDROOT
BRANCH   1   5
ATOM      2  C   UNL A   1     -21.900   0.625  28.442  0.00  0.00    +0.017 C 
ATOM      3  C   UNL A   1     -23.179   0.863  29.215  0.00  0.00    +0.074 C 
ATOM      4  C   UNL A   1     -24.465   1.279  27.242  0.00  0.00    +0.084 C 
ATOM      5  N   UNL A   1     -24.424   0.681  28.360  0.00  0.00    -0.257 NA
ATOM      6  C   UNL A   1     -23.244   1.316  26.338  0.00  0.00    +0.021 C 
ATOM      7  C   UNL A   1     -21.913   1.379  27.101  0.00  0.00    +0.003 C 
BRANCH   4   8
ATOM      8  C   UNL A   1     -25.688   1.614  26.461  0.00  0.00    +0.030 C 
ATOM      9  C   UNL A   1     -26.250   2.920  26.395  0.00  0.00    +0.074 C 
ATOM     10  C   UNL A   1     -27.438   3.091  25.645  0.00  0.00    +0.106 C 
ATOM     11  N   UNL A   1     -28.075   2.089  25.003  0.00  0.00    -0.208 NA
ATOM     12  C   UNL A   1     -27.543   0.849  25.079  0.00  0.00    +0.253 C 
ATOM     13  C   UNL A   1     -26.354   0.576  25.777  0.00  0.00    +0.190 C 
ATOM     14  F   UNL A   1     -25.860  -0.681  25.795  0.00  0.00    -0.200 F 
BRANCH   9  15
ATOM     15  C   UNL A   1     -25.642   4.093  27.123  0.00  0.00    +0.266 C 
ATOM     16  N   UNL A   1     -25.614   5.252  26.449  0.00  0.00    -0.200 NA
ATOM     17  C   UNL A   1     -25.026   6.479  26.963  0.00  0.00    +0.139 C 
ATOM     18  O   UNL A   1     -25.143   3.966  28.243  0.00  0.00    -0.268 OA
ENDBRANCH   9  15
BRANCH  12  19
ATOM     19  O   UNL A   1     -28.193  -0.208  24.477  0.00  0.00    -0.456 OA
BRANCH  19  20
ATOM     20  C   UNL A   1     -29.460   0.005  23.866  0.00  0.00    +0.243 C 
BRANCH  20  21
ATOM     21  C   UNL A   1     -30.065  -1.377  23.573  0.00  0.00    +0.229 C 
ATOM     22  O   UNL A   1     -30.729  -1.878  24.721  0.00  0.00    -0.216 OA
ENDBRANCH  20  21
ENDBRANCH  19  20
ENDBRANCH  12  19
ENDBRANCH   4   8
ENDBRANCH   1   5
BRANCH   1  23
ATOM     23  C   UNL A   1     -24.855  -1.012  30.143  0.00  0.00    +0.070 C 
BRANCH  23  24
ATOM     24  C   UNL A   1     -24.973  -2.505  29.788  0.00  0.00    -0.018 C 
ATOM     25  C   UNL A   1     -23.906  -3.173  29.146  0.00  0.00    -0.004 C 
ATOM     26  C   UNL A   1     -23.989  -4.549  28.853  0.00  0.00    -0.000 C 
ATOM     27  C   UNL A   1     -25.137  -5.280  29.205  0.00  0.00    -0.000 C 
ATOM     28  C   UNL A   1     -26.232  -4.611  29.784  0.00  0.00    -0.000 C 
ATOM     29  C   UNL A   1     -26.155  -3.232  30.065  0.00  0.00    -0.004 C 
ENDBRANCH  23  24
BRANCH  23  30
ATOM     30  C   UNL A   1     -25.387  -0.679  31.571  0.00  0.00    +0.080 C 
ATOM     31  C   UNL A   1     -25.189   0.773  32.028  0.00  0.00    +0.019 C 
ATOM     32  C   UNL A   1     -25.336   0.684  33.544  0.00  0.00    +0.020 C 
ATOM     33  C   UNL A   1     -24.829  -0.715  33.905  0.00  0.00    +0.089 C 
ATOM     34  N   UNL A   1     -24.758  -1.481  32.646  0.00  0.00    -0.219 NA
ENDBRANCH  23  30
ENDBRANCH   1  23
BRANCH   1  35
ATOM     35  N   UNL A   1     -26.542  -0.524  28.375  0.00  0.00    -0.203 NA
BRANCH  35  36
ATOM     36  C   UNL A   1     -27.989  -0.864  28.658  0.00  0.00    +0.093 C 
BRANCH  36  37
ATOM     37  C   UNL A   1     -29.083   0.158  28.826  0.00  0.00    +0.051 C 
ATOM     38  C   UNL A   1     -30.908   1.442  28.130  0.00  0.00    +0.264 C 
ATOM     39  C   UNL A   1     -30.152   0.141  28.037  0.00  0.00    +0.060 C 
ATOM     40  O   UNL A   1     -30.082   2.208  29.251  0.00  0.00    -0.334 OA
ATOM     41  C   UNL A   1     -28.761   1.607  29.225  0.00  0.00    +0.146 C 
BRANCH  38  43
ATOM     42  O   UNL A   1     -32.867   2.157  29.805  0.00  0.00    -0.152 OA
ATOM     43  S   UNL A   1     -32.607   1.492  28.552  0.00  0.00    +0.098 S 
ATOM     44  O   UNL A   1     -33.092   0.012  28.556  0.00  0.00    -0.152 OA
ATOM     45  N   UNL A   1     -33.373   2.332  27.498  0.00  0.00    +0.037 NA
ENDBRANCH  38  43
ENDBRANCH  36  37
ENDBRANCH  35  36
ENDBRANCH   1  35
TORSDOF 13
