MODEL 712
MODEL 1
REMARK VINA RESULT:    -5.170      0.000      0.000
REMARK INTER + INTRA:          -5.655
REMARK INTER:                  -5.472
REMARK INTRA:                  -0.182
REMARK UNBOUND:                -0.182
REMARK  Name = No_712-gen_results/8p0m/2024-11-27-11-27-31/
REMARK  1 active torsions:
REMARK  status: ('A' for Active; 'I' for Inactive)
REMARK    1  A    between atoms: C_3  and  C_4
REMARK                            x       y       z     vdW  Elec       q    Type
REMARK                         _______ _______ _______ _____ _____    ______ ____
ROOT
ATOM      1  C   UNL A   1     -24.178  -4.394  28.746  0.00  0.00    -0.000 A 
ATOM      2  C   UNL A   1     -24.904  -5.073  29.097  0.00  0.00    -0.000 A 
ATOM      3  C   UNL A   1     -24.370  -3.019  29.108  0.00  0.00    -0.000 A 
ATOM      4  C   UNL A   1     -26.214  -4.821  29.662  0.00  0.00    -0.000 A 
ATOM      5  C   UNL A   1     -26.453  -3.552  29.966  0.00  0.00    -0.000 A 
ATOM      6  C   UNL A   1     -25.503  -2.577  29.729  0.00  0.00    -0.000 A 
ENDROOT
BRANCH   3   7
ATOM      7  C   UNL A   1     -23.318  -2.013  28.854  0.00  0.00    -0.005 C 
ATOM      8  C   UNL A   1     -23.014  -1.037  29.733  0.00  0.00    -0.026 C 
ATOM      9  C   UNL A   1     -22.069  -0.084  29.450  0.00  0.00    +0.031 C 
ENDBRANCH   3   7
TORSDOF 1
ENDMDL
ENDMDL
