REMARK  Name = outputs/IAG933/test6/raw/output_7131_IAG933_linker_design_.xyz
REMARK  14 active torsions:
REMARK  status: ('A' for Active; 'I' for Inactive)
REMARK    1  A    between atoms: C_1  and  C_2
REMARK    2  A    between atoms: C_1  and  C_8
REMARK    3  A    between atoms: C_9  and  S_33
REMARK    4  A    between atoms: C_13  and  C_36
REMARK    5  A    between atoms: C_14  and  C_15
REMARK    6  A    between atoms: C_21  and  O_22
REMARK    7  A    between atoms: O_22  and  C_23
REMARK    8  A    between atoms: C_23  and  C_24
REMARK    9  A    between atoms: C_30  and  C_34
REMARK   10  A    between atoms: C_30  and  N_35
REMARK   11  A    between atoms: S_33  and  C_34
REMARK   12  A    between atoms: S_33  and  N_37
REMARK   13  A    between atoms: N_35  and  C_39
REMARK   14  A    between atoms: N_37  and  C_38
REMARK                            x       y       z     vdW  Elec       q    Type
REMARK                         _______ _______ _______ _____ _____    ______ ____
ROOT
ATOM      1  N   UNL A   1     -24.999   1.608  29.298  0.00  0.00    -0.172 NA
ENDROOT
BRANCH   1   5
ATOM      2  C   UNL A   1     -22.640   0.832  28.178  0.00  0.00    +0.156 C 
ATOM      3  C   UNL A   1     -21.882   1.896  26.140  0.00  0.00    +0.002 C 
ATOM      4  C   UNL A   1     -24.318   1.676  26.809  0.00  0.00    +0.003 C 
ATOM      5  C   UNL A   1     -24.003   1.361  28.229  0.00  0.00    +0.102 C 
ATOM      6  C   UNL A   1     -21.561   1.331  27.384  0.00  0.00    +0.031 C 
ATOM      7  F   UNL A   1     -22.505  -0.292  28.831  0.00  0.00    -0.203 F 
ATOM      8  C   UNL A   1     -23.264   1.923  25.806  0.00  0.00    -0.002 C 
BRANCH   4   9
ATOM      9  C   UNL A   1     -25.688   1.614  26.461  0.00  0.00    +0.094 C 
ATOM     10  C   UNL A   1     -26.250   2.920  26.395  0.00  0.00    +0.059 C 
ATOM     11  C   UNL A   1     -27.438   3.091  25.645  0.00  0.00    +0.102 C 
ATOM     12  N   UNL A   1     -28.075   2.089  25.003  0.00  0.00    -0.212 NA
ATOM     13  C   UNL A   1     -27.543   0.849  25.079  0.00  0.00    +0.234 C 
ATOM     14  C   UNL A   1     -26.354   0.576  25.777  0.00  0.00    +0.244 C 
ATOM     15  F   UNL A   1     -25.860  -0.681  25.795  0.00  0.00    -0.227 F 
BRANCH  10  16
ATOM     16  C   UNL A   1     -25.642   4.093  27.123  0.00  0.00    +0.263 C 
ATOM     17  N   UNL A   1     -25.614   5.252  26.449  0.00  0.00    -0.200 NA
ATOM     18  C   UNL A   1     -25.026   6.479  26.963  0.00  0.00    +0.139 C 
ATOM     19  O   UNL A   1     -25.143   3.966  28.243  0.00  0.00    -0.269 OA
ENDBRANCH  10  16
BRANCH  13  20
ATOM     20  O   UNL A   1     -28.193  -0.208  24.477  0.00  0.00    -0.459 OA
BRANCH  20  21
ATOM     21  C   UNL A   1     -29.460   0.005  23.866  0.00  0.00    +0.242 C 
BRANCH  21  22
ATOM     22  C   UNL A   1     -30.065  -1.377  23.573  0.00  0.00    +0.229 C 
ATOM     23  O   UNL A   1     -30.729  -1.878  24.721  0.00  0.00    -0.216 OA
ENDBRANCH  21  22
ENDBRANCH  20  21
ENDBRANCH  13  20
ENDBRANCH   4   9
ENDBRANCH   1   5
BRANCH   1  25
ATOM     24  O   UNL A   1     -23.445   2.588  31.166  0.00  0.00    -0.152 OA
ATOM     25  S   UNL A   1     -24.771   2.061  30.964  0.00  0.00    +0.009 S 
BRANCH  25  27
ATOM     26  C   UNL A   1     -25.387  -0.679  31.571  0.00  0.00    +0.089 C 
ATOM     27  C   UNL A   1     -25.189   0.773  32.028  0.00  0.00    +0.092 C 
ATOM     28  C   UNL A   1     -25.336   0.684  33.544  0.00  0.00    +0.033 C 
ATOM     29  C   UNL A   1     -24.829  -0.715  33.905  0.00  0.00    +0.090 C 
ATOM     30  N   UNL A   1     -24.758  -1.481  32.646  0.00  0.00    -0.218 NA
BRANCH  26  31
ATOM     31  C   UNL A   1     -24.855  -1.012  30.143  0.00  0.00    +0.045 C 
BRANCH  31  32
ATOM     32  C   UNL A   1     -24.973  -2.505  29.788  0.00  0.00    -0.021 C 
ATOM     33  C   UNL A   1     -23.906  -3.173  29.146  0.00  0.00    -0.004 C 
ATOM     34  C   UNL A   1     -23.989  -4.549  28.853  0.00  0.00    -0.000 C 
ATOM     35  C   UNL A   1     -25.137  -5.280  29.205  0.00  0.00    -0.000 C 
ATOM     36  C   UNL A   1     -26.232  -4.611  29.784  0.00  0.00    -0.000 C 
ATOM     37  C   UNL A   1     -26.155  -3.232  30.065  0.00  0.00    -0.004 C 
ENDBRANCH  31  32
ENDBRANCH  26  31
ENDBRANCH  25  27
BRANCH  25  38
ATOM     38  C   UNL A   1     -25.987   3.101  31.567  0.00  0.00    +0.104 C 
BRANCH  38  39
ATOM     39  C   UNL A   1     -26.375   4.471  31.122  0.00  0.00    +0.086 C 
BRANCH  39  41
ATOM     40  C   UNL A   1     -27.146   6.684  32.100  0.00  0.00    +0.090 C 
ATOM     41  N   UNL A   1     -26.028   5.732  31.975  0.00  0.00    -0.272 NA
BRANCH  41  42
ATOM     42  C   UNL A   1     -24.833   6.000  32.685  0.00  0.00    +0.058 C 
ATOM     43  C   UNL A   1     -24.743   7.165  33.701  0.00  0.00    +0.017 C 
ATOM     44  C   UNL A   1     -23.534   5.346  32.581  0.00  0.00    +0.017 C 
ENDBRANCH  41  42
ENDBRANCH  39  41
ENDBRANCH  38  39
ENDBRANCH  25  38
ENDBRANCH   1  25
TORSDOF 14
