REMARK  Name = outputs/IAG933/test6/raw/output_7140_IAG933_linker_design_.xyz
REMARK  14 active torsions:
REMARK  status: ('A' for Active; 'I' for Inactive)
REMARK    1  A    between atoms: C_1  and  C_2
REMARK    2  A    between atoms: C_1  and  C_8
REMARK    3  A    between atoms: C_1  and  C_36
REMARK    4  A    between atoms: C_13  and  C_30
REMARK    5  A    between atoms: C_14  and  C_15
REMARK    6  A    between atoms: C_21  and  O_22
REMARK    7  A    between atoms: O_22  and  C_23
REMARK    8  A    between atoms: C_23  and  C_24
REMARK    9  A    between atoms: C_28  and  C_34
REMARK   10  A    between atoms: C_28  and  C_46
REMARK   11  A    between atoms: C_33  and  N_39
REMARK   12  A    between atoms: C_33  and  C_42
REMARK   13  A    between atoms: C_34  and  N_41
REMARK   14  A    between atoms: N_41  and  C_42
REMARK                            x       y       z     vdW  Elec       q    Type
REMARK                         _______ _______ _______ _____ _____    ______ ____
ROOT
ATOM      1  C   UNL A   1     -22.793   0.370  28.816  0.00  0.00    +0.006 C 
ATOM      2  C   UNL A   1     -24.737   1.298  27.140  0.00  0.00    +0.009 C 
ATOM      3  C   UNL A   1     -25.176   0.664  28.432  0.00  0.00    +0.140 C 
ATOM      4  F   UNL A   1     -21.342   1.856  27.648  0.00  0.00    -0.204 F 
ATOM      5  C   UNL A   1     -24.152   0.047  29.136  0.00  0.00    +0.061 C 
ATOM      6  C   UNL A   1     -22.545   1.212  27.751  0.00  0.00    +0.136 C 
ATOM      7  O   UNL A   1     -26.236   0.964  29.221  0.00  0.00    -0.351 OA
ATOM      8  C   UNL A   1     -23.472   1.559  26.788  0.00  0.00    +0.027 C 
ATOM      9  C   UNL A   1     -26.558   0.019  28.402  0.00  0.00    +0.146 C 
ENDROOT
BRANCH   2  10
ATOM     10  C   UNL A   1     -25.688   1.614  26.461  0.00  0.00    +0.036 C 
ATOM     11  C   UNL A   1     -26.250   2.920  26.395  0.00  0.00    +0.076 C 
ATOM     12  C   UNL A   1     -27.438   3.091  25.645  0.00  0.00    +0.107 C 
ATOM     13  N   UNL A   1     -28.075   2.089  25.003  0.00  0.00    -0.208 NA
ATOM     14  C   UNL A   1     -27.543   0.849  25.079  0.00  0.00    +0.253 C 
ATOM     15  C   UNL A   1     -26.354   0.576  25.777  0.00  0.00    +0.193 C 
ATOM     16  F   UNL A   1     -25.860  -0.681  25.795  0.00  0.00    -0.199 F 
BRANCH  11  17
ATOM     17  C   UNL A   1     -25.642   4.093  27.123  0.00  0.00    +0.266 C 
ATOM     18  N   UNL A   1     -25.614   5.252  26.449  0.00  0.00    -0.200 NA
ATOM     19  C   UNL A   1     -25.026   6.479  26.963  0.00  0.00    +0.139 C 
ATOM     20  O   UNL A   1     -25.143   3.966  28.243  0.00  0.00    -0.268 OA
ENDBRANCH  11  17
BRANCH  14  21
ATOM     21  O   UNL A   1     -28.193  -0.208  24.477  0.00  0.00    -0.456 OA
BRANCH  21  22
ATOM     22  C   UNL A   1     -29.460   0.005  23.866  0.00  0.00    +0.243 C 
BRANCH  22  23
ATOM     23  C   UNL A   1     -30.065  -1.377  23.573  0.00  0.00    +0.229 C 
ATOM     24  O   UNL A   1     -30.729  -1.878  24.721  0.00  0.00    -0.216 OA
ENDBRANCH  22  23
ENDBRANCH  21  22
ENDBRANCH  14  21
ENDBRANCH   2  10
BRANCH   5  25
ATOM     25  C   UNL A   1     -24.855  -1.012  30.143  0.00  0.00    +0.045 C 
BRANCH  25  26
ATOM     26  C   UNL A   1     -24.973  -2.505  29.788  0.00  0.00    -0.021 C 
ATOM     27  C   UNL A   1     -23.906  -3.173  29.146  0.00  0.00    -0.004 C 
ATOM     28  C   UNL A   1     -23.989  -4.549  28.853  0.00  0.00    -0.000 C 
ATOM     29  C   UNL A   1     -25.137  -5.280  29.205  0.00  0.00    -0.000 C 
ATOM     30  C   UNL A   1     -26.232  -4.611  29.784  0.00  0.00    -0.000 C 
ATOM     31  C   UNL A   1     -26.155  -3.232  30.065  0.00  0.00    -0.004 C 
ENDBRANCH  25  26
BRANCH  25  32
ATOM     32  C   UNL A   1     -25.387  -0.679  31.571  0.00  0.00    +0.077 C 
ATOM     33  C   UNL A   1     -25.189   0.773  32.028  0.00  0.00    +0.019 C 
ATOM     34  C   UNL A   1     -25.336   0.684  33.544  0.00  0.00    +0.020 C 
ATOM     35  C   UNL A   1     -24.829  -0.715  33.905  0.00  0.00    +0.089 C 
ATOM     36  N   UNL A   1     -24.758  -1.481  32.646  0.00  0.00    -0.219 NA
ENDBRANCH  25  32
ENDBRANCH   5  25
BRANCH   9  37
ATOM     37  C   UNL A   1     -27.890  -0.868  28.017  0.00  0.00    +0.050 C 
BRANCH  37  38
ATOM     38  C   UNL A   1     -29.203  -0.105  28.158  0.00  0.00    +0.075 C 
BRANCH  38  39
ATOM     39  N   UNL A   1     -29.305   0.376  29.507  0.00  0.00    -0.270 NA
ATOM     40  C   UNL A   1     -29.142  -0.588  30.512  0.00  0.00    +0.090 C 
BRANCH  39  41
ATOM     41  C   UNL A   1     -29.456   1.748  29.848  0.00  0.00    +0.090 C 
BRANCH  41  42
ATOM     42  C   UNL A   1     -28.340   2.723  30.010  0.00  0.00    +0.090 C 
BRANCH  42  45
ATOM     43  C   UNL A   1     -26.487   5.095  31.689  0.00  0.00    +0.035 C 
ATOM     44  C   UNL A   1     -26.305   3.965  31.163  0.00  0.00    +0.074 C 
ATOM     45  N   UNL A   1     -27.576   3.485  30.551  0.00  0.00    -0.271 NA
ATOM     46  C   UNL A   1     -27.414   4.780  30.581  0.00  0.00    +0.074 C 
ENDBRANCH  42  45
ENDBRANCH  41  42
ENDBRANCH  39  41
ENDBRANCH  38  39
ENDBRANCH  37  38
ENDBRANCH   9  37
TORSDOF 14
