REMARK  Name = outputs/IAG933/test6/raw/output_7143_IAG933_linker_design_.xyz
REMARK  12 active torsions:
REMARK  status: ('A' for Active; 'I' for Inactive)
REMARK    1  A    between atoms: C_1  and  C_2
REMARK    2  A    between atoms: C_1  and  C_8
REMARK    3  A    between atoms: C_1  and  O_43
REMARK    4  A    between atoms: C_21  and  O_22
REMARK    5  A    between atoms: O_22  and  C_23
REMARK    6  A    between atoms: C_23  and  C_24
REMARK    7  A    between atoms: C_29  and  O_38
REMARK    8  A    between atoms: C_29  and  C_47
REMARK    9  A    between atoms: C_34  and  C_46
REMARK   10  A    between atoms: C_37  and  C_49
REMARK   11  A    between atoms: O_38  and  C_41
REMARK   12  A    between atoms: C_39  and  O_43
REMARK                            x       y       z     vdW  Elec       q    Type
REMARK                         _______ _______ _______ _____ _____    ______ ____
ROOT
ATOM      1  C   UNL A   1     -25.688   1.614  26.461  0.00  0.00    +0.019 C 
ATOM      2  C   UNL A   1     -26.250   2.920  26.395  0.00  0.00    +0.070 C 
ATOM      3  C   UNL A   1     -25.642   4.093  27.123  0.00  0.00    +0.224 C 
ATOM      4  N   UNL A   1     -25.614   5.252  26.449  0.00  0.00    -0.236 NA
ATOM      5  C   UNL A   1     -25.026   6.479  26.963  0.00  0.00    +0.155 C 
ATOM      6  O   UNL A   1     -25.143   3.966  28.243  0.00  0.00    -0.436 OA
ATOM      7  C   UNL A   1     -27.438   3.091  25.645  0.00  0.00    +0.106 C 
ATOM      8  N   UNL A   1     -28.075   2.089  25.003  0.00  0.00    -0.208 NA
ATOM      9  C   UNL A   1     -27.543   0.849  25.079  0.00  0.00    +0.253 C 
ATOM     10  C   UNL A   1     -26.354   0.576  25.777  0.00  0.00    +0.189 C 
ATOM     11  F   UNL A   1     -25.860  -0.681  25.795  0.00  0.00    -0.200 F 
ATOM     12  O   UNL A   1     -25.667   2.161  29.613  0.00  0.00    -0.322 OA
ATOM     13  C   UNL A   1     -24.658   1.520  28.783  0.00  0.00    +0.134 C 
ATOM     14  C   UNL A   1     -23.458   2.093  28.037  0.00  0.00    +0.134 C 
ATOM     15  C   UNL A   1     -24.480   1.301  27.278  0.00  0.00    +0.066 C 
ATOM     16  C   UNL A   1     -25.776   3.589  29.622  0.00  0.00    +0.290 C 
ENDROOT
BRANCH  16  22
ATOM     17  O   UNL A   1     -28.489   7.199  31.024  0.00  0.00    -0.295 OA
ATOM     18  C   UNL A   1     -29.380   4.181  29.310  0.00  0.00    +0.008 C 
ATOM     19  C   UNL A   1     -27.212   5.251  30.841  0.00  0.00    +0.167 C 
ATOM     20  C   UNL A   1     -28.538   1.748  29.409  0.00  0.00    +0.000 C 
ATOM     21  C   UNL A   1     -28.312   6.079  30.497  0.00  0.00    +0.161 C 
ATOM     22  C   UNL A   1     -27.097   3.773  30.494  0.00  0.00    +0.088 C 
ATOM     23  C   UNL A   1     -28.196   3.269  29.522  0.00  0.00    +0.007 C 
ATOM     24  C   UNL A   1     -29.191   5.587  29.491  0.00  0.00    +0.065 C 
BRANCH  19  27
ATOM     25  O   UNL A   1     -25.802   7.129  30.311  0.00  0.00    -0.245 OA
ATOM     26  O   UNL A   1     -25.114   5.664  31.860  0.00  0.00    -0.245 OA
ATOM     27  C   UNL A   1     -25.990   5.988  31.085  0.00  0.00    +0.371 C 
ENDBRANCH  19  27
ENDBRANCH  16  22
BRANCH  14  29
ATOM     28  O   UNL A   1     -21.939   2.595  26.153  0.00  0.00    -0.249 OA
ATOM     29  C   UNL A   1     -22.157   2.001  27.163  0.00  0.00    +0.332 C 
BRANCH  29  30
ATOM     30  O   UNL A   1     -21.224   1.209  27.865  0.00  0.00    -0.369 OA
BRANCH  30  32
ATOM     31  C   UNL A   1     -22.657  -0.196  29.478  0.00  0.00    +0.099 C 
ATOM     32  C   UNL A   1     -21.769   0.288  28.744  0.00  0.00    +0.151 C 
BRANCH  31  33
ATOM     33  O   UNL A   1     -23.482  -0.711  30.218  0.00  0.00    -0.278 OA
BRANCH  33  34
ATOM     34  C   UNL A   1     -24.855  -1.012  30.143  0.00  0.00    +0.170 C 
BRANCH  34  35
ATOM     35  C   UNL A   1     -24.973  -2.505  29.788  0.00  0.00    +0.007 C 
ATOM     36  C   UNL A   1     -23.906  -3.173  29.146  0.00  0.00    -0.002 C 
ATOM     37  C   UNL A   1     -23.989  -4.549  28.853  0.00  0.00    -0.000 C 
ATOM     38  C   UNL A   1     -25.137  -5.280  29.205  0.00  0.00    -0.000 C 
ATOM     39  C   UNL A   1     -26.232  -4.611  29.784  0.00  0.00    -0.000 C 
ATOM     40  C   UNL A   1     -26.155  -3.232  30.065  0.00  0.00    -0.002 C 
ENDBRANCH  34  35
BRANCH  34  41
ATOM     41  C   UNL A   1     -25.387  -0.679  31.571  0.00  0.00    +0.105 C 
ATOM     42  C   UNL A   1     -25.189   0.773  32.028  0.00  0.00    +0.022 C 
ATOM     43  C   UNL A   1     -25.336   0.684  33.544  0.00  0.00    +0.020 C 
ATOM     44  C   UNL A   1     -24.829  -0.715  33.905  0.00  0.00    +0.089 C 
ATOM     45  N   UNL A   1     -24.758  -1.481  32.646  0.00  0.00    -0.217 NA
ENDBRANCH  34  41
ENDBRANCH  33  34
ENDBRANCH  31  33
ENDBRANCH  30  32
ENDBRANCH  29  30
ENDBRANCH  14  29
BRANCH   9  46
ATOM     46  O   UNL A   1     -28.193  -0.208  24.477  0.00  0.00    -0.456 OA
BRANCH  46  47
ATOM     47  C   UNL A   1     -29.460   0.005  23.866  0.00  0.00    +0.243 C 
BRANCH  47  48
ATOM     48  C   UNL A   1     -30.065  -1.377  23.573  0.00  0.00    +0.229 C 
ATOM     49  O   UNL A   1     -30.729  -1.878  24.721  0.00  0.00    -0.216 OA
ENDBRANCH  47  48
ENDBRANCH  46  47
ENDBRANCH   9  46
TORSDOF 12
