REMARK  Name = outputs/IAG933/test6/raw/output_7147_IAG933_linker_design_.xyz
REMARK  15 active torsions:
REMARK  status: ('A' for Active; 'I' for Inactive)
REMARK    1  A    between atoms: C_1  and  C_2
REMARK    2  A    between atoms: C_1  and  C_8
REMARK    3  A    between atoms: C_1  and  N_40
REMARK    4  A    between atoms: C_13  and  C_29
REMARK    5  A    between atoms: C_14  and  C_15
REMARK    6  A    between atoms: C_21  and  O_22
REMARK    7  A    between atoms: O_22  and  C_23
REMARK    8  A    between atoms: C_23  and  C_24
REMARK    9  A    between atoms: C_29  and  C_41
REMARK   10  A    between atoms: O_31  and  C_36
REMARK   11  A    between atoms: C_35  and  C_37
REMARK   12  A    between atoms: C_35  and  C_42
REMARK   13  A    between atoms: C_36  and  C_41
REMARK   14  A    between atoms: C_38  and  N_43
REMARK   15  A    between atoms: N_40  and  C_41
REMARK                            x       y       z     vdW  Elec       q    Type
REMARK                         _______ _______ _______ _____ _____    ______ ____
ROOT
ATOM      1  O   UNL A   1     -27.579  -0.714  28.681  0.00  0.00    -0.250 OA
ATOM      2  C   UNL A   1     -26.874   0.252  29.030  0.00  0.00    +0.328 C 
ATOM      3  N   UNL A   1     -25.485  -0.051  29.203  0.00  0.00    -0.250 N 
ENDROOT
BRANCH   2   5
ATOM      4  C   UNL A   1     -29.025   1.570  28.943  0.00  0.00    +0.066 C 
ATOM      5  N   UNL A   1     -27.520   1.560  29.147  0.00  0.00    -0.166 NA
BRANCH   4   8
ATOM      6  C   UNL A   1     -31.266   2.525  29.823  0.00  0.00    +0.008 C 
ATOM      7  C   UNL A   1     -29.730   3.985  28.496  0.00  0.00    +0.008 C 
ATOM      8  C   UNL A   1     -29.782   2.811  29.523  0.00  0.00    +0.065 C 
BRANCH   8  10
ATOM      9  O   UNL A   1     -27.652   3.780  30.418  0.00  0.00    -0.220 OA
ATOM     10  C   UNL A   1     -28.953   3.264  30.747  0.00  0.00    +0.187 C 
ENDBRANCH   8  10
ENDBRANCH   4   8
ENDBRANCH   2   5
BRANCH   3  11
ATOM     11  C   UNL A   1     -24.855  -1.012  30.143  0.00  0.00    +0.116 C 
BRANCH  11  12
ATOM     12  C   UNL A   1     -24.973  -2.505  29.788  0.00  0.00    -0.003 C 
ATOM     13  C   UNL A   1     -23.906  -3.173  29.146  0.00  0.00    -0.003 C 
ATOM     14  C   UNL A   1     -23.989  -4.549  28.853  0.00  0.00    -0.000 C 
ATOM     15  C   UNL A   1     -25.137  -5.280  29.205  0.00  0.00    -0.000 C 
ATOM     16  C   UNL A   1     -26.232  -4.611  29.784  0.00  0.00    -0.000 C 
ATOM     17  C   UNL A   1     -26.155  -3.232  30.065  0.00  0.00    -0.003 C 
ENDBRANCH  11  12
BRANCH  11  18
ATOM     18  C   UNL A   1     -25.387  -0.679  31.571  0.00  0.00    +0.095 C 
ATOM     19  C   UNL A   1     -25.189   0.773  32.028  0.00  0.00    +0.021 C 
ATOM     20  C   UNL A   1     -25.336   0.684  33.544  0.00  0.00    +0.020 C 
ATOM     21  C   UNL A   1     -24.829  -0.715  33.905  0.00  0.00    +0.089 C 
ATOM     22  N   UNL A   1     -24.758  -1.481  32.646  0.00  0.00    -0.217 NA
ENDBRANCH  11  18
ENDBRANCH   3  11
BRANCH   3  23
ATOM     23  C   UNL A   1     -24.554   0.736  28.475  0.00  0.00    +0.180 C 
BRANCH  23  24
ATOM     24  C   UNL A   1     -22.993   0.495  28.787  0.00  0.00    +0.336 C 
ATOM     25  O   UNL A   1     -22.437  -0.120  29.565  0.00  0.00    -0.248 OA
BRANCH  24  27
ATOM     26  C   UNL A   1     -20.590   1.094  27.954  0.00  0.00    +0.256 C 
ATOM     27  O   UNL A   1     -22.148   1.268  27.734  0.00  0.00    -0.443 OA
ENDBRANCH  24  27
ENDBRANCH  23  24
BRANCH  23  28
ATOM     28  C   UNL A   1     -24.359   1.065  27.078  0.00  0.00    +0.060 C 
BRANCH  28  29
ATOM     29  C   UNL A   1     -25.688   1.614  26.461  0.00  0.00    +0.018 C 
ATOM     30  C   UNL A   1     -26.250   2.920  26.395  0.00  0.00    +0.073 C 
ATOM     31  C   UNL A   1     -27.438   3.091  25.645  0.00  0.00    +0.106 C 
ATOM     32  N   UNL A   1     -28.075   2.089  25.003  0.00  0.00    -0.208 NA
ATOM     33  C   UNL A   1     -27.543   0.849  25.079  0.00  0.00    +0.253 C 
ATOM     34  C   UNL A   1     -26.354   0.576  25.777  0.00  0.00    +0.189 C 
ATOM     35  F   UNL A   1     -25.860  -0.681  25.795  0.00  0.00    -0.200 F 
BRANCH  30  36
ATOM     36  C   UNL A   1     -25.642   4.093  27.123  0.00  0.00    +0.266 C 
ATOM     37  N   UNL A   1     -25.614   5.252  26.449  0.00  0.00    -0.200 NA
ATOM     38  C   UNL A   1     -25.026   6.479  26.963  0.00  0.00    +0.139 C 
ATOM     39  O   UNL A   1     -25.143   3.966  28.243  0.00  0.00    -0.268 OA
ENDBRANCH  30  36
BRANCH  33  40
ATOM     40  O   UNL A   1     -28.193  -0.208  24.477  0.00  0.00    -0.456 OA
BRANCH  40  41
ATOM     41  C   UNL A   1     -29.460   0.005  23.866  0.00  0.00    +0.243 C 
BRANCH  41  42
ATOM     42  C   UNL A   1     -30.065  -1.377  23.573  0.00  0.00    +0.229 C 
ATOM     43  O   UNL A   1     -30.729  -1.878  24.721  0.00  0.00    -0.216 OA
ENDBRANCH  41  42
ENDBRANCH  40  41
ENDBRANCH  33  40
ENDBRANCH  28  29
ENDBRANCH  23  28
ENDBRANCH   3  23
TORSDOF 15
