MODEL 714
MODEL 1
REMARK VINA RESULT:    -4.350      0.000      0.000
REMARK INTER + INTRA:          -4.350
REMARK INTER:                  -4.350
REMARK INTRA:                   0.000
REMARK UNBOUND:                 0.000
REMARK  Name = No_714-gen_results/8p0m/2024-11-27-11-27-31/
REMARK  0 active torsions:
REMARK  status: ('A' for Active; 'I' for Inactive)
REMARK                            x       y       z     vdW  Elec       q    Type
REMARK                         _______ _______ _______ _____ _____    ______ ____
ROOT
ATOM      1  C   UNL A   1     -24.977  -5.399  29.071  0.00  0.00    +0.000 A 
ATOM      2  C   UNL A   1     -24.212  -4.790  28.679  0.00  0.00    +0.000 A 
ATOM      3  C   UNL A   1     -26.107  -4.639  29.619  0.00  0.00    +0.000 A 
ATOM      4  C   UNL A   1     -26.073  -3.314  29.770  0.00  0.00    +0.000 A 
ATOM      5  C   UNL A   1     -23.948  -3.373  28.742  0.00  0.00    +0.000 A 
ATOM      6  C   UNL A   1     -24.998  -2.687  29.277  0.00  0.00    +0.000 A 
ENDROOT
TORSDOF 0
ENDMDL
ENDMDL
