REMARK  Name = No_715-gen_results/8p0m/2024-11-27-11-27-31/
REMARK  5 active torsions:
REMARK  status: ('A' for Active; 'I' for Inactive)
REMARK    1  A    between atoms: C_2  and  C_4
REMARK    2  A    between atoms: C_4  and  N_6
REMARK    3  A    between atoms: N_6  and  C_7
REMARK    4  A    between atoms: C_8  and  C_9
REMARK    5  A    between atoms: C_10  and  C_11
REMARK                            x       y       z     vdW  Elec       q    Type
REMARK                         _______ _______ _______ _____ _____    ______ ____
ROOT
ATOM      1  N   UNL A   1     -29.953   1.798  29.883  0.00  0.00    -0.229 NA
ENDROOT
BRANCH   1   2
ATOM      2  C   UNL A   1     -29.761   3.029  29.426  0.00  0.00    +0.080 C 
ATOM      3  C   UNL A   1     -29.335   3.295  28.197  0.00  0.00    +0.017 C 
BRANCH   3   4
ATOM      4  C   UNL A   1     -28.671   4.427  27.797  0.00  0.00    +0.001 C 
ATOM      5  C   UNL A   1     -27.774   4.349  26.755  0.00  0.00    +0.000 C 
BRANCH   5   6
ATOM      6  C   UNL A   1     -27.664   3.206  25.929  0.00  0.00    +0.000 C 
ATOM      7  C   UNL A   1     -28.320   2.113  26.293  0.00  0.00    +0.000 C 
ENDBRANCH   5   6
ENDBRANCH   3   4
ENDBRANCH   1   2
BRANCH   1   8
ATOM      8  C   UNL A   1     -29.679   0.847  29.336  0.00  0.00    +0.195 C 
BRANCH   8  10
ATOM      9 CL   UNL A   1     -28.149  -0.820  28.908  0.00  0.00    -0.045 Cl
ATOM     10  C   UNL A   1     -28.532  -0.047  29.773  0.00  0.00    +0.350 C 
ATOM     11  F   UNL A   1     -27.651   0.717  30.309  0.00  0.00    -0.185 F 
ATOM     12  F   UNL A   1     -29.061  -0.684  30.941  0.00  0.00    -0.185 F 
ENDBRANCH   8  10
ENDBRANCH   1   8
TORSDOF 5
