REMARK  Name = outputs/IAG933/test6/raw/output_7152_IAG933_linker_design_.xyz
REMARK  12 active torsions:
REMARK  status: ('A' for Active; 'I' for Inactive)
REMARK    1  A    between atoms: C_1  and  C_2
REMARK    2  A    between atoms: C_1  and  C_8
REMARK    3  A    between atoms: C_1  and  S_39
REMARK    4  A    between atoms: C_13  and  C_29
REMARK    5  A    between atoms: C_14  and  C_15
REMARK    6  A    between atoms: C_21  and  O_22
REMARK    7  A    between atoms: O_22  and  C_23
REMARK    8  A    between atoms: C_23  and  C_24
REMARK    9  A    between atoms: O_31  and  C_40
REMARK   10  A    between atoms: C_32  and  C_42
REMARK   11  A    between atoms: C_37  and  O_38
REMARK   12  A    between atoms: S_39  and  C_43
REMARK                            x       y       z     vdW  Elec       q    Type
REMARK                         _______ _______ _______ _____ _____    ______ ____
ROOT
ATOM      1  C   UNL A   1     -24.379   1.230  26.936  0.00  0.00    +0.024 A 
ATOM      2  C   UNL A   1     -23.211   1.637  26.215  0.00  0.00    +0.045 A 
ATOM      3  F   UNL A   1     -20.789   1.581  25.871  0.00  0.00    -0.201 F 
ATOM      4  C   UNL A   1     -21.866   0.566  27.708  0.00  0.00    +0.205 A 
ATOM      5  C   UNL A   1     -22.746   0.115  28.334  0.00  0.00    +0.242 A 
ATOM      6  C   UNL A   1     -21.904   1.200  26.510  0.00  0.00    +0.176 A 
ATOM      7  C   UNL A   1     -24.263   0.412  28.080  0.00  0.00    +0.147 A 
ENDROOT
BRANCH   1   8
ATOM      8  C   UNL A   1     -25.688   1.614  26.461  0.00  0.00    +0.039 C 
ATOM      9  C   UNL A   1     -26.250   2.920  26.395  0.00  0.00    +0.077 C 
ATOM     10  C   UNL A   1     -27.438   3.091  25.645  0.00  0.00    +0.107 C 
ATOM     11  N   UNL A   1     -28.075   2.089  25.003  0.00  0.00    -0.208 NA
ATOM     12  C   UNL A   1     -27.543   0.849  25.079  0.00  0.00    +0.253 C 
ATOM     13  C   UNL A   1     -26.354   0.576  25.777  0.00  0.00    +0.193 C 
ATOM     14  F   UNL A   1     -25.860  -0.681  25.795  0.00  0.00    -0.199 F 
BRANCH   9  15
ATOM     15  C   UNL A   1     -25.642   4.093  27.123  0.00  0.00    +0.266 C 
ATOM     16  N   UNL A   1     -25.614   5.252  26.449  0.00  0.00    -0.200 NA
ATOM     17  C   UNL A   1     -25.026   6.479  26.963  0.00  0.00    +0.139 C 
ATOM     18  O   UNL A   1     -25.143   3.966  28.243  0.00  0.00    -0.268 OA
ENDBRANCH   9  15
BRANCH  12  19
ATOM     19  O   UNL A   1     -28.193  -0.208  24.477  0.00  0.00    -0.456 OA
BRANCH  19  20
ATOM     20  C   UNL A   1     -29.460   0.005  23.866  0.00  0.00    +0.243 C 
BRANCH  20  21
ATOM     21  C   UNL A   1     -30.065  -1.377  23.573  0.00  0.00    +0.229 C 
ATOM     22  O   UNL A   1     -30.729  -1.878  24.721  0.00  0.00    -0.216 OA
ENDBRANCH  20  21
ENDBRANCH  19  20
ENDBRANCH  12  19
ENDBRANCH   1   8
BRANCH   7  25
ATOM     23  O   UNL A   1     -26.333   1.366  29.657  0.00  0.00    -0.168 OA
ATOM     24  O   UNL A   1     -26.456  -0.915  28.447  0.00  0.00    -0.168 OA
ATOM     25  S   UNL A   1     -25.579   0.075  28.961  0.00  0.00    +0.015 S 
BRANCH  25  26
ATOM     26  C   UNL A   1     -24.855  -1.012  30.143  0.00  0.00    +0.172 C 
BRANCH  26  27
ATOM     27  C   UNL A   1     -24.973  -2.505  29.788  0.00  0.00    +0.001 C 
ATOM     28  C   UNL A   1     -23.906  -3.173  29.146  0.00  0.00    -0.003 C 
ATOM     29  C   UNL A   1     -23.989  -4.549  28.853  0.00  0.00    -0.000 C 
ATOM     30  C   UNL A   1     -25.137  -5.280  29.205  0.00  0.00    -0.000 C 
ATOM     31  C   UNL A   1     -26.232  -4.611  29.784  0.00  0.00    -0.000 C 
ATOM     32  C   UNL A   1     -26.155  -3.232  30.065  0.00  0.00    -0.003 C 
ENDBRANCH  26  27
BRANCH  26  33
ATOM     33  C   UNL A   1     -25.387  -0.679  31.571  0.00  0.00    +0.099 C 
ATOM     34  C   UNL A   1     -25.189   0.773  32.028  0.00  0.00    +0.021 C 
ATOM     35  C   UNL A   1     -25.336   0.684  33.544  0.00  0.00    +0.020 C 
ATOM     36  C   UNL A   1     -24.829  -0.715  33.905  0.00  0.00    +0.089 C 
ATOM     37  N   UNL A   1     -24.758  -1.481  32.646  0.00  0.00    -0.217 NA
ENDBRANCH  26  33
ENDBRANCH  25  26
ENDBRANCH   7  25
BRANCH   4  39
ATOM     38  C   UNL A   1     -20.275   0.669  28.224  0.00  0.00    +0.253 C 
ATOM     39  O   UNL A   1     -20.532  -0.302  28.083  0.00  0.00    -0.466 OA
ENDBRANCH   4  39
BRANCH   5  40
ATOM     40  O   UNL A   1     -22.393  -0.263  29.858  0.00  0.00    -0.287 OA
ATOM     41  F   UNL A   1     -22.558   0.749  29.898  0.00  0.00    +0.014 F 
ENDBRANCH   5  40
BRANCH   2  43
ATOM     42  F   UNL A   1     -22.540   1.522  24.243  0.00  0.00    -0.229 F 
ATOM     43  C   UNL A   1     -23.217   2.474  25.175  0.00  0.00    +0.222 C 
ENDBRANCH   2  43
TORSDOF 12
