REMARK  Name = outputs/IAG933/test6/raw/output_7153_IAG933_linker_design_.xyz
REMARK  12 active torsions:
REMARK  status: ('A' for Active; 'I' for Inactive)
REMARK    1  A    between atoms: C_1  and  C_2
REMARK    2  A    between atoms: C_1  and  C_8
REMARK    3  A    between atoms: C_1  and  C_41
REMARK    4  A    between atoms: C_13  and  C_28
REMARK    5  A    between atoms: C_14  and  C_15
REMARK    6  A    between atoms: C_21  and  O_22
REMARK    7  A    between atoms: O_22  and  C_23
REMARK    8  A    between atoms: C_23  and  C_24
REMARK    9  A    between atoms: C_31  and  N_33
REMARK   10  A    between atoms: C_32  and  C_41
REMARK   11  A    between atoms: C_35  and  O_37
REMARK   12  A    between atoms: C_40  and  C_41
REMARK                            x       y       z     vdW  Elec       q    Type
REMARK                         _______ _______ _______ _____ _____    ______ ____
ROOT
ATOM      1  C   UNL A   1     -24.739   1.215  27.290  0.00  0.00    +0.084 C 
ATOM      2  F   UNL A   1     -21.335   1.411  27.654  0.00  0.00    -0.206 F 
ATOM      3  C   UNL A   1     -24.929   0.660  28.471  0.00  0.00    +0.027 C 
ATOM      4  C   UNL A   1     -23.507   1.302  26.798  0.00  0.00    +0.143 C 
ATOM      5  C   UNL A   1     -23.271   0.780  28.976  0.00  0.00    +0.061 C 
ATOM      6  C   UNL A   1     -22.594   1.074  27.843  0.00  0.00    +0.147 C 
ENDROOT
BRANCH   1   7
ATOM      7  C   UNL A   1     -25.688   1.614  26.461  0.00  0.00    +0.023 C 
ATOM      8  C   UNL A   1     -26.250   2.920  26.395  0.00  0.00    +0.073 C 
ATOM      9  C   UNL A   1     -27.438   3.091  25.645  0.00  0.00    +0.106 C 
ATOM     10  N   UNL A   1     -28.075   2.089  25.003  0.00  0.00    -0.208 NA
ATOM     11  C   UNL A   1     -27.543   0.849  25.079  0.00  0.00    +0.253 C 
ATOM     12  C   UNL A   1     -26.354   0.576  25.777  0.00  0.00    +0.190 C 
ATOM     13  F   UNL A   1     -25.860  -0.681  25.795  0.00  0.00    -0.200 F 
BRANCH   8  14
ATOM     14  C   UNL A   1     -25.642   4.093  27.123  0.00  0.00    +0.266 C 
ATOM     15  N   UNL A   1     -25.614   5.252  26.449  0.00  0.00    -0.200 NA
ATOM     16  C   UNL A   1     -25.026   6.479  26.963  0.00  0.00    +0.139 C 
ATOM     17  O   UNL A   1     -25.143   3.966  28.243  0.00  0.00    -0.268 OA
ENDBRANCH   8  14
BRANCH  11  18
ATOM     18  O   UNL A   1     -28.193  -0.208  24.477  0.00  0.00    -0.456 OA
BRANCH  18  19
ATOM     19  C   UNL A   1     -29.460   0.005  23.866  0.00  0.00    +0.243 C 
BRANCH  19  20
ATOM     20  C   UNL A   1     -30.065  -1.377  23.573  0.00  0.00    +0.229 C 
ATOM     21  O   UNL A   1     -30.729  -1.878  24.721  0.00  0.00    -0.216 OA
ENDBRANCH  19  20
ENDBRANCH  18  19
ENDBRANCH  11  18
ENDBRANCH   1   7
BRANCH   4  22
ATOM     22  O   UNL A   1     -23.198   1.627  25.462  0.00  0.00    -0.473 OA
ATOM     23  C   UNL A   1     -22.404   2.708  25.355  0.00  0.00    +0.252 C 
ENDBRANCH   4  22
BRANCH   3  24
ATOM     24  C   UNL A   1     -25.704  -0.229  29.136  0.00  0.00    +0.083 C 
BRANCH  24  28
ATOM     25  N   UNL A   1     -28.073   1.039  29.131  0.00  0.00    -0.278 N 
ATOM     26  C   UNL A   1     -27.856   2.197  30.030  0.00  0.00    +0.115 C 
ATOM     27  O   UNL A   1     -27.723  -1.172  28.653  0.00  0.00    -0.275 OA
ATOM     28  C   UNL A   1     -27.197  -0.122  29.002  0.00  0.00    +0.226 C 
BRANCH  25  30
ATOM     29  C   UNL A   1     -30.136   2.299  28.742  0.00  0.00    +0.023 C 
ATOM     30  C   UNL A   1     -29.268   1.151  28.303  0.00  0.00    +0.093 C 
ENDBRANCH  25  30
ENDBRANCH  24  28
BRANCH  24  31
ATOM     31  C   UNL A   1     -24.855  -1.012  30.143  0.00  0.00    +0.047 C 
BRANCH  31  32
ATOM     32  C   UNL A   1     -24.973  -2.505  29.788  0.00  0.00    -0.021 C 
ATOM     33  C   UNL A   1     -23.906  -3.173  29.146  0.00  0.00    -0.004 C 
ATOM     34  C   UNL A   1     -23.989  -4.549  28.853  0.00  0.00    -0.000 C 
ATOM     35  C   UNL A   1     -25.137  -5.280  29.205  0.00  0.00    -0.000 C 
ATOM     36  C   UNL A   1     -26.232  -4.611  29.784  0.00  0.00    -0.000 C 
ATOM     37  C   UNL A   1     -26.155  -3.232  30.065  0.00  0.00    -0.004 C 
ENDBRANCH  31  32
BRANCH  31  38
ATOM     38  C   UNL A   1     -25.387  -0.679  31.571  0.00  0.00    +0.077 C 
ATOM     39  C   UNL A   1     -25.189   0.773  32.028  0.00  0.00    +0.019 C 
ATOM     40  C   UNL A   1     -25.336   0.684  33.544  0.00  0.00    +0.020 C 
ATOM     41  C   UNL A   1     -24.829  -0.715  33.905  0.00  0.00    +0.089 C 
ATOM     42  N   UNL A   1     -24.758  -1.481  32.646  0.00  0.00    -0.219 NA
ENDBRANCH  31  38
ENDBRANCH  24  31
ENDBRANCH   3  24
TORSDOF 12
