REMARK  Name = outputs/IAG933/test6/raw/output_7154_IAG933_linker_design_.xyz
REMARK  13 active torsions:
REMARK  status: ('A' for Active; 'I' for Inactive)
REMARK    1  A    between atoms: C_1  and  C_2
REMARK    2  A    between atoms: C_1  and  C_8
REMARK    3  A    between atoms: C_1  and  N_43
REMARK    4  A    between atoms: C_13  and  C_35
REMARK    5  A    between atoms: C_14  and  C_15
REMARK    6  A    between atoms: C_21  and  O_22
REMARK    7  A    between atoms: O_22  and  C_23
REMARK    8  A    between atoms: C_23  and  C_24
REMARK    9  A    between atoms: N_28  and  C_32
REMARK   10  A    between atoms: N_30  and  C_42
REMARK   11  A    between atoms: C_32  and  C_38
REMARK   12  A    between atoms: C_38  and  N_43
REMARK   13  A    between atoms: C_41  and  N_43
REMARK                            x       y       z     vdW  Elec       q    Type
REMARK                         _______ _______ _______ _____ _____    ______ ____
ROOT
ATOM      1  C   UNL A   1     -23.112   0.335  28.524  0.00  0.00    +0.216 C 
ATOM      2  C   UNL A   1     -23.569   2.058  27.040  0.00  0.00    +0.191 C 
ATOM      3  C   UNL A   1     -24.756   1.360  27.356  0.00  0.00    +0.103 C 
ATOM      4  F   UNL A   1     -21.290   1.802  27.878  0.00  0.00    -0.226 F 
ATOM      5  F   UNL A   1     -22.649   0.756  29.767  0.00  0.00    -0.232 F 
ATOM      6  O   UNL A   1     -23.360   3.088  26.402  0.00  0.00    -0.293 OA
ATOM      7  C   UNL A   1     -24.664   0.390  28.191  0.00  0.00    +0.105 C 
ATOM      8  C   UNL A   1     -22.439   1.187  27.458  0.00  0.00    +0.251 C 
ENDROOT
BRANCH   3   9
ATOM      9  C   UNL A   1     -25.688   1.614  26.461  0.00  0.00    +0.024 C 
ATOM     10  C   UNL A   1     -26.250   2.920  26.395  0.00  0.00    +0.073 C 
ATOM     11  C   UNL A   1     -27.438   3.091  25.645  0.00  0.00    +0.106 C 
ATOM     12  N   UNL A   1     -28.075   2.089  25.003  0.00  0.00    -0.208 NA
ATOM     13  C   UNL A   1     -27.543   0.849  25.079  0.00  0.00    +0.253 C 
ATOM     14  C   UNL A   1     -26.354   0.576  25.777  0.00  0.00    +0.190 C 
ATOM     15  F   UNL A   1     -25.860  -0.681  25.795  0.00  0.00    -0.200 F 
BRANCH  10  16
ATOM     16  C   UNL A   1     -25.642   4.093  27.123  0.00  0.00    +0.266 C 
ATOM     17  N   UNL A   1     -25.614   5.252  26.449  0.00  0.00    -0.200 NA
ATOM     18  C   UNL A   1     -25.026   6.479  26.963  0.00  0.00    +0.139 C 
ATOM     19  O   UNL A   1     -25.143   3.966  28.243  0.00  0.00    -0.268 OA
ENDBRANCH  10  16
BRANCH  13  20
ATOM     20  O   UNL A   1     -28.193  -0.208  24.477  0.00  0.00    -0.456 OA
BRANCH  20  21
ATOM     21  C   UNL A   1     -29.460   0.005  23.866  0.00  0.00    +0.243 C 
BRANCH  21  22
ATOM     22  C   UNL A   1     -30.065  -1.377  23.573  0.00  0.00    +0.229 C 
ATOM     23  O   UNL A   1     -30.729  -1.878  24.721  0.00  0.00    -0.216 OA
ENDBRANCH  21  22
ENDBRANCH  20  21
ENDBRANCH  13  20
ENDBRANCH   3   9
BRANCH   7  24
ATOM     24  N   UNL A   1     -25.522  -0.127  29.172  0.00  0.00    -0.266 NA
BRANCH  24  25
ATOM     25  C   UNL A   1     -24.855  -1.012  30.143  0.00  0.00    +0.096 C 
BRANCH  25  26
ATOM     26  C   UNL A   1     -24.973  -2.505  29.788  0.00  0.00    -0.006 C 
ATOM     27  C   UNL A   1     -23.906  -3.173  29.146  0.00  0.00    -0.003 C 
ATOM     28  C   UNL A   1     -23.989  -4.549  28.853  0.00  0.00    -0.000 C 
ATOM     29  C   UNL A   1     -25.137  -5.280  29.205  0.00  0.00    -0.000 C 
ATOM     30  C   UNL A   1     -26.232  -4.611  29.784  0.00  0.00    -0.000 C 
ATOM     31  C   UNL A   1     -26.155  -3.232  30.065  0.00  0.00    -0.003 C 
ENDBRANCH  25  26
BRANCH  25  32
ATOM     32  C   UNL A   1     -25.387  -0.679  31.571  0.00  0.00    +0.092 C 
ATOM     33  C   UNL A   1     -25.189   0.773  32.028  0.00  0.00    +0.021 C 
ATOM     34  C   UNL A   1     -25.336   0.684  33.544  0.00  0.00    +0.020 C 
ATOM     35  C   UNL A   1     -24.829  -0.715  33.905  0.00  0.00    +0.089 C 
ATOM     36  N   UNL A   1     -24.758  -1.481  32.646  0.00  0.00    -0.218 NA
ENDBRANCH  25  32
ENDBRANCH  24  25
BRANCH  24  37
ATOM     37  C   UNL A   1     -27.044   0.421  29.104  0.00  0.00    +0.090 C 
BRANCH  37  38
ATOM     38  C   UNL A   1     -27.285   2.007  29.063  0.00  0.00    +0.093 C 
BRANCH  38  39
ATOM     39  N   UNL A   1     -27.627   3.009  30.465  0.00  0.00    -0.227 NA
ATOM     40  C   UNL A   1     -28.766   3.545  29.822  0.00  0.00    +0.144 C 
ATOM     41  C   UNL A   1     -28.133   3.983  31.158  0.00  0.00    +0.270 C 
ATOM     42  O   UNL A   1     -28.324   3.679  32.441  0.00  0.00    -0.184 OA
BRANCH  41  43
ATOM     43  N   UNL A   1     -27.783   5.356  31.049  0.00  0.00    -0.164 NA
ATOM     44  C   UNL A   1     -26.135   7.087  31.623  0.00  0.00    +0.097 C 
ATOM     45  C   UNL A   1     -26.452   5.657  31.231  0.00  0.00    +0.245 C 
ATOM     46  O   UNL A   1     -25.530   4.850  31.133  0.00  0.00    -0.273 OA
ENDBRANCH  41  43
ENDBRANCH  38  39
ENDBRANCH  37  38
ENDBRANCH  24  37
ENDBRANCH   7  24
TORSDOF 13
