REMARK  Name = outputs/IAG933/test6/raw/output_7155_IAG933_linker_design_.xyz
REMARK  11 active torsions:
REMARK  status: ('A' for Active; 'I' for Inactive)
REMARK    1  A    between atoms: C_1  and  C_2
REMARK    2  A    between atoms: C_1  and  C_8
REMARK    3  A    between atoms: C_1  and  N_35
REMARK    4  A    between atoms: C_13  and  C_37
REMARK    5  A    between atoms: C_14  and  C_15
REMARK    6  A    between atoms: C_15  and  O_18
REMARK    7  A    between atoms: O_18  and  C_30
REMARK    8  A    between atoms: C_21  and  O_22
REMARK    9  A    between atoms: O_22  and  C_23
REMARK   10  A    between atoms: C_23  and  C_24
REMARK   11  A    between atoms: C_30  and  C_32
REMARK                            x       y       z     vdW  Elec       q    Type
REMARK                         _______ _______ _______ _____ _____    ______ ____
ROOT
ATOM      1  C   UNL A   1     -25.688   1.614  26.461  0.00  0.00    +0.031 C 
ATOM      2  C   UNL A   1     -26.250   2.920  26.395  0.00  0.00    +0.071 C 
ATOM      3  C   UNL A   1     -27.438   3.091  25.645  0.00  0.00    +0.106 C 
ATOM      4  N   UNL A   1     -28.075   2.089  25.003  0.00  0.00    -0.208 NA
ATOM      5  C   UNL A   1     -27.543   0.849  25.079  0.00  0.00    +0.253 C 
ATOM      6  C   UNL A   1     -26.354   0.576  25.777  0.00  0.00    +0.190 C 
ATOM      7  F   UNL A   1     -25.860  -0.681  25.795  0.00  0.00    -0.200 F 
ENDROOT
BRANCH   1  14
ATOM      8  C   UNL A   1     -23.014   0.293  28.974  0.00  0.00    +0.419 C 
ATOM      9  C   UNL A   1     -23.509   1.618  26.950  0.00  0.00    +0.060 C 
ATOM     10  C   UNL A   1     -25.322   0.516  28.256  0.00  0.00    +0.322 C 
ATOM     11  C   UNL A   1     -22.514   1.179  27.864  0.00  0.00    +0.260 C 
ATOM     12  N   UNL A   1     -24.404   0.016  29.160  0.00  0.00    -0.133 N 
ATOM     13  N   UNL A   1     -22.093  -0.161  29.817  0.00  0.00    +0.197 NA
ATOM     14  C   UNL A   1     -24.799   1.215  27.210  0.00  0.00    +0.154 C 
ATOM     15  N   UNL A   1     -21.500   2.368  26.292  0.00  0.00    -0.075 NA
ATOM     16  O   UNL A   1     -26.468   0.183  28.443  0.00  0.00    -0.246 OA
ATOM     17  O   UNL A   1     -21.286   1.691  27.454  0.00  0.00    -0.346 OA
ATOM     18  C   UNL A   1     -22.918   2.280  25.921  0.00  0.00    +0.141 C 
BRANCH  12  19
ATOM     19  C   UNL A   1     -24.855  -1.012  30.143  0.00  0.00    +0.206 C 
BRANCH  19  20
ATOM     20  C   UNL A   1     -24.973  -2.505  29.788  0.00  0.00    +0.022 C 
ATOM     21  C   UNL A   1     -23.906  -3.173  29.146  0.00  0.00    -0.000 C 
ATOM     22  C   UNL A   1     -23.989  -4.549  28.853  0.00  0.00    -0.000 C 
ATOM     23  C   UNL A   1     -25.137  -5.280  29.205  0.00  0.00    -0.000 C 
ATOM     24  C   UNL A   1     -26.232  -4.611  29.784  0.00  0.00    -0.000 C 
ATOM     25  C   UNL A   1     -26.155  -3.232  30.065  0.00  0.00    -0.000 C 
ENDBRANCH  19  20
BRANCH  19  26
ATOM     26  C   UNL A   1     -25.387  -0.679  31.571  0.00  0.00    +0.120 C 
ATOM     27  C   UNL A   1     -25.189   0.773  32.028  0.00  0.00    +0.023 C 
ATOM     28  C   UNL A   1     -25.336   0.684  33.544  0.00  0.00    +0.020 C 
ATOM     29  C   UNL A   1     -24.829  -0.715  33.905  0.00  0.00    +0.089 C 
ATOM     30  N   UNL A   1     -24.758  -1.481  32.646  0.00  0.00    -0.215 NA
ENDBRANCH  19  26
ENDBRANCH  12  19
ENDBRANCH   1  14
BRANCH   2  31
ATOM     31  C   UNL A   1     -25.642   4.093  27.123  0.00  0.00    +0.222 C 
ATOM     32  N   UNL A   1     -25.614   5.252  26.449  0.00  0.00    -0.236 NA
ATOM     33  C   UNL A   1     -25.026   6.479  26.963  0.00  0.00    +0.155 C 
BRANCH  31  34
ATOM     34  O   UNL A   1     -25.143   3.966  28.243  0.00  0.00    -0.460 OA
BRANCH  34  35
ATOM     35  C   UNL A   1     -25.269   3.889  29.683  0.00  0.00    +0.211 C 
BRANCH  35  36
ATOM     36  C   UNL A   1     -26.361   4.073  30.749  0.00  0.00    +0.091 C 
ATOM     37  O   UNL A   1     -26.700   6.180  29.934  0.00  0.00    -0.354 OA
ATOM     38  C   UNL A   1     -27.251   5.739  32.424  0.00  0.00    +0.032 C 
ATOM     39  C   UNL A   1     -27.689   4.086  30.047  0.00  0.00    +0.127 C 
ATOM     40  N   UNL A   1     -27.856   2.854  29.485  0.00  0.00    -0.130 NA
ATOM     41  C   UNL A   1     -26.353   5.545  31.178  0.00  0.00    +0.120 C 
ATOM     42  C   UNL A   1     -27.645   5.347  29.236  0.00  0.00    +0.161 C 
ENDBRANCH  35  36
ENDBRANCH  34  35
ENDBRANCH  31  34
ENDBRANCH   2  31
BRANCH   5  43
ATOM     43  O   UNL A   1     -28.193  -0.208  24.477  0.00  0.00    -0.456 OA
BRANCH  43  44
ATOM     44  C   UNL A   1     -29.460   0.005  23.866  0.00  0.00    +0.243 C 
BRANCH  44  45
ATOM     45  C   UNL A   1     -30.065  -1.377  23.573  0.00  0.00    +0.229 C 
ATOM     46  O   UNL A   1     -30.729  -1.878  24.721  0.00  0.00    -0.216 OA
ENDBRANCH  44  45
ENDBRANCH  43  44
ENDBRANCH   5  43
TORSDOF 11
