REMARK  Name = outputs/IAG933/test6/raw/output_7158_IAG933_linker_design_.xyz
REMARK  17 active torsions:
REMARK  status: ('A' for Active; 'I' for Inactive)
REMARK    1  A    between atoms: C_1  and  C_2
REMARK    2  A    between atoms: C_1  and  C_8
REMARK    3  A    between atoms: C_1  and  C_35
REMARK    4  A    between atoms: C_13  and  C_34
REMARK    5  A    between atoms: C_14  and  C_15
REMARK    6  A    between atoms: C_21  and  O_22
REMARK    7  A    between atoms: O_22  and  C_23
REMARK    8  A    between atoms: C_23  and  C_24
REMARK    9  A    between atoms: C_24  and  O_25
REMARK   10  A    between atoms: O_25  and  C_40
REMARK   11  A    between atoms: C_28  and  C_33
REMARK   12  A    between atoms: C_33  and  C_40
REMARK   13  A    between atoms: C_34  and  C_42
REMARK   14  A    between atoms: C_35  and  O_43
REMARK   15  A    between atoms: S_36  and  C_41
REMARK   16  A    between atoms: C_37  and  O_43
REMARK   17  A    between atoms: C_41  and  C_42
REMARK                            x       y       z     vdW  Elec       q    Type
REMARK                         _______ _______ _______ _____ _____    ______ ____
ROOT
ATOM      1  N   UNL A   1     -32.627  -0.466  25.192  0.00  0.00    -0.100 NA
ATOM      2  C   UNL A   1     -31.307  -0.868  25.719  0.00  0.00    +0.208 C 
ENDROOT
BRANCH   2   3
ATOM      3  O   UNL A   1     -30.729  -1.878  24.721  0.00  0.00    -0.334 OA
BRANCH   3   4
ATOM      4  C   UNL A   1     -30.065  -1.377  23.573  0.00  0.00    +0.191 C 
BRANCH   4   5
ATOM      5  C   UNL A   1     -29.460   0.005  23.866  0.00  0.00    +0.239 C 
BRANCH   5   6
ATOM      6  O   UNL A   1     -28.193  -0.208  24.477  0.00  0.00    -0.459 OA
BRANCH   6  11
ATOM      7  C   UNL A   1     -25.688   1.614  26.461  0.00  0.00    +0.070 C 
ATOM      8  C   UNL A   1     -26.250   2.920  26.395  0.00  0.00    +0.055 C 
ATOM      9  C   UNL A   1     -27.438   3.091  25.645  0.00  0.00    +0.102 C 
ATOM     10  N   UNL A   1     -28.075   2.089  25.003  0.00  0.00    -0.212 NA
ATOM     11  C   UNL A   1     -27.543   0.849  25.079  0.00  0.00    +0.234 C 
ATOM     12  C   UNL A   1     -26.354   0.576  25.777  0.00  0.00    +0.240 C 
ATOM     13  F   UNL A   1     -25.860  -0.681  25.795  0.00  0.00    -0.227 F 
BRANCH   8  14
ATOM     14  C   UNL A   1     -25.642   4.093  27.123  0.00  0.00    +0.262 C 
ATOM     15  N   UNL A   1     -25.614   5.252  26.449  0.00  0.00    -0.200 NA
ATOM     16  C   UNL A   1     -25.026   6.479  26.963  0.00  0.00    +0.139 C 
ATOM     17  O   UNL A   1     -25.143   3.966  28.243  0.00  0.00    -0.269 OA
ENDBRANCH   8  14
BRANCH   7  18
ATOM     18  C   UNL A   1     -25.338   0.956  27.832  0.00  0.00    +0.009 C 
BRANCH  18  19
ATOM     19  C   UNL A   1     -24.055   0.485  28.253  0.00  0.00    +0.012 C 
BRANCH  19  20
ATOM     20  C   UNL A   1     -23.634   1.231  27.442  0.00  0.00    +0.058 C 
BRANCH  20  22
ATOM     21  C   UNL A   1     -21.319   1.771  27.498  0.00  0.00    +0.069 C 
ATOM     22  S   UNL A   1     -22.606   2.025  26.498  0.00  0.00    -0.139 S 
ENDBRANCH  20  22
ENDBRANCH  19  20
ENDBRANCH  18  19
ENDBRANCH   7  18
ENDBRANCH   6  11
ENDBRANCH   5   6
ENDBRANCH   4   5
ENDBRANCH   3   4
ENDBRANCH   2   3
BRANCH   2  23
ATOM     23  C   UNL A   1     -31.547  -1.094  27.232  0.00  0.00    +0.074 C 
BRANCH  23  24
ATOM     24  C   UNL A   1     -30.672  -0.177  28.050  0.00  0.00    +0.110 C 
ATOM     25  C   UNL A   1     -31.132   1.167  28.654  0.00  0.00    +0.025 C 
ATOM     26  N   UNL A   1     -29.346  -0.571  28.191  0.00  0.00    -0.244 NA
ATOM     27  C   UNL A   1     -28.435   0.082  28.906  0.00  0.00    +0.196 C 
ATOM     28  C   UNL A   1     -29.037   1.168  29.900  0.00  0.00    +0.085 C 
ATOM     29  C   UNL A   1     -29.937   2.046  29.034  0.00  0.00    +0.012 C 
BRANCH  27  30
ATOM     30  O   UNL A   1     -27.305  -0.216  29.234  0.00  0.00    -0.463 OA
BRANCH  30  31
ATOM     31  C   UNL A   1     -25.845  -0.138  29.323  0.00  0.00    +0.212 C 
BRANCH  31  32
ATOM     32  C   UNL A   1     -24.855  -1.012  30.143  0.00  0.00    +0.082 C 
BRANCH  32  33
ATOM     33  C   UNL A   1     -24.973  -2.505  29.788  0.00  0.00    -0.018 C 
ATOM     34  C   UNL A   1     -23.906  -3.173  29.146  0.00  0.00    -0.004 C 
ATOM     35  C   UNL A   1     -23.989  -4.549  28.853  0.00  0.00    -0.000 C 
ATOM     36  C   UNL A   1     -25.137  -5.280  29.205  0.00  0.00    -0.000 C 
ATOM     37  C   UNL A   1     -26.232  -4.611  29.784  0.00  0.00    -0.000 C 
ATOM     38  C   UNL A   1     -26.155  -3.232  30.065  0.00  0.00    -0.004 C 
ENDBRANCH  32  33
BRANCH  32  39
ATOM     39  C   UNL A   1     -25.387  -0.679  31.571  0.00  0.00    +0.080 C 
ATOM     40  C   UNL A   1     -25.189   0.773  32.028  0.00  0.00    +0.019 C 
ATOM     41  C   UNL A   1     -25.336   0.684  33.544  0.00  0.00    +0.020 C 
ATOM     42  C   UNL A   1     -24.829  -0.715  33.905  0.00  0.00    +0.089 C 
ATOM     43  N   UNL A   1     -24.758  -1.481  32.646  0.00  0.00    -0.219 NA
ENDBRANCH  32  39
ENDBRANCH  31  32
ENDBRANCH  30  31
ENDBRANCH  27  30
ENDBRANCH  23  24
ENDBRANCH   2  23
TORSDOF 17
