REMARK  Name = No_716-gen_results/8p0m/2024-11-27-11-27-31/
REMARK  1 active torsions:
REMARK  status: ('A' for Active; 'I' for Inactive)
REMARK    1  A    between atoms: C_3  and  C_7
REMARK                            x       y       z     vdW  Elec       q    Type
REMARK                         _______ _______ _______ _____ _____    ______ ____
ROOT
ATOM      1  C   UNL A   1     -28.016  -0.814  28.878  0.00  0.00    +0.030 A 
ATOM      2  C   UNL A   1     -27.064  -0.119  28.608  0.00  0.00    +0.002 A 
ATOM      3  C   UNL A   1     -25.765  -0.390  29.036  0.00  0.00    +0.000 A 
ATOM      4  C   UNL A   1     -25.530  -1.530  29.901  0.00  0.00    +0.002 A 
ATOM      5  C   UNL A   1     -26.441  -2.213  30.094  0.00  0.00    +0.030 A 
ATOM      6  C   UNL A   1     -27.755  -1.997  29.747  0.00  0.00    +0.140 A 
ATOM      7  F   UNL A   1     -28.771  -2.795  30.091  0.00  0.00    -0.204 F 
ENDROOT
BRANCH   3   8
ATOM      8  C   UNL A   1     -24.558   0.500  28.722  0.00  0.00    +0.000 A 
ATOM      9  C   UNL A   1     -24.523   1.272  27.707  0.00  0.00    +0.000 A 
ATOM     10  C   UNL A   1     -23.343   2.014  27.366  0.00  0.00    +0.000 A 
ATOM     11  C   UNL A   1     -22.154   1.833  28.006  0.00  0.00    +0.000 A 
ATOM     12  C   UNL A   1     -23.296   0.254  29.432  0.00  0.00    +0.000 A 
ATOM     13  C   UNL A   1     -22.118   0.931  29.057  0.00  0.00    +0.000 A 
ENDBRANCH   3   8
TORSDOF 1
