REMARK  Name = outputs/IAG933/test6/raw/output_7162_IAG933_linker_design_.xyz
REMARK  17 active torsions:
REMARK  status: ('A' for Active; 'I' for Inactive)
REMARK    1  A    between atoms: C_1  and  C_2
REMARK    2  A    between atoms: C_1  and  C_8
REMARK    3  A    between atoms: C_1  and  C_40
REMARK    4  A    between atoms: C_13  and  N_29
REMARK    5  A    between atoms: C_14  and  C_15
REMARK    6  A    between atoms: C_21  and  O_22
REMARK    7  A    between atoms: O_22  and  C_23
REMARK    8  A    between atoms: C_23  and  C_24
REMARK    9  A    between atoms: O_28  and  C_37
REMARK   10  A    between atoms: N_29  and  C_45
REMARK   11  A    between atoms: C_31  and  C_40
REMARK   12  A    between atoms: N_34  and  C_39
REMARK   13  A    between atoms: N_34  and  C_40
REMARK   14  A    between atoms: C_35  and  C_36
REMARK   15  A    between atoms: C_35  and  C_39
REMARK   16  A    between atoms: C_36  and  C_38
REMARK   17  A    between atoms: C_38  and  O_43
REMARK                            x       y       z     vdW  Elec       q    Type
REMARK                         _______ _______ _______ _____ _____    ______ ____
ROOT
ATOM      1  C   UNL A   1     -23.836   0.697  28.733  0.00  0.00    -0.003 C 
ATOM      2  F   UNL A   1     -20.466   1.530  28.136  0.00  0.00    -0.205 F 
ATOM      3  C   UNL A   1     -22.588   1.624  27.265  0.00  0.00    +0.224 C 
ATOM      4  C   UNL A   1     -22.391   0.437  29.258  0.00  0.00    +0.085 C 
ATOM      5  C   UNL A   1     -21.730   1.103  28.318  0.00  0.00    +0.161 C 
ATOM      6  C   UNL A   1     -23.749   1.206  27.685  0.00  0.00    +0.104 C 
ENDROOT
BRANCH   3   7
ATOM      7  O   UNL A   1     -22.232   2.264  26.055  0.00  0.00    -0.300 OA
ATOM      8  O   UNL A   1     -23.242   2.442  25.235  0.00  0.00    +0.029 OA
ENDBRANCH   3   7
BRANCH   1   9
ATOM      9  C   UNL A   1     -25.269   0.089  29.205  0.00  0.00    +0.098 C 
BRANCH   9  10
ATOM     10  C   UNL A   1     -24.855  -1.012  30.143  0.00  0.00    +0.058 C 
BRANCH  10  11
ATOM     11  C   UNL A   1     -24.973  -2.505  29.788  0.00  0.00    -0.019 C 
ATOM     12  C   UNL A   1     -23.906  -3.173  29.146  0.00  0.00    -0.004 C 
ATOM     13  C   UNL A   1     -23.989  -4.549  28.853  0.00  0.00    -0.000 C 
ATOM     14  C   UNL A   1     -25.137  -5.280  29.205  0.00  0.00    -0.000 C 
ATOM     15  C   UNL A   1     -26.232  -4.611  29.784  0.00  0.00    -0.000 C 
ATOM     16  C   UNL A   1     -26.155  -3.232  30.065  0.00  0.00    -0.004 C 
ENDBRANCH  10  11
BRANCH  10  17
ATOM     17  C   UNL A   1     -25.387  -0.679  31.571  0.00  0.00    +0.079 C 
ATOM     18  C   UNL A   1     -25.189   0.773  32.028  0.00  0.00    +0.019 C 
ATOM     19  C   UNL A   1     -25.336   0.684  33.544  0.00  0.00    +0.020 C 
ATOM     20  C   UNL A   1     -24.829  -0.715  33.905  0.00  0.00    +0.089 C 
ATOM     21  N   UNL A   1     -24.758  -1.481  32.646  0.00  0.00    -0.219 NA
ENDBRANCH  10  17
ENDBRANCH   9  10
BRANCH   9  22
ATOM     22  N   UNL A   1     -26.043   1.283  29.622  0.00  0.00    -0.215 NA
BRANCH  22  23
ATOM     23  C   UNL A   1     -27.485   1.585  29.480  0.00  0.00    +0.090 C 
BRANCH  23  24
ATOM     24  C   UNL A   1     -27.936   2.741  30.408  0.00  0.00    +0.030 C 
BRANCH  24  25
ATOM     25  C   UNL A   1     -28.386   3.994  29.611  0.00  0.00    +0.111 C 
BRANCH  25  26
ATOM     26  C   UNL A   1     -29.722   3.696  28.882  0.00  0.00    +0.317 C 
ATOM     27  O   UNL A   1     -30.246   2.555  28.774  0.00  0.00    -0.250 OA
BRANCH  26  29
ATOM     28  C   UNL A   1     -31.713   4.842  28.825  0.00  0.00    +0.256 C 
ATOM     29  O   UNL A   1     -30.344   4.771  28.357  0.00  0.00    -0.444 OA
ENDBRANCH  26  29
ENDBRANCH  25  26
ENDBRANCH  24  25
ENDBRANCH  23  24
ENDBRANCH  22  23
ENDBRANCH   9  22
ENDBRANCH   1   9
BRANCH   6  30
ATOM     30  N   UNL A   1     -24.723   1.274  27.337  0.00  0.00    -0.207 NA
BRANCH  30  31
ATOM     31  C   UNL A   1     -25.688   1.614  26.461  0.00  0.00    +0.108 C 
ATOM     32  C   UNL A   1     -26.250   2.920  26.395  0.00  0.00    +0.092 C 
ATOM     33  C   UNL A   1     -27.438   3.091  25.645  0.00  0.00    +0.108 C 
ATOM     34  N   UNL A   1     -28.075   2.089  25.003  0.00  0.00    -0.208 NA
ATOM     35  C   UNL A   1     -27.543   0.849  25.079  0.00  0.00    +0.255 C 
ATOM     36  C   UNL A   1     -26.354   0.576  25.777  0.00  0.00    +0.208 C 
ATOM     37  F   UNL A   1     -25.860  -0.681  25.795  0.00  0.00    -0.198 F 
BRANCH  32  38
ATOM     38  C   UNL A   1     -25.642   4.093  27.123  0.00  0.00    +0.268 C 
ATOM     39  N   UNL A   1     -25.614   5.252  26.449  0.00  0.00    -0.200 NA
ATOM     40  C   UNL A   1     -25.026   6.479  26.963  0.00  0.00    +0.139 C 
ATOM     41  O   UNL A   1     -25.143   3.966  28.243  0.00  0.00    -0.268 OA
ENDBRANCH  32  38
BRANCH  35  42
ATOM     42  O   UNL A   1     -28.193  -0.208  24.477  0.00  0.00    -0.456 OA
BRANCH  42  43
ATOM     43  C   UNL A   1     -29.460   0.005  23.866  0.00  0.00    +0.243 C 
BRANCH  43  44
ATOM     44  C   UNL A   1     -30.065  -1.377  23.573  0.00  0.00    +0.229 C 
ATOM     45  O   UNL A   1     -30.729  -1.878  24.721  0.00  0.00    -0.216 OA
ENDBRANCH  43  44
ENDBRANCH  42  43
ENDBRANCH  35  42
ENDBRANCH  30  31
ENDBRANCH   6  30
TORSDOF 17
