REMARK  Name = outputs/IAG933/test6/raw/output_7165_IAG933_linker_design_.xyz
REMARK  14 active torsions:
REMARK  status: ('A' for Active; 'I' for Inactive)
REMARK    1  A    between atoms: C_1  and  C_2
REMARK    2  A    between atoms: C_1  and  C_8
REMARK    3  A    between atoms: C_1  and  C_30
REMARK    4  A    between atoms: C_13  and  C_40
REMARK    5  A    between atoms: C_14  and  C_15
REMARK    6  A    between atoms: C_21  and  O_22
REMARK    7  A    between atoms: O_22  and  C_23
REMARK    8  A    between atoms: C_23  and  C_24
REMARK    9  A    between atoms: C_29  and  C_31
REMARK   10  A    between atoms: C_29  and  C_34
REMARK   11  A    between atoms: C_30  and  C_34
REMARK   12  A    between atoms: C_30  and  C_41
REMARK   13  A    between atoms: C_31  and  C_43
REMARK   14  A    between atoms: N_32  and  C_43
REMARK                            x       y       z     vdW  Elec       q    Type
REMARK                         _______ _______ _______ _____ _____    ______ ____
ROOT
ATOM      1  C   UNL A   1     -25.544  -0.131  29.073  0.00  0.00    +0.182 C 
ATOM      2  O   UNL A   1     -26.538  -0.853  28.233  0.00  0.00    -0.218 OA
ENDROOT
BRANCH   1   8
ATOM      3  O   UNL A   1     -22.985   0.692  28.858  0.00  0.00    -0.451 OA
ATOM      4  C   UNL A   1     -22.225   1.513  27.852  0.00  0.00    +0.191 C 
ATOM      5  C   UNL A   1     -23.157   1.829  26.912  0.00  0.00    +0.098 C 
ATOM      6 CL   UNL A   1     -22.773   2.377  25.294  0.00  0.00    -0.079 Cl
ATOM      7  C   UNL A   1     -24.449   1.335  27.220  0.00  0.00    +0.049 C 
ATOM      8  C   UNL A   1     -24.347   0.592  28.379  0.00  0.00    +0.151 C 
BRANCH   7   9
ATOM      9  C   UNL A   1     -25.688   1.614  26.461  0.00  0.00    +0.042 C 
ATOM     10  C   UNL A   1     -26.250   2.920  26.395  0.00  0.00    +0.077 C 
ATOM     11  C   UNL A   1     -27.438   3.091  25.645  0.00  0.00    +0.107 C 
ATOM     12  N   UNL A   1     -28.075   2.089  25.003  0.00  0.00    -0.208 NA
ATOM     13  C   UNL A   1     -27.543   0.849  25.079  0.00  0.00    +0.253 C 
ATOM     14  C   UNL A   1     -26.354   0.576  25.777  0.00  0.00    +0.193 C 
ATOM     15  F   UNL A   1     -25.860  -0.681  25.795  0.00  0.00    -0.199 F 
BRANCH  10  16
ATOM     16  C   UNL A   1     -25.642   4.093  27.123  0.00  0.00    +0.266 C 
ATOM     17  N   UNL A   1     -25.614   5.252  26.449  0.00  0.00    -0.200 NA
ATOM     18  C   UNL A   1     -25.026   6.479  26.963  0.00  0.00    +0.139 C 
ATOM     19  O   UNL A   1     -25.143   3.966  28.243  0.00  0.00    -0.268 OA
ENDBRANCH  10  16
BRANCH  13  20
ATOM     20  O   UNL A   1     -28.193  -0.208  24.477  0.00  0.00    -0.456 OA
BRANCH  20  21
ATOM     21  C   UNL A   1     -29.460   0.005  23.866  0.00  0.00    +0.243 C 
BRANCH  21  22
ATOM     22  C   UNL A   1     -30.065  -1.377  23.573  0.00  0.00    +0.229 C 
ATOM     23  O   UNL A   1     -30.729  -1.878  24.721  0.00  0.00    -0.216 OA
ENDBRANCH  21  22
ENDBRANCH  20  21
ENDBRANCH  13  20
ENDBRANCH   7   9
ENDBRANCH   1   8
BRANCH   1  24
ATOM     24  C   UNL A   1     -24.855  -1.012  30.143  0.00  0.00    +0.073 C 
BRANCH  24  25
ATOM     25  C   UNL A   1     -24.973  -2.505  29.788  0.00  0.00    -0.018 C 
ATOM     26  C   UNL A   1     -23.906  -3.173  29.146  0.00  0.00    -0.004 C 
ATOM     27  C   UNL A   1     -23.989  -4.549  28.853  0.00  0.00    -0.000 C 
ATOM     28  C   UNL A   1     -25.137  -5.280  29.205  0.00  0.00    -0.000 C 
ATOM     29  C   UNL A   1     -26.232  -4.611  29.784  0.00  0.00    -0.000 C 
ATOM     30  C   UNL A   1     -26.155  -3.232  30.065  0.00  0.00    -0.004 C 
ENDBRANCH  24  25
BRANCH  24  31
ATOM     31  C   UNL A   1     -25.387  -0.679  31.571  0.00  0.00    +0.080 C 
ATOM     32  C   UNL A   1     -25.189   0.773  32.028  0.00  0.00    +0.019 C 
ATOM     33  C   UNL A   1     -25.336   0.684  33.544  0.00  0.00    +0.020 C 
ATOM     34  C   UNL A   1     -24.829  -0.715  33.905  0.00  0.00    +0.089 C 
ATOM     35  N   UNL A   1     -24.758  -1.481  32.646  0.00  0.00    -0.219 NA
ENDBRANCH  24  31
ENDBRANCH   1  24
BRANCH   1  36
ATOM     36  C   UNL A   1     -26.734   0.896  29.357  0.00  0.00    +0.038 C 
BRANCH  36  37
ATOM     37  C   UNL A   1     -27.543   2.103  28.750  0.00  0.00    +0.005 C 
BRANCH  37  38
ATOM     38  C   UNL A   1     -28.126   3.181  29.482  0.00  0.00    +0.024 C 
BRANCH  38  39
ATOM     39  C   UNL A   1     -27.471   3.318  30.851  0.00  0.00    +0.115 C 
BRANCH  39  40
ATOM     40  N   UNL A   1     -26.462   4.423  30.672  0.00  0.00    -0.205 NA
ATOM     41  O   UNL A   1     -24.494   4.125  31.799  0.00  0.00    -0.273 OA
ATOM     42  C   UNL A   1     -25.568   4.721  31.648  0.00  0.00    +0.242 C 
ATOM     43  C   UNL A   1     -26.015   5.832  32.598  0.00  0.00    +0.096 C 
ENDBRANCH  39  40
ENDBRANCH  38  39
ENDBRANCH  37  38
ENDBRANCH  36  37
ENDBRANCH   1  36
TORSDOF 14
