REMARK  Name = outputs/IAG933/test6/raw/output_717_IAG933_linker_design_.xyz
REMARK  10 active torsions:
REMARK  status: ('A' for Active; 'I' for Inactive)
REMARK    1  A    between atoms: C_1  and  C_2
REMARK    2  A    between atoms: C_1  and  C_8
REMARK    3  A    between atoms: C_1  and  N_37
REMARK    4  A    between atoms: C_13  and  C_33
REMARK    5  A    between atoms: C_14  and  C_15
REMARK    6  A    between atoms: C_21  and  O_22
REMARK    7  A    between atoms: O_22  and  C_23
REMARK    8  A    between atoms: C_23  and  C_24
REMARK    9  A    between atoms: C_36  and  N_37
REMARK   10  A    between atoms: N_37  and  C_40
REMARK                            x       y       z     vdW  Elec       q    Type
REMARK                         _______ _______ _______ _____ _____    ______ ____
ROOT
ATOM      1  C   UNL A   1     -22.054   2.206  26.588  0.00  0.00    +0.162 C 
ATOM      2  O   UNL A   1     -21.316   2.438  25.425  0.00  0.00    -0.335 OA
ATOM      3  C   UNL A   1     -23.322   2.001  26.422  0.00  0.00    +0.077 C 
ATOM      4  C   UNL A   1     -23.446   2.419  25.106  0.00  0.00    +0.347 C 
ATOM      5  C   UNL A   1     -21.106   2.142  27.723  0.00  0.00    +0.076 C 
ATOM      6  C   UNL A   1     -24.440   1.443  27.178  0.00  0.00    +0.023 C 
ATOM      7  O   UNL A   1     -22.578   0.504  30.165  0.00  0.00    -0.290 OA
ATOM      8  O   UNL A   1     -22.326   2.340  24.255  0.00  0.00    -0.135 OA
ATOM      9  F   UNL A   1     -23.767   3.867  25.116  0.00  0.00    -0.195 F 
ATOM     10  C   UNL A   1     -21.979   1.391  28.662  0.00  0.00    +0.079 C 
ATOM     11  C   UNL A   1     -24.338   0.735  28.418  0.00  0.00    +0.096 C 
ATOM     12  C   UNL A   1     -23.005   0.849  29.039  0.00  0.00    +0.188 C 
ENDROOT
BRANCH   6  13
ATOM     13  C   UNL A   1     -25.688   1.614  26.461  0.00  0.00    +0.039 C 
ATOM     14  C   UNL A   1     -26.250   2.920  26.395  0.00  0.00    +0.077 C 
ATOM     15  C   UNL A   1     -27.438   3.091  25.645  0.00  0.00    +0.107 C 
ATOM     16  N   UNL A   1     -28.075   2.089  25.003  0.00  0.00    -0.208 NA
ATOM     17  C   UNL A   1     -27.543   0.849  25.079  0.00  0.00    +0.253 C 
ATOM     18  C   UNL A   1     -26.354   0.576  25.777  0.00  0.00    +0.193 C 
ATOM     19  F   UNL A   1     -25.860  -0.681  25.795  0.00  0.00    -0.199 F 
BRANCH  14  20
ATOM     20  C   UNL A   1     -25.642   4.093  27.123  0.00  0.00    +0.266 C 
ATOM     21  N   UNL A   1     -25.614   5.252  26.449  0.00  0.00    -0.200 NA
ATOM     22  C   UNL A   1     -25.026   6.479  26.963  0.00  0.00    +0.139 C 
ATOM     23  O   UNL A   1     -25.143   3.966  28.243  0.00  0.00    -0.268 OA
ENDBRANCH  14  20
BRANCH  17  24
ATOM     24  O   UNL A   1     -28.193  -0.208  24.477  0.00  0.00    -0.456 OA
BRANCH  24  25
ATOM     25  C   UNL A   1     -29.460   0.005  23.866  0.00  0.00    +0.243 C 
BRANCH  25  26
ATOM     26  C   UNL A   1     -30.065  -1.377  23.573  0.00  0.00    +0.229 C 
ATOM     27  O   UNL A   1     -30.729  -1.878  24.721  0.00  0.00    -0.216 OA
ENDBRANCH  25  26
ENDBRANCH  24  25
ENDBRANCH  17  24
ENDBRANCH   6  13
BRANCH  11  28
ATOM     28  N   UNL A   1     -25.301  -0.141  29.057  0.00  0.00    -0.220 N 
BRANCH  28  29
ATOM     29  C   UNL A   1     -26.530  -0.390  28.523  0.00  0.00    +0.175 C 
ATOM     30  N   UNL A   1     -27.445  -0.670  28.106  0.00  0.00    -0.174 NA
ENDBRANCH  28  29
BRANCH  28  31
ATOM     31  C   UNL A   1     -24.855  -1.012  30.143  0.00  0.00    +0.126 C 
BRANCH  31  32
ATOM     32  C   UNL A   1     -24.973  -2.505  29.788  0.00  0.00    -0.002 C 
ATOM     33  C   UNL A   1     -23.906  -3.173  29.146  0.00  0.00    -0.003 C 
ATOM     34  C   UNL A   1     -23.989  -4.549  28.853  0.00  0.00    -0.000 C 
ATOM     35  C   UNL A   1     -25.137  -5.280  29.205  0.00  0.00    -0.000 C 
ATOM     36  C   UNL A   1     -26.232  -4.611  29.784  0.00  0.00    -0.000 C 
ATOM     37  C   UNL A   1     -26.155  -3.232  30.065  0.00  0.00    -0.003 C 
ENDBRANCH  31  32
BRANCH  31  38
ATOM     38  C   UNL A   1     -25.387  -0.679  31.571  0.00  0.00    +0.096 C 
ATOM     39  C   UNL A   1     -25.189   0.773  32.028  0.00  0.00    +0.021 C 
ATOM     40  C   UNL A   1     -25.336   0.684  33.544  0.00  0.00    +0.020 C 
ATOM     41  C   UNL A   1     -24.829  -0.715  33.905  0.00  0.00    +0.089 C 
ATOM     42  N   UNL A   1     -24.758  -1.481  32.646  0.00  0.00    -0.217 NA
ENDBRANCH  31  38
ENDBRANCH  28  31
ENDBRANCH  11  28
TORSDOF 10
