REMARK  Name = outputs/IAG933/test6/raw/output_7171_IAG933_linker_design_.xyz
REMARK  13 active torsions:
REMARK  status: ('A' for Active; 'I' for Inactive)
REMARK    1  A    between atoms: C_1  and  C_2
REMARK    2  A    between atoms: C_1  and  C_8
REMARK    3  A    between atoms: C_1  and  C_34
REMARK    4  A    between atoms: C_13  and  C_30
REMARK    5  A    between atoms: C_14  and  C_15
REMARK    6  A    between atoms: C_21  and  O_22
REMARK    7  A    between atoms: O_22  and  C_23
REMARK    8  A    between atoms: C_23  and  C_24
REMARK    9  A    between atoms: C_28  and  N_37
REMARK   10  A    between atoms: C_31  and  C_41
REMARK   11  A    between atoms: C_34  and  N_37
REMARK   12  A    between atoms: C_34  and  C_39
REMARK   13  A    between atoms: C_38  and  C_39
REMARK                            x       y       z     vdW  Elec       q    Type
REMARK                         _______ _______ _______ _____ _____    ______ ____
ROOT
ATOM      1  C   UNL A   1     -23.714   1.215  27.838  0.00  0.00    +0.049 C 
ATOM      2  C   UNL A   1     -24.320   1.442  26.625  0.00  0.00    -0.003 C 
ATOM      3  C   UNL A   1     -22.334   1.317  27.495  0.00  0.00    +0.133 C 
ATOM      4  C   UNL A   1     -22.119   1.613  26.161  0.00  0.00    +0.166 C 
ATOM      5  O   UNL A   1     -21.986   1.961  23.946  0.00  0.00    -0.168 OA
ATOM      6  C   UNL A   1     -23.456   1.707  25.595  0.00  0.00    +0.043 C 
ATOM      7  C   UNL A   1     -23.338   1.817  24.186  0.00  0.00    +0.225 C 
ATOM      8  O   UNL A   1     -21.261   1.935  25.201  0.00  0.00    -0.337 OA
ENDROOT
BRANCH   2   9
ATOM      9  C   UNL A   1     -25.688   1.614  26.461  0.00  0.00    +0.093 C 
ATOM     10  C   UNL A   1     -26.250   2.920  26.395  0.00  0.00    +0.059 C 
ATOM     11  C   UNL A   1     -27.438   3.091  25.645  0.00  0.00    +0.102 C 
ATOM     12  N   UNL A   1     -28.075   2.089  25.003  0.00  0.00    -0.212 NA
ATOM     13  C   UNL A   1     -27.543   0.849  25.079  0.00  0.00    +0.234 C 
ATOM     14  C   UNL A   1     -26.354   0.576  25.777  0.00  0.00    +0.244 C 
ATOM     15  F   UNL A   1     -25.860  -0.681  25.795  0.00  0.00    -0.227 F 
BRANCH  10  16
ATOM     16  C   UNL A   1     -25.642   4.093  27.123  0.00  0.00    +0.263 C 
ATOM     17  N   UNL A   1     -25.614   5.252  26.449  0.00  0.00    -0.200 NA
ATOM     18  C   UNL A   1     -25.026   6.479  26.963  0.00  0.00    +0.139 C 
ATOM     19  O   UNL A   1     -25.143   3.966  28.243  0.00  0.00    -0.269 OA
ENDBRANCH  10  16
BRANCH  13  20
ATOM     20  O   UNL A   1     -28.193  -0.208  24.477  0.00  0.00    -0.459 OA
BRANCH  20  21
ATOM     21  C   UNL A   1     -29.460   0.005  23.866  0.00  0.00    +0.242 C 
BRANCH  21  22
ATOM     22  C   UNL A   1     -30.065  -1.377  23.573  0.00  0.00    +0.229 C 
ATOM     23  O   UNL A   1     -30.729  -1.878  24.721  0.00  0.00    -0.216 OA
ENDBRANCH  21  22
ENDBRANCH  20  21
ENDBRANCH  13  20
ENDBRANCH   2   9
BRANCH   3  25
ATOM     24  F   UNL A   1     -20.194   1.756  27.777  0.00  0.00    -0.234 F 
ATOM     25  C   UNL A   1     -21.251   0.988  28.065  0.00  0.00    +0.206 C 
ENDBRANCH   3  25
BRANCH   1  26
ATOM     26  N   UNL A   1     -24.480   1.017  28.970  0.00  0.00    -0.239 NA
BRANCH  26  27
ATOM     27  C   UNL A   1     -25.397  -0.114  28.985  0.00  0.00    +0.140 C 
BRANCH  27  29
ATOM     28  O   UNL A   1     -27.837  -0.448  28.617  0.00  0.00    -0.207 OA
ATOM     29  C   UNL A   1     -26.870   0.310  29.047  0.00  0.00    +0.236 C 
BRANCH  29  30
ATOM     30  C   UNL A   1     -27.145   1.630  29.453  0.00  0.00    -0.044 C 
ATOM     31  C   UNL A   1     -27.436   2.828  29.736  0.00  0.00    -0.012 C 
ENDBRANCH  29  30
ENDBRANCH  27  29
BRANCH  27  32
ATOM     32  C   UNL A   1     -24.855  -1.012  30.143  0.00  0.00    +0.062 C 
BRANCH  32  33
ATOM     33  C   UNL A   1     -24.973  -2.505  29.788  0.00  0.00    -0.019 C 
ATOM     34  C   UNL A   1     -23.906  -3.173  29.146  0.00  0.00    -0.004 C 
ATOM     35  C   UNL A   1     -23.989  -4.549  28.853  0.00  0.00    -0.000 C 
ATOM     36  C   UNL A   1     -25.137  -5.280  29.205  0.00  0.00    -0.000 C 
ATOM     37  C   UNL A   1     -26.232  -4.611  29.784  0.00  0.00    -0.000 C 
ATOM     38  C   UNL A   1     -26.155  -3.232  30.065  0.00  0.00    -0.004 C 
ENDBRANCH  32  33
BRANCH  32  39
ATOM     39  C   UNL A   1     -25.387  -0.679  31.571  0.00  0.00    +0.079 C 
ATOM     40  C   UNL A   1     -25.189   0.773  32.028  0.00  0.00    +0.019 C 
ATOM     41  C   UNL A   1     -25.336   0.684  33.544  0.00  0.00    +0.020 C 
ATOM     42  C   UNL A   1     -24.829  -0.715  33.905  0.00  0.00    +0.089 C 
ATOM     43  N   UNL A   1     -24.758  -1.481  32.646  0.00  0.00    -0.219 NA
ENDBRANCH  32  39
ENDBRANCH  27  32
ENDBRANCH  26  27
ENDBRANCH   1  26
TORSDOF 13
