REMARK  Name = outputs/IAG933/test6/raw/output_7173_IAG933_linker_design_.xyz
REMARK  12 active torsions:
REMARK  status: ('A' for Active; 'I' for Inactive)
REMARK    1  A    between atoms: C_1  and  C_2
REMARK    2  A    between atoms: C_1  and  C_8
REMARK    3  A    between atoms: C_1  and  N_36
REMARK    4  A    between atoms: C_13  and  C_48
REMARK    5  A    between atoms: C_14  and  C_15
REMARK    6  A    between atoms: C_21  and  O_22
REMARK    7  A    between atoms: O_22  and  C_23
REMARK    8  A    between atoms: C_23  and  C_24
REMARK    9  A    between atoms: C_28  and  C_42
REMARK   10  A    between atoms: C_39  and  C_47
REMARK   11  A    between atoms: C_40  and  C_46
REMARK   12  A    between atoms: N_41  and  C_46
REMARK                            x       y       z     vdW  Elec       q    Type
REMARK                         _______ _______ _______ _____ _____    ______ ____
ROOT
ATOM      1  O   UNL A   1     -23.661   0.677  27.418  0.00  0.00    -0.341 OA
ATOM      2  N   UNL A   1     -24.450   0.099  29.480  0.00  0.00    -0.238 NA
ATOM      3  C   UNL A   1     -23.164   0.228  28.678  0.00  0.00    +0.177 C 
ATOM      4  C   UNL A   1     -25.646   0.783  28.762  0.00  0.00    +0.165 C 
ATOM      5  C   UNL A   1     -24.785   1.249  27.614  0.00  0.00    +0.147 C 
ENDROOT
BRANCH   5   6
ATOM      6  C   UNL A   1     -25.688   1.614  26.461  0.00  0.00    +0.099 C 
ATOM      7  C   UNL A   1     -26.250   2.920  26.395  0.00  0.00    +0.057 C 
ATOM      8  C   UNL A   1     -27.438   3.091  25.645  0.00  0.00    +0.102 C 
ATOM      9  N   UNL A   1     -28.075   2.089  25.003  0.00  0.00    -0.212 NA
ATOM     10  C   UNL A   1     -27.543   0.849  25.079  0.00  0.00    +0.234 C 
ATOM     11  C   UNL A   1     -26.354   0.576  25.777  0.00  0.00    +0.242 C 
ATOM     12  F   UNL A   1     -25.860  -0.681  25.795  0.00  0.00    -0.227 F 
BRANCH   7  13
ATOM     13  C   UNL A   1     -25.642   4.093  27.123  0.00  0.00    +0.263 C 
ATOM     14  N   UNL A   1     -25.614   5.252  26.449  0.00  0.00    -0.200 NA
ATOM     15  C   UNL A   1     -25.026   6.479  26.963  0.00  0.00    +0.139 C 
ATOM     16  O   UNL A   1     -25.143   3.966  28.243  0.00  0.00    -0.269 OA
ENDBRANCH   7  13
BRANCH  10  17
ATOM     17  O   UNL A   1     -28.193  -0.208  24.477  0.00  0.00    -0.459 OA
BRANCH  17  18
ATOM     18  C   UNL A   1     -29.460   0.005  23.866  0.00  0.00    +0.242 C 
BRANCH  18  19
ATOM     19  C   UNL A   1     -30.065  -1.377  23.573  0.00  0.00    +0.229 C 
ATOM     20  O   UNL A   1     -30.729  -1.878  24.721  0.00  0.00    -0.216 OA
ENDBRANCH  18  19
ENDBRANCH  17  18
ENDBRANCH  10  17
ENDBRANCH   5   6
BRANCH   4  21
ATOM     21  C   UNL A   1     -27.337   0.568  28.805  0.00  0.00    +0.243 C 
ATOM     22  C   UNL A   1     -28.033   2.178  30.575  0.00  0.00    +0.115 C 
ATOM     23  N   UNL A   1     -28.152   1.662  29.105  0.00  0.00    -0.268 N 
ATOM     24  O   UNL A   1     -27.801  -0.545  28.698  0.00  0.00    -0.273 OA
BRANCH  23  25
ATOM     25  C   UNL A   1     -29.163   2.030  28.401  0.00  0.00    +0.180 C 
BRANCH  25  32
ATOM     26  C   UNL A   1     -32.206   1.760  25.747  0.00  0.00    +0.022 C 
ATOM     27  C   UNL A   1     -31.291   4.059  25.461  0.00  0.00    +0.086 C 
ATOM     28  C   UNL A   1     -31.915   1.905  27.250  0.00  0.00    +0.101 C 
ATOM     29  O   UNL A   1     -30.175   5.290  27.094  0.00  0.00    -0.275 OA
ATOM     30  O   UNL A   1     -30.790   2.877  29.866  0.00  0.00    -0.273 OA
ATOM     31  C   UNL A   1     -30.763   4.170  26.805  0.00  0.00    +0.231 C 
ATOM     32  C   UNL A   1     -30.368   2.680  28.789  0.00  0.00    +0.252 C 
ATOM     33  N   UNL A   1     -31.006   3.065  27.686  0.00  0.00    -0.229 N 
ATOM     34  C   UNL A   1     -31.591   2.840  24.893  0.00  0.00    +0.011 C 
ENDBRANCH  25  32
ENDBRANCH  23  25
ENDBRANCH   4  21
BRANCH   3  36
ATOM     35  C   UNL A   1     -21.417   1.692  27.365  0.00  0.00    +0.004 C 
ATOM     36  C   UNL A   1     -21.725   0.916  28.646  0.00  0.00    +0.047 C 
ENDBRANCH   3  36
BRANCH   2  37
ATOM     37  C   UNL A   1     -24.855  -1.012  30.143  0.00  0.00    +0.099 C 
BRANCH  37  38
ATOM     38  C   UNL A   1     -24.973  -2.505  29.788  0.00  0.00    -0.006 C 
ATOM     39  C   UNL A   1     -23.906  -3.173  29.146  0.00  0.00    -0.003 C 
ATOM     40  C   UNL A   1     -23.989  -4.549  28.853  0.00  0.00    -0.000 C 
ATOM     41  C   UNL A   1     -25.137  -5.280  29.205  0.00  0.00    -0.000 C 
ATOM     42  C   UNL A   1     -26.232  -4.611  29.784  0.00  0.00    -0.000 C 
ATOM     43  C   UNL A   1     -26.155  -3.232  30.065  0.00  0.00    -0.003 C 
ENDBRANCH  37  38
BRANCH  37  44
ATOM     44  C   UNL A   1     -25.387  -0.679  31.571  0.00  0.00    +0.092 C 
ATOM     45  C   UNL A   1     -25.189   0.773  32.028  0.00  0.00    +0.021 C 
ATOM     46  C   UNL A   1     -25.336   0.684  33.544  0.00  0.00    +0.020 C 
ATOM     47  C   UNL A   1     -24.829  -0.715  33.905  0.00  0.00    +0.089 C 
ATOM     48  N   UNL A   1     -24.758  -1.481  32.646  0.00  0.00    -0.218 NA
ENDBRANCH  37  44
ENDBRANCH   2  37
TORSDOF 12
