REMARK  Name = outputs/IAG933/test6/raw/output_7174_IAG933_linker_design_.xyz
REMARK  8 active torsions:
REMARK  status: ('A' for Active; 'I' for Inactive)
REMARK    1  A    between atoms: C_1  and  C_2
REMARK    2  A    between atoms: C_1  and  C_8
REMARK    3  A    between atoms: C_1  and  N_36
REMARK    4  A    between atoms: C_13  and  C_28
REMARK    5  A    between atoms: C_14  and  C_15
REMARK    6  A    between atoms: C_21  and  O_22
REMARK    7  A    between atoms: O_22  and  C_23
REMARK    8  A    between atoms: C_23  and  C_24
REMARK                            x       y       z     vdW  Elec       q    Type
REMARK                         _______ _______ _______ _____ _____    ______ ____
ROOT
ATOM      1  C   UNL A   1     -24.317   1.506  26.984  0.00  0.00    +0.275 C 
ATOM      2  C   UNL A   1     -23.128   1.923  26.318  0.00  0.00    +0.249 C 
ATOM      3  N   UNL A   1     -24.152   1.119  28.173  0.00  0.00    -0.056 NA
ATOM      4  C   UNL A   1     -21.821   1.617  26.757  0.00  0.00    +0.231 C 
ATOM      5  C   UNL A   1     -23.625   0.341  28.928  0.00  0.00    +0.392 C 
ATOM      6  O   UNL A   1     -22.280  -0.293  30.709  0.00  0.00    -0.283 OA
ATOM      7  F   UNL A   1     -20.927   2.058  25.943  0.00  0.00    -0.231 F 
ATOM      8  F   UNL A   1     -23.158   2.675  25.201  0.00  0.00    -0.229 F 
ATOM      9  N   UNL A   1     -24.548  -0.113  29.154  0.00  0.00    -0.027 NA
ATOM     10  C   UNL A   1     -22.277  -0.088  29.525  0.00  0.00    +0.260 C 
ATOM     11  C   UNL A   1     -20.944  -0.186  28.660  0.00  0.00    +0.115 C 
ATOM     12  F   UNL A   1     -20.162   0.999  28.261  0.00  0.00    -0.234 F 
ATOM     13  C   UNL A   1     -21.088   0.792  27.605  0.00  0.00    +0.204 C 
ENDROOT
BRANCH   1  14
ATOM     14  C   UNL A   1     -25.688   1.614  26.461  0.00  0.00    +0.067 C 
ATOM     15  C   UNL A   1     -26.250   2.920  26.395  0.00  0.00    +0.077 C 
ATOM     16  C   UNL A   1     -27.438   3.091  25.645  0.00  0.00    +0.106 C 
ATOM     17  N   UNL A   1     -28.075   2.089  25.003  0.00  0.00    -0.208 NA
ATOM     18  C   UNL A   1     -27.543   0.849  25.079  0.00  0.00    +0.253 C 
ATOM     19  C   UNL A   1     -26.354   0.576  25.777  0.00  0.00    +0.193 C 
ATOM     20  F   UNL A   1     -25.860  -0.681  25.795  0.00  0.00    -0.199 F 
BRANCH  15  21
ATOM     21  C   UNL A   1     -25.642   4.093  27.123  0.00  0.00    +0.266 C 
ATOM     22  N   UNL A   1     -25.614   5.252  26.449  0.00  0.00    -0.200 NA
ATOM     23  C   UNL A   1     -25.026   6.479  26.963  0.00  0.00    +0.139 C 
ATOM     24  O   UNL A   1     -25.143   3.966  28.243  0.00  0.00    -0.268 OA
ENDBRANCH  15  21
BRANCH  18  25
ATOM     25  O   UNL A   1     -28.193  -0.208  24.477  0.00  0.00    -0.456 OA
BRANCH  25  26
ATOM     26  C   UNL A   1     -29.460   0.005  23.866  0.00  0.00    +0.243 C 
BRANCH  26  27
ATOM     27  C   UNL A   1     -30.065  -1.377  23.573  0.00  0.00    +0.229 C 
ATOM     28  O   UNL A   1     -30.729  -1.878  24.721  0.00  0.00    -0.216 OA
ENDBRANCH  26  27
ENDBRANCH  25  26
ENDBRANCH  18  25
ENDBRANCH   1  14
BRANCH   9  29
ATOM     29  C   UNL A   1     -24.855  -1.012  30.143  0.00  0.00    +0.243 C 
BRANCH  29  30
ATOM     30  C   UNL A   1     -24.973  -2.505  29.788  0.00  0.00    +0.025 C 
ATOM     31  C   UNL A   1     -23.906  -3.173  29.146  0.00  0.00    -0.000 C 
ATOM     32  C   UNL A   1     -23.989  -4.549  28.853  0.00  0.00    -0.000 C 
ATOM     33  C   UNL A   1     -25.137  -5.280  29.205  0.00  0.00    -0.000 C 
ATOM     34  C   UNL A   1     -26.232  -4.611  29.784  0.00  0.00    -0.000 C 
ATOM     35  C   UNL A   1     -26.155  -3.232  30.065  0.00  0.00    -0.000 C 
ENDBRANCH  29  30
BRANCH  29  36
ATOM     36  C   UNL A   1     -25.387  -0.679  31.571  0.00  0.00    +0.124 C 
ATOM     37  C   UNL A   1     -25.189   0.773  32.028  0.00  0.00    +0.024 C 
ATOM     38  C   UNL A   1     -25.336   0.684  33.544  0.00  0.00    +0.020 C 
ATOM     39  C   UNL A   1     -24.829  -0.715  33.905  0.00  0.00    +0.089 C 
ATOM     40  N   UNL A   1     -24.758  -1.481  32.646  0.00  0.00    -0.215 NA
ENDBRANCH  29  36
ENDBRANCH   9  29
TORSDOF 8
