REMARK  Name = outputs/IAG933/test6/raw/output_7176_IAG933_linker_design_.xyz
REMARK  13 active torsions:
REMARK  status: ('A' for Active; 'I' for Inactive)
REMARK    1  A    between atoms: C_1  and  C_2
REMARK    2  A    between atoms: C_1  and  C_8
REMARK    3  A    between atoms: C_9  and  C_41
REMARK    4  A    between atoms: C_13  and  O_31
REMARK    5  A    between atoms: C_14  and  C_15
REMARK    6  A    between atoms: C_21  and  O_22
REMARK    7  A    between atoms: O_22  and  C_23
REMARK    8  A    between atoms: C_23  and  C_24
REMARK    9  A    between atoms: O_29  and  C_37
REMARK   10  A    between atoms: O_31  and  C_34
REMARK   11  A    between atoms: N_39  and  C_41
REMARK   12  A    between atoms: C_41  and  C_42
REMARK   13  A    between atoms: C_42  and  C_45
REMARK                            x       y       z     vdW  Elec       q    Type
REMARK                         _______ _______ _______ _____ _____    ______ ____
ROOT
ATOM      1  C   UNL A   1     -21.619   1.261  27.742  0.00  0.00    +0.331 C 
ATOM      2  C   UNL A   1     -23.660   1.535  27.605  0.00  0.00    +0.335 C 
ATOM      3  O   UNL A   1     -22.589   2.307  25.723  0.00  0.00    -0.287 OA
ATOM      4  C   UNL A   1     -23.535   1.338  29.137  0.00  0.00    +0.380 C 
ATOM      5  N   UNL A   1     -24.311   1.841  30.057  0.00  0.00    -0.036 NA
ATOM      6  C   UNL A   1     -22.585   1.807  26.886  0.00  0.00    +0.256 C 
ATOM      7  N   UNL A   1     -22.339   0.972  29.114  0.00  0.00    -0.054 NA
ENDROOT
BRANCH   2   8
ATOM      8  O   UNL A   1     -24.707   1.117  27.281  0.00  0.00    -0.457 OA
BRANCH   8   9
ATOM      9  C   UNL A   1     -25.688   1.614  26.461  0.00  0.00    +0.178 C 
ATOM     10  C   UNL A   1     -26.250   2.920  26.395  0.00  0.00    +0.111 C 
ATOM     11  C   UNL A   1     -27.438   3.091  25.645  0.00  0.00    +0.110 C 
ATOM     12  N   UNL A   1     -28.075   2.089  25.003  0.00  0.00    -0.208 NA
ATOM     13  C   UNL A   1     -27.543   0.849  25.079  0.00  0.00    +0.256 C 
ATOM     14  C   UNL A   1     -26.354   0.576  25.777  0.00  0.00    +0.227 C 
ATOM     15  F   UNL A   1     -25.860  -0.681  25.795  0.00  0.00    -0.196 F 
BRANCH  10  16
ATOM     16  C   UNL A   1     -25.642   4.093  27.123  0.00  0.00    +0.269 C 
ATOM     17  N   UNL A   1     -25.614   5.252  26.449  0.00  0.00    -0.200 NA
ATOM     18  C   UNL A   1     -25.026   6.479  26.963  0.00  0.00    +0.139 C 
ATOM     19  O   UNL A   1     -25.143   3.966  28.243  0.00  0.00    -0.268 OA
ENDBRANCH  10  16
BRANCH  13  20
ATOM     20  O   UNL A   1     -28.193  -0.208  24.477  0.00  0.00    -0.456 OA
BRANCH  20  21
ATOM     21  C   UNL A   1     -29.460   0.005  23.866  0.00  0.00    +0.243 C 
BRANCH  21  22
ATOM     22  C   UNL A   1     -30.065  -1.377  23.573  0.00  0.00    +0.229 C 
ATOM     23  O   UNL A   1     -30.729  -1.878  24.721  0.00  0.00    -0.216 OA
ENDBRANCH  21  22
ENDBRANCH  20  21
ENDBRANCH  13  20
ENDBRANCH   8   9
ENDBRANCH   2   8
BRANCH   5  24
ATOM     24  C   UNL A   1     -25.359   1.968  31.042  0.00  0.00    +0.210 C 
BRANCH  24  26
ATOM     25  C   UNL A   1     -25.387  -0.679  31.571  0.00  0.00    +0.081 C 
ATOM     26  C   UNL A   1     -25.189   0.773  32.028  0.00  0.00    +0.065 C 
ATOM     27  C   UNL A   1     -25.336   0.684  33.544  0.00  0.00    +0.024 C 
ATOM     28  C   UNL A   1     -24.829  -0.715  33.905  0.00  0.00    +0.089 C 
ATOM     29  N   UNL A   1     -24.758  -1.481  32.646  0.00  0.00    -0.219 NA
BRANCH  25  30
ATOM     30  C   UNL A   1     -24.855  -1.012  30.143  0.00  0.00    +0.044 C 
BRANCH  30  31
ATOM     31  C   UNL A   1     -24.973  -2.505  29.788  0.00  0.00    -0.021 C 
ATOM     32  C   UNL A   1     -23.906  -3.173  29.146  0.00  0.00    -0.004 C 
ATOM     33  C   UNL A   1     -23.989  -4.549  28.853  0.00  0.00    -0.000 C 
ATOM     34  C   UNL A   1     -25.137  -5.280  29.205  0.00  0.00    -0.000 C 
ATOM     35  C   UNL A   1     -26.232  -4.611  29.784  0.00  0.00    -0.000 C 
ATOM     36  C   UNL A   1     -26.155  -3.232  30.065  0.00  0.00    -0.004 C 
ENDBRANCH  30  31
ENDBRANCH  25  30
ENDBRANCH  24  26
BRANCH  24  37
ATOM     37  C   UNL A   1     -25.040   3.253  31.790  0.00  0.00    +0.077 C 
BRANCH  37  43
ATOM     38  C   UNL A   1     -26.473   3.188  33.817  0.00  0.00    +0.033 C 
ATOM     39  C   UNL A   1     -28.329   4.706  34.019  0.00  0.00    +0.037 C 
ATOM     40  C   UNL A   1     -26.816   4.917  32.168  0.00  0.00    -0.004 C 
ATOM     41  C   UNL A   1     -27.569   3.678  34.561  0.00  0.00    +0.138 C 
ATOM     42  C   UNL A   1     -27.959   5.316  32.820  0.00  0.00    +0.003 C 
ATOM     43  C   UNL A   1     -26.137   3.809  32.655  0.00  0.00    -0.015 C 
BRANCH  41  45
ATOM     44  C   UNL A   1     -28.766   3.747  36.597  0.00  0.00    +0.253 C 
ATOM     45  O   UNL A   1     -27.698   3.205  35.847  0.00  0.00    -0.471 OA
ENDBRANCH  41  45
ENDBRANCH  37  43
ENDBRANCH  24  37
ENDBRANCH   5  24
TORSDOF 13
