MODEL 717
MODEL 1
REMARK VINA RESULT:    -5.179      0.000      0.000
REMARK INTER + INTRA:          -5.939
REMARK INTER:                  -5.784
REMARK INTRA:                  -0.154
REMARK UNBOUND:                -0.154
REMARK  Name = No_717-gen_results/8p0m/2024-11-27-11-27-31/
REMARK  2 active torsions:
REMARK  status: ('A' for Active; 'I' for Inactive)
REMARK    1  A    between atoms: C_2  and  C_8
REMARK    2  A    between atoms: C_8  and  C_10
REMARK                            x       y       z     vdW  Elec       q    Type
REMARK                         _______ _______ _______ _____ _____    ______ ____
ROOT
ATOM      1  C   UNL A   1     -22.491  -1.129  29.361  0.00  0.00    +0.001 A 
ATOM      2  C   UNL A   1     -23.576  -1.397  28.901  0.00  0.00    -0.001 A 
ATOM      3  C   UNL A   1     -24.261  -0.575  28.027  0.00  0.00    +0.001 A 
ATOM      4  C   UNL A   1     -23.633   0.635  27.619  0.00  0.00    +0.042 A 
ATOM      5  C   UNL A   1     -22.353   0.807  28.025  0.00  0.00    +0.196 A 
ATOM      6  C   UNL A   1     -21.762  -0.054  28.830  0.00  0.00    +0.042 A 
ATOM      7  O   UNL A   1     -21.731   1.938  27.591  0.00  0.00    -0.287 OA
ENDROOT
BRANCH   2   8
ATOM      8  C   UNL A   1     -24.401  -2.620  29.391  0.00  0.00    +0.136 C 
ATOM      9  N   UNL A   1     -25.170  -2.632  30.208  0.00  0.00    -0.123 NA
BRANCH   8  10
ATOM     10  C   UNL A   1     -24.182  -3.977  28.726  0.00  0.00    -0.003 C 
ATOM     11  C   UNL A   1     -24.675  -5.057  28.985  0.00  0.00    -0.003 C 
ENDBRANCH   8  10
ENDBRANCH   2   8
TORSDOF 2
ENDMDL
ENDMDL
