REMARK  Name = outputs/IAG933/test6/raw/output_7181_IAG933_linker_design_.xyz
REMARK  14 active torsions:
REMARK  status: ('A' for Active; 'I' for Inactive)
REMARK    1  A    between atoms: C_1  and  C_2
REMARK    2  A    between atoms: C_1  and  C_8
REMARK    3  A    between atoms: C_1  and  C_36
REMARK    4  A    between atoms: C_13  and  C_43
REMARK    5  A    between atoms: C_14  and  C_15
REMARK    6  A    between atoms: C_21  and  O_22
REMARK    7  A    between atoms: O_22  and  C_23
REMARK    8  A    between atoms: C_23  and  C_24
REMARK    9  A    between atoms: C_28  and  C_39
REMARK   10  A    between atoms: C_28  and  N_40
REMARK   11  A    between atoms: C_31  and  C_38
REMARK   12  A    between atoms: C_36  and  N_40
REMARK   13  A    between atoms: C_36  and  C_42
REMARK   14  A    between atoms: C_38  and  C_39
REMARK                            x       y       z     vdW  Elec       q    Type
REMARK                         _______ _______ _______ _____ _____    ______ ____
ROOT
ATOM      1  C   UNL A   1     -22.812   1.031  28.846  0.00  0.00    +0.021 C 
ATOM      2  C   UNL A   1     -21.631   1.430  28.204  0.00  0.00    +0.179 C 
ATOM      3  C   UNL A   1     -23.537   1.562  26.434  0.00  0.00    -0.038 C 
ATOM      4  C   UNL A   1     -22.641   2.007  26.138  0.00  0.00    +0.325 C 
ATOM      5  F   UNL A   1     -22.766   2.418  24.924  0.00  0.00    -0.154 F 
ATOM      6  O   UNL A   1     -21.552   1.889  26.926  0.00  0.00    -0.421 OA
ATOM      7  C   UNL A   1     -24.190   0.836  28.406  0.00  0.00    +0.071 C 
ATOM      8  C   UNL A   1     -24.440   1.327  27.121  0.00  0.00    +0.025 C 
ENDROOT
BRANCH   8   9
ATOM      9  C   UNL A   1     -25.688   1.614  26.461  0.00  0.00    +0.042 C 
ATOM     10  C   UNL A   1     -26.250   2.920  26.395  0.00  0.00    +0.077 C 
ATOM     11  C   UNL A   1     -27.438   3.091  25.645  0.00  0.00    +0.107 C 
ATOM     12  N   UNL A   1     -28.075   2.089  25.003  0.00  0.00    -0.208 NA
ATOM     13  C   UNL A   1     -27.543   0.849  25.079  0.00  0.00    +0.253 C 
ATOM     14  C   UNL A   1     -26.354   0.576  25.777  0.00  0.00    +0.193 C 
ATOM     15  F   UNL A   1     -25.860  -0.681  25.795  0.00  0.00    -0.199 F 
BRANCH  10  16
ATOM     16  C   UNL A   1     -25.642   4.093  27.123  0.00  0.00    +0.266 C 
ATOM     17  N   UNL A   1     -25.614   5.252  26.449  0.00  0.00    -0.200 NA
ATOM     18  C   UNL A   1     -25.026   6.479  26.963  0.00  0.00    +0.139 C 
ATOM     19  O   UNL A   1     -25.143   3.966  28.243  0.00  0.00    -0.268 OA
ENDBRANCH  10  16
BRANCH  13  20
ATOM     20  O   UNL A   1     -28.193  -0.208  24.477  0.00  0.00    -0.456 OA
BRANCH  20  21
ATOM     21  C   UNL A   1     -29.460   0.005  23.866  0.00  0.00    +0.243 C 
BRANCH  21  22
ATOM     22  C   UNL A   1     -30.065  -1.377  23.573  0.00  0.00    +0.229 C 
ATOM     23  O   UNL A   1     -30.729  -1.878  24.721  0.00  0.00    -0.216 OA
ENDBRANCH  21  22
ENDBRANCH  20  21
ENDBRANCH  13  20
ENDBRANCH   8   9
BRANCH   7  24
ATOM     24  C   UNL A   1     -25.242  -0.107  29.012  0.00  0.00    +0.087 C 
BRANCH  24  25
ATOM     25  C   UNL A   1     -24.855  -1.012  30.143  0.00  0.00    +0.055 C 
BRANCH  25  26
ATOM     26  C   UNL A   1     -24.973  -2.505  29.788  0.00  0.00    -0.020 C 
ATOM     27  C   UNL A   1     -23.906  -3.173  29.146  0.00  0.00    -0.004 C 
ATOM     28  C   UNL A   1     -23.989  -4.549  28.853  0.00  0.00    -0.000 C 
ATOM     29  C   UNL A   1     -25.137  -5.280  29.205  0.00  0.00    -0.000 C 
ATOM     30  C   UNL A   1     -26.232  -4.611  29.784  0.00  0.00    -0.000 C 
ATOM     31  C   UNL A   1     -26.155  -3.232  30.065  0.00  0.00    -0.004 C 
ENDBRANCH  25  26
BRANCH  25  32
ATOM     32  C   UNL A   1     -25.387  -0.679  31.571  0.00  0.00    +0.078 C 
ATOM     33  C   UNL A   1     -25.189   0.773  32.028  0.00  0.00    +0.019 C 
ATOM     34  C   UNL A   1     -25.336   0.684  33.544  0.00  0.00    +0.020 C 
ATOM     35  C   UNL A   1     -24.829  -0.715  33.905  0.00  0.00    +0.089 C 
ATOM     36  N   UNL A   1     -24.758  -1.481  32.646  0.00  0.00    -0.219 NA
ENDBRANCH  25  32
ENDBRANCH  24  25
BRANCH  24  37
ATOM     37  N   UNL A   1     -26.635  -0.032  28.683  0.00  0.00    -0.218 NA
BRANCH  37  38
ATOM     38  C   UNL A   1     -28.012  -0.114  28.493  0.00  0.00    +0.097 C 
BRANCH  38  39
ATOM     39  C   UNL A   1     -29.164   0.873  28.819  0.00  0.00    +0.086 C 
BRANCH  39  41
ATOM     40  O   UNL A   1     -28.006   1.283  30.824  0.00  0.00    -0.293 OA
ATOM     41  C   UNL A   1     -28.674   1.769  30.040  0.00  0.00    +0.185 C 
BRANCH  41  43
ATOM     42  O   UNL A   1     -29.755   3.450  31.091  0.00  0.00    -0.212 OA
ATOM     43  C   UNL A   1     -28.971   3.197  29.890  0.00  0.00    +0.246 C 
ENDBRANCH  41  43
ENDBRANCH  39  41
ENDBRANCH  38  39
ENDBRANCH  37  38
ENDBRANCH  24  37
ENDBRANCH   7  24
TORSDOF 14
