MODEL 718
MODEL 1
REMARK VINA RESULT:    -5.828      0.000      0.000
REMARK INTER + INTRA:          -5.828
REMARK INTER:                  -5.828
REMARK INTRA:                   0.000
REMARK UNBOUND:                 0.000
REMARK  Name = No_718-gen_results/8p0m/2024-11-27-11-27-31/
REMARK  0 active torsions:
REMARK  status: ('A' for Active; 'I' for Inactive)
REMARK                            x       y       z     vdW  Elec       q    Type
REMARK                         _______ _______ _______ _____ _____    ______ ____
ROOT
ATOM      1  C   UNL A   1     -24.069  -4.384  28.882  0.00  0.00    +0.019 A 
ATOM      2  C   UNL A   1     -24.170  -3.183  28.986  0.00  0.00    +0.081 A 
ATOM      3  N   UNL A   1     -23.179  -2.361  28.786  0.00  0.00    -0.250 NA
ATOM      4  C   UNL A   1     -25.273  -5.216  29.126  0.00  0.00    +0.002 A 
ATOM      5  C   UNL A   1     -26.368  -4.642  29.718  0.00  0.00    +0.000 A 
ATOM      6  C   UNL A   1     -26.421  -3.313  30.024  0.00  0.00    +0.002 A 
ATOM      7  C   UNL A   1     -25.304  -2.519  29.668  0.00  0.00    +0.018 A 
ATOM      8  C   UNL A   1     -22.933  -1.202  29.396  0.00  0.00    +0.059 A 
ATOM      9  C   UNL A   1     -21.870  -0.425  29.255  0.00  0.00    +0.052 C 
ATOM     10  C   UNL A   1     -24.112  -0.442  29.796  0.00  0.00    +0.015 A 
ATOM     11  C   UNL A   1     -25.258  -1.144  30.067  0.00  0.00    +0.003 A 
ENDROOT
TORSDOF 0
ENDMDL
ENDMDL
