REMARK  Name = outputs/IAG933/test6/raw/output_7191_IAG933_linker_design_.xyz
REMARK  10 active torsions:
REMARK  status: ('A' for Active; 'I' for Inactive)
REMARK    1  A    between atoms: C_1  and  C_2
REMARK    2  A    between atoms: C_1  and  C_8
REMARK    3  A    between atoms: C_1  and  C_28
REMARK    4  A    between atoms: C_13  and  C_36
REMARK    5  A    between atoms: C_14  and  C_15
REMARK    6  A    between atoms: C_21  and  O_22
REMARK    7  A    between atoms: O_22  and  C_23
REMARK    8  A    between atoms: C_23  and  C_24
REMARK    9  A    between atoms: C_28  and  N_31
REMARK   10  A    between atoms: C_28  and  C_39
REMARK                            x       y       z     vdW  Elec       q    Type
REMARK                         _______ _______ _______ _____ _____    ______ ____
ROOT
ATOM      1  O   UNL A   1     -20.311   0.939  27.760  0.00  0.00    -0.453 OA
ATOM      2  C   UNL A   1     -23.284   2.150  25.843  0.00  0.00    -0.001 C 
ATOM      3  C   UNL A   1     -20.585  -0.112  28.761  0.00  0.00    +0.323 C 
ATOM      4  N   UNL A   1     -21.858  -0.208  29.017  0.00  0.00    -0.192 NA
ATOM      5  C   UNL A   1     -22.511   0.595  28.056  0.00  0.00    +0.100 C 
ATOM      6  C   UNL A   1     -24.311   1.542  26.673  0.00  0.00    -0.016 C 
ATOM      7  C   UNL A   1     -21.516   1.225  27.245  0.00  0.00    +0.155 C 
ATOM      8  C   UNL A   1     -23.782   0.720  27.843  0.00  0.00    +0.012 C 
ATOM      9  C   UNL A   1     -21.918   2.003  26.111  0.00  0.00    +0.038 C 
ENDROOT
BRANCH   6  10
ATOM     10  C   UNL A   1     -25.688   1.614  26.461  0.00  0.00    +0.092 C 
ATOM     11  C   UNL A   1     -26.250   2.920  26.395  0.00  0.00    +0.059 C 
ATOM     12  C   UNL A   1     -27.438   3.091  25.645  0.00  0.00    +0.102 C 
ATOM     13  N   UNL A   1     -28.075   2.089  25.003  0.00  0.00    -0.212 NA
ATOM     14  C   UNL A   1     -27.543   0.849  25.079  0.00  0.00    +0.234 C 
ATOM     15  C   UNL A   1     -26.354   0.576  25.777  0.00  0.00    +0.244 C 
ATOM     16  F   UNL A   1     -25.860  -0.681  25.795  0.00  0.00    -0.227 F 
BRANCH  11  17
ATOM     17  C   UNL A   1     -25.642   4.093  27.123  0.00  0.00    +0.263 C 
ATOM     18  N   UNL A   1     -25.614   5.252  26.449  0.00  0.00    -0.200 NA
ATOM     19  C   UNL A   1     -25.026   6.479  26.963  0.00  0.00    +0.139 C 
ATOM     20  O   UNL A   1     -25.143   3.966  28.243  0.00  0.00    -0.269 OA
ENDBRANCH  11  17
BRANCH  14  21
ATOM     21  O   UNL A   1     -28.193  -0.208  24.477  0.00  0.00    -0.459 OA
BRANCH  21  22
ATOM     22  C   UNL A   1     -29.460   0.005  23.866  0.00  0.00    +0.242 C 
BRANCH  22  23
ATOM     23  C   UNL A   1     -30.065  -1.377  23.573  0.00  0.00    +0.229 C 
ATOM     24  O   UNL A   1     -30.729  -1.878  24.721  0.00  0.00    -0.216 OA
ENDBRANCH  22  23
ENDBRANCH  21  22
ENDBRANCH  14  21
ENDBRANCH   6  10
BRANCH   8  25
ATOM     25  C   UNL A   1     -24.644  -0.041  28.822  0.00  0.00    +0.124 C 
BRANCH  25  27
ATOM     26  C   UNL A   1     -27.644   1.499  30.078  0.00  0.00    +0.096 C 
ATOM     27  N   UNL A   1     -25.901   0.786  28.751  0.00  0.00    -0.202 NA
ATOM     28  C   UNL A   1     -27.089   0.427  29.184  0.00  0.00    +0.242 C 
ATOM     29  O   UNL A   1     -27.658  -0.600  28.899  0.00  0.00    -0.273 OA
ENDBRANCH  25  27
BRANCH  25  30
ATOM     30  C   UNL A   1     -24.855  -1.012  30.143  0.00  0.00    +0.062 C 
BRANCH  30  31
ATOM     31  C   UNL A   1     -24.973  -2.505  29.788  0.00  0.00    -0.019 C 
ATOM     32  C   UNL A   1     -23.906  -3.173  29.146  0.00  0.00    -0.004 C 
ATOM     33  C   UNL A   1     -23.989  -4.549  28.853  0.00  0.00    -0.000 C 
ATOM     34  C   UNL A   1     -25.137  -5.280  29.205  0.00  0.00    -0.000 C 
ATOM     35  C   UNL A   1     -26.232  -4.611  29.784  0.00  0.00    -0.000 C 
ATOM     36  C   UNL A   1     -26.155  -3.232  30.065  0.00  0.00    -0.004 C 
ENDBRANCH  30  31
BRANCH  30  37
ATOM     37  C   UNL A   1     -25.387  -0.679  31.571  0.00  0.00    +0.079 C 
ATOM     38  C   UNL A   1     -25.189   0.773  32.028  0.00  0.00    +0.019 C 
ATOM     39  C   UNL A   1     -25.336   0.684  33.544  0.00  0.00    +0.020 C 
ATOM     40  C   UNL A   1     -24.829  -0.715  33.905  0.00  0.00    +0.089 C 
ATOM     41  N   UNL A   1     -24.758  -1.481  32.646  0.00  0.00    -0.219 NA
ENDBRANCH  30  37
ENDBRANCH  25  30
ENDBRANCH   8  25
TORSDOF 10
