REMARK  Name = outputs/IAG933/test6/raw/output_7195_IAG933_linker_design_.xyz
REMARK  13 active torsions:
REMARK  status: ('A' for Active; 'I' for Inactive)
REMARK    1  A    between atoms: C_1  and  C_2
REMARK    2  A    between atoms: C_1  and  C_8
REMARK    3  A    between atoms: C_1  and  C_39
REMARK    4  A    between atoms: C_13  and  C_31
REMARK    5  A    between atoms: C_14  and  C_15
REMARK    6  A    between atoms: C_21  and  O_22
REMARK    7  A    between atoms: O_22  and  C_23
REMARK    8  A    between atoms: C_23  and  C_24
REMARK    9  A    between atoms: C_29  and  N_42
REMARK   10  A    between atoms: C_33  and  C_39
REMARK   11  A    between atoms: C_37  and  C_43
REMARK   12  A    between atoms: C_39  and  C_45
REMARK   13  A    between atoms: C_43  and  N_46
REMARK                            x       y       z     vdW  Elec       q    Type
REMARK                         _______ _______ _______ _____ _____    ______ ____
ROOT
ATOM      1  C   UNL A   1     -25.108  -0.252  28.802  0.00  0.00    +0.105 C 
ENDROOT
BRANCH   1   4
ATOM      2  C   UNL A   1     -23.286   1.823  26.157  0.00  0.00    +0.040 C 
ATOM      3  C   UNL A   1     -24.338   1.334  26.953  0.00  0.00    +0.002 C 
ATOM      4  C   UNL A   1     -24.002   0.609  28.114  0.00  0.00    +0.008 C 
ATOM      5  O   UNL A   1     -21.670   1.163  27.757  0.00  0.00    -0.468 OA
ATOM      6  C   UNL A   1     -22.640   0.572  28.513  0.00  0.00    +0.228 C 
ATOM      7  C   UNL A   1     -21.988   1.779  26.664  0.00  0.00    +0.173 C 
BRANCH   3   8
ATOM      8  C   UNL A   1     -25.688   1.614  26.461  0.00  0.00    +0.038 C 
ATOM      9  C   UNL A   1     -26.250   2.920  26.395  0.00  0.00    +0.076 C 
ATOM     10  C   UNL A   1     -27.438   3.091  25.645  0.00  0.00    +0.107 C 
ATOM     11  N   UNL A   1     -28.075   2.089  25.003  0.00  0.00    -0.208 NA
ATOM     12  C   UNL A   1     -27.543   0.849  25.079  0.00  0.00    +0.253 C 
ATOM     13  C   UNL A   1     -26.354   0.576  25.777  0.00  0.00    +0.193 C 
ATOM     14  F   UNL A   1     -25.860  -0.681  25.795  0.00  0.00    -0.199 F 
BRANCH   9  15
ATOM     15  C   UNL A   1     -25.642   4.093  27.123  0.00  0.00    +0.266 C 
ATOM     16  N   UNL A   1     -25.614   5.252  26.449  0.00  0.00    -0.200 NA
ATOM     17  C   UNL A   1     -25.026   6.479  26.963  0.00  0.00    +0.139 C 
ATOM     18  O   UNL A   1     -25.143   3.966  28.243  0.00  0.00    -0.268 OA
ENDBRANCH   9  15
BRANCH  12  19
ATOM     19  O   UNL A   1     -28.193  -0.208  24.477  0.00  0.00    -0.456 OA
BRANCH  19  20
ATOM     20  C   UNL A   1     -29.460   0.005  23.866  0.00  0.00    +0.243 C 
BRANCH  20  21
ATOM     21  C   UNL A   1     -30.065  -1.377  23.573  0.00  0.00    +0.229 C 
ATOM     22  O   UNL A   1     -30.729  -1.878  24.721  0.00  0.00    -0.216 OA
ENDBRANCH  20  21
ENDBRANCH  19  20
ENDBRANCH  12  19
ENDBRANCH   3   8
ENDBRANCH   1   4
BRANCH   1  25
ATOM     23  N   UNL A   1     -26.692   1.531  29.596  0.00  0.00    -0.205 NA
ATOM     24  O   UNL A   1     -27.507  -0.538  28.997  0.00  0.00    -0.273 OA
ATOM     25  C   UNL A   1     -26.591   0.266  29.102  0.00  0.00    +0.245 C 
BRANCH  23  27
ATOM     26  C   UNL A   1     -27.810   2.785  31.410  0.00  0.00    +0.040 C 
ATOM     27  C   UNL A   1     -27.911   1.679  30.376  0.00  0.00    +0.113 C 
ATOM     28  C   UNL A   1     -29.146   2.079  29.531  0.00  0.00    +0.094 C 
ATOM     29  C   UNL A   1     -29.160   3.476  31.412  0.00  0.00    +0.074 C 
ATOM     30  N   UNL A   1     -29.742   3.271  30.208  0.00  0.00    -0.262 NA
BRANCH  30  31
ATOM     31  C   UNL A   1     -30.733   4.156  29.746  0.00  0.00    +0.188 C 
BRANCH  31  34
ATOM     32  O   UNL A   1     -30.675   6.410  28.925  0.00  0.00    -0.244 OA
ATOM     33  O   UNL A   1     -28.848   5.305  28.883  0.00  0.00    -0.244 OA
ATOM     34  C   UNL A   1     -30.030   5.400  29.127  0.00  0.00    +0.381 C 
ENDBRANCH  31  34
ENDBRANCH  30  31
ENDBRANCH  23  27
ENDBRANCH   1  25
BRANCH   1  35
ATOM     35  C   UNL A   1     -24.855  -1.012  30.143  0.00  0.00    +0.051 C 
BRANCH  35  36
ATOM     36  C   UNL A   1     -24.973  -2.505  29.788  0.00  0.00    -0.020 C 
ATOM     37  C   UNL A   1     -23.906  -3.173  29.146  0.00  0.00    -0.004 C 
ATOM     38  C   UNL A   1     -23.989  -4.549  28.853  0.00  0.00    -0.000 C 
ATOM     39  C   UNL A   1     -25.137  -5.280  29.205  0.00  0.00    -0.000 C 
ATOM     40  C   UNL A   1     -26.232  -4.611  29.784  0.00  0.00    -0.000 C 
ATOM     41  C   UNL A   1     -26.155  -3.232  30.065  0.00  0.00    -0.004 C 
ENDBRANCH  35  36
BRANCH  35  42
ATOM     42  C   UNL A   1     -25.387  -0.679  31.571  0.00  0.00    +0.078 C 
ATOM     43  C   UNL A   1     -25.189   0.773  32.028  0.00  0.00    +0.019 C 
ATOM     44  C   UNL A   1     -25.336   0.684  33.544  0.00  0.00    +0.020 C 
ATOM     45  C   UNL A   1     -24.829  -0.715  33.905  0.00  0.00    +0.089 C 
ATOM     46  N   UNL A   1     -24.758  -1.481  32.646  0.00  0.00    -0.219 NA
ENDBRANCH  35  42
ENDBRANCH   1  35
TORSDOF 13
