REMARK  Name = outputs/IAG933/test6/raw/output_7197_IAG933_linker_design_.xyz
REMARK  13 active torsions:
REMARK  status: ('A' for Active; 'I' for Inactive)
REMARK    1  A    between atoms: C_1  and  C_2
REMARK    2  A    between atoms: C_1  and  C_8
REMARK    3  A    between atoms: C_1  and  N_36
REMARK    4  A    between atoms: C_13  and  C_33
REMARK    5  A    between atoms: C_14  and  C_15
REMARK    6  A    between atoms: C_21  and  O_22
REMARK    7  A    between atoms: O_22  and  C_23
REMARK    8  A    between atoms: C_23  and  C_24
REMARK    9  A    between atoms: N_32  and  C_40
REMARK   10  A    between atoms: C_33  and  C_37
REMARK   11  A    between atoms: N_36  and  C_37
REMARK   12  A    between atoms: C_37  and  C_38
REMARK   13  A    between atoms: C_38  and  C_42
REMARK                            x       y       z     vdW  Elec       q    Type
REMARK                         _______ _______ _______ _____ _____    ______ ____
ROOT
ATOM      1  C   UNL A   1     -26.932  -0.160  29.075  0.00  0.00    +0.323 C 
ATOM      2  N   UNL A   1     -27.690   0.736  29.245  0.00  0.00    -0.189 NA
ATOM      3  O   UNL A   1     -27.457  -1.303  28.799  0.00  0.00    -0.251 OA
ATOM      4  N   UNL A   1     -25.377  -0.058  29.150  0.00  0.00    -0.261 N 
ENDROOT
BRANCH   2   9
ATOM      5  C   UNL A   1     -30.857   2.267  30.008  0.00  0.00    +0.074 C 
ATOM      6  C   UNL A   1     -30.551   0.421  28.613  0.00  0.00    +0.094 C 
ATOM      7  N   UNL A   1     -31.133   1.767  28.630  0.00  0.00    -0.270 NA
ATOM      8  C   UNL A   1     -29.684   1.460  30.562  0.00  0.00    +0.041 C 
ATOM      9  C   UNL A   1     -29.207   0.721  29.311  0.00  0.00    +0.114 C 
ATOM     10  C   UNL A   1     -30.686   2.504  27.401  0.00  0.00    +0.090 C 
ENDBRANCH   2   9
BRANCH   4  11
ATOM     11  C   UNL A   1     -24.855  -1.012  30.143  0.00  0.00    +0.115 C 
BRANCH  11  12
ATOM     12  C   UNL A   1     -24.973  -2.505  29.788  0.00  0.00    -0.003 C 
ATOM     13  C   UNL A   1     -23.906  -3.173  29.146  0.00  0.00    -0.003 C 
ATOM     14  C   UNL A   1     -23.989  -4.549  28.853  0.00  0.00    -0.000 C 
ATOM     15  C   UNL A   1     -25.137  -5.280  29.205  0.00  0.00    -0.000 C 
ATOM     16  C   UNL A   1     -26.232  -4.611  29.784  0.00  0.00    -0.000 C 
ATOM     17  C   UNL A   1     -26.155  -3.232  30.065  0.00  0.00    -0.003 C 
ENDBRANCH  11  12
BRANCH  11  18
ATOM     18  C   UNL A   1     -25.387  -0.679  31.571  0.00  0.00    +0.095 C 
ATOM     19  C   UNL A   1     -25.189   0.773  32.028  0.00  0.00    +0.021 C 
ATOM     20  C   UNL A   1     -25.336   0.684  33.544  0.00  0.00    +0.020 C 
ATOM     21  C   UNL A   1     -24.829  -0.715  33.905  0.00  0.00    +0.089 C 
ATOM     22  N   UNL A   1     -24.758  -1.481  32.646  0.00  0.00    -0.217 NA
ENDBRANCH  11  18
ENDBRANCH   4  11
BRANCH   4  23
ATOM     23  C   UNL A   1     -24.307   0.752  28.384  0.00  0.00    +0.082 C 
BRANCH  23  24
ATOM     24  C   UNL A   1     -24.387   1.385  27.056  0.00  0.00    +0.049 C 
BRANCH  24  25
ATOM     25  C   UNL A   1     -25.688   1.614  26.461  0.00  0.00    +0.018 C 
ATOM     26  C   UNL A   1     -26.250   2.920  26.395  0.00  0.00    +0.073 C 
ATOM     27  C   UNL A   1     -27.438   3.091  25.645  0.00  0.00    +0.106 C 
ATOM     28  N   UNL A   1     -28.075   2.089  25.003  0.00  0.00    -0.208 NA
ATOM     29  C   UNL A   1     -27.543   0.849  25.079  0.00  0.00    +0.253 C 
ATOM     30  C   UNL A   1     -26.354   0.576  25.777  0.00  0.00    +0.189 C 
ATOM     31  F   UNL A   1     -25.860  -0.681  25.795  0.00  0.00    -0.200 F 
BRANCH  26  32
ATOM     32  C   UNL A   1     -25.642   4.093  27.123  0.00  0.00    +0.266 C 
ATOM     33  N   UNL A   1     -25.614   5.252  26.449  0.00  0.00    -0.200 NA
ATOM     34  C   UNL A   1     -25.026   6.479  26.963  0.00  0.00    +0.139 C 
ATOM     35  O   UNL A   1     -25.143   3.966  28.243  0.00  0.00    -0.268 OA
ENDBRANCH  26  32
BRANCH  29  36
ATOM     36  O   UNL A   1     -28.193  -0.208  24.477  0.00  0.00    -0.456 OA
BRANCH  36  37
ATOM     37  C   UNL A   1     -29.460   0.005  23.866  0.00  0.00    +0.243 C 
BRANCH  37  38
ATOM     38  C   UNL A   1     -30.065  -1.377  23.573  0.00  0.00    +0.229 C 
ATOM     39  O   UNL A   1     -30.729  -1.878  24.721  0.00  0.00    -0.216 OA
ENDBRANCH  37  38
ENDBRANCH  36  37
ENDBRANCH  29  36
ENDBRANCH  24  25
ENDBRANCH  23  24
BRANCH  23  40
ATOM     40  C   UNL A   1     -23.002   0.382  28.573  0.00  0.00    +0.020 C 
BRANCH  40  42
ATOM     41  C   UNL A   1     -21.596   1.754  26.714  0.00  0.00    +0.000 C 
ATOM     42  C   UNL A   1     -21.952   1.281  28.156  0.00  0.00    +0.002 C 
ENDBRANCH  40  42
ENDBRANCH  23  40
ENDBRANCH   4  23
TORSDOF 13
