MODEL 71
MODEL 1
REMARK VINA RESULT:    -7.552      0.000      0.000
REMARK INTER + INTRA:         -13.274
REMARK INTER:                 -11.084
REMARK INTRA:                  -2.190
REMARK UNBOUND:                -2.190
REMARK  Name = No_71-gen_results/8p0m/2024-11-27-11-27-31/
REMARK  9 active torsions:
REMARK  status: ('A' for Active; 'I' for Inactive)
REMARK    1  A    between atoms: C_2  and  C_20
REMARK    2  A    between atoms: C_6  and  O_7
REMARK    3  A    between atoms: O_7  and  C_9
REMARK    4  A    between atoms: C_9  and  C_10
REMARK    5  A    between atoms: C_10  and  C_11
REMARK    6  A    between atoms: C_10  and  O_13
REMARK    7  A    between atoms: O_13  and  C_26
REMARK    8  A    between atoms: C_18  and  C_34
REMARK    9  A    between atoms: C_27  and  C_28
REMARK                            x       y       z     vdW  Elec       q    Type
REMARK                         _______ _______ _______ _____ _____    ______ ____
ROOT
ATOM      1  C   UNL A   1     -28.433   2.606  27.458  0.00  0.00    +0.284 C 
ENDROOT
BRANCH   1   2
ATOM      2  C   UNL A   1     -29.173   2.712  26.413  0.00  0.00    +0.270 C 
ATOM      3  O   UNL A   1     -29.651   3.719  26.130  0.00  0.00    -0.271 OA
ATOM      4  N   UNL A   1     -29.352   1.566  25.583  0.00  0.00    -0.277 N 
ATOM      5  C   UNL A   1     -30.207   1.571  24.409  0.00  0.00    +0.093 C 
ATOM      6  C   UNL A   1     -29.644   1.108  23.364  0.00  0.00    +0.022 C 
ATOM      7  C   UNL A   1     -28.734  -0.003  23.424  0.00  0.00    +0.004 C 
ATOM      8  C   UNL A   1     -28.035  -0.180  24.708  0.00  0.00    +0.020 C 
ATOM      9  C   UNL A   1     -28.404   0.567  25.709  0.00  0.00    +0.093 C 
BRANCH   8  10
ATOM     10  C   UNL A   1     -26.669   0.798  25.075  0.00  0.00    +0.002 C 
ATOM     11  C   UNL A   1     -25.559   0.090  24.777  0.00  0.00    +0.000 C 
ENDBRANCH   8  10
ENDBRANCH   1   2
BRANCH   1  12
ATOM     12  C   UNL A   1     -28.904   2.278  28.614  0.00  0.00    +0.258 C 
BRANCH  12  13
ATOM     13  O   UNL A   1     -28.874   0.932  28.951  0.00  0.00    -0.471 OA
BRANCH  13  19
ATOM     14  C   UNL A   1     -27.261  -0.884  29.347  0.00  0.00    +0.038 A 
ATOM     15  C   UNL A   1     -26.293  -1.320  29.927  0.00  0.00    +0.014 A 
ATOM     16  C   UNL A   1     -25.711  -0.621  30.978  0.00  0.00    +0.058 A 
ATOM     17  C   UNL A   1     -26.213   0.668  31.379  0.00  0.00    +0.015 A 
ATOM     18  C   UNL A   1     -27.319   1.108  30.640  0.00  0.00    +0.038 A 
ATOM     19  C   UNL A   1     -27.823   0.415  29.644  0.00  0.00    +0.139 A 
ATOM     20 CL   UNL A   1     -24.324  -1.148  31.888  0.00  0.00    -0.082 Cl
BRANCH  15  21
ATOM     21  C   UNL A   1     -25.613  -2.662  29.595  0.00  0.00    +0.001 A 
ATOM     22  C   UNL A   1     -26.229  -3.809  29.804  0.00  0.00    +0.000 A 
ATOM     23  C   UNL A   1     -25.733  -4.970  29.518  0.00  0.00    +0.000 A 
ATOM     24  C   UNL A   1     -24.803  -5.153  28.952  0.00  0.00    +0.000 A 
ATOM     25  C   UNL A   1     -23.915  -4.026  28.541  0.00  0.00    +0.000 A 
ATOM     26  C   UNL A   1     -24.378  -2.770  28.873  0.00  0.00    +0.000 A 
ENDBRANCH  15  21
ENDBRANCH  13  19
ENDBRANCH  12  13
ENDBRANCH   1  12
BRANCH   1  27
ATOM     27  O   UNL A   1     -27.066   2.802  27.412  0.00  0.00    -0.463 OA
BRANCH  27  28
ATOM     28  C   UNL A   1     -26.725   3.957  27.744  0.00  0.00    +0.173 C 
ATOM     29  C   UNL A   1     -25.432   4.140  27.522  0.00  0.00    +0.040 C 
BRANCH  29  30
ATOM     30  C   UNL A   1     -24.564   3.174  27.350  0.00  0.00    +0.003 A 
ATOM     31  C   UNL A   1     -23.788   2.958  26.478  0.00  0.00    +0.000 A 
ATOM     32  C   UNL A   1     -22.703   1.920  26.358  0.00  0.00    +0.000 A 
ATOM     33  C   UNL A   1     -22.630   1.002  27.458  0.00  0.00    +0.000 A 
ATOM     34  C   UNL A   1     -23.542   1.189  28.496  0.00  0.00    +0.000 A 
ATOM     35  C   UNL A   1     -24.447   2.183  28.490  0.00  0.00    +0.000 A 
ENDBRANCH  29  30
ENDBRANCH  27  28
ENDBRANCH   1  27
TORSDOF 9
ENDMDL
ENDMDL
