REMARK  Name = outputs/IAG933/test6/raw/output_7201_IAG933_linker_design_.xyz
REMARK  12 active torsions:
REMARK  status: ('A' for Active; 'I' for Inactive)
REMARK    1  A    between atoms: C_1  and  C_2
REMARK    2  A    between atoms: C_1  and  C_8
REMARK    3  A    between atoms: C_1  and  C_43
REMARK    4  A    between atoms: C_13  and  C_28
REMARK    5  A    between atoms: C_14  and  C_15
REMARK    6  A    between atoms: C_21  and  O_22
REMARK    7  A    between atoms: O_22  and  C_23
REMARK    8  A    between atoms: C_23  and  C_24
REMARK    9  A    between atoms: C_30  and  C_43
REMARK   10  A    between atoms: C_31  and  C_47
REMARK   11  A    between atoms: O_32  and  C_47
REMARK   12  A    between atoms: C_43  and  N_46
REMARK                            x       y       z     vdW  Elec       q    Type
REMARK                         _______ _______ _______ _____ _____    ______ ____
ROOT
ATOM      1  C   UNL A   1     -25.374  -0.116  29.010  0.00  0.00    +0.085 C 
ENDROOT
BRANCH   1   2
ATOM      2  C   UNL A   1     -26.525   0.909  29.310  0.00  0.00    -0.017 C 
ATOM      3  C   UNL A   1     -29.249   1.224  29.517  0.00  0.00    +0.137 C 
ATOM      4  O   UNL A   1     -30.063  -0.533  26.970  0.00  0.00    -0.207 OA
ATOM      5  N   UNL A   1     -30.425   0.555  29.009  0.00  0.00    -0.103 NA
ATOM      6  C   UNL A   1     -28.002   0.441  29.476  0.00  0.00    -0.028 C 
ATOM      7  C   UNL A   1     -28.105  -1.098  29.479  0.00  0.00    +0.027 C 
ATOM      8  O   UNL A   1     -31.689   0.788  29.494  0.00  0.00    -0.115 OA
ATOM      9  C   UNL A   1     -30.399  -0.749  28.312  0.00  0.00    +0.198 C 
ATOM     10  C   UNL A   1     -31.706  -1.760  28.241  0.00  0.00    +0.052 C 
ATOM     11  C   UNL A   1     -29.282  -1.531  28.967  0.00  0.00    +0.053 C 
BRANCH   3  12
ATOM     12  C   UNL A   1     -29.522   2.629  29.932  0.00  0.00    +0.165 C 
BRANCH  12  13
ATOM     13  O   UNL A   1     -30.593   3.382  29.355  0.00  0.00    -0.349 OA
ATOM     14  C   UNL A   1     -30.396   4.709  29.823  0.00  0.00    +0.174 C 
ENDBRANCH  12  13
ENDBRANCH   3  12
ENDBRANCH   1   2
BRANCH   1  20
ATOM     15  C   UNL A   1     -24.455   1.336  27.264  0.00  0.00    +0.086 C 
ATOM     16  C   UNL A   1     -22.684   0.413  28.656  0.00  0.00    +0.108 C 
ATOM     17  F   UNL A   1     -20.839   1.772  27.515  0.00  0.00    -0.236 F 
ATOM     18  C   UNL A   1     -23.202   1.822  26.659  0.00  0.00    +0.057 C 
ATOM     19  C   UNL A   1     -22.263   1.438  27.737  0.00  0.00    +0.178 C 
ATOM     20  N   UNL A   1     -24.097   0.514  28.435  0.00  0.00    -0.265 NA
BRANCH  15  21
ATOM     21  C   UNL A   1     -25.688   1.614  26.461  0.00  0.00    +0.030 C 
ATOM     22  C   UNL A   1     -26.250   2.920  26.395  0.00  0.00    +0.074 C 
ATOM     23  C   UNL A   1     -27.438   3.091  25.645  0.00  0.00    +0.106 C 
ATOM     24  N   UNL A   1     -28.075   2.089  25.003  0.00  0.00    -0.208 NA
ATOM     25  C   UNL A   1     -27.543   0.849  25.079  0.00  0.00    +0.253 C 
ATOM     26  C   UNL A   1     -26.354   0.576  25.777  0.00  0.00    +0.190 C 
ATOM     27  F   UNL A   1     -25.860  -0.681  25.795  0.00  0.00    -0.200 F 
BRANCH  22  28
ATOM     28  C   UNL A   1     -25.642   4.093  27.123  0.00  0.00    +0.266 C 
ATOM     29  N   UNL A   1     -25.614   5.252  26.449  0.00  0.00    -0.200 NA
ATOM     30  C   UNL A   1     -25.026   6.479  26.963  0.00  0.00    +0.139 C 
ATOM     31  O   UNL A   1     -25.143   3.966  28.243  0.00  0.00    -0.268 OA
ENDBRANCH  22  28
BRANCH  25  32
ATOM     32  O   UNL A   1     -28.193  -0.208  24.477  0.00  0.00    -0.456 OA
BRANCH  32  33
ATOM     33  C   UNL A   1     -29.460   0.005  23.866  0.00  0.00    +0.243 C 
BRANCH  33  34
ATOM     34  C   UNL A   1     -30.065  -1.377  23.573  0.00  0.00    +0.229 C 
ATOM     35  O   UNL A   1     -30.729  -1.878  24.721  0.00  0.00    -0.216 OA
ENDBRANCH  33  34
ENDBRANCH  32  33
ENDBRANCH  25  32
ENDBRANCH  15  21
ENDBRANCH   1  20
BRANCH   1  36
ATOM     36  C   UNL A   1     -24.855  -1.012  30.143  0.00  0.00    +0.057 C 
BRANCH  36  37
ATOM     37  C   UNL A   1     -24.973  -2.505  29.788  0.00  0.00    -0.019 C 
ATOM     38  C   UNL A   1     -23.906  -3.173  29.146  0.00  0.00    -0.004 C 
ATOM     39  C   UNL A   1     -23.989  -4.549  28.853  0.00  0.00    -0.000 C 
ATOM     40  C   UNL A   1     -25.137  -5.280  29.205  0.00  0.00    -0.000 C 
ATOM     41  C   UNL A   1     -26.232  -4.611  29.784  0.00  0.00    -0.000 C 
ATOM     42  C   UNL A   1     -26.155  -3.232  30.065  0.00  0.00    -0.004 C 
ENDBRANCH  36  37
BRANCH  36  43
ATOM     43  C   UNL A   1     -25.387  -0.679  31.571  0.00  0.00    +0.078 C 
ATOM     44  C   UNL A   1     -25.189   0.773  32.028  0.00  0.00    +0.019 C 
ATOM     45  C   UNL A   1     -25.336   0.684  33.544  0.00  0.00    +0.020 C 
ATOM     46  C   UNL A   1     -24.829  -0.715  33.905  0.00  0.00    +0.089 C 
ATOM     47  N   UNL A   1     -24.758  -1.481  32.646  0.00  0.00    -0.219 NA
ENDBRANCH  36  43
ENDBRANCH   1  36
TORSDOF 12
