REMARK  Name = outputs/IAG933/test6/raw/output_7203_IAG933_linker_design_.xyz
REMARK  15 active torsions:
REMARK  status: ('A' for Active; 'I' for Inactive)
REMARK    1  A    between atoms: C_1  and  C_2
REMARK    2  A    between atoms: C_1  and  C_8
REMARK    3  A    between atoms: C_1  and  N_43
REMARK    4  A    between atoms: C_14  and  C_15
REMARK    5  A    between atoms: C_15  and  O_18
REMARK    6  A    between atoms: O_18  and  C_29
REMARK    7  A    between atoms: C_21  and  O_22
REMARK    8  A    between atoms: O_22  and  C_23
REMARK    9  A    between atoms: C_23  and  C_24
REMARK   10  A    between atoms: C_28  and  C_31
REMARK   11  A    between atoms: C_28  and  O_44
REMARK   12  A    between atoms: C_29  and  N_36
REMARK   13  A    between atoms: C_29  and  C_45
REMARK   14  A    between atoms: C_31  and  N_36
REMARK   15  A    between atoms: C_31  and  N_43
REMARK                            x       y       z     vdW  Elec       q    Type
REMARK                         _______ _______ _______ _____ _____    ______ ____
ROOT
ATOM      1  C   UNL A   1     -25.433   2.975  29.289  0.00  0.00    +0.285 C 
ENDROOT
BRANCH   1  11
ATOM      2  N   UNL A   1     -27.579   2.100  29.578  0.00  0.00    -0.243 NA
ATOM      3  C   UNL A   1     -28.472   1.572  30.535  0.00  0.00    +0.100 C 
ATOM      4  C   UNL A   1     -29.108   1.374  34.432  0.00  0.00    +0.021 C 
ATOM      5  C   UNL A   1     -27.679   2.925  32.441  0.00  0.00    +0.084 C 
ATOM      6  N   UNL A   1     -27.708   3.201  33.865  0.00  0.00    -0.244 NA
ATOM      7  C   UNL A   1     -29.272   1.082  33.033  0.00  0.00    +0.005 C 
ATOM      8  C   UNL A   1     -26.923   3.717  31.354  0.00  0.00    +0.039 C 
ATOM      9  C   UNL A   1     -28.445   1.837  31.998  0.00  0.00    +0.037 C 
ATOM     10  C   UNL A   1     -28.196   2.410  34.795  0.00  0.00    +0.099 C 
ATOM     11  C   UNL A   1     -26.728   3.190  29.936  0.00  0.00    +0.118 C 
ENDBRANCH   1  11
BRANCH   1  12
ATOM     12  O   UNL A   1     -25.143   3.966  28.243  0.00  0.00    -0.441 OA
BRANCH  12  13
ATOM     13  C   UNL A   1     -25.642   4.093  27.123  0.00  0.00    +0.224 C 
ATOM     14  N   UNL A   1     -25.614   5.252  26.449  0.00  0.00    -0.236 NA
ATOM     15  C   UNL A   1     -25.026   6.479  26.963  0.00  0.00    +0.155 C 
BRANCH  13  17
ATOM     16  C   UNL A   1     -25.688   1.614  26.461  0.00  0.00    +0.041 C 
ATOM     17  C   UNL A   1     -26.250   2.920  26.395  0.00  0.00    +0.074 C 
ATOM     18  C   UNL A   1     -27.438   3.091  25.645  0.00  0.00    +0.107 C 
ATOM     19  N   UNL A   1     -28.075   2.089  25.003  0.00  0.00    -0.208 NA
ATOM     20  C   UNL A   1     -27.543   0.849  25.079  0.00  0.00    +0.253 C 
ATOM     21  C   UNL A   1     -26.354   0.576  25.777  0.00  0.00    +0.193 C 
ATOM     22  F   UNL A   1     -25.860  -0.681  25.795  0.00  0.00    -0.199 F 
BRANCH  20  23
ATOM     23  O   UNL A   1     -28.193  -0.208  24.477  0.00  0.00    -0.456 OA
BRANCH  23  24
ATOM     24  C   UNL A   1     -29.460   0.005  23.866  0.00  0.00    +0.243 C 
BRANCH  24  25
ATOM     25  C   UNL A   1     -30.065  -1.377  23.573  0.00  0.00    +0.229 C 
ATOM     26  O   UNL A   1     -30.729  -1.878  24.721  0.00  0.00    -0.216 OA
ENDBRANCH  24  25
ENDBRANCH  23  24
ENDBRANCH  20  23
ENDBRANCH  13  17
ENDBRANCH  12  13
ENDBRANCH   1  12
BRANCH   1  27
ATOM     27  N   UNL A   1     -24.648   1.861  29.341  0.00  0.00    -0.155 NA
BRANCH  27  28
ATOM     28  C   UNL A   1     -23.528   0.957  29.043  0.00  0.00    +0.195 C 
BRANCH  28  29
ATOM     29  C   UNL A   1     -22.474   1.299  28.158  0.00  0.00    +0.239 C 
ATOM     30  N   UNL A   1     -21.152   0.867  27.987  0.00  0.00    -0.097 NA
BRANCH  29  32
ATOM     31  C   UNL A   1     -22.436   2.351  25.962  0.00  0.00    +0.176 C 
ATOM     32  O   UNL A   1     -22.661   2.550  27.356  0.00  0.00    -0.334 OA
ENDBRANCH  29  32
ENDBRANCH  28  29
BRANCH  28  33
ATOM     33  N   UNL A   1     -23.686  -0.367  29.648  0.00  0.00    -0.194 NA
BRANCH  33  34
ATOM     34  C   UNL A   1     -24.855  -1.012  30.143  0.00  0.00    +0.112 C 
BRANCH  34  35
ATOM     35  C   UNL A   1     -24.973  -2.505  29.788  0.00  0.00    -0.005 C 
ATOM     36  C   UNL A   1     -23.906  -3.173  29.146  0.00  0.00    -0.003 C 
ATOM     37  C   UNL A   1     -23.989  -4.549  28.853  0.00  0.00    -0.000 C 
ATOM     38  C   UNL A   1     -25.137  -5.280  29.205  0.00  0.00    -0.000 C 
ATOM     39  C   UNL A   1     -26.232  -4.611  29.784  0.00  0.00    -0.000 C 
ATOM     40  C   UNL A   1     -26.155  -3.232  30.065  0.00  0.00    -0.003 C 
ENDBRANCH  34  35
BRANCH  34  41
ATOM     41  C   UNL A   1     -25.387  -0.679  31.571  0.00  0.00    +0.093 C 
ATOM     42  C   UNL A   1     -25.189   0.773  32.028  0.00  0.00    +0.021 C 
ATOM     43  C   UNL A   1     -25.336   0.684  33.544  0.00  0.00    +0.020 C 
ATOM     44  C   UNL A   1     -24.829  -0.715  33.905  0.00  0.00    +0.089 C 
ATOM     45  N   UNL A   1     -24.758  -1.481  32.646  0.00  0.00    -0.218 NA
ENDBRANCH  34  41
ENDBRANCH  33  34
ENDBRANCH  28  33
ENDBRANCH  27  28
ENDBRANCH   1  27
TORSDOF 15
