REMARK  Name = outputs/IAG933/test6/raw/output_7206_IAG933_linker_design_.xyz
REMARK  13 active torsions:
REMARK  status: ('A' for Active; 'I' for Inactive)
REMARK    1  A    between atoms: C_1  and  C_2
REMARK    2  A    between atoms: C_1  and  C_8
REMARK    3  A    between atoms: C_1  and  O_34
REMARK    4  A    between atoms: C_13  and  C_32
REMARK    5  A    between atoms: C_14  and  C_15
REMARK    6  A    between atoms: C_21  and  O_22
REMARK    7  A    between atoms: O_22  and  C_23
REMARK    8  A    between atoms: C_23  and  C_24
REMARK    9  A    between atoms: C_28  and  C_37
REMARK   10  A    between atoms: N_30  and  C_39
REMARK   11  A    between atoms: O_34  and  C_39
REMARK   12  A    between atoms: C_35  and  C_37
REMARK   13  A    between atoms: C_38  and  C_43
REMARK                            x       y       z     vdW  Elec       q    Type
REMARK                         _______ _______ _______ _____ _____    ______ ____
ROOT
ATOM      1  F   UNL A   1     -21.185   1.848  25.949  0.00  0.00    -0.209 F 
ATOM      2  C   UNL A   1     -24.469   1.312  26.759  0.00  0.00    +0.134 C 
ATOM      3  O   UNL A   1     -24.260   0.299  27.761  0.00  0.00    -0.315 OA
ATOM      4  C   UNL A   1     -22.274   1.531  26.650  0.00  0.00    +0.125 C 
ATOM      5  C   UNL A   1     -23.756   0.712  28.839  0.00  0.00    +0.307 C 
ATOM      6  C   UNL A   1     -23.437   1.765  26.038  0.00  0.00    +0.087 C 
ATOM      7  C   UNL A   1     -22.117   0.964  27.866  0.00  0.00    +0.103 C 
ENDROOT
BRANCH   2   8
ATOM      8  C   UNL A   1     -25.688   1.614  26.461  0.00  0.00    +0.098 C 
ATOM      9  C   UNL A   1     -26.250   2.920  26.395  0.00  0.00    +0.057 C 
ATOM     10  C   UNL A   1     -27.438   3.091  25.645  0.00  0.00    +0.102 C 
ATOM     11  N   UNL A   1     -28.075   2.089  25.003  0.00  0.00    -0.212 NA
ATOM     12  C   UNL A   1     -27.543   0.849  25.079  0.00  0.00    +0.234 C 
ATOM     13  C   UNL A   1     -26.354   0.576  25.777  0.00  0.00    +0.242 C 
ATOM     14  F   UNL A   1     -25.860  -0.681  25.795  0.00  0.00    -0.227 F 
BRANCH   9  15
ATOM     15  C   UNL A   1     -25.642   4.093  27.123  0.00  0.00    +0.263 C 
ATOM     16  N   UNL A   1     -25.614   5.252  26.449  0.00  0.00    -0.200 NA
ATOM     17  C   UNL A   1     -25.026   6.479  26.963  0.00  0.00    +0.139 C 
ATOM     18  O   UNL A   1     -25.143   3.966  28.243  0.00  0.00    -0.269 OA
ENDBRANCH   9  15
BRANCH  12  19
ATOM     19  O   UNL A   1     -28.193  -0.208  24.477  0.00  0.00    -0.459 OA
BRANCH  19  20
ATOM     20  C   UNL A   1     -29.460   0.005  23.866  0.00  0.00    +0.242 C 
BRANCH  20  21
ATOM     21  C   UNL A   1     -30.065  -1.377  23.573  0.00  0.00    +0.229 C 
ATOM     22  O   UNL A   1     -30.729  -1.878  24.721  0.00  0.00    -0.216 OA
ENDBRANCH  20  21
ENDBRANCH  19  20
ENDBRANCH  12  19
ENDBRANCH   2   8
BRANCH   7  24
ATOM     23  F   UNL A   1     -20.135   1.512  28.150  0.00  0.00    -0.204 F 
ATOM     24  C   UNL A   1     -21.032   0.639  28.386  0.00  0.00    +0.145 C 
ATOM     25  C   UNL A   1     -20.854  -0.522  29.054  0.00  0.00    +0.032 C 
ENDBRANCH   7  24
BRANCH   5  26
ATOM     26  N   UNL A   1     -24.353   1.856  29.500  0.00  0.00    -0.222 NA
ATOM     27  C   UNL A   1     -23.752   2.566  30.647  0.00  0.00    +0.072 C 
BRANCH  27  28
ATOM     28  C   UNL A   1     -24.558   3.786  31.323  0.00  0.00    +0.047 C 
BRANCH  28  29
ATOM     29  C   UNL A   1     -24.881   5.333  31.012  0.00  0.00    +0.006 C 
ATOM     30  C   UNL A   1     -25.586   5.688  32.324  0.00  0.00    +0.000 C 
ATOM     31  C   UNL A   1     -26.017   6.391  31.060  0.00  0.00    +0.000 C 
ENDBRANCH  28  29
ENDBRANCH  27  28
ENDBRANCH   5  26
BRANCH   5  32
ATOM     32  O   UNL A   1     -23.605  -0.348  29.830  0.00  0.00    -0.310 OA
BRANCH  32  33
ATOM     33  C   UNL A   1     -24.855  -1.012  30.143  0.00  0.00    +0.158 C 
BRANCH  33  34
ATOM     34  C   UNL A   1     -24.973  -2.505  29.788  0.00  0.00    +0.006 C 
ATOM     35  C   UNL A   1     -23.906  -3.173  29.146  0.00  0.00    -0.002 C 
ATOM     36  C   UNL A   1     -23.989  -4.549  28.853  0.00  0.00    -0.000 C 
ATOM     37  C   UNL A   1     -25.137  -5.280  29.205  0.00  0.00    -0.000 C 
ATOM     38  C   UNL A   1     -26.232  -4.611  29.784  0.00  0.00    -0.000 C 
ATOM     39  C   UNL A   1     -26.155  -3.232  30.065  0.00  0.00    -0.002 C 
ENDBRANCH  33  34
BRANCH  33  40
ATOM     40  C   UNL A   1     -25.387  -0.679  31.571  0.00  0.00    +0.104 C 
ATOM     41  C   UNL A   1     -25.189   0.773  32.028  0.00  0.00    +0.022 C 
ATOM     42  C   UNL A   1     -25.336   0.684  33.544  0.00  0.00    +0.020 C 
ATOM     43  C   UNL A   1     -24.829  -0.715  33.905  0.00  0.00    +0.089 C 
ATOM     44  N   UNL A   1     -24.758  -1.481  32.646  0.00  0.00    -0.217 NA
ENDBRANCH  33  40
ENDBRANCH  32  33
ENDBRANCH   5  32
TORSDOF 13
