REMARK  Name = outputs/IAG933/test6/raw/output_7207_IAG933_linker_design_.xyz
REMARK  14 active torsions:
REMARK  status: ('A' for Active; 'I' for Inactive)
REMARK    1  A    between atoms: C_1  and  C_2
REMARK    2  A    between atoms: C_1  and  C_8
REMARK    3  A    between atoms: C_1  and  C_30
REMARK    4  A    between atoms: C_13  and  N_33
REMARK    5  A    between atoms: C_14  and  C_15
REMARK    6  A    between atoms: C_21  and  O_22
REMARK    7  A    between atoms: O_22  and  C_23
REMARK    8  A    between atoms: C_23  and  C_24
REMARK    9  A    between atoms: C_28  and  C_35
REMARK   10  A    between atoms: C_28  and  O_36
REMARK   11  A    between atoms: O_29  and  C_35
REMARK   12  A    between atoms: C_30  and  N_34
REMARK   13  A    between atoms: C_30  and  O_36
REMARK   14  A    between atoms: C_31  and  C_41
REMARK                            x       y       z     vdW  Elec       q    Type
REMARK                         _______ _______ _______ _____ _____    ______ ____
ROOT
ATOM      1  C   UNL A   1     -23.221   1.550  27.083  0.00  0.00    +0.301 C 
ATOM      2  N   UNL A   1     -24.564   1.232  27.279  0.00  0.00    -0.176 N 
ATOM      3  N   UNL A   1     -24.556   0.318  28.252  0.00  0.00    -0.036 N 
ATOM      4  N   UNL A   1     -21.043   1.268  28.143  0.00  0.00    +0.216 NA
ATOM      5  C   UNL A   1     -22.412   1.003  28.049  0.00  0.00    +0.449 C 
ATOM      6  N   UNL A   1     -23.073   0.179  28.763  0.00  0.00    +0.071 NA
ENDROOT
BRANCH   2   7
ATOM      7  C   UNL A   1     -25.688   1.614  26.461  0.00  0.00    +0.108 C 
ATOM      8  C   UNL A   1     -26.250   2.920  26.395  0.00  0.00    +0.091 C 
ATOM      9  C   UNL A   1     -27.438   3.091  25.645  0.00  0.00    +0.108 C 
ATOM     10  N   UNL A   1     -28.075   2.089  25.003  0.00  0.00    -0.208 NA
ATOM     11  C   UNL A   1     -27.543   0.849  25.079  0.00  0.00    +0.255 C 
ATOM     12  C   UNL A   1     -26.354   0.576  25.777  0.00  0.00    +0.208 C 
ATOM     13  F   UNL A   1     -25.860  -0.681  25.795  0.00  0.00    -0.198 F 
BRANCH   8  14
ATOM     14  C   UNL A   1     -25.642   4.093  27.123  0.00  0.00    +0.268 C 
ATOM     15  N   UNL A   1     -25.614   5.252  26.449  0.00  0.00    -0.200 NA
ATOM     16  C   UNL A   1     -25.026   6.479  26.963  0.00  0.00    +0.139 C 
ATOM     17  O   UNL A   1     -25.143   3.966  28.243  0.00  0.00    -0.268 OA
ENDBRANCH   8  14
BRANCH  11  18
ATOM     18  O   UNL A   1     -28.193  -0.208  24.477  0.00  0.00    -0.456 OA
BRANCH  18  19
ATOM     19  C   UNL A   1     -29.460   0.005  23.866  0.00  0.00    +0.243 C 
BRANCH  19  20
ATOM     20  C   UNL A   1     -30.065  -1.377  23.573  0.00  0.00    +0.229 C 
ATOM     21  O   UNL A   1     -30.729  -1.878  24.721  0.00  0.00    -0.216 OA
ENDBRANCH  19  20
ENDBRANCH  18  19
ENDBRANCH  11  18
ENDBRANCH   2   7
BRANCH   1  23
ATOM     22  N   UNL A   1     -22.450   2.084  24.904  0.00  0.00    -0.194 NA
ATOM     23  C   UNL A   1     -22.834   1.881  25.951  0.00  0.00    +0.107 C 
ENDBRANCH   1  23
BRANCH   3  24
ATOM     24  C   UNL A   1     -25.493  -0.139  29.071  0.00  0.00    +0.256 C 
BRANCH  24  25
ATOM     25  C   UNL A   1     -24.855  -1.012  30.143  0.00  0.00    +0.090 C 
BRANCH  25  26
ATOM     26  C   UNL A   1     -24.973  -2.505  29.788  0.00  0.00    -0.017 C 
ATOM     27  C   UNL A   1     -23.906  -3.173  29.146  0.00  0.00    -0.004 C 
ATOM     28  C   UNL A   1     -23.989  -4.549  28.853  0.00  0.00    -0.000 C 
ATOM     29  C   UNL A   1     -25.137  -5.280  29.205  0.00  0.00    -0.000 C 
ATOM     30  C   UNL A   1     -26.232  -4.611  29.784  0.00  0.00    -0.000 C 
ATOM     31  C   UNL A   1     -26.155  -3.232  30.065  0.00  0.00    -0.004 C 
ENDBRANCH  25  26
BRANCH  25  32
ATOM     32  C   UNL A   1     -25.387  -0.679  31.571  0.00  0.00    +0.081 C 
ATOM     33  C   UNL A   1     -25.189   0.773  32.028  0.00  0.00    +0.019 C 
ATOM     34  C   UNL A   1     -25.336   0.684  33.544  0.00  0.00    +0.020 C 
ATOM     35  C   UNL A   1     -24.829  -0.715  33.905  0.00  0.00    +0.089 C 
ATOM     36  N   UNL A   1     -24.758  -1.481  32.646  0.00  0.00    -0.219 NA
ENDBRANCH  25  32
ENDBRANCH  24  25
BRANCH  24  37
ATOM     37  O   UNL A   1     -26.811   0.337  29.032  0.00  0.00    -0.331 OA
BRANCH  37  38
ATOM     38  C   UNL A   1     -28.297   0.417  28.953  0.00  0.00    +0.176 C 
BRANCH  38  39
ATOM     39  C   UNL A   1     -28.822   1.611  29.799  0.00  0.00    +0.174 C 
BRANCH  39  40
ATOM     40  O   UNL A   1     -27.712   2.585  29.856  0.00  0.00    -0.348 OA
ATOM     41  C   UNL A   1     -28.174   3.737  30.536  0.00  0.00    +0.174 C 
ENDBRANCH  39  40
ENDBRANCH  38  39
ENDBRANCH  37  38
ENDBRANCH  24  37
ENDBRANCH   3  24
TORSDOF 14
