MODEL 720
MODEL 1
REMARK VINA RESULT:    -4.294      0.000      0.000
REMARK INTER + INTRA:          -4.294
REMARK INTER:                  -4.294
REMARK INTRA:                   0.000
REMARK UNBOUND:                 0.000
REMARK  Name = No_720-gen_results/8p0m/2024-11-27-11-27-31/
REMARK  0 active torsions:
REMARK  status: ('A' for Active; 'I' for Inactive)
REMARK                            x       y       z     vdW  Elec       q    Type
REMARK                         _______ _______ _______ _____ _____    ______ ____
ROOT
ATOM      1  C   UNL A   1     -25.248  -2.531  29.748  0.00  0.00    +0.011 A 
ATOM      2  C   UNL A   1     -24.417  -2.929  29.237  0.00  0.00    +0.058 A 
ATOM      3  C   UNL A   1     -26.398  -3.490  29.965  0.00  0.00    +0.001 A 
ATOM      4  C   UNL A   1     -26.241  -4.847  29.616  0.00  0.00    +0.000 A 
ATOM      5  C   UNL A   1     -23.995  -4.281  28.806  0.00  0.00    +0.011 A 
ATOM      6  C   UNL A   1     -25.025  -5.192  28.996  0.00  0.00    +0.001 A 
ATOM      7 CL   UNL A   1     -23.023  -1.778  28.981  0.00  0.00    -0.082 Cl
ENDROOT
TORSDOF 0
ENDMDL
ENDMDL
