REMARK  Name = outputs/IAG933/test6/raw/output_7217_IAG933_linker_design_.xyz
REMARK  17 active torsions:
REMARK  status: ('A' for Active; 'I' for Inactive)
REMARK    1  A    between atoms: C_1  and  C_2
REMARK    2  A    between atoms: C_1  and  C_8
REMARK    3  A    between atoms: C_1  and  C_43
REMARK    4  A    between atoms: C_13  and  C_40
REMARK    5  A    between atoms: C_14  and  C_15
REMARK    6  A    between atoms: C_21  and  O_22
REMARK    7  A    between atoms: O_22  and  C_23
REMARK    8  A    between atoms: C_23  and  C_24
REMARK    9  A    between atoms: C_28  and  C_32
REMARK   10  A    between atoms: C_29  and  C_31
REMARK   11  A    between atoms: C_29  and  N_39
REMARK   12  A    between atoms: C_31  and  C_49
REMARK   13  A    between atoms: C_32  and  C_38
REMARK   14  A    between atoms: C_36  and  C_44
REMARK   15  A    between atoms: C_36  and  C_49
REMARK   16  A    between atoms: C_43  and  C_44
REMARK   17  A    between atoms: C_43  and  C_46
REMARK                            x       y       z     vdW  Elec       q    Type
REMARK                         _______ _______ _______ _____ _____    ______ ____
ROOT
ATOM      1  C   UNL A   1     -25.760  -0.195  29.192  0.00  0.00    +0.005 C 
ENDROOT
BRANCH   1   4
ATOM      2  C   UNL A   1     -23.719   1.015  27.942  0.00  0.00    +0.006 C 
ATOM      3  C   UNL A   1     -24.880   1.202  27.566  0.00  0.00    +0.008 C 
ATOM      4  C   UNL A   1     -24.940   1.033  28.773  0.00  0.00    +0.001 C 
BRANCH   3   5
ATOM      5  C   UNL A   1     -25.688   1.614  26.461  0.00  0.00    +0.070 C 
ATOM      6  C   UNL A   1     -26.250   2.920  26.395  0.00  0.00    +0.055 C 
ATOM      7  C   UNL A   1     -27.438   3.091  25.645  0.00  0.00    +0.102 C 
ATOM      8  N   UNL A   1     -28.075   2.089  25.003  0.00  0.00    -0.212 NA
ATOM      9  C   UNL A   1     -27.543   0.849  25.079  0.00  0.00    +0.234 C 
ATOM     10  C   UNL A   1     -26.354   0.576  25.777  0.00  0.00    +0.240 C 
ATOM     11  F   UNL A   1     -25.860  -0.681  25.795  0.00  0.00    -0.227 F 
BRANCH   6  12
ATOM     12  C   UNL A   1     -25.642   4.093  27.123  0.00  0.00    +0.262 C 
ATOM     13  N   UNL A   1     -25.614   5.252  26.449  0.00  0.00    -0.200 NA
ATOM     14  C   UNL A   1     -25.026   6.479  26.963  0.00  0.00    +0.139 C 
ATOM     15  O   UNL A   1     -25.143   3.966  28.243  0.00  0.00    -0.269 OA
ENDBRANCH   6  12
BRANCH   9  16
ATOM     16  O   UNL A   1     -28.193  -0.208  24.477  0.00  0.00    -0.459 OA
BRANCH  16  17
ATOM     17  C   UNL A   1     -29.460   0.005  23.866  0.00  0.00    +0.242 C 
BRANCH  17  18
ATOM     18  C   UNL A   1     -30.065  -1.377  23.573  0.00  0.00    +0.229 C 
ATOM     19  O   UNL A   1     -30.729  -1.878  24.721  0.00  0.00    -0.216 OA
ENDBRANCH  17  18
ENDBRANCH  16  17
ENDBRANCH   9  16
ENDBRANCH   3   5
BRANCH   2  20
ATOM     20  C   UNL A   1     -22.586   1.561  27.746  0.00  0.00    +0.065 C 
ATOM     21  C   UNL A   1     -21.981   2.072  26.347  0.00  0.00    +0.006 C 
BRANCH  20  22
ATOM     22  C   UNL A   1     -21.641   0.599  28.415  0.00  0.00    +0.309 C 
ATOM     23  F   UNL A   1     -20.384   0.776  28.046  0.00  0.00    -0.201 F 
ATOM     24  O   UNL A   1     -21.998  -0.231  29.336  0.00  0.00    -0.184 OA
ENDBRANCH  20  22
ENDBRANCH   2  20
ENDBRANCH   1   4
BRANCH   1  25
ATOM     25  C   UNL A   1     -24.855  -1.012  30.143  0.00  0.00    +0.038 C 
BRANCH  25  26
ATOM     26  C   UNL A   1     -24.973  -2.505  29.788  0.00  0.00    -0.021 C 
ATOM     27  C   UNL A   1     -23.906  -3.173  29.146  0.00  0.00    -0.004 C 
ATOM     28  C   UNL A   1     -23.989  -4.549  28.853  0.00  0.00    -0.000 C 
ATOM     29  C   UNL A   1     -25.137  -5.280  29.205  0.00  0.00    -0.000 C 
ATOM     30  C   UNL A   1     -26.232  -4.611  29.784  0.00  0.00    -0.000 C 
ATOM     31  C   UNL A   1     -26.155  -3.232  30.065  0.00  0.00    -0.004 C 
ENDBRANCH  25  26
BRANCH  25  32
ATOM     32  C   UNL A   1     -25.387  -0.679  31.571  0.00  0.00    +0.077 C 
ATOM     33  C   UNL A   1     -25.189   0.773  32.028  0.00  0.00    +0.019 C 
ATOM     34  C   UNL A   1     -25.336   0.684  33.544  0.00  0.00    +0.020 C 
ATOM     35  C   UNL A   1     -24.829  -0.715  33.905  0.00  0.00    +0.089 C 
ATOM     36  N   UNL A   1     -24.758  -1.481  32.646  0.00  0.00    -0.219 NA
ENDBRANCH  25  32
ENDBRANCH   1  25
BRANCH   1  37
ATOM     37  C   UNL A   1     -27.185   0.267  29.201  0.00  0.00    +0.001 C 
BRANCH  37  38
ATOM     38  C   UNL A   1     -28.050  -0.268  28.266  0.00  0.00    +0.008 C 
BRANCH  38  39
ATOM     39  C   UNL A   1     -29.102   0.429  27.619  0.00  0.00    +0.066 C 
BRANCH  39  40
ATOM     40  C   UNL A   1     -30.151   1.169  28.227  0.00  0.00    +0.167 C 
ATOM     41  O   UNL A   1     -31.191   0.516  28.327  0.00  0.00    -0.295 OA
BRANCH  40  42
ATOM     42  C   UNL A   1     -30.147   2.450  28.731  0.00  0.00    +0.138 C 
BRANCH  42  47
ATOM     43  C   UNL A   1     -31.068   5.862  28.535  0.00  0.00    +0.017 C 
ATOM     44  C   UNL A   1     -29.265   5.893  26.533  0.00  0.00    +0.002 C 
ATOM     45  C   UNL A   1     -29.753   4.674  25.718  0.00  0.00    +0.017 C 
ATOM     46  C   UNL A   1     -30.483   4.667  28.898  0.00  0.00    +0.072 C 
ATOM     47  N   UNL A   1     -30.495   3.558  28.056  0.00  0.00    -0.267 NA
ATOM     48  C   UNL A   1     -30.362   6.351  27.433  0.00  0.00    +0.002 C 
ATOM     49  C   UNL A   1     -30.457   3.615  26.649  0.00  0.00    +0.072 C 
ENDBRANCH  42  47
ENDBRANCH  40  42
ENDBRANCH  39  40
ENDBRANCH  38  39
ENDBRANCH  37  38
ENDBRANCH   1  37
TORSDOF 17
