REMARK  Name = outputs/IAG933/test6/raw/output_7221_IAG933_linker_design_.xyz
REMARK  19 active torsions:
REMARK  status: ('A' for Active; 'I' for Inactive)
REMARK    1  A    between atoms: C_1  and  C_2
REMARK    2  A    between atoms: C_1  and  C_8
REMARK    3  A    between atoms: C_1  and  N_30
REMARK    4  A    between atoms: C_13  and  C_40
REMARK    5  A    between atoms: C_14  and  C_15
REMARK    6  A    between atoms: C_21  and  O_22
REMARK    7  A    between atoms: O_22  and  C_23
REMARK    8  A    between atoms: C_23  and  C_24
REMARK    9  A    between atoms: N_29  and  C_35
REMARK   10  A    between atoms: N_30  and  C_41
REMARK   11  A    between atoms: N_30  and  C_45
REMARK   12  A    between atoms: C_31  and  O_42
REMARK   13  A    between atoms: C_31  and  C_43
REMARK   14  A    between atoms: C_35  and  C_43
REMARK   15  A    between atoms: O_37  and  C_44
REMARK   16  A    between atoms: C_38  and  C_40
REMARK   17  A    between atoms: C_38  and  C_44
REMARK   18  A    between atoms: C_40  and  C_45
REMARK   19  A    between atoms: C_41  and  O_42
REMARK                            x       y       z     vdW  Elec       q    Type
REMARK                         _______ _______ _______ _____ _____    ______ ____
ROOT
ATOM      1  N   UNL A   1     -25.613  -0.108  29.215  0.00  0.00    -0.243 NA
ENDROOT
BRANCH   1   2
ATOM      2  C   UNL A   1     -24.903   0.410  28.283  0.00  0.00    +0.079 C 
BRANCH   2   3
ATOM      3  C   UNL A   1     -24.685   1.301  27.262  0.00  0.00    +0.043 C 
BRANCH   3   4
ATOM      4  C   UNL A   1     -25.688   1.614  26.461  0.00  0.00    +0.017 C 
ATOM      5  C   UNL A   1     -26.250   2.920  26.395  0.00  0.00    +0.073 C 
ATOM      6  C   UNL A   1     -27.438   3.091  25.645  0.00  0.00    +0.106 C 
ATOM      7  N   UNL A   1     -28.075   2.089  25.003  0.00  0.00    -0.208 NA
ATOM      8  C   UNL A   1     -27.543   0.849  25.079  0.00  0.00    +0.253 C 
ATOM      9  C   UNL A   1     -26.354   0.576  25.777  0.00  0.00    +0.189 C 
ATOM     10  F   UNL A   1     -25.860  -0.681  25.795  0.00  0.00    -0.200 F 
BRANCH   5  11
ATOM     11  C   UNL A   1     -25.642   4.093  27.123  0.00  0.00    +0.266 C 
ATOM     12  N   UNL A   1     -25.614   5.252  26.449  0.00  0.00    -0.200 NA
ATOM     13  C   UNL A   1     -25.026   6.479  26.963  0.00  0.00    +0.139 C 
ATOM     14  O   UNL A   1     -25.143   3.966  28.243  0.00  0.00    -0.268 OA
ENDBRANCH   5  11
BRANCH   8  15
ATOM     15  O   UNL A   1     -28.193  -0.208  24.477  0.00  0.00    -0.456 OA
BRANCH  15  16
ATOM     16  C   UNL A   1     -29.460   0.005  23.866  0.00  0.00    +0.243 C 
BRANCH  16  17
ATOM     17  C   UNL A   1     -30.065  -1.377  23.573  0.00  0.00    +0.229 C 
ATOM     18  O   UNL A   1     -30.729  -1.878  24.721  0.00  0.00    -0.216 OA
ENDBRANCH  16  17
ENDBRANCH  15  16
ENDBRANCH   8  15
ENDBRANCH   3   4
BRANCH   3  19
ATOM     19  C   UNL A   1     -23.393   1.853  27.029  0.00  0.00    +0.035 C 
BRANCH  19  21
ATOM     20  C   UNL A   1     -22.334   0.379  29.130  0.00  0.00    +0.032 C 
ATOM     21  C   UNL A   1     -22.471   1.669  28.244  0.00  0.00    +0.116 C 
BRANCH  21  23
ATOM     22  C   UNL A   1     -20.347   1.258  27.967  0.00  0.00    +0.174 C 
ATOM     23  O   UNL A   1     -21.281   2.282  27.792  0.00  0.00    -0.354 OA
ENDBRANCH  21  23
ENDBRANCH  19  21
ENDBRANCH   3  19
ENDBRANCH   2   3
ENDBRANCH   1   2
BRANCH   1  24
ATOM     24  C   UNL A   1     -24.855  -1.012  30.143  0.00  0.00    +0.098 C 
BRANCH  24  25
ATOM     25  C   UNL A   1     -24.973  -2.505  29.788  0.00  0.00    -0.006 C 
ATOM     26  C   UNL A   1     -23.906  -3.173  29.146  0.00  0.00    -0.003 C 
ATOM     27  C   UNL A   1     -23.989  -4.549  28.853  0.00  0.00    -0.000 C 
ATOM     28  C   UNL A   1     -25.137  -5.280  29.205  0.00  0.00    -0.000 C 
ATOM     29  C   UNL A   1     -26.232  -4.611  29.784  0.00  0.00    -0.000 C 
ATOM     30  C   UNL A   1     -26.155  -3.232  30.065  0.00  0.00    -0.003 C 
ENDBRANCH  24  25
BRANCH  24  31
ATOM     31  C   UNL A   1     -25.387  -0.679  31.571  0.00  0.00    +0.092 C 
ATOM     32  C   UNL A   1     -25.189   0.773  32.028  0.00  0.00    +0.021 C 
ATOM     33  C   UNL A   1     -25.336   0.684  33.544  0.00  0.00    +0.020 C 
ATOM     34  C   UNL A   1     -24.829  -0.715  33.905  0.00  0.00    +0.089 C 
ATOM     35  N   UNL A   1     -24.758  -1.481  32.646  0.00  0.00    -0.218 NA
ENDBRANCH  24  31
ENDBRANCH   1  24
BRANCH   1  36
ATOM     36  C   UNL A   1     -27.095   0.253  29.169  0.00  0.00    +0.220 C 
BRANCH  36  37
ATOM     37  O   UNL A   1     -27.616   1.505  29.565  0.00  0.00    -0.337 OA
BRANCH  37  38
ATOM     38  C   UNL A   1     -28.046   2.101  30.773  0.00  0.00    +0.146 C 
BRANCH  38  39
ATOM     39  C   UNL A   1     -27.241   3.403  31.059  0.00  0.00    +0.054 C 
BRANCH  39  40
ATOM     40  C   UNL A   1     -27.982   4.710  30.802  0.00  0.00    +0.096 C 
BRANCH  40  41
ATOM     41  N   UNL A   1     -27.593   5.457  31.962  0.00  0.00    -0.278 N 
ATOM     42  C   UNL A   1     -26.211   5.819  32.080  0.00  0.00    +0.226 C 
ATOM     43  C   UNL A   1     -28.735   6.005  32.722  0.00  0.00    +0.115 C 
ATOM     44  O   UNL A   1     -25.485   5.532  32.992  0.00  0.00    -0.275 OA
ATOM     45  C   UNL A   1     -25.716   6.642  30.908  0.00  0.00    +0.095 C 
ENDBRANCH  40  41
ENDBRANCH  39  40
ENDBRANCH  38  39
ENDBRANCH  37  38
ENDBRANCH  36  37
ENDBRANCH   1  36
TORSDOF 19
