REMARK  Name = outputs/IAG933/test6/raw/output_7233_IAG933_linker_design_.xyz
REMARK  17 active torsions:
REMARK  status: ('A' for Active; 'I' for Inactive)
REMARK    1  A    between atoms: C_1  and  C_2
REMARK    2  A    between atoms: C_1  and  C_8
REMARK    3  A    between atoms: C_1  and  N_30
REMARK    4  A    between atoms: C_14  and  C_15
REMARK    5  A    between atoms: C_15  and  O_18
REMARK    6  A    between atoms: O_18  and  C_35
REMARK    7  A    between atoms: C_21  and  O_22
REMARK    8  A    between atoms: O_22  and  C_23
REMARK    9  A    between atoms: C_23  and  C_24
REMARK   10  A    between atoms: C_28  and  O_32
REMARK   11  A    between atoms: C_28  and  C_34
REMARK   12  A    between atoms: C_28  and  C_38
REMARK   13  A    between atoms: C_29  and  C_31
REMARK   14  A    between atoms: C_29  and  C_35
REMARK   15  A    between atoms: N_30  and  C_34
REMARK   16  A    between atoms: O_32  and  C_37
REMARK   17  A    between atoms: C_35  and  C_37
REMARK                            x       y       z     vdW  Elec       q    Type
REMARK                         _______ _______ _______ _____ _____    ______ ____
ROOT
ATOM      1  C   UNL A   1     -25.129   3.905  29.531  0.00  0.00    +0.231 C 
ENDROOT
BRANCH   1   2
ATOM      2  C   UNL A   1     -26.109   4.533  30.563  0.00  0.00    +0.217 C 
ATOM      3  O   UNL A   1     -25.935   5.928  30.621  0.00  0.00    -0.214 OA
BRANCH   2   4
ATOM      4  C   UNL A   1     -27.526   4.164  30.148  0.00  0.00    +0.016 C 
ATOM      5  C   UNL A   1     -29.893   4.506  30.398  0.00  0.00    +0.092 C 
ATOM      6  C   UNL A   1     -27.773   2.896  29.491  0.00  0.00    +0.040 C 
ATOM      7  C   UNL A   1     -29.096   2.429  29.226  0.00  0.00    +0.197 C 
ATOM      8  O   UNL A   1     -29.341   1.284  28.657  0.00  0.00    -0.286 OA
ATOM      9  C   UNL A   1     -30.171   3.324  29.695  0.00  0.00    +0.060 C 
ATOM     10  N   UNL A   1     -30.848   5.121  31.104  0.00  0.00    -0.128 NA
ATOM     11  C   UNL A   1     -28.584   5.001  30.484  0.00  0.00    +0.017 C 
ENDBRANCH   2   4
ENDBRANCH   1   2
BRANCH   1  12
ATOM     12  C   UNL A   1     -24.472   2.513  29.968  0.00  0.00    +0.189 C 
BRANCH  12  13
ATOM     13  O   UNL A   1     -23.484   2.185  28.970  0.00  0.00    -0.348 OA
BRANCH  13  14
ATOM     14  C   UNL A   1     -22.710   0.968  29.032  0.00  0.00    +0.166 C 
BRANCH  14  16
ATOM     15  O   UNL A   1     -21.352   1.923  27.158  0.00  0.00    -0.218 OA
ATOM     16  C   UNL A   1     -21.281   1.101  28.347  0.00  0.00    +0.213 C 
ENDBRANCH  14  16
BRANCH  14  17
ATOM     17  C   UNL A   1     -23.534  -0.147  28.360  0.00  0.00    +0.121 C 
BRANCH  17  18
ATOM     18  N   UNL A   1     -24.814  -0.312  29.132  0.00  0.00    -0.211 NA
BRANCH  18  19
ATOM     19  C   UNL A   1     -24.855  -1.012  30.143  0.00  0.00    +0.111 C 
BRANCH  19  20
ATOM     20  C   UNL A   1     -24.973  -2.505  29.788  0.00  0.00    -0.005 C 
ATOM     21  C   UNL A   1     -23.906  -3.173  29.146  0.00  0.00    -0.003 C 
ATOM     22  C   UNL A   1     -23.989  -4.549  28.853  0.00  0.00    -0.000 C 
ATOM     23  C   UNL A   1     -25.137  -5.280  29.205  0.00  0.00    -0.000 C 
ATOM     24  C   UNL A   1     -26.232  -4.611  29.784  0.00  0.00    -0.000 C 
ATOM     25  C   UNL A   1     -26.155  -3.232  30.065  0.00  0.00    -0.003 C 
ENDBRANCH  19  20
BRANCH  19  26
ATOM     26  C   UNL A   1     -25.387  -0.679  31.571  0.00  0.00    +0.093 C 
ATOM     27  C   UNL A   1     -25.189   0.773  32.028  0.00  0.00    +0.021 C 
ATOM     28  C   UNL A   1     -25.336   0.684  33.544  0.00  0.00    +0.020 C 
ATOM     29  C   UNL A   1     -24.829  -0.715  33.905  0.00  0.00    +0.089 C 
ATOM     30  N   UNL A   1     -24.758  -1.481  32.646  0.00  0.00    -0.218 NA
ENDBRANCH  19  26
ENDBRANCH  18  19
ENDBRANCH  17  18
ENDBRANCH  14  17
ENDBRANCH  13  14
ENDBRANCH  12  13
ENDBRANCH   1  12
BRANCH   1  31
ATOM     31  O   UNL A   1     -25.143   3.966  28.243  0.00  0.00    -0.459 OA
BRANCH  31  32
ATOM     32  C   UNL A   1     -25.642   4.093  27.123  0.00  0.00    +0.222 C 
ATOM     33  N   UNL A   1     -25.614   5.252  26.449  0.00  0.00    -0.236 NA
ATOM     34  C   UNL A   1     -25.026   6.479  26.963  0.00  0.00    +0.155 C 
BRANCH  32  36
ATOM     35  C   UNL A   1     -25.688   1.614  26.461  0.00  0.00    +0.041 C 
ATOM     36  C   UNL A   1     -26.250   2.920  26.395  0.00  0.00    +0.074 C 
ATOM     37  C   UNL A   1     -27.438   3.091  25.645  0.00  0.00    +0.107 C 
ATOM     38  N   UNL A   1     -28.075   2.089  25.003  0.00  0.00    -0.208 NA
ATOM     39  C   UNL A   1     -27.543   0.849  25.079  0.00  0.00    +0.253 C 
ATOM     40  C   UNL A   1     -26.354   0.576  25.777  0.00  0.00    +0.193 C 
ATOM     41  F   UNL A   1     -25.860  -0.681  25.795  0.00  0.00    -0.199 F 
BRANCH  39  42
ATOM     42  O   UNL A   1     -28.193  -0.208  24.477  0.00  0.00    -0.456 OA
BRANCH  42  43
ATOM     43  C   UNL A   1     -29.460   0.005  23.866  0.00  0.00    +0.243 C 
BRANCH  43  44
ATOM     44  C   UNL A   1     -30.065  -1.377  23.573  0.00  0.00    +0.229 C 
ATOM     45  O   UNL A   1     -30.729  -1.878  24.721  0.00  0.00    -0.216 OA
ENDBRANCH  43  44
ENDBRANCH  42  43
ENDBRANCH  39  42
ENDBRANCH  32  36
ENDBRANCH  31  32
ENDBRANCH   1  31
TORSDOF 17
