REMARK  Name = outputs/IAG933/test6/raw/output_7235_IAG933_linker_design_.xyz
REMARK  13 active torsions:
REMARK  status: ('A' for Active; 'I' for Inactive)
REMARK    1  A    between atoms: C_1  and  C_2
REMARK    2  A    between atoms: C_1  and  C_8
REMARK    3  A    between atoms: C_1  and  N_33
REMARK    4  A    between atoms: C_13  and  C_38
REMARK    5  A    between atoms: C_14  and  C_15
REMARK    6  A    between atoms: C_21  and  O_22
REMARK    7  A    between atoms: O_22  and  C_23
REMARK    8  A    between atoms: C_23  and  C_24
REMARK    9  A    between atoms: C_30  and  C_31
REMARK   10  A    between atoms: C_30  and  N_33
REMARK   11  A    between atoms: C_30  and  C_38
REMARK   12  A    between atoms: C_31  and  O_32
REMARK   13  A    between atoms: O_32  and  C_37
REMARK                            x       y       z     vdW  Elec       q    Type
REMARK                         _______ _______ _______ _____ _____    ______ ____
ROOT
ATOM      1  C   UNL A   1     -21.414   1.684  27.286  0.00  0.00    +0.277 C 
ATOM      2  C   UNL A   1     -22.273   1.126  28.385  0.00  0.00    +0.250 C 
ATOM      3  O   UNL A   1     -21.942   0.307  29.211  0.00  0.00    -0.284 OA
ATOM      4  C   UNL A   1     -23.483   1.345  27.567  0.00  0.00    +0.171 C 
ATOM      5  C   UNL A   1     -24.889   1.141  27.523  0.00  0.00    +0.018 C 
ATOM      6  O   UNL A   1     -22.697   1.993  26.574  0.00  0.00    -0.465 OA
ENDROOT
BRANCH   5   7
ATOM      7  C   UNL A   1     -25.688   1.614  26.461  0.00  0.00    +0.093 C 
ATOM      8  C   UNL A   1     -26.250   2.920  26.395  0.00  0.00    +0.059 C 
ATOM      9  C   UNL A   1     -27.438   3.091  25.645  0.00  0.00    +0.102 C 
ATOM     10  N   UNL A   1     -28.075   2.089  25.003  0.00  0.00    -0.212 NA
ATOM     11  C   UNL A   1     -27.543   0.849  25.079  0.00  0.00    +0.234 C 
ATOM     12  C   UNL A   1     -26.354   0.576  25.777  0.00  0.00    +0.244 C 
ATOM     13  F   UNL A   1     -25.860  -0.681  25.795  0.00  0.00    -0.227 F 
BRANCH   8  14
ATOM     14  C   UNL A   1     -25.642   4.093  27.123  0.00  0.00    +0.263 C 
ATOM     15  N   UNL A   1     -25.614   5.252  26.449  0.00  0.00    -0.200 NA
ATOM     16  C   UNL A   1     -25.026   6.479  26.963  0.00  0.00    +0.139 C 
ATOM     17  O   UNL A   1     -25.143   3.966  28.243  0.00  0.00    -0.269 OA
ENDBRANCH   8  14
BRANCH  11  18
ATOM     18  O   UNL A   1     -28.193  -0.208  24.477  0.00  0.00    -0.459 OA
BRANCH  18  19
ATOM     19  C   UNL A   1     -29.460   0.005  23.866  0.00  0.00    +0.242 C 
BRANCH  19  20
ATOM     20  C   UNL A   1     -30.065  -1.377  23.573  0.00  0.00    +0.229 C 
ATOM     21  O   UNL A   1     -30.729  -1.878  24.721  0.00  0.00    -0.216 OA
ENDBRANCH  19  20
ENDBRANCH  18  19
ENDBRANCH  11  18
ENDBRANCH   5   7
BRANCH   5  22
ATOM     22  C   UNL A   1     -25.721   0.267  28.421  0.00  0.00    +0.124 C 
BRANCH  22  23
ATOM     23  C   UNL A   1     -27.186   0.748  28.785  0.00  0.00    +0.166 C 
BRANCH  23  24
ATOM     24  O   UNL A   1     -27.907  -0.505  28.749  0.00  0.00    -0.334 OA
BRANCH  24  26
ATOM     25  N   UNL A   1     -29.678   1.015  29.264  0.00  0.00    -0.096 NA
ATOM     26  C   UNL A   1     -29.371  -0.233  28.530  0.00  0.00    +0.253 C 
ENDBRANCH  24  26
ENDBRANCH  23  24
ENDBRANCH  22  23
BRANCH  22  27
ATOM     27  N   UNL A   1     -24.971  -0.487  29.177  0.00  0.00    -0.208 NA
BRANCH  27  28
ATOM     28  C   UNL A   1     -24.855  -1.012  30.143  0.00  0.00    +0.111 C 
BRANCH  28  29
ATOM     29  C   UNL A   1     -24.973  -2.505  29.788  0.00  0.00    -0.005 C 
ATOM     30  C   UNL A   1     -23.906  -3.173  29.146  0.00  0.00    -0.003 C 
ATOM     31  C   UNL A   1     -23.989  -4.549  28.853  0.00  0.00    -0.000 C 
ATOM     32  C   UNL A   1     -25.137  -5.280  29.205  0.00  0.00    -0.000 C 
ATOM     33  C   UNL A   1     -26.232  -4.611  29.784  0.00  0.00    -0.000 C 
ATOM     34  C   UNL A   1     -26.155  -3.232  30.065  0.00  0.00    -0.003 C 
ENDBRANCH  28  29
BRANCH  28  35
ATOM     35  C   UNL A   1     -25.387  -0.679  31.571  0.00  0.00    +0.093 C 
ATOM     36  C   UNL A   1     -25.189   0.773  32.028  0.00  0.00    +0.021 C 
ATOM     37  C   UNL A   1     -25.336   0.684  33.544  0.00  0.00    +0.020 C 
ATOM     38  C   UNL A   1     -24.829  -0.715  33.905  0.00  0.00    +0.089 C 
ATOM     39  N   UNL A   1     -24.758  -1.481  32.646  0.00  0.00    -0.218 NA
ENDBRANCH  28  35
ENDBRANCH  27  28
ENDBRANCH  22  27
ENDBRANCH   5  22
TORSDOF 13
