REMARK  Name = outputs/IAG933/test6/raw/output_7236_IAG933_linker_design_.xyz
REMARK  8 active torsions:
REMARK  status: ('A' for Active; 'I' for Inactive)
REMARK    1  A    between atoms: C_1  and  C_2
REMARK    2  A    between atoms: C_1  and  C_8
REMARK    3  A    between atoms: C_1  and  N_30
REMARK    4  A    between atoms: C_21  and  O_22
REMARK    5  A    between atoms: O_22  and  C_23
REMARK    6  A    between atoms: C_23  and  C_24
REMARK    7  A    between atoms: O_39  and  C_45
REMARK    8  A    between atoms: C_42  and  C_43
REMARK                            x       y       z     vdW  Elec       q    Type
REMARK                         _______ _______ _______ _____ _____    ______ ____
ROOT
ATOM      1  C   UNL A   1     -25.688   1.614  26.461  0.00  0.00    +0.091 C 
ATOM      2  C   UNL A   1     -26.250   2.920  26.395  0.00  0.00    +0.057 C 
ATOM      3  C   UNL A   1     -25.642   4.093  27.123  0.00  0.00    +0.225 C 
ATOM      4  N   UNL A   1     -25.614   5.252  26.449  0.00  0.00    -0.235 NA
ATOM      5  C   UNL A   1     -25.026   6.479  26.963  0.00  0.00    +0.155 C 
ATOM      6  O   UNL A   1     -25.143   3.966  28.243  0.00  0.00    -0.420 OA
ATOM      7  C   UNL A   1     -27.438   3.091  25.645  0.00  0.00    +0.102 C 
ATOM      8  N   UNL A   1     -28.075   2.089  25.003  0.00  0.00    -0.212 NA
ATOM      9  C   UNL A   1     -27.543   0.849  25.079  0.00  0.00    +0.234 C 
ATOM     10  C   UNL A   1     -26.354   0.576  25.777  0.00  0.00    +0.244 C 
ATOM     11  F   UNL A   1     -25.860  -0.681  25.795  0.00  0.00    -0.227 F 
ATOM     12  C   UNL A   1     -22.433   1.083  28.270  0.00  0.00    +0.191 C 
ATOM     13  O   UNL A   1     -21.455   2.090  26.382  0.00  0.00    -0.182 OA
ATOM     14  N   UNL A   1     -24.271   0.022  29.385  0.00  0.00    -0.245 NA
ATOM     15  C   UNL A   1     -22.611   1.728  26.000  0.00  0.00    +0.330 C 
ATOM     16  C   UNL A   1     -23.367   1.359  27.226  0.00  0.00    +0.046 C 
ATOM     17  F   UNL A   1     -23.050   1.755  24.768  0.00  0.00    -0.196 F 
ATOM     18  N   UNL A   1     -24.828   2.363  29.779  0.00  0.00    -0.218 NA
ATOM     19  C   UNL A   1     -24.716   1.331  27.548  0.00  0.00    -0.000 C 
ATOM     20  C   UNL A   1     -25.059   1.089  28.893  0.00  0.00    +0.185 C 
ATOM     21  C   UNL A   1     -25.487   3.711  29.458  0.00  0.00    +0.227 C 
ATOM     22  C   UNL A   1     -22.905   0.017  29.168  0.00  0.00    +0.112 C 
ATOM     23  O   UNL A   1     -21.174   1.363  27.669  0.00  0.00    -0.214 OA
ENDROOT
BRANCH  21  27
ATOM     24  C   UNL A   1     -28.658   4.843  28.908  0.00  0.00    +0.007 C 
ATOM     25  C   UNL A   1     -28.536   2.368  30.831  0.00  0.00    -0.000 C 
ATOM     26  C   UNL A   1     -29.477   2.717  29.848  0.00  0.00    -0.000 C 
ATOM     27  C   UNL A   1     -26.736   3.868  30.005  0.00  0.00    +0.062 C 
ATOM     28  C   UNL A   1     -27.462   4.969  29.551  0.00  0.00    +0.164 C 
ATOM     29  C   UNL A   1     -27.255   2.892  30.884  0.00  0.00    +0.003 C 
ATOM     30  C   UNL A   1     -29.486   3.745  28.969  0.00  0.00    -0.002 C 
BRANCH  28  32
ATOM     31  C   UNL A   1     -27.761   7.367  29.628  0.00  0.00    +0.175 C 
ATOM     32  O   UNL A   1     -26.835   6.237  29.640  0.00  0.00    -0.345 OA
ENDBRANCH  28  32
ENDBRANCH  21  27
BRANCH  14  33
ATOM     33  C   UNL A   1     -24.855  -1.012  30.143  0.00  0.00    +0.098 C 
BRANCH  33  34
ATOM     34  C   UNL A   1     -24.973  -2.505  29.788  0.00  0.00    -0.006 C 
ATOM     35  C   UNL A   1     -23.906  -3.173  29.146  0.00  0.00    -0.003 C 
ATOM     36  C   UNL A   1     -23.989  -4.549  28.853  0.00  0.00    -0.000 C 
ATOM     37  C   UNL A   1     -25.137  -5.280  29.205  0.00  0.00    -0.000 C 
ATOM     38  C   UNL A   1     -26.232  -4.611  29.784  0.00  0.00    -0.000 C 
ATOM     39  C   UNL A   1     -26.155  -3.232  30.065  0.00  0.00    -0.003 C 
ENDBRANCH  33  34
BRANCH  33  40
ATOM     40  C   UNL A   1     -25.387  -0.679  31.571  0.00  0.00    +0.092 C 
ATOM     41  C   UNL A   1     -25.189   0.773  32.028  0.00  0.00    +0.021 C 
ATOM     42  C   UNL A   1     -25.336   0.684  33.544  0.00  0.00    +0.020 C 
ATOM     43  C   UNL A   1     -24.829  -0.715  33.905  0.00  0.00    +0.089 C 
ATOM     44  N   UNL A   1     -24.758  -1.481  32.646  0.00  0.00    -0.218 NA
ENDBRANCH  33  40
ENDBRANCH  14  33
BRANCH   9  45
ATOM     45  O   UNL A   1     -28.193  -0.208  24.477  0.00  0.00    -0.459 OA
BRANCH  45  46
ATOM     46  C   UNL A   1     -29.460   0.005  23.866  0.00  0.00    +0.242 C 
BRANCH  46  47
ATOM     47  C   UNL A   1     -30.065  -1.377  23.573  0.00  0.00    +0.229 C 
ATOM     48  O   UNL A   1     -30.729  -1.878  24.721  0.00  0.00    -0.216 OA
ENDBRANCH  46  47
ENDBRANCH  45  46
ENDBRANCH   9  45
TORSDOF 8
