MODEL 723
MODEL 1
REMARK VINA RESULT:    -6.452      0.000      0.000
REMARK INTER + INTRA:          -8.585
REMARK INTER:                  -7.961
REMARK INTRA:                  -0.624
REMARK UNBOUND:                -0.624
REMARK  Name = No_723-gen_results/8p0m/2024-11-27-11-27-31/
REMARK  4 active torsions:
REMARK  status: ('A' for Active; 'I' for Inactive)
REMARK    1  A    between atoms: C_2  and  C_7
REMARK    2  A    between atoms: C_7  and  C_8
REMARK    3  A    between atoms: C_8  and  C_12
REMARK    4  A    between atoms: C_9  and  C_10
REMARK                            x       y       z     vdW  Elec       q    Type
REMARK                         _______ _______ _______ _____ _____    ______ ____
ROOT
ATOM      1  C   UNL A   1     -25.040  -1.223  29.441  0.00  0.00    +0.050 C 
ENDROOT
BRANCH   1   3
ATOM      2  C   UNL A   1     -24.125  -3.276  28.513  0.00  0.00    -0.004 A 
ATOM      3  C   UNL A   1     -24.945  -2.751  29.230  0.00  0.00    -0.018 A 
ATOM      4  C   UNL A   1     -25.969  -3.415  29.824  0.00  0.00    -0.004 A 
ATOM      5  C   UNL A   1     -26.090  -4.799  29.596  0.00  0.00    -0.000 A 
ATOM      6  C   UNL A   1     -23.989  -4.565  28.584  0.00  0.00    -0.000 A 
ATOM      7  C   UNL A   1     -25.019  -5.399  29.022  0.00  0.00    -0.000 A 
ENDBRANCH   1   3
BRANCH   1   8
ATOM      8  C   UNL A   1     -23.701  -0.585  29.413  0.00  0.00    -0.024 C 
ATOM      9  C   UNL A   1     -23.137   0.086  28.336  0.00  0.00    -0.007 C 
BRANCH   9  10
ATOM     10  C   UNL A   1     -21.972   0.621  28.298  0.00  0.00    -0.005 C 
ATOM     11  C   UNL A   1     -21.845   1.714  27.328  0.00  0.00    -0.026 C 
ATOM     12  C   UNL A   1     -22.788   2.073  26.549  0.00  0.00    +0.031 C 
ENDBRANCH   9  10
BRANCH   8  13
ATOM     13  C   UNL A   1     -22.880  -0.581  30.581  0.00  0.00    +0.117 C 
ATOM     14 CL   UNL A   1     -23.566  -1.256  32.039  0.00  0.00    -0.109 Cl
ENDBRANCH   8  13
ENDBRANCH   1   8
TORSDOF 4
ENDMDL
ENDMDL
