REMARK  Name = No_724-gen_results/8p0m/2024-11-27-11-27-31/
REMARK  0 active torsions:
REMARK  status: ('A' for Active; 'I' for Inactive)
REMARK                            x       y       z     vdW  Elec       q    Type
REMARK                         _______ _______ _______ _____ _____    ______ ____
ROOT
ATOM      1  C   UNL A   1     -28.016  -0.814  28.878  0.00  0.00    +0.028 A 
ATOM      2  C   UNL A   1     -28.469  -0.785  29.829  0.00  0.00    +0.059 A 
ATOM      3  C   UNL A   1     -26.504  -0.778  28.877  0.00  0.00    +0.071 A 
ATOM      4  C   UNL A   1     -25.810  -0.853  30.103  0.00  0.00    +0.015 A 
ATOM      5  C   UNL A   1     -27.991  -0.892  31.226  0.00  0.00    +0.011 A 
ATOM      6  C   UNL A   1     -26.604  -0.868  31.265  0.00  0.00    +0.002 A 
ATOM      7  C   UNL A   1     -24.444  -0.673  29.974  0.00  0.00    +0.001 A 
ATOM      8  C   UNL A   1     -23.686  -1.446  30.568  0.00  0.00    +0.000 A 
ATOM      9  C   UNL A   1     -23.840   0.412  29.289  0.00  0.00    -0.003 A 
ATOM     10  C   UNL A   1     -22.449   0.520  29.149  0.00  0.00    -0.001 A 
ATOM     11  C   UNL A   1     -21.599  -0.486  29.699  0.00  0.00    -0.003 A 
ATOM     12  C   UNL A   1     -22.204  -1.453  30.502  0.00  0.00    -0.000 A 
ATOM     13 CL   UNL A   1     -30.321  -0.822  29.841  0.00  0.00    -0.082 Cl
ATOM     14  N   UNL A   1     -25.997  -0.636  27.652  0.00  0.00    -0.212 NA
ATOM     15  C   UNL A   1     -26.301   0.205  26.640  0.00  0.00    +0.070 A 
ATOM     16  C   UNL A   1     -25.786   0.824  25.986  0.00  0.00    +0.017 A 
ATOM     17  C   UNL A   1     -27.823   0.247  26.425  0.00  0.00    +0.017 A 
ATOM     18  C   UNL A   1     -28.272   0.960  25.338  0.00  0.00    +0.001 A 
ATOM     19  C   UNL A   1     -24.132   0.843  26.127  0.00  0.00    +0.019 C 
ATOM     20  C   UNL A   1     -27.393   1.669  24.576  0.00  0.00    +0.000 A 
ATOM     21  C   UNL A   1     -26.102   1.669  24.839  0.00  0.00    +0.001 A 
ATOM     22  C   UNL A   1     -21.841   1.576  28.315  0.00  0.00    +0.139 C 
ATOM     23  N   UNL A   1     -21.629   1.655  27.017  0.00  0.00    -0.232 NA
ATOM     24  C   UNL A   1     -22.865   1.611  26.167  0.00  0.00    +0.081 C 
ENDROOT
TORSDOF 0
