REMARK  Name = outputs/IAG933/test6/raw/output_7240_IAG933_linker_design_.xyz
REMARK  15 active torsions:
REMARK  status: ('A' for Active; 'I' for Inactive)
REMARK    1  A    between atoms: C_1  and  C_2
REMARK    2  A    between atoms: C_1  and  C_8
REMARK    3  A    between atoms: C_1  and  C_38
REMARK    4  A    between atoms: C_13  and  N_29
REMARK    5  A    between atoms: C_14  and  C_15
REMARK    6  A    between atoms: C_21  and  O_22
REMARK    7  A    between atoms: O_22  and  C_23
REMARK    8  A    between atoms: C_23  and  C_24
REMARK    9  A    between atoms: N_29  and  C_32
REMARK   10  A    between atoms: N_29  and  C_37
REMARK   11  A    between atoms: C_32  and  N_35
REMARK   12  A    between atoms: C_32  and  C_38
REMARK   13  A    between atoms: C_33  and  C_37
REMARK   14  A    between atoms: C_33  and  O_39
REMARK   15  A    between atoms: N_34  and  O_39
REMARK                            x       y       z     vdW  Elec       q    Type
REMARK                         _______ _______ _______ _____ _____    ______ ____
ROOT
ATOM      1  N   UNL A   1     -24.668   1.223  27.399  0.00  0.00    -0.288 N 
ENDROOT
BRANCH   1   2
ATOM      2  C   UNL A   1     -25.688   1.614  26.461  0.00  0.00    +0.087 C 
ATOM      3  C   UNL A   1     -26.250   2.920  26.395  0.00  0.00    +0.090 C 
ATOM      4  C   UNL A   1     -27.438   3.091  25.645  0.00  0.00    +0.108 C 
ATOM      5  N   UNL A   1     -28.075   2.089  25.003  0.00  0.00    -0.208 NA
ATOM      6  C   UNL A   1     -27.543   0.849  25.079  0.00  0.00    +0.255 C 
ATOM      7  C   UNL A   1     -26.354   0.576  25.777  0.00  0.00    +0.206 C 
ATOM      8  F   UNL A   1     -25.860  -0.681  25.795  0.00  0.00    -0.198 F 
BRANCH   3   9
ATOM      9  C   UNL A   1     -25.642   4.093  27.123  0.00  0.00    +0.268 C 
ATOM     10  N   UNL A   1     -25.614   5.252  26.449  0.00  0.00    -0.200 NA
ATOM     11  C   UNL A   1     -25.026   6.479  26.963  0.00  0.00    +0.139 C 
ATOM     12  O   UNL A   1     -25.143   3.966  28.243  0.00  0.00    -0.268 OA
ENDBRANCH   3   9
BRANCH   6  13
ATOM     13  O   UNL A   1     -28.193  -0.208  24.477  0.00  0.00    -0.456 OA
BRANCH  13  14
ATOM     14  C   UNL A   1     -29.460   0.005  23.866  0.00  0.00    +0.243 C 
BRANCH  14  15
ATOM     15  C   UNL A   1     -30.065  -1.377  23.573  0.00  0.00    +0.229 C 
ATOM     16  O   UNL A   1     -30.729  -1.878  24.721  0.00  0.00    -0.216 OA
ENDBRANCH  14  15
ENDBRANCH  13  14
ENDBRANCH   6  13
ENDBRANCH   1   2
BRANCH   1  17
ATOM     17  C   UNL A   1     -25.184   1.139  28.730  0.00  0.00    +0.181 C 
BRANCH  17  19
ATOM     18  O   UNL A   1     -27.434   0.369  28.858  0.00  0.00    -0.099 OA
ATOM     19  N   UNL A   1     -26.360   1.163  28.750  0.00  0.00    -0.029 NA
ENDBRANCH  17  19
BRANCH  17  20
ATOM     20  C   UNL A   1     -24.864  -0.085  29.180  0.00  0.00    +0.046 C 
BRANCH  20  21
ATOM     21  C   UNL A   1     -24.855  -1.012  30.143  0.00  0.00    +0.042 C 
BRANCH  21  22
ATOM     22  C   UNL A   1     -24.973  -2.505  29.788  0.00  0.00    -0.021 C 
ATOM     23  C   UNL A   1     -23.906  -3.173  29.146  0.00  0.00    -0.004 C 
ATOM     24  C   UNL A   1     -23.989  -4.549  28.853  0.00  0.00    -0.000 C 
ATOM     25  C   UNL A   1     -25.137  -5.280  29.205  0.00  0.00    -0.000 C 
ATOM     26  C   UNL A   1     -26.232  -4.611  29.784  0.00  0.00    -0.000 C 
ATOM     27  C   UNL A   1     -26.155  -3.232  30.065  0.00  0.00    -0.004 C 
ENDBRANCH  21  22
BRANCH  21  28
ATOM     28  C   UNL A   1     -25.387  -0.679  31.571  0.00  0.00    +0.077 C 
ATOM     29  C   UNL A   1     -25.189   0.773  32.028  0.00  0.00    +0.019 C 
ATOM     30  C   UNL A   1     -25.336   0.684  33.544  0.00  0.00    +0.020 C 
ATOM     31  C   UNL A   1     -24.829  -0.715  33.905  0.00  0.00    +0.089 C 
ATOM     32  N   UNL A   1     -24.758  -1.481  32.646  0.00  0.00    -0.219 NA
ENDBRANCH  21  28
ENDBRANCH  20  21
ENDBRANCH  17  20
ENDBRANCH   1  17
BRANCH   1  33
ATOM     33  C   UNL A   1     -23.475   1.494  26.717  0.00  0.00    +0.140 C 
BRANCH  33  34
ATOM     34  C   UNL A   1     -23.003   2.319  25.980  0.00  0.00    +0.235 C 
ATOM     35  C   UNL A   1     -22.819   2.260  24.462  0.00  0.00    +0.054 C 
BRANCH  34  36
ATOM     36  O   UNL A   1     -21.663   1.834  26.605  0.00  0.00    -0.311 OA
BRANCH  36  39
ATOM     37  C   UNL A   1     -22.040   0.957  28.938  0.00  0.00    +0.575 C 
ATOM     38  N   UNL A   1     -22.080  -0.189  29.514  0.00  0.00    +0.139 NA
ATOM     39  N   UNL A   1     -21.167   1.165  27.802  0.00  0.00    +0.131 NA
ATOM     40  N   UNL A   1     -22.896   1.802  29.187  0.00  0.00    +0.139 NA
ENDBRANCH  36  39
ENDBRANCH  34  36
ENDBRANCH  33  34
ENDBRANCH   1  33
TORSDOF 15
