REMARK  Name = outputs/IAG933/test6/raw/output_7242_IAG933_linker_design_.xyz
REMARK  15 active torsions:
REMARK  status: ('A' for Active; 'I' for Inactive)
REMARK    1  A    between atoms: C_1  and  C_2
REMARK    2  A    between atoms: C_1  and  C_8
REMARK    3  A    between atoms: C_1  and  N_38
REMARK    4  A    between atoms: C_13  and  N_37
REMARK    5  A    between atoms: C_14  and  C_15
REMARK    6  A    between atoms: C_21  and  O_22
REMARK    7  A    between atoms: O_22  and  C_23
REMARK    8  A    between atoms: C_23  and  C_24
REMARK    9  A    between atoms: C_28  and  C_39
REMARK   10  A    between atoms: C_30  and  N_38
REMARK   11  A    between atoms: C_31  and  C_35
REMARK   12  A    between atoms: C_31  and  N_37
REMARK   13  A    between atoms: C_34  and  C_39
REMARK   14  A    between atoms: C_35  and  N_38
REMARK   15  A    between atoms: C_40  and  C_41
REMARK                            x       y       z     vdW  Elec       q    Type
REMARK                         _______ _______ _______ _____ _____    ______ ____
ROOT
ATOM      1  C   UNL A   1     -22.390  -0.107  28.841  0.00  0.00    -0.009 C 
ATOM      2  C   UNL A   1     -23.695   0.364  28.572  0.00  0.00    +0.047 C 
ENDROOT
BRANCH   2   3
ATOM      3  C   UNL A   1     -23.891   1.176  27.615  0.00  0.00    +0.153 C 
BRANCH   3   4
ATOM      4  N   UNL A   1     -24.680   1.461  27.025  0.00  0.00    -0.229 NA
BRANCH   4   5
ATOM      5  C   UNL A   1     -25.688   1.614  26.461  0.00  0.00    +0.104 C 
ATOM      6  C   UNL A   1     -26.250   2.920  26.395  0.00  0.00    +0.091 C 
ATOM      7  C   UNL A   1     -27.438   3.091  25.645  0.00  0.00    +0.108 C 
ATOM      8  N   UNL A   1     -28.075   2.089  25.003  0.00  0.00    -0.208 NA
ATOM      9  C   UNL A   1     -27.543   0.849  25.079  0.00  0.00    +0.255 C 
ATOM     10  C   UNL A   1     -26.354   0.576  25.777  0.00  0.00    +0.208 C 
ATOM     11  F   UNL A   1     -25.860  -0.681  25.795  0.00  0.00    -0.198 F 
BRANCH   6  12
ATOM     12  C   UNL A   1     -25.642   4.093  27.123  0.00  0.00    +0.268 C 
ATOM     13  N   UNL A   1     -25.614   5.252  26.449  0.00  0.00    -0.200 NA
ATOM     14  C   UNL A   1     -25.026   6.479  26.963  0.00  0.00    +0.139 C 
ATOM     15  O   UNL A   1     -25.143   3.966  28.243  0.00  0.00    -0.268 OA
ENDBRANCH   6  12
BRANCH   9  16
ATOM     16  O   UNL A   1     -28.193  -0.208  24.477  0.00  0.00    -0.456 OA
BRANCH  16  17
ATOM     17  C   UNL A   1     -29.460   0.005  23.866  0.00  0.00    +0.243 C 
BRANCH  17  18
ATOM     18  C   UNL A   1     -30.065  -1.377  23.573  0.00  0.00    +0.229 C 
ATOM     19  O   UNL A   1     -30.729  -1.878  24.721  0.00  0.00    -0.216 OA
ENDBRANCH  17  18
ENDBRANCH  16  17
ENDBRANCH   9  16
ENDBRANCH   4   5
ENDBRANCH   3   4
ENDBRANCH   2   3
BRANCH   2  20
ATOM     20  N   UNL A   1     -24.951   0.061  29.228  0.00  0.00    -0.284 N 
BRANCH  20  21
ATOM     21  C   UNL A   1     -26.437   0.679  29.196  0.00  0.00    +0.072 C 
ATOM     22  C   UNL A   1     -27.767  -0.243  29.149  0.00  0.00    +0.102 C 
BRANCH  22  25
ATOM     23  O   UNL A   1     -29.301   1.347  29.441  0.00  0.00    -0.240 OA
ATOM     24  O   UNL A   1     -29.923  -0.526  28.561  0.00  0.00    -0.240 OA
ATOM     25  C   UNL A   1     -29.012   0.170  29.025  0.00  0.00    +0.389 C 
ENDBRANCH  22  25
ENDBRANCH  20  21
BRANCH  20  26
ATOM     26  C   UNL A   1     -24.855  -1.012  30.143  0.00  0.00    +0.115 C 
BRANCH  26  27
ATOM     27  C   UNL A   1     -24.973  -2.505  29.788  0.00  0.00    -0.003 C 
ATOM     28  C   UNL A   1     -23.906  -3.173  29.146  0.00  0.00    -0.003 C 
ATOM     29  C   UNL A   1     -23.989  -4.549  28.853  0.00  0.00    -0.000 C 
ATOM     30  C   UNL A   1     -25.137  -5.280  29.205  0.00  0.00    -0.000 C 
ATOM     31  C   UNL A   1     -26.232  -4.611  29.784  0.00  0.00    -0.000 C 
ATOM     32  C   UNL A   1     -26.155  -3.232  30.065  0.00  0.00    -0.003 C 
ENDBRANCH  26  27
BRANCH  26  33
ATOM     33  C   UNL A   1     -25.387  -0.679  31.571  0.00  0.00    +0.095 C 
ATOM     34  C   UNL A   1     -25.189   0.773  32.028  0.00  0.00    +0.021 C 
ATOM     35  C   UNL A   1     -25.336   0.684  33.544  0.00  0.00    +0.020 C 
ATOM     36  C   UNL A   1     -24.829  -0.715  33.905  0.00  0.00    +0.089 C 
ATOM     37  N   UNL A   1     -24.758  -1.481  32.646  0.00  0.00    -0.217 NA
ENDBRANCH  26  33
ENDBRANCH  20  26
ENDBRANCH   2  20
BRANCH   1  38
ATOM     38  C   UNL A   1     -21.305   0.547  28.213  0.00  0.00    +0.065 C 
BRANCH  38  39
ATOM     39  C   UNL A   1     -21.366   1.501  27.186  0.00  0.00    +0.063 C 
ATOM     40  C   UNL A   1     -22.352   1.906  26.413  0.00  0.00    +0.130 C 
ATOM     41  O   UNL A   1     -22.876   2.485  25.544  0.00  0.00    -0.231 OA
ENDBRANCH  38  39
ENDBRANCH   1  38
TORSDOF 15
