REMARK  Name = outputs/IAG933/test6/raw/output_7246_IAG933_linker_design_.xyz
REMARK  15 active torsions:
REMARK  status: ('A' for Active; 'I' for Inactive)
REMARK    1  A    between atoms: C_1  and  C_2
REMARK    2  A    between atoms: C_1  and  C_8
REMARK    3  A    between atoms: C_1  and  C_28
REMARK    4  A    between atoms: C_13  and  N_29
REMARK    5  A    between atoms: C_14  and  C_15
REMARK    6  A    between atoms: C_21  and  O_22
REMARK    7  A    between atoms: O_22  and  C_23
REMARK    8  A    between atoms: C_23  and  C_24
REMARK    9  A    between atoms: C_28  and  C_44
REMARK   10  A    between atoms: N_29  and  C_39
REMARK   11  A    between atoms: N_29  and  C_44
REMARK   12  A    between atoms: C_32  and  C_39
REMARK   13  A    between atoms: C_33  and  C_39
REMARK   14  A    between atoms: N_35  and  C_36
REMARK   15  A    between atoms: N_37  and  C_44
REMARK                            x       y       z     vdW  Elec       q    Type
REMARK                         _______ _______ _______ _____ _____    ______ ____
ROOT
ATOM      1  N   UNL A   1     -24.709   1.411  27.559  0.00  0.00    -0.246 NA
ENDROOT
BRANCH   1   2
ATOM      2  C   UNL A   1     -25.688   1.614  26.461  0.00  0.00    +0.130 C 
ATOM      3  C   UNL A   1     -26.250   2.920  26.395  0.00  0.00    +0.070 C 
ATOM      4  C   UNL A   1     -27.438   3.091  25.645  0.00  0.00    +0.103 C 
ATOM      5  N   UNL A   1     -28.075   2.089  25.003  0.00  0.00    -0.212 NA
ATOM      6  C   UNL A   1     -27.543   0.849  25.079  0.00  0.00    +0.235 C 
ATOM      7  C   UNL A   1     -26.354   0.576  25.777  0.00  0.00    +0.255 C 
ATOM      8  F   UNL A   1     -25.860  -0.681  25.795  0.00  0.00    -0.225 F 
BRANCH   3   9
ATOM      9  C   UNL A   1     -25.642   4.093  27.123  0.00  0.00    +0.264 C 
ATOM     10  N   UNL A   1     -25.614   5.252  26.449  0.00  0.00    -0.200 NA
ATOM     11  C   UNL A   1     -25.026   6.479  26.963  0.00  0.00    +0.139 C 
ATOM     12  O   UNL A   1     -25.143   3.966  28.243  0.00  0.00    -0.269 OA
ENDBRANCH   3   9
BRANCH   6  13
ATOM     13  O   UNL A   1     -28.193  -0.208  24.477  0.00  0.00    -0.459 OA
BRANCH  13  14
ATOM     14  C   UNL A   1     -29.460   0.005  23.866  0.00  0.00    +0.242 C 
BRANCH  14  15
ATOM     15  C   UNL A   1     -30.065  -1.377  23.573  0.00  0.00    +0.229 C 
ATOM     16  O   UNL A   1     -30.729  -1.878  24.721  0.00  0.00    -0.216 OA
ENDBRANCH  14  15
ENDBRANCH  13  14
ENDBRANCH   6  13
ENDBRANCH   1   2
BRANCH   1  17
ATOM     17  C   UNL A   1     -23.286   1.390  27.244  0.00  0.00    +0.126 C 
BRANCH  17  19
ATOM     18  F   UNL A   1     -21.070   1.266  27.886  0.00  0.00    -0.197 F 
ATOM     19  C   UNL A   1     -22.281   1.017  28.164  0.00  0.00    +0.333 C 
ATOM     20  F   UNL A   1     -22.394   0.384  29.261  0.00  0.00    -0.197 F 
ENDBRANCH  17  19
BRANCH  17  21
ATOM     21  C   UNL A   1     -22.863   2.365  26.409  0.00  0.00    +0.022 C 
ATOM     22  C   UNL A   1     -22.933   2.316  24.917  0.00  0.00    +0.002 C 
ENDBRANCH  17  21
ENDBRANCH   1  17
BRANCH   1  23
ATOM     23  C   UNL A   1     -25.054   1.386  29.051  0.00  0.00    +0.188 C 
BRANCH  23  25
ATOM     24  N   UNL A   1     -25.388   4.117  31.275  0.00  0.00    -0.169 NA
ATOM     25  N   UNL A   1     -26.072   2.283  29.713  0.00  0.00    -0.170 NA
ATOM     26  O   UNL A   1     -27.453   3.833  30.549  0.00  0.00    -0.249 OA
ATOM     27  C   UNL A   1     -26.340   3.432  30.519  0.00  0.00    +0.342 C 
BRANCH  24  28
ATOM     28  C   UNL A   1     -25.647   5.306  32.187  0.00  0.00    +0.187 C 
ATOM     29  C   UNL A   1     -24.721   5.053  33.400  0.00  0.00    +0.045 C 
ATOM     30  N   UNL A   1     -26.927   5.935  32.748  0.00  0.00    -0.109 NA
ENDBRANCH  24  28
ENDBRANCH  23  25
BRANCH  23  31
ATOM     31  C   UNL A   1     -25.186  -0.135  28.987  0.00  0.00    +0.192 C 
ATOM     32  O   UNL A   1     -26.386  -0.493  28.372  0.00  0.00    -0.219 OA
BRANCH  31  33
ATOM     33  C   UNL A   1     -24.855  -1.012  30.143  0.00  0.00    +0.072 C 
BRANCH  33  34
ATOM     34  C   UNL A   1     -24.973  -2.505  29.788  0.00  0.00    -0.019 C 
ATOM     35  C   UNL A   1     -23.906  -3.173  29.146  0.00  0.00    -0.004 C 
ATOM     36  C   UNL A   1     -23.989  -4.549  28.853  0.00  0.00    -0.000 C 
ATOM     37  C   UNL A   1     -25.137  -5.280  29.205  0.00  0.00    -0.000 C 
ATOM     38  C   UNL A   1     -26.232  -4.611  29.784  0.00  0.00    -0.000 C 
ATOM     39  C   UNL A   1     -26.155  -3.232  30.065  0.00  0.00    -0.004 C 
ENDBRANCH  33  34
BRANCH  33  40
ATOM     40  C   UNL A   1     -25.387  -0.679  31.571  0.00  0.00    +0.079 C 
ATOM     41  C   UNL A   1     -25.189   0.773  32.028  0.00  0.00    +0.019 C 
ATOM     42  C   UNL A   1     -25.336   0.684  33.544  0.00  0.00    +0.020 C 
ATOM     43  C   UNL A   1     -24.829  -0.715  33.905  0.00  0.00    +0.089 C 
ATOM     44  N   UNL A   1     -24.758  -1.481  32.646  0.00  0.00    -0.219 NA
ENDBRANCH  33  40
ENDBRANCH  31  33
ENDBRANCH  23  31
ENDBRANCH   1  23
TORSDOF 15
