REMARK  Name = outputs/IAG933/test6/raw/output_725_IAG933_linker_design_.xyz
REMARK  11 active torsions:
REMARK  status: ('A' for Active; 'I' for Inactive)
REMARK    1  A    between atoms: C_1  and  C_2
REMARK    2  A    between atoms: C_1  and  C_8
REMARK    3  A    between atoms: C_1  and  C_43
REMARK    4  A    between atoms: C_13  and  C_37
REMARK    5  A    between atoms: C_14  and  C_15
REMARK    6  A    between atoms: C_21  and  O_22
REMARK    7  A    between atoms: O_22  and  C_23
REMARK    8  A    between atoms: C_23  and  C_24
REMARK    9  A    between atoms: N_31  and  C_38
REMARK   10  A    between atoms: N_31  and  C_43
REMARK   11  A    between atoms: C_32  and  C_43
REMARK                            x       y       z     vdW  Elec       q    Type
REMARK                         _______ _______ _______ _____ _____    ______ ____
ROOT
ATOM      1 CL   UNL A   1     -22.953   2.562  25.430  0.00  0.00    -0.105 Cl
ATOM      2  F   UNL A   1     -20.918   1.733  27.313  0.00  0.00    -0.208 F 
ATOM      3  C   UNL A   1     -24.253   0.365  28.393  0.00  0.00    +0.160 C 
ATOM      4  C   UNL A   1     -22.176   1.231  27.665  0.00  0.00    +0.133 C 
ATOM      5  C   UNL A   1     -24.516   1.305  27.332  0.00  0.00    +0.162 C 
ATOM      6  C   UNL A   1     -23.248   1.752  26.908  0.00  0.00    +0.161 C 
ATOM      7  O   UNL A   1     -24.782   1.674  28.610  0.00  0.00    -0.346 OA
ATOM      8  C   UNL A   1     -22.645   0.261  28.578  0.00  0.00    +0.031 C 
ENDROOT
BRANCH   5   9
ATOM      9  C   UNL A   1     -25.688   1.614  26.461  0.00  0.00    +0.044 C 
ATOM     10  C   UNL A   1     -26.250   2.920  26.395  0.00  0.00    +0.075 C 
ATOM     11  C   UNL A   1     -27.438   3.091  25.645  0.00  0.00    +0.106 C 
ATOM     12  N   UNL A   1     -28.075   2.089  25.003  0.00  0.00    -0.208 NA
ATOM     13  C   UNL A   1     -27.543   0.849  25.079  0.00  0.00    +0.253 C 
ATOM     14  C   UNL A   1     -26.354   0.576  25.777  0.00  0.00    +0.191 C 
ATOM     15  F   UNL A   1     -25.860  -0.681  25.795  0.00  0.00    -0.200 F 
BRANCH  10  16
ATOM     16  C   UNL A   1     -25.642   4.093  27.123  0.00  0.00    +0.266 C 
ATOM     17  N   UNL A   1     -25.614   5.252  26.449  0.00  0.00    -0.200 NA
ATOM     18  C   UNL A   1     -25.026   6.479  26.963  0.00  0.00    +0.139 C 
ATOM     19  O   UNL A   1     -25.143   3.966  28.243  0.00  0.00    -0.268 OA
ENDBRANCH  10  16
BRANCH  13  20
ATOM     20  O   UNL A   1     -28.193  -0.208  24.477  0.00  0.00    -0.456 OA
BRANCH  20  21
ATOM     21  C   UNL A   1     -29.460   0.005  23.866  0.00  0.00    +0.243 C 
BRANCH  21  22
ATOM     22  C   UNL A   1     -30.065  -1.377  23.573  0.00  0.00    +0.229 C 
ATOM     23  O   UNL A   1     -30.729  -1.878  24.721  0.00  0.00    -0.216 OA
ENDBRANCH  21  22
ENDBRANCH  20  21
ENDBRANCH  13  20
ENDBRANCH   5   9
BRANCH   3  24
ATOM     24  C   UNL A   1     -25.493  -0.344  28.822  0.00  0.00    +0.129 C 
BRANCH  24  25
ATOM     25  C   UNL A   1     -24.855  -1.012  30.143  0.00  0.00    +0.061 C 
BRANCH  25  26
ATOM     26  C   UNL A   1     -24.973  -2.505  29.788  0.00  0.00    -0.019 C 
ATOM     27  C   UNL A   1     -23.906  -3.173  29.146  0.00  0.00    -0.004 C 
ATOM     28  C   UNL A   1     -23.989  -4.549  28.853  0.00  0.00    -0.000 C 
ATOM     29  C   UNL A   1     -25.137  -5.280  29.205  0.00  0.00    -0.000 C 
ATOM     30  C   UNL A   1     -26.232  -4.611  29.784  0.00  0.00    -0.000 C 
ATOM     31  C   UNL A   1     -26.155  -3.232  30.065  0.00  0.00    -0.004 C 
ENDBRANCH  25  26
BRANCH  25  32
ATOM     32  C   UNL A   1     -25.387  -0.679  31.571  0.00  0.00    +0.079 C 
ATOM     33  C   UNL A   1     -25.189   0.773  32.028  0.00  0.00    +0.019 C 
ATOM     34  C   UNL A   1     -25.336   0.684  33.544  0.00  0.00    +0.020 C 
ATOM     35  C   UNL A   1     -24.829  -0.715  33.905  0.00  0.00    +0.089 C 
ATOM     36  N   UNL A   1     -24.758  -1.481  32.646  0.00  0.00    -0.219 NA
ENDBRANCH  25  32
ENDBRANCH  24  25
BRANCH  24  37
ATOM     37  N   UNL A   1     -26.878  -0.240  28.594  0.00  0.00    -0.236 NA
BRANCH  37  42
ATOM     38  C   UNL A   1     -30.736   1.265  28.033  0.00  0.00    +0.000 C 
ATOM     39  C   UNL A   1     -28.416   1.653  28.718  0.00  0.00    +0.016 C 
ATOM     40  C   UNL A   1     -29.233  -0.640  28.232  0.00  0.00    +0.016 C 
ATOM     41  C   UNL A   1     -29.721   2.082  28.558  0.00  0.00    +0.001 C 
ATOM     42  C   UNL A   1     -28.100   0.259  28.536  0.00  0.00    +0.065 C 
ATOM     43  C   UNL A   1     -30.514  -0.130  27.901  0.00  0.00    +0.001 C 
ENDBRANCH  37  42
ENDBRANCH  24  37
ENDBRANCH   3  24
TORSDOF 11
