REMARK  Name = outputs/IAG933/test6/raw/output_7253_IAG933_linker_design_.xyz
REMARK  12 active torsions:
REMARK  status: ('A' for Active; 'I' for Inactive)
REMARK    1  A    between atoms: C_1  and  C_2
REMARK    2  A    between atoms: C_1  and  C_8
REMARK    3  A    between atoms: C_9  and  C_42
REMARK    4  A    between atoms: C_13  and  C_34
REMARK    5  A    between atoms: C_14  and  C_15
REMARK    6  A    between atoms: C_21  and  O_22
REMARK    7  A    between atoms: O_22  and  C_23
REMARK    8  A    between atoms: C_23  and  C_24
REMARK    9  A    between atoms: C_34  and  C_41
REMARK   10  A    between atoms: C_34  and  N_43
REMARK   11  A    between atoms: C_36  and  C_42
REMARK   12  A    between atoms: C_39  and  C_42
REMARK                            x       y       z     vdW  Elec       q    Type
REMARK                         _______ _______ _______ _____ _____    ______ ____
ROOT
ATOM      1  O   UNL A   1     -27.451   1.617  29.608  0.00  0.00    -0.273 OA
ATOM      2  C   UNL A   1     -26.303   1.606  29.921  0.00  0.00    +0.243 C 
ATOM      3  N   UNL A   1     -25.331   1.599  28.898  0.00  0.00    -0.207 NA
ENDROOT
BRANCH   3   4
ATOM      4  C   UNL A   1     -24.707   1.294  27.501  0.00  0.00    +0.103 C 
BRANCH   4   5
ATOM      5  C   UNL A   1     -25.688   1.614  26.461  0.00  0.00    +0.090 C 
ATOM      6  C   UNL A   1     -26.250   2.920  26.395  0.00  0.00    +0.057 C 
ATOM      7  C   UNL A   1     -27.438   3.091  25.645  0.00  0.00    +0.102 C 
ATOM      8  N   UNL A   1     -28.075   2.089  25.003  0.00  0.00    -0.212 NA
ATOM      9  C   UNL A   1     -27.543   0.849  25.079  0.00  0.00    +0.234 C 
ATOM     10  C   UNL A   1     -26.354   0.576  25.777  0.00  0.00    +0.242 C 
ATOM     11  F   UNL A   1     -25.860  -0.681  25.795  0.00  0.00    -0.227 F 
BRANCH   6  12
ATOM     12  C   UNL A   1     -25.642   4.093  27.123  0.00  0.00    +0.263 C 
ATOM     13  N   UNL A   1     -25.614   5.252  26.449  0.00  0.00    -0.200 NA
ATOM     14  C   UNL A   1     -25.026   6.479  26.963  0.00  0.00    +0.139 C 
ATOM     15  O   UNL A   1     -25.143   3.966  28.243  0.00  0.00    -0.269 OA
ENDBRANCH   6  12
BRANCH   9  16
ATOM     16  O   UNL A   1     -28.193  -0.208  24.477  0.00  0.00    -0.459 OA
BRANCH  16  17
ATOM     17  C   UNL A   1     -29.460   0.005  23.866  0.00  0.00    +0.242 C 
BRANCH  17  18
ATOM     18  C   UNL A   1     -30.065  -1.377  23.573  0.00  0.00    +0.229 C 
ATOM     19  O   UNL A   1     -30.729  -1.878  24.721  0.00  0.00    -0.216 OA
ENDBRANCH  17  18
ENDBRANCH  16  17
ENDBRANCH   9  16
ENDBRANCH   4   5
BRANCH   4  22
ATOM     20  C   UNL A   1     -23.155   2.249  25.501  0.00  0.00    +0.002 C 
ATOM     21  C   UNL A   1     -22.131   1.651  27.778  0.00  0.00    +0.002 C 
ATOM     22  C   UNL A   1     -23.292   1.509  26.845  0.00  0.00    +0.020 C 
ENDBRANCH   4  22
ENDBRANCH   3   4
BRANCH   2  23
ATOM     23  C   UNL A   1     -25.793   1.931  31.251  0.00  0.00    +0.107 C 
BRANCH  23  29
ATOM     24  C   UNL A   1     -24.583   6.437  35.006  0.00  0.00    +0.095 C 
ATOM     25  N   UNL A   1     -25.632   5.394  32.897  0.00  0.00    -0.254 N 
ATOM     26  O   UNL A   1     -24.385   3.591  31.878  0.00  0.00    -0.336 OA
ATOM     27  C   UNL A   1     -24.260   4.806  32.538  0.00  0.00    +0.242 C 
ATOM     28  C   UNL A   1     -25.767   6.021  34.152  0.00  0.00    +0.228 C 
ATOM     29  C   UNL A   1     -25.740   3.162  31.905  0.00  0.00    +0.128 C 
ATOM     30  C   UNL A   1     -26.868   5.075  32.284  0.00  0.00    +0.098 C 
ATOM     31  O   UNL A   1     -26.864   6.009  34.702  0.00  0.00    -0.275 OA
ATOM     32  C   UNL A   1     -26.826   4.038  31.484  0.00  0.00    +0.052 C 
ENDBRANCH  23  29
BRANCH  23  34
ATOM     33  C   UNL A   1     -25.387  -0.679  31.571  0.00  0.00    +0.078 C 
ATOM     34  C   UNL A   1     -25.189   0.773  32.028  0.00  0.00    +0.029 C 
ATOM     35  C   UNL A   1     -25.336   0.684  33.544  0.00  0.00    +0.021 C 
ATOM     36  C   UNL A   1     -24.829  -0.715  33.905  0.00  0.00    +0.089 C 
ATOM     37  N   UNL A   1     -24.758  -1.481  32.646  0.00  0.00    -0.219 NA
BRANCH  33  38
ATOM     38  C   UNL A   1     -24.855  -1.012  30.143  0.00  0.00    +0.044 C 
BRANCH  38  39
ATOM     39  C   UNL A   1     -24.973  -2.505  29.788  0.00  0.00    -0.021 C 
ATOM     40  C   UNL A   1     -23.906  -3.173  29.146  0.00  0.00    -0.004 C 
ATOM     41  C   UNL A   1     -23.989  -4.549  28.853  0.00  0.00    -0.000 C 
ATOM     42  C   UNL A   1     -25.137  -5.280  29.205  0.00  0.00    -0.000 C 
ATOM     43  C   UNL A   1     -26.232  -4.611  29.784  0.00  0.00    -0.000 C 
ATOM     44  C   UNL A   1     -26.155  -3.232  30.065  0.00  0.00    -0.004 C 
ENDBRANCH  38  39
ENDBRANCH  33  38
ENDBRANCH  23  34
ENDBRANCH   2  23
TORSDOF 12
