REMARK  Name = outputs/IAG933/test6/raw/output_7259_IAG933_linker_design_.xyz
REMARK  14 active torsions:
REMARK  status: ('A' for Active; 'I' for Inactive)
REMARK    1  A    between atoms: C_1  and  C_2
REMARK    2  A    between atoms: C_1  and  C_8
REMARK    3  A    between atoms: C_1  and  C_34
REMARK    4  A    between atoms: C_13  and  C_41
REMARK    5  A    between atoms: C_14  and  C_15
REMARK    6  A    between atoms: C_21  and  O_22
REMARK    7  A    between atoms: O_22  and  C_23
REMARK    8  A    between atoms: C_23  and  C_24
REMARK    9  A    between atoms: C_30  and  O_32
REMARK   10  A    between atoms: C_34  and  O_43
REMARK   11  A    between atoms: C_34  and  C_45
REMARK   12  A    between atoms: C_38  and  C_42
REMARK   13  A    between atoms: C_38  and  O_43
REMARK   14  A    between atoms: C_44  and  C_46
REMARK                            x       y       z     vdW  Elec       q    Type
REMARK                         _______ _______ _______ _____ _____    ______ ____
ROOT
ATOM      1  C   UNL A   1     -25.683  -0.336  28.982  0.00  0.00    +0.144 C 
ENDROOT
BRANCH   1   7
ATOM      2  C   UNL A   1     -23.286   1.608  26.546  0.00  0.00    +0.207 C 
ATOM      3  N   UNL A   1     -22.261   1.769  27.365  0.00  0.00    -0.193 NA
ATOM      4  C   UNL A   1     -22.375   1.305  28.671  0.00  0.00    +0.197 C 
ATOM      5  N   UNL A   1     -23.415   0.650  29.098  0.00  0.00    -0.249 NA
ATOM      6  C   UNL A   1     -24.517   1.265  27.088  0.00  0.00    +0.126 C 
ATOM      7  C   UNL A   1     -24.543   0.590  28.367  0.00  0.00    +0.145 C 
BRANCH   6   8
ATOM      8  C   UNL A   1     -25.688   1.614  26.461  0.00  0.00    +0.026 C 
ATOM      9  C   UNL A   1     -26.250   2.920  26.395  0.00  0.00    +0.073 C 
ATOM     10  C   UNL A   1     -27.438   3.091  25.645  0.00  0.00    +0.106 C 
ATOM     11  N   UNL A   1     -28.075   2.089  25.003  0.00  0.00    -0.208 NA
ATOM     12  C   UNL A   1     -27.543   0.849  25.079  0.00  0.00    +0.253 C 
ATOM     13  C   UNL A   1     -26.354   0.576  25.777  0.00  0.00    +0.190 C 
ATOM     14  F   UNL A   1     -25.860  -0.681  25.795  0.00  0.00    -0.200 F 
BRANCH   9  15
ATOM     15  C   UNL A   1     -25.642   4.093  27.123  0.00  0.00    +0.266 C 
ATOM     16  N   UNL A   1     -25.614   5.252  26.449  0.00  0.00    -0.200 NA
ATOM     17  C   UNL A   1     -25.026   6.479  26.963  0.00  0.00    +0.139 C 
ATOM     18  O   UNL A   1     -25.143   3.966  28.243  0.00  0.00    -0.268 OA
ENDBRANCH   9  15
BRANCH  12  19
ATOM     19  O   UNL A   1     -28.193  -0.208  24.477  0.00  0.00    -0.456 OA
BRANCH  19  20
ATOM     20  C   UNL A   1     -29.460   0.005  23.866  0.00  0.00    +0.243 C 
BRANCH  20  21
ATOM     21  C   UNL A   1     -30.065  -1.377  23.573  0.00  0.00    +0.229 C 
ATOM     22  O   UNL A   1     -30.729  -1.878  24.721  0.00  0.00    -0.216 OA
ENDBRANCH  20  21
ENDBRANCH  19  20
ENDBRANCH  12  19
ENDBRANCH   6   8
BRANCH   2  24
ATOM     23  C   UNL A   1     -21.797   1.985  24.665  0.00  0.00    +0.254 C 
ATOM     24  O   UNL A   1     -23.100   1.750  25.203  0.00  0.00    -0.459 OA
ENDBRANCH   2  24
ENDBRANCH   1   7
BRANCH   1  25
ATOM     25  C   UNL A   1     -24.855  -1.012  30.143  0.00  0.00    +0.067 C 
BRANCH  25  26
ATOM     26  C   UNL A   1     -24.973  -2.505  29.788  0.00  0.00    -0.019 C 
ATOM     27  C   UNL A   1     -23.906  -3.173  29.146  0.00  0.00    -0.004 C 
ATOM     28  C   UNL A   1     -23.989  -4.549  28.853  0.00  0.00    -0.000 C 
ATOM     29  C   UNL A   1     -25.137  -5.280  29.205  0.00  0.00    -0.000 C 
ATOM     30  C   UNL A   1     -26.232  -4.611  29.784  0.00  0.00    -0.000 C 
ATOM     31  C   UNL A   1     -26.155  -3.232  30.065  0.00  0.00    -0.004 C 
ENDBRANCH  25  26
BRANCH  25  32
ATOM     32  C   UNL A   1     -25.387  -0.679  31.571  0.00  0.00    +0.079 C 
ATOM     33  C   UNL A   1     -25.189   0.773  32.028  0.00  0.00    +0.019 C 
ATOM     34  C   UNL A   1     -25.336   0.684  33.544  0.00  0.00    +0.020 C 
ATOM     35  C   UNL A   1     -24.829  -0.715  33.905  0.00  0.00    +0.089 C 
ATOM     36  N   UNL A   1     -24.758  -1.481  32.646  0.00  0.00    -0.219 NA
ENDBRANCH  25  32
ENDBRANCH   1  25
BRANCH   1  37
ATOM     37  O   UNL A   1     -27.114   0.018  29.237  0.00  0.00    -0.354 OA
BRANCH  37  38
ATOM     38  C   UNL A   1     -28.365  -0.841  29.161  0.00  0.00    +0.146 C 
BRANCH  38  43
ATOM     39  O   UNL A   1     -31.359   0.834  27.519  0.00  0.00    -0.329 OA
ATOM     40  O   UNL A   1     -30.665   2.981  27.482  0.00  0.00    -0.191 OA
ATOM     41  C   UNL A   1     -29.361   1.504  28.958  0.00  0.00    +0.141 C 
ATOM     42  C   UNL A   1     -30.369  -0.276  27.504  0.00  0.00    +0.149 C 
ATOM     43  C   UNL A   1     -29.252   0.153  28.589  0.00  0.00    +0.079 C 
ATOM     44  C   UNL A   1     -30.787   1.952  28.404  0.00  0.00    +0.264 C 
ATOM     45 CL   UNL A   1     -28.294   2.828  29.552  0.00  0.00    -0.110 Cl
BRANCH  44  47
ATOM     46  O   UNL A   1     -32.872   1.992  29.956  0.00  0.00    -0.215 OA
ATOM     47  C   UNL A   1     -31.454   2.097  29.670  0.00  0.00    +0.242 C 
ENDBRANCH  44  47
ENDBRANCH  38  43
ENDBRANCH  37  38
ENDBRANCH   1  37
TORSDOF 14
