MODEL 726
MODEL 1
REMARK VINA RESULT:    -6.810      0.000      0.000
REMARK INTER + INTRA:          -9.551
REMARK INTER:                  -8.800
REMARK INTRA:                  -0.751
REMARK UNBOUND:                -0.751
REMARK  Name = No_726-gen_results/8p0m/2024-11-27-11-27-31/
REMARK  5 active torsions:
REMARK  status: ('A' for Active; 'I' for Inactive)
REMARK    1  A    between atoms: C_1  and  C_2
REMARK    2  A    between atoms: C_1  and  C_8
REMARK    3  A    between atoms: C_5  and  C_16
REMARK    4  A    between atoms: C_8  and  C_9
REMARK    5  A    between atoms: C_13  and  C_19
REMARK                            x       y       z     vdW  Elec       q    Type
REMARK                         _______ _______ _______ _____ _____    ______ ____
ROOT
ATOM      1  C   UNL A   1     -25.868   0.317  26.400  0.00  0.00    +0.177 C 
ATOM      2  O   UNL A   1     -26.754   0.015  27.273  0.00  0.00    -0.291 OA
ENDROOT
BRANCH   1   3
ATOM      3  C   UNL A   1     -24.583   0.802  26.746  0.00  0.00    +0.035 A 
ATOM      4  C   UNL A   1     -24.131   1.677  26.268  0.00  0.00    +0.003 A 
ATOM      5  C   UNL A   1     -22.798   2.148  26.497  0.00  0.00    +0.000 A 
ATOM      6  C   UNL A   1     -22.088   1.478  27.511  0.00  0.00    +0.007 A 
ATOM      7  C   UNL A   1     -22.640   0.427  28.130  0.00  0.00    +0.080 A 
ATOM      8  C   UNL A   1     -23.907   0.024  27.772  0.00  0.00    +0.009 A 
BRANCH   7   9
ATOM      9  C   UNL A   1     -21.926  -0.318  29.162  0.00  0.00    +0.388 C 
ATOM     10  O   UNL A   1     -20.976  -1.029  28.883  0.00  0.00    -0.241 OA
ATOM     11  O   UNL A   1     -22.308  -0.299  30.402  0.00  0.00    -0.241 OA
ENDBRANCH   7   9
ENDBRANCH   1   3
BRANCH   1  12
ATOM     12  C   UNL A   1     -26.117   0.098  24.966  0.00  0.00    +0.095 C 
BRANCH  12  13
ATOM     13  C   UNL A   1     -27.176   0.525  24.571  0.00  0.00    -0.015 A 
ATOM     14  C   UNL A   1     -28.179  -0.274  24.057  0.00  0.00    -0.004 A 
ATOM     15  C   UNL A   1     -29.434   0.196  23.500  0.00  0.00    +0.004 A 
ATOM     16  C   UNL A   1     -29.689   1.585  23.476  0.00  0.00    +0.057 A 
ATOM     17  C   UNL A   1     -28.645   2.430  23.996  0.00  0.00    +0.004 A 
ATOM     18  C   UNL A   1     -27.447   1.964  24.485  0.00  0.00    -0.004 A 
BRANCH  16  19
ATOM     19  C   UNL A   1     -30.870   2.150  22.932  0.00  0.00    +0.284 C 
ATOM     20  N   UNL A   1     -31.556   1.631  22.083  0.00  0.00    -0.084 NA
ATOM     21  O   UNL A   1     -31.139   3.375  23.280  0.00  0.00    -0.267 OA
ENDBRANCH  16  19
ENDBRANCH  12  13
ENDBRANCH   1  12
TORSDOF 5
ENDMDL
ENDMDL
