REMARK  Name = outputs/IAG933/test6/raw/output_7271_IAG933_linker_design_.xyz
REMARK  18 active torsions:
REMARK  status: ('A' for Active; 'I' for Inactive)
REMARK    1  A    between atoms: C_1  and  C_2
REMARK    2  A    between atoms: C_1  and  C_8
REMARK    3  A    between atoms: C_1  and  C_39
REMARK    4  A    between atoms: C_13  and  C_41
REMARK    5  A    between atoms: C_14  and  C_15
REMARK    6  A    between atoms: C_21  and  O_22
REMARK    7  A    between atoms: O_22  and  C_23
REMARK    8  A    between atoms: C_23  and  C_24
REMARK    9  A    between atoms: C_28  and  O_30
REMARK   10  A    between atoms: C_28  and  C_42
REMARK   11  A    between atoms: N_29  and  C_39
REMARK   12  A    between atoms: N_29  and  C_41
REMARK   13  A    between atoms: O_30  and  C_44
REMARK   14  A    between atoms: C_31  and  C_32
REMARK   15  A    between atoms: C_31  and  C_43
REMARK   16  A    between atoms: C_32  and  C_44
REMARK   17  A    between atoms: C_38  and  C_45
REMARK   18  A    between atoms: C_39  and  C_43
REMARK                            x       y       z     vdW  Elec       q    Type
REMARK                         _______ _______ _______ _____ _____    ______ ____
ROOT
ATOM      1  C   UNL A   1     -25.593  -0.046  29.056  0.00  0.00    +0.138 C 
ENDROOT
BRANCH   1   2
ATOM      2  N   UNL A   1     -24.612   1.014  28.638  0.00  0.00    -0.270 N 
ATOM      3  O   UNL A   1     -22.622  -0.548  29.073  0.00  0.00    -0.275 OA
ATOM      4  C   UNL A   1     -23.293   0.655  28.695  0.00  0.00    +0.226 C 
BRANCH   4   6
ATOM      5  C   UNL A   1     -21.766   1.722  26.732  0.00  0.00    +0.010 C 
ATOM      6  C   UNL A   1     -22.345   1.789  28.183  0.00  0.00    +0.085 C 
ENDBRANCH   4   6
BRANCH   2   7
ATOM      7  C   UNL A   1     -24.632   1.306  27.213  0.00  0.00    +0.123 C 
BRANCH   7   8
ATOM      8  C   UNL A   1     -25.688   1.614  26.461  0.00  0.00    +0.036 C 
ATOM      9  C   UNL A   1     -26.250   2.920  26.395  0.00  0.00    +0.074 C 
ATOM     10  C   UNL A   1     -27.438   3.091  25.645  0.00  0.00    +0.106 C 
ATOM     11  N   UNL A   1     -28.075   2.089  25.003  0.00  0.00    -0.208 NA
ATOM     12  C   UNL A   1     -27.543   0.849  25.079  0.00  0.00    +0.253 C 
ATOM     13  C   UNL A   1     -26.354   0.576  25.777  0.00  0.00    +0.191 C 
ATOM     14  F   UNL A   1     -25.860  -0.681  25.795  0.00  0.00    -0.200 F 
BRANCH   9  15
ATOM     15  C   UNL A   1     -25.642   4.093  27.123  0.00  0.00    +0.266 C 
ATOM     16  N   UNL A   1     -25.614   5.252  26.449  0.00  0.00    -0.200 NA
ATOM     17  C   UNL A   1     -25.026   6.479  26.963  0.00  0.00    +0.139 C 
ATOM     18  O   UNL A   1     -25.143   3.966  28.243  0.00  0.00    -0.268 OA
ENDBRANCH   9  15
BRANCH  12  19
ATOM     19  O   UNL A   1     -28.193  -0.208  24.477  0.00  0.00    -0.456 OA
BRANCH  19  20
ATOM     20  C   UNL A   1     -29.460   0.005  23.866  0.00  0.00    +0.243 C 
BRANCH  20  21
ATOM     21  C   UNL A   1     -30.065  -1.377  23.573  0.00  0.00    +0.229 C 
ATOM     22  O   UNL A   1     -30.729  -1.878  24.721  0.00  0.00    -0.216 OA
ENDBRANCH  20  21
ENDBRANCH  19  20
ENDBRANCH  12  19
ENDBRANCH   7   8
ENDBRANCH   2   7
ENDBRANCH   1   2
BRANCH   1  24
ATOM     23  O   UNL A   1     -27.965   0.045  28.470  0.00  0.00    -0.294 OA
ATOM     24  C   UNL A   1     -26.978   0.648  28.941  0.00  0.00    +0.169 C 
BRANCH  24  25
ATOM     25  C   UNL A   1     -27.109   2.089  29.524  0.00  0.00    +0.070 C 
BRANCH  25  26
ATOM     26  C   UNL A   1     -28.554   2.587  29.467  0.00  0.00    +0.055 C 
BRANCH  26  27
ATOM     27  C   UNL A   1     -29.011   3.800  30.280  0.00  0.00    +0.209 C 
BRANCH  27  28
ATOM     28  O   UNL A   1     -29.226   3.724  31.746  0.00  0.00    -0.447 OA
BRANCH  28  29
ATOM     29  C   UNL A   1     -28.206   4.049  32.664  0.00  0.00    +0.348 C 
ATOM     30  O   UNL A   1     -28.649   4.184  33.921  0.00  0.00    -0.247 OA
BRANCH  29  33
ATOM     31  O   UNL A   1     -26.166   4.667  33.492  0.00  0.00    -0.211 OA
ATOM     32  C   UNL A   1     -26.487   5.447  31.224  0.00  0.00    +0.048 C 
ATOM     33  C   UNL A   1     -26.804   4.292  32.263  0.00  0.00    +0.250 C 
ENDBRANCH  29  33
ENDBRANCH  28  29
ENDBRANCH  27  28
ENDBRANCH  26  27
ENDBRANCH  25  26
ENDBRANCH  24  25
ENDBRANCH   1  24
BRANCH   1  34
ATOM     34  C   UNL A   1     -24.855  -1.012  30.143  0.00  0.00    +0.064 C 
BRANCH  34  35
ATOM     35  C   UNL A   1     -24.973  -2.505  29.788  0.00  0.00    -0.019 C 
ATOM     36  C   UNL A   1     -23.906  -3.173  29.146  0.00  0.00    -0.004 C 
ATOM     37  C   UNL A   1     -23.989  -4.549  28.853  0.00  0.00    -0.000 C 
ATOM     38  C   UNL A   1     -25.137  -5.280  29.205  0.00  0.00    -0.000 C 
ATOM     39  C   UNL A   1     -26.232  -4.611  29.784  0.00  0.00    -0.000 C 
ATOM     40  C   UNL A   1     -26.155  -3.232  30.065  0.00  0.00    -0.004 C 
ENDBRANCH  34  35
BRANCH  34  41
ATOM     41  C   UNL A   1     -25.387  -0.679  31.571  0.00  0.00    +0.079 C 
ATOM     42  C   UNL A   1     -25.189   0.773  32.028  0.00  0.00    +0.019 C 
ATOM     43  C   UNL A   1     -25.336   0.684  33.544  0.00  0.00    +0.020 C 
ATOM     44  C   UNL A   1     -24.829  -0.715  33.905  0.00  0.00    +0.089 C 
ATOM     45  N   UNL A   1     -24.758  -1.481  32.646  0.00  0.00    -0.219 NA
ENDBRANCH  34  41
ENDBRANCH   1  34
TORSDOF 18
