REMARK  Name = outputs/IAG933/test6/raw/output_7273_IAG933_linker_design_.xyz
REMARK  8 active torsions:
REMARK  status: ('A' for Active; 'I' for Inactive)
REMARK    1  A    between atoms: C_1  and  C_2
REMARK    2  A    between atoms: C_1  and  C_8
REMARK    3  A    between atoms: C_1  and  N_33
REMARK    4  A    between atoms: C_21  and  O_22
REMARK    5  A    between atoms: O_22  and  C_23
REMARK    6  A    between atoms: C_23  and  C_24
REMARK    7  A    between atoms: N_33  and  C_40
REMARK    8  A    between atoms: N_33  and  C_41
REMARK                            x       y       z     vdW  Elec       q    Type
REMARK                         _______ _______ _______ _____ _____    ______ ____
ROOT
ATOM      1  C   UNL A   1     -25.688   1.614  26.461  0.00  0.00    +0.026 C 
ATOM      2  C   UNL A   1     -26.250   2.920  26.395  0.00  0.00    +0.071 C 
ATOM      3  C   UNL A   1     -25.642   4.093  27.123  0.00  0.00    +0.231 C 
ATOM      4  N   UNL A   1     -25.614   5.252  26.449  0.00  0.00    -0.235 NA
ATOM      5  C   UNL A   1     -25.026   6.479  26.963  0.00  0.00    +0.155 C 
ATOM      6  O   UNL A   1     -25.143   3.966  28.243  0.00  0.00    -0.391 OA
ATOM      7  C   UNL A   1     -27.438   3.091  25.645  0.00  0.00    +0.106 C 
ATOM      8  N   UNL A   1     -28.075   2.089  25.003  0.00  0.00    -0.208 NA
ATOM      9  C   UNL A   1     -27.543   0.849  25.079  0.00  0.00    +0.253 C 
ATOM     10  C   UNL A   1     -26.354   0.576  25.777  0.00  0.00    +0.190 C 
ATOM     11  F   UNL A   1     -25.860  -0.681  25.795  0.00  0.00    -0.200 F 
ATOM     12  F   UNL A   1     -20.552   0.371  28.064  0.00  0.00    -0.207 F 
ATOM     13  O   UNL A   1     -25.674   4.126  30.347  0.00  0.00    -0.224 OA
ATOM     14  C   UNL A   1     -24.435   1.497  27.243  0.00  0.00    +0.125 C 
ATOM     15  N   UNL A   1     -25.288   2.117  29.478  0.00  0.00    -0.146 NA
ATOM     16  C   UNL A   1     -22.909   0.520  28.859  0.00  0.00    +0.127 C 
ATOM     17  C   UNL A   1     -23.299   2.136  26.606  0.00  0.00    +0.165 C 
ATOM     18  C   UNL A   1     -25.355   3.404  29.404  0.00  0.00    +0.429 C 
ATOM     19  C   UNL A   1     -21.789   0.912  27.930  0.00  0.00    +0.141 C 
ATOM     20  O   UNL A   1     -23.281   2.787  25.518  0.00  0.00    -0.295 OA
ATOM     21  N   UNL A   1     -22.345  -0.384  29.811  0.00  0.00    -0.127 NA
ATOM     22  C   UNL A   1     -24.581   1.153  28.605  0.00  0.00    +0.196 C 
ATOM     23  C   UNL A   1     -21.945   1.744  26.810  0.00  0.00    +0.122 C 
ENDROOT
BRANCH   9  24
ATOM     24  O   UNL A   1     -28.193  -0.208  24.477  0.00  0.00    -0.456 OA
BRANCH  24  25
ATOM     25  C   UNL A   1     -29.460   0.005  23.866  0.00  0.00    +0.243 C 
BRANCH  25  26
ATOM     26  C   UNL A   1     -30.065  -1.377  23.573  0.00  0.00    +0.229 C 
ATOM     27  O   UNL A   1     -30.729  -1.878  24.721  0.00  0.00    -0.216 OA
ENDBRANCH  25  26
ENDBRANCH  24  25
ENDBRANCH   9  24
BRANCH  22  28
ATOM     28  N   UNL A   1     -25.359  -0.091  29.077  0.00  0.00    -0.224 N 
BRANCH  28  30
ATOM     29  N   UNL A   1     -27.643  -0.741  28.616  0.00  0.00    -0.174 NA
ATOM     30  C   UNL A   1     -26.564  -0.353  28.646  0.00  0.00    +0.172 C 
ENDBRANCH  28  30
BRANCH  28  31
ATOM     31  C   UNL A   1     -24.855  -1.012  30.143  0.00  0.00    +0.123 C 
BRANCH  31  32
ATOM     32  C   UNL A   1     -24.973  -2.505  29.788  0.00  0.00    -0.002 C 
ATOM     33  C   UNL A   1     -23.906  -3.173  29.146  0.00  0.00    -0.003 C 
ATOM     34  C   UNL A   1     -23.989  -4.549  28.853  0.00  0.00    -0.000 C 
ATOM     35  C   UNL A   1     -25.137  -5.280  29.205  0.00  0.00    -0.000 C 
ATOM     36  C   UNL A   1     -26.232  -4.611  29.784  0.00  0.00    -0.000 C 
ATOM     37  C   UNL A   1     -26.155  -3.232  30.065  0.00  0.00    -0.003 C 
ENDBRANCH  31  32
BRANCH  31  38
ATOM     38  C   UNL A   1     -25.387  -0.679  31.571  0.00  0.00    +0.096 C 
ATOM     39  C   UNL A   1     -25.189   0.773  32.028  0.00  0.00    +0.021 C 
ATOM     40  C   UNL A   1     -25.336   0.684  33.544  0.00  0.00    +0.020 C 
ATOM     41  C   UNL A   1     -24.829  -0.715  33.905  0.00  0.00    +0.089 C 
ATOM     42  N   UNL A   1     -24.758  -1.481  32.646  0.00  0.00    -0.217 NA
ENDBRANCH  31  38
ENDBRANCH  28  31
ENDBRANCH  22  28
TORSDOF 8
