REMARK  Name = outputs/IAG933/test6/raw/output_7276_IAG933_linker_design_.xyz
REMARK  12 active torsions:
REMARK  status: ('A' for Active; 'I' for Inactive)
REMARK    1  A    between atoms: C_1  and  C_2
REMARK    2  A    between atoms: C_1  and  C_8
REMARK    3  A    between atoms: C_1  and  C_30
REMARK    4  A    between atoms: C_13  and  C_40
REMARK    5  A    between atoms: C_14  and  C_15
REMARK    6  A    between atoms: C_21  and  O_22
REMARK    7  A    between atoms: O_22  and  C_23
REMARK    8  A    between atoms: C_23  and  C_24
REMARK    9  A    between atoms: C_28  and  C_30
REMARK   10  A    between atoms: C_30  and  N_46
REMARK   11  A    between atoms: N_31  and  C_32
REMARK   12  A    between atoms: C_32  and  C_43
REMARK                            x       y       z     vdW  Elec       q    Type
REMARK                         _______ _______ _______ _____ _____    ______ ____
ROOT
ATOM      1  C   UNL A   1     -25.376  -0.118  28.908  0.00  0.00    +0.123 C 
ENDROOT
BRANCH   1   2
ATOM      2  C   UNL A   1     -24.164   0.626  28.192  0.00  0.00    +0.001 C 
ATOM      3  C   UNL A   1     -22.806   0.366  28.614  0.00  0.00    +0.018 C 
ATOM      4  C   UNL A   1     -21.717   1.049  28.024  0.00  0.00    +0.099 C 
ATOM      5  N   UNL A   1     -21.935   1.970  27.024  0.00  0.00    -0.242 NA
ATOM      6  C   UNL A   1     -24.347   1.467  27.062  0.00  0.00    +0.019 C 
ATOM      7  C   UNL A   1     -23.208   2.149  26.514  0.00  0.00    +0.099 C 
BRANCH   6   8
ATOM      8  C   UNL A   1     -25.688   1.614  26.461  0.00  0.00    +0.039 C 
ATOM      9  C   UNL A   1     -26.250   2.920  26.395  0.00  0.00    +0.077 C 
ATOM     10  C   UNL A   1     -27.438   3.091  25.645  0.00  0.00    +0.107 C 
ATOM     11  N   UNL A   1     -28.075   2.089  25.003  0.00  0.00    -0.208 NA
ATOM     12  C   UNL A   1     -27.543   0.849  25.079  0.00  0.00    +0.253 C 
ATOM     13  C   UNL A   1     -26.354   0.576  25.777  0.00  0.00    +0.193 C 
ATOM     14  F   UNL A   1     -25.860  -0.681  25.795  0.00  0.00    -0.199 F 
BRANCH   9  15
ATOM     15  C   UNL A   1     -25.642   4.093  27.123  0.00  0.00    +0.266 C 
ATOM     16  N   UNL A   1     -25.614   5.252  26.449  0.00  0.00    -0.200 NA
ATOM     17  C   UNL A   1     -25.026   6.479  26.963  0.00  0.00    +0.139 C 
ATOM     18  O   UNL A   1     -25.143   3.966  28.243  0.00  0.00    -0.268 OA
ENDBRANCH   9  15
BRANCH  12  19
ATOM     19  O   UNL A   1     -28.193  -0.208  24.477  0.00  0.00    -0.456 OA
BRANCH  19  20
ATOM     20  C   UNL A   1     -29.460   0.005  23.866  0.00  0.00    +0.243 C 
BRANCH  20  21
ATOM     21  C   UNL A   1     -30.065  -1.377  23.573  0.00  0.00    +0.229 C 
ATOM     22  O   UNL A   1     -30.729  -1.878  24.721  0.00  0.00    -0.216 OA
ENDBRANCH  20  21
ENDBRANCH  19  20
ENDBRANCH  12  19
ENDBRANCH   6   8
ENDBRANCH   1   2
BRANCH   1  25
ATOM     23  O   UNL A   1     -28.319  -0.406  28.890  0.00  0.00    -0.272 OA
ATOM     24  C   UNL A   1     -27.739   0.519  29.428  0.00  0.00    +0.258 C 
ATOM     25  N   UNL A   1     -26.485   0.832  29.141  0.00  0.00    -0.201 NA
BRANCH  24  26
ATOM     26  C   UNL A   1     -28.447   1.457  30.517  0.00  0.00    +0.160 C 
BRANCH  26  28
ATOM     27  O   UNL A   1     -30.081   6.581  30.247  0.00  0.00    -0.118 OA
ATOM     28  N   UNL A   1     -28.631   2.844  30.300  0.00  0.00    -0.264 NA
ATOM     29  C   UNL A   1     -30.435   4.393  31.297  0.00  0.00    +0.120 C 
ATOM     30  N   UNL A   1     -30.540   5.255  30.107  0.00  0.00    -0.130 NA
ATOM     31  C   UNL A   1     -29.296   3.091  29.028  0.00  0.00    +0.093 C 
ATOM     32  C   UNL A   1     -28.957   3.000  32.698  0.00  0.00    +0.019 C 
ATOM     33  C   UNL A   1     -29.061   3.737  31.369  0.00  0.00    +0.076 C 
ATOM     34  C   UNL A   1     -29.996   4.480  28.924  0.00  0.00    +0.121 C 
ENDBRANCH  26  28
ENDBRANCH  24  26
ENDBRANCH   1  25
BRANCH   1  35
ATOM     35  C   UNL A   1     -24.855  -1.012  30.143  0.00  0.00    +0.062 C 
BRANCH  35  36
ATOM     36  C   UNL A   1     -24.973  -2.505  29.788  0.00  0.00    -0.019 C 
ATOM     37  C   UNL A   1     -23.906  -3.173  29.146  0.00  0.00    -0.004 C 
ATOM     38  C   UNL A   1     -23.989  -4.549  28.853  0.00  0.00    -0.000 C 
ATOM     39  C   UNL A   1     -25.137  -5.280  29.205  0.00  0.00    -0.000 C 
ATOM     40  C   UNL A   1     -26.232  -4.611  29.784  0.00  0.00    -0.000 C 
ATOM     41  C   UNL A   1     -26.155  -3.232  30.065  0.00  0.00    -0.004 C 
ENDBRANCH  35  36
BRANCH  35  42
ATOM     42  C   UNL A   1     -25.387  -0.679  31.571  0.00  0.00    +0.079 C 
ATOM     43  C   UNL A   1     -25.189   0.773  32.028  0.00  0.00    +0.019 C 
ATOM     44  C   UNL A   1     -25.336   0.684  33.544  0.00  0.00    +0.020 C 
ATOM     45  C   UNL A   1     -24.829  -0.715  33.905  0.00  0.00    +0.089 C 
ATOM     46  N   UNL A   1     -24.758  -1.481  32.646  0.00  0.00    -0.219 NA
ENDBRANCH  35  42
ENDBRANCH   1  35
TORSDOF 12
