MODEL 727
MODEL 1
REMARK VINA RESULT:    -5.211      0.000      0.000
REMARK INTER + INTRA:          -6.019
REMARK INTER:                  -5.821
REMARK INTRA:                  -0.199
REMARK UNBOUND:                -0.199
REMARK  Name = No_727-gen_results/8p0m/2024-11-27-11-27-31/
REMARK  2 active torsions:
REMARK  status: ('A' for Active; 'I' for Inactive)
REMARK    1  A    between atoms: C_2  and  C_7
REMARK    2  A    between atoms: C_8  and  C_9
REMARK                            x       y       z     vdW  Elec       q    Type
REMARK                         _______ _______ _______ _____ _____    ______ ____
ROOT
ATOM      1  C   UNL A   1     -23.919  -3.278  28.743  0.00  0.00    +0.000 A 
ATOM      2  C   UNL A   1     -24.827  -2.643  29.227  0.00  0.00    +0.000 A 
ATOM      3  C   UNL A   1     -25.966  -3.274  29.714  0.00  0.00    +0.000 A 
ATOM      4  C   UNL A   1     -26.120  -4.703  29.616  0.00  0.00    +0.000 A 
ATOM      5  C   UNL A   1     -25.033  -5.357  29.022  0.00  0.00    +0.000 A 
ATOM      6  C   UNL A   1     -23.986  -4.712  28.562  0.00  0.00    +0.000 A 
ENDROOT
BRANCH   2   7
ATOM      7  C   UNL A   1     -24.852  -1.163  29.383  0.00  0.00    +0.000 C 
ATOM      8  C   UNL A   1     -24.268  -0.548  30.350  0.00  0.00    +0.000 C 
BRANCH   8   9
ATOM      9  C   UNL A   1     -24.134  -1.284  31.678  0.00  0.00    +0.000 C 
ATOM     10  C   UNL A   1     -22.929  -1.180  32.361  0.00  0.00    +0.000 C 
ENDBRANCH   8   9
ENDBRANCH   2   7
TORSDOF 2
ENDMDL
ENDMDL
