REMARK  Name = outputs/IAG933/test6/raw/output_7286_IAG933_linker_design_.xyz
REMARK  17 active torsions:
REMARK  status: ('A' for Active; 'I' for Inactive)
REMARK    1  A    between atoms: C_1  and  C_2
REMARK    2  A    between atoms: C_1  and  C_8
REMARK    3  A    between atoms: C_1  and  C_48
REMARK    4  A    between atoms: C_13  and  C_28
REMARK    5  A    between atoms: C_14  and  C_15
REMARK    6  A    between atoms: C_21  and  O_22
REMARK    7  A    between atoms: O_22  and  C_23
REMARK    8  A    between atoms: C_23  and  C_24
REMARK    9  A    between atoms: N_29  and  C_48
REMARK   10  A    between atoms: C_30  and  O_35
REMARK   11  A    between atoms: C_30  and  C_47
REMARK   12  A    between atoms: N_34  and  C_36
REMARK   13  A    between atoms: N_34  and  C_44
REMARK   14  A    between atoms: N_34  and  C_45
REMARK   15  A    between atoms: O_35  and  C_36
REMARK   16  A    between atoms: C_36  and  C_43
REMARK   17  A    between atoms: C_37  and  C_48
REMARK                            x       y       z     vdW  Elec       q    Type
REMARK                         _______ _______ _______ _____ _____    ______ ____
ROOT
ATOM      1  C   UNL A   1     -25.416   0.072  29.225  0.00  0.00    +0.109 C 
ENDROOT
BRANCH   1   5
ATOM      2  C   UNL A   1     -24.490   1.199  27.171  0.00  0.00    -0.001 C 
ATOM      3 CL   UNL A   1     -22.625   2.331  25.294  0.00  0.00    -0.080 Cl
ATOM      4  C   UNL A   1     -22.229   1.358  27.720  0.00  0.00    +0.146 C 
ATOM      5  C   UNL A   1     -24.265   0.565  28.397  0.00  0.00    +0.068 C 
ATOM      6  C   UNL A   1     -23.142   1.615  26.719  0.00  0.00    +0.081 C 
ATOM      7  C   UNL A   1     -22.893   0.633  28.742  0.00  0.00    +0.010 C 
ATOM      8  F   UNL A   1     -20.933   1.678  27.719  0.00  0.00    -0.204 F 
BRANCH   2   9
ATOM      9  C   UNL A   1     -25.688   1.614  26.461  0.00  0.00    +0.035 C 
ATOM     10  C   UNL A   1     -26.250   2.920  26.395  0.00  0.00    +0.076 C 
ATOM     11  C   UNL A   1     -27.438   3.091  25.645  0.00  0.00    +0.107 C 
ATOM     12  N   UNL A   1     -28.075   2.089  25.003  0.00  0.00    -0.208 NA
ATOM     13  C   UNL A   1     -27.543   0.849  25.079  0.00  0.00    +0.253 C 
ATOM     14  C   UNL A   1     -26.354   0.576  25.777  0.00  0.00    +0.193 C 
ATOM     15  F   UNL A   1     -25.860  -0.681  25.795  0.00  0.00    -0.199 F 
BRANCH  10  16
ATOM     16  C   UNL A   1     -25.642   4.093  27.123  0.00  0.00    +0.266 C 
ATOM     17  N   UNL A   1     -25.614   5.252  26.449  0.00  0.00    -0.200 NA
ATOM     18  C   UNL A   1     -25.026   6.479  26.963  0.00  0.00    +0.139 C 
ATOM     19  O   UNL A   1     -25.143   3.966  28.243  0.00  0.00    -0.268 OA
ENDBRANCH  10  16
BRANCH  13  20
ATOM     20  O   UNL A   1     -28.193  -0.208  24.477  0.00  0.00    -0.456 OA
BRANCH  20  21
ATOM     21  C   UNL A   1     -29.460   0.005  23.866  0.00  0.00    +0.243 C 
BRANCH  21  22
ATOM     22  C   UNL A   1     -30.065  -1.377  23.573  0.00  0.00    +0.229 C 
ATOM     23  O   UNL A   1     -30.729  -1.878  24.721  0.00  0.00    -0.216 OA
ENDBRANCH  21  22
ENDBRANCH  20  21
ENDBRANCH  13  20
ENDBRANCH   2   9
ENDBRANCH   1   5
BRANCH   1  24
ATOM     24  N   UNL A   1     -26.660   0.709  28.701  0.00  0.00    -0.204 NA
ATOM     25  O   UNL A   1     -28.106  -0.891  28.557  0.00  0.00    -0.271 OA
ATOM     26  C   UNL A   1     -27.922   0.305  28.793  0.00  0.00    +0.272 C 
BRANCH  26  27
ATOM     27  C   UNL A   1     -28.938   1.313  29.342  0.00  0.00    +0.230 C 
BRANCH  27  28
ATOM     28  O   UNL A   1     -29.884   0.622  30.206  0.00  0.00    -0.328 OA
BRANCH  28  29
ATOM     29  C   UNL A   1     -30.549  -0.681  29.864  0.00  0.00    +0.212 C 
BRANCH  29  31
ATOM     30  O   UNL A   1     -30.406  -0.093  27.276  0.00  0.00    -0.216 OA
ATOM     31  C   UNL A   1     -30.535  -0.512  28.436  0.00  0.00    +0.229 C 
ENDBRANCH  29  31
BRANCH  29  32
ATOM     32  N   UNL A   1     -30.138  -1.698  30.855  0.00  0.00    -0.220 NA
BRANCH  32  34
ATOM     33  C   UNL A   1     -29.470  -3.911  31.737  0.00  0.00    +0.019 C 
ATOM     34  C   UNL A   1     -30.422  -3.157  30.749  0.00  0.00    +0.077 C 
ENDBRANCH  32  34
BRANCH  32  36
ATOM     35  O   UNL A   1     -31.435  -0.304  32.250  0.00  0.00    -0.201 OA
ATOM     36  C   UNL A   1     -30.518  -1.342  32.265  0.00  0.00    +0.261 C 
ENDBRANCH  32  36
ENDBRANCH  29  32
ENDBRANCH  28  29
ENDBRANCH  27  28
ENDBRANCH  26  27
ENDBRANCH   1  24
BRANCH   1  37
ATOM     37  C   UNL A   1     -24.855  -1.012  30.143  0.00  0.00    +0.059 C 
BRANCH  37  38
ATOM     38  C   UNL A   1     -24.973  -2.505  29.788  0.00  0.00    -0.019 C 
ATOM     39  C   UNL A   1     -23.906  -3.173  29.146  0.00  0.00    -0.004 C 
ATOM     40  C   UNL A   1     -23.989  -4.549  28.853  0.00  0.00    -0.000 C 
ATOM     41  C   UNL A   1     -25.137  -5.280  29.205  0.00  0.00    -0.000 C 
ATOM     42  C   UNL A   1     -26.232  -4.611  29.784  0.00  0.00    -0.000 C 
ATOM     43  C   UNL A   1     -26.155  -3.232  30.065  0.00  0.00    -0.004 C 
ENDBRANCH  37  38
BRANCH  37  44
ATOM     44  C   UNL A   1     -25.387  -0.679  31.571  0.00  0.00    +0.079 C 
ATOM     45  C   UNL A   1     -25.189   0.773  32.028  0.00  0.00    +0.019 C 
ATOM     46  C   UNL A   1     -25.336   0.684  33.544  0.00  0.00    +0.020 C 
ATOM     47  C   UNL A   1     -24.829  -0.715  33.905  0.00  0.00    +0.089 C 
ATOM     48  N   UNL A   1     -24.758  -1.481  32.646  0.00  0.00    -0.219 NA
ENDBRANCH  37  44
ENDBRANCH   1  37
TORSDOF 17
