REMARK  Name = outputs/IAG933/test6/raw/output_7289_IAG933_linker_design_.xyz
REMARK  14 active torsions:
REMARK  status: ('A' for Active; 'I' for Inactive)
REMARK    1  A    between atoms: C_1  and  C_2
REMARK    2  A    between atoms: C_1  and  C_8
REMARK    3  A    between atoms: C_1  and  N_30
REMARK    4  A    between atoms: C_13  and  C_28
REMARK    5  A    between atoms: C_14  and  C_15
REMARK    6  A    between atoms: C_21  and  O_22
REMARK    7  A    between atoms: O_22  and  C_23
REMARK    8  A    between atoms: C_23  and  C_24
REMARK    9  A    between atoms: N_30  and  C_33
REMARK   10  A    between atoms: N_30  and  C_41
REMARK   11  A    between atoms: C_34  and  C_37
REMARK   12  A    between atoms: C_34  and  O_40
REMARK   13  A    between atoms: C_34  and  C_42
REMARK   14  A    between atoms: O_35  and  C_37
REMARK                            x       y       z     vdW  Elec       q    Type
REMARK                         _______ _______ _______ _____ _____    ______ ____
ROOT
ATOM      1  C   UNL A   1     -24.543   1.428  27.222  0.00  0.00    +0.050 C 
ATOM      2  F   UNL A   1     -24.065   1.210  24.273  0.00  0.00    -0.201 F 
ATOM      3  C   UNL A   1     -23.237   1.717  26.564  0.00  0.00    +0.101 C 
ATOM      4  O   UNL A   1     -23.023   1.841  30.124  0.00  0.00    -0.222 OA
ATOM      5  C   UNL A   1     -24.428   1.050  28.652  0.00  0.00    +0.093 C 
ATOM      6  C   UNL A   1     -22.032   1.437  26.971  0.00  0.00    +0.163 C 
ATOM      7  O   UNL A   1     -21.297   2.027  25.697  0.00  0.00    -0.220 OA
ATOM      8  C   UNL A   1     -22.220   0.627  28.104  0.00  0.00    +0.092 C 
ATOM      9  C   UNL A   1     -23.348   1.863  25.143  0.00  0.00    +0.312 C 
ATOM     10  O   UNL A   1     -22.175   2.491  24.726  0.00  0.00    -0.187 OA
ATOM     11  C   UNL A   1     -23.233   1.025  29.065  0.00  0.00    +0.172 C 
ENDROOT
BRANCH   1  12
ATOM     12  C   UNL A   1     -25.688   1.614  26.461  0.00  0.00    +0.017 C 
ATOM     13  C   UNL A   1     -26.250   2.920  26.395  0.00  0.00    +0.073 C 
ATOM     14  C   UNL A   1     -27.438   3.091  25.645  0.00  0.00    +0.106 C 
ATOM     15  N   UNL A   1     -28.075   2.089  25.003  0.00  0.00    -0.208 NA
ATOM     16  C   UNL A   1     -27.543   0.849  25.079  0.00  0.00    +0.253 C 
ATOM     17  C   UNL A   1     -26.354   0.576  25.777  0.00  0.00    +0.189 C 
ATOM     18  F   UNL A   1     -25.860  -0.681  25.795  0.00  0.00    -0.200 F 
BRANCH  13  19
ATOM     19  C   UNL A   1     -25.642   4.093  27.123  0.00  0.00    +0.266 C 
ATOM     20  N   UNL A   1     -25.614   5.252  26.449  0.00  0.00    -0.200 NA
ATOM     21  C   UNL A   1     -25.026   6.479  26.963  0.00  0.00    +0.139 C 
ATOM     22  O   UNL A   1     -25.143   3.966  28.243  0.00  0.00    -0.268 OA
ENDBRANCH  13  19
BRANCH  16  23
ATOM     23  O   UNL A   1     -28.193  -0.208  24.477  0.00  0.00    -0.456 OA
BRANCH  23  24
ATOM     24  C   UNL A   1     -29.460   0.005  23.866  0.00  0.00    +0.243 C 
BRANCH  24  25
ATOM     25  C   UNL A   1     -30.065  -1.377  23.573  0.00  0.00    +0.229 C 
ATOM     26  O   UNL A   1     -30.729  -1.878  24.721  0.00  0.00    -0.216 OA
ENDBRANCH  24  25
ENDBRANCH  23  24
ENDBRANCH  16  23
ENDBRANCH   1  12
BRANCH   5  27
ATOM     27  N   UNL A   1     -25.383   0.045  29.113  0.00  0.00    -0.268 NA
BRANCH  27  29
ATOM     28  C   UNL A   1     -27.526   1.230  28.733  0.00  0.00    +0.019 C 
ATOM     29  C   UNL A   1     -26.814  -0.110  28.676  0.00  0.00    +0.072 C 
ENDBRANCH  27  29
BRANCH  27  30
ATOM     30  C   UNL A   1     -24.855  -1.012  30.143  0.00  0.00    +0.096 C 
BRANCH  30  31
ATOM     31  C   UNL A   1     -24.973  -2.505  29.788  0.00  0.00    -0.006 C 
ATOM     32  C   UNL A   1     -23.906  -3.173  29.146  0.00  0.00    -0.003 C 
ATOM     33  C   UNL A   1     -23.989  -4.549  28.853  0.00  0.00    -0.000 C 
ATOM     34  C   UNL A   1     -25.137  -5.280  29.205  0.00  0.00    -0.000 C 
ATOM     35  C   UNL A   1     -26.232  -4.611  29.784  0.00  0.00    -0.000 C 
ATOM     36  C   UNL A   1     -26.155  -3.232  30.065  0.00  0.00    -0.003 C 
ENDBRANCH  30  31
BRANCH  30  37
ATOM     37  C   UNL A   1     -25.387  -0.679  31.571  0.00  0.00    +0.092 C 
ATOM     38  C   UNL A   1     -25.189   0.773  32.028  0.00  0.00    +0.021 C 
ATOM     39  C   UNL A   1     -25.336   0.684  33.544  0.00  0.00    +0.020 C 
ATOM     40  C   UNL A   1     -24.829  -0.715  33.905  0.00  0.00    +0.089 C 
ATOM     41  N   UNL A   1     -24.758  -1.481  32.646  0.00  0.00    -0.218 NA
ENDBRANCH  30  37
ENDBRANCH  27  30
ENDBRANCH   5  27
BRANCH   8  42
ATOM     42  C   UNL A   1     -21.113   0.784  29.055  0.00  0.00    +0.152 C 
BRANCH  42  43
ATOM     43  O   UNL A   1     -20.699   2.012  28.128  0.00  0.00    -0.351 OA
ATOM     44  C   UNL A   1     -19.284   1.925  28.175  0.00  0.00    +0.174 C 
ENDBRANCH  42  43
BRANCH  42  45
ATOM     45  C   UNL A   1     -20.679  -0.394  28.864  0.00  0.00    +0.199 C 
BRANCH  45  46
ATOM     46  O   UNL A   1     -21.504  -1.155  29.622  0.00  0.00    -0.246 OA
ATOM     47  N   UNL A   1     -22.064  -0.536  30.556  0.00  0.00    +0.042 NA
ENDBRANCH  45  46
ENDBRANCH  42  45
ENDBRANCH   8  42
TORSDOF 14
