REMARK  Name = No_729-gen_results/8p0m/2024-11-27-11-27-31/
REMARK  4 active torsions:
REMARK  status: ('A' for Active; 'I' for Inactive)
REMARK    1  A    between atoms: C_5  and  C_8
REMARK    2  A    between atoms: N_9  and  C_11
REMARK    3  A    between atoms: C_11  and  C_15
REMARK    4  A    between atoms: C_18  and  C_20
REMARK                            x       y       z     vdW  Elec       q    Type
REMARK                         _______ _______ _______ _____ _____    ______ ____
ROOT
ATOM      1  C   UNL A   1     -23.540   1.527  29.845  0.00  0.00    +0.265 C 
ATOM      2  N   UNL A   1     -22.413   1.211  29.312  0.00  0.00    -0.203 NA
ATOM      3  O   UNL A   1     -23.628   2.420  30.805  0.00  0.00    -0.268 OA
ENDROOT
BRANCH   1   8
ATOM      4  F   UNL A   1     -28.073  -1.254  28.532  0.00  0.00    -0.201 F 
ATOM      5  C   UNL A   1     -27.061  -0.629  28.872  0.00  0.00    +0.178 A 
ATOM      6  C   UNL A   1     -26.153  -1.156  29.454  0.00  0.00    +0.087 A 
ATOM      7  C   UNL A   1     -24.878  -0.579  29.864  0.00  0.00    +0.018 A 
ATOM      8  C   UNL A   1     -24.743   0.827  29.481  0.00  0.00    +0.058 A 
ATOM      9  C   UNL A   1     -25.788   1.393  28.763  0.00  0.00    +0.037 A 
ATOM     10  C   UNL A   1     -26.915   0.731  28.443  0.00  0.00    +0.168 A 
ATOM     11  F   UNL A   1     -27.875   1.299  27.777  0.00  0.00    -0.202 F 
ATOM     12 CL   UNL A   1     -26.224  -2.847  30.025  0.00  0.00    -0.080 Cl
ENDBRANCH   1   8
BRANCH   2  13
ATOM     13  C   UNL A   1     -22.059   0.807  27.980  0.00  0.00    +0.100 C 
ATOM     14  C   UNL A   1     -20.629   0.748  27.985  0.00  0.00    +0.024 C 
BRANCH  13  15
ATOM     15  C   UNL A   1     -22.891   1.032  27.018  0.00  0.00    +0.043 C 
ATOM     16  C   UNL A   1     -23.239   2.007  26.125  0.00  0.00    -0.028 C 
ATOM     17  C   UNL A   1     -24.219   2.055  25.189  0.00  0.00    -0.016 C 
ATOM     18  C   UNL A   1     -25.040   0.818  25.459  0.00  0.00    +0.113 C 
ATOM     19  C   UNL A   1     -24.052   0.138  26.915  0.00  0.00    +0.026 C 
BRANCH  18  20
ATOM     20  C   UNL A   1     -26.061   0.244  24.993  0.00  0.00    +0.076 C 
ATOM     21  N   UNL A   1     -27.244   0.086  24.712  0.00  0.00    -0.196 NA
ENDBRANCH  18  20
ENDBRANCH  13  15
ENDBRANCH   2  13
TORSDOF 4
