REMARK  Name = outputs/IAG933/test6/raw/output_7291_IAG933_linker_design_.xyz
REMARK  8 active torsions:
REMARK  status: ('A' for Active; 'I' for Inactive)
REMARK    1  A    between atoms: C_1  and  C_2
REMARK    2  A    between atoms: C_1  and  C_8
REMARK    3  A    between atoms: C_1  and  N_40
REMARK    4  A    between atoms: C_13  and  N_31
REMARK    5  A    between atoms: C_14  and  C_15
REMARK    6  A    between atoms: C_21  and  O_22
REMARK    7  A    between atoms: O_22  and  C_23
REMARK    8  A    between atoms: C_23  and  C_24
REMARK                            x       y       z     vdW  Elec       q    Type
REMARK                         _______ _______ _______ _____ _____    ______ ____
ROOT
ATOM      1  C   UNL A   1     -21.846   0.030  29.008  0.00  0.00    +0.087 C 
ATOM      2  F   UNL A   1     -20.044   1.599  27.489  0.00  0.00    -0.229 F 
ATOM      3  C   UNL A   1     -21.331   1.501  27.244  0.00  0.00    +0.225 C 
ATOM      4  N   UNL A   1     -24.328   1.599  26.812  0.00  0.00    -0.247 N 
ATOM      5  O   UNL A   1     -23.556   3.439  25.894  0.00  0.00    -0.272 OA
ATOM      6  C   UNL A   1     -23.553   0.927  27.672  0.00  0.00    +0.110 C 
ATOM      7  O   UNL A   1     -25.090  -0.670  27.742  0.00  0.00    -0.267 OA
ATOM      8  C   UNL A   1     -23.341   2.345  26.377  0.00  0.00    +0.263 C 
ATOM      9  C   UNL A   1     -21.946   2.145  26.183  0.00  0.00    +0.264 C 
ATOM     10  N   UNL A   1     -22.737  -0.212  29.854  0.00  0.00    -0.144 NA
ATOM     11  C   UNL A   1     -20.655  -0.520  29.060  0.00  0.00    +0.019 C 
ATOM     12  O   UNL A   1     -21.291   2.466  25.054  0.00  0.00    -0.210 OA
ATOM     13  N   UNL A   1     -23.824  -0.314  29.464  0.00  0.00    -0.182 N 
ATOM     14  C   UNL A   1     -24.184   0.007  28.330  0.00  0.00    +0.280 C 
ATOM     15  C   UNL A   1     -22.216   0.864  27.967  0.00  0.00    +0.048 C 
ENDROOT
BRANCH   4  16
ATOM     16  C   UNL A   1     -25.688   1.614  26.461  0.00  0.00    +0.150 C 
ATOM     17  C   UNL A   1     -26.250   2.920  26.395  0.00  0.00    +0.073 C 
ATOM     18  C   UNL A   1     -27.438   3.091  25.645  0.00  0.00    +0.104 C 
ATOM     19  N   UNL A   1     -28.075   2.089  25.003  0.00  0.00    -0.212 NA
ATOM     20  C   UNL A   1     -27.543   0.849  25.079  0.00  0.00    +0.236 C 
ATOM     21  C   UNL A   1     -26.354   0.576  25.777  0.00  0.00    +0.258 C 
ATOM     22  F   UNL A   1     -25.860  -0.681  25.795  0.00  0.00    -0.225 F 
BRANCH  17  23
ATOM     23  C   UNL A   1     -25.642   4.093  27.123  0.00  0.00    +0.264 C 
ATOM     24  N   UNL A   1     -25.614   5.252  26.449  0.00  0.00    -0.200 NA
ATOM     25  C   UNL A   1     -25.026   6.479  26.963  0.00  0.00    +0.139 C 
ATOM     26  O   UNL A   1     -25.143   3.966  28.243  0.00  0.00    -0.269 OA
ENDBRANCH  17  23
BRANCH  20  27
ATOM     27  O   UNL A   1     -28.193  -0.208  24.477  0.00  0.00    -0.459 OA
BRANCH  27  28
ATOM     28  C   UNL A   1     -29.460   0.005  23.866  0.00  0.00    +0.242 C 
BRANCH  28  29
ATOM     29  C   UNL A   1     -30.065  -1.377  23.573  0.00  0.00    +0.229 C 
ATOM     30  O   UNL A   1     -30.729  -1.878  24.721  0.00  0.00    -0.216 OA
ENDBRANCH  28  29
ENDBRANCH  27  28
ENDBRANCH  20  27
ENDBRANCH   4  16
BRANCH  13  31
ATOM     31  C   UNL A   1     -24.855  -1.012  30.143  0.00  0.00    +0.135 C 
BRANCH  31  32
ATOM     32  C   UNL A   1     -24.973  -2.505  29.788  0.00  0.00    -0.001 C 
ATOM     33  C   UNL A   1     -23.906  -3.173  29.146  0.00  0.00    -0.003 C 
ATOM     34  C   UNL A   1     -23.989  -4.549  28.853  0.00  0.00    -0.000 C 
ATOM     35  C   UNL A   1     -25.137  -5.280  29.205  0.00  0.00    -0.000 C 
ATOM     36  C   UNL A   1     -26.232  -4.611  29.784  0.00  0.00    -0.000 C 
ATOM     37  C   UNL A   1     -26.155  -3.232  30.065  0.00  0.00    -0.003 C 
ENDBRANCH  31  32
BRANCH  31  38
ATOM     38  C   UNL A   1     -25.387  -0.679  31.571  0.00  0.00    +0.097 C 
ATOM     39  C   UNL A   1     -25.189   0.773  32.028  0.00  0.00    +0.021 C 
ATOM     40  C   UNL A   1     -25.336   0.684  33.544  0.00  0.00    +0.020 C 
ATOM     41  C   UNL A   1     -24.829  -0.715  33.905  0.00  0.00    +0.089 C 
ATOM     42  N   UNL A   1     -24.758  -1.481  32.646  0.00  0.00    -0.217 NA
ENDBRANCH  31  38
ENDBRANCH  13  31
TORSDOF 8
