REMARK  Name = outputs/IAG933/test6/raw/output_7292_IAG933_linker_design_.xyz
REMARK  12 active torsions:
REMARK  status: ('A' for Active; 'I' for Inactive)
REMARK    1  A    between atoms: C_1  and  C_2
REMARK    2  A    between atoms: C_1  and  C_8
REMARK    3  A    between atoms: C_1  and  N_37
REMARK    4  A    between atoms: C_13  and  C_35
REMARK    5  A    between atoms: C_14  and  C_15
REMARK    6  A    between atoms: C_21  and  O_22
REMARK    7  A    between atoms: O_22  and  C_23
REMARK    8  A    between atoms: C_23  and  C_24
REMARK    9  A    between atoms: C_34  and  C_40
REMARK   10  A    between atoms: C_34  and  C_43
REMARK   11  A    between atoms: N_37  and  C_40
REMARK   12  A    between atoms: N_37  and  C_45
REMARK                            x       y       z     vdW  Elec       q    Type
REMARK                         _______ _______ _______ _____ _____    ______ ____
ROOT
ATOM      1  N   UNL A   1     -25.307  -0.073  29.201  0.00  0.00    -0.171 N 
ENDROOT
BRANCH   1   8
ATOM      2  N   UNL A   1     -22.665   0.409  28.482  0.00  0.00    -0.174 N 
ATOM      3  C   UNL A   1     -22.156   1.285  27.628  0.00  0.00    +0.116 C 
ATOM      4  C   UNL A   1     -20.674   1.638  27.578  0.00  0.00    +0.076 C 
ATOM      5  C   UNL A   1     -23.081   1.804  26.754  0.00  0.00    +0.043 C 
ATOM      6  C   UNL A   1     -24.301   1.395  27.088  0.00  0.00    +0.082 C 
ATOM      7  C   UNL A   1     -21.549  -0.496  29.264  0.00  0.00    +0.258 C 
ATOM      8  C   UNL A   1     -24.177   0.527  28.304  0.00  0.00    +0.277 C 
BRANCH   6   9
ATOM      9  C   UNL A   1     -25.688   1.614  26.461  0.00  0.00    +0.045 C 
ATOM     10  C   UNL A   1     -26.250   2.920  26.395  0.00  0.00    +0.077 C 
ATOM     11  C   UNL A   1     -27.438   3.091  25.645  0.00  0.00    +0.107 C 
ATOM     12  N   UNL A   1     -28.075   2.089  25.003  0.00  0.00    -0.208 NA
ATOM     13  C   UNL A   1     -27.543   0.849  25.079  0.00  0.00    +0.253 C 
ATOM     14  C   UNL A   1     -26.354   0.576  25.777  0.00  0.00    +0.193 C 
ATOM     15  F   UNL A   1     -25.860  -0.681  25.795  0.00  0.00    -0.199 F 
BRANCH  10  16
ATOM     16  C   UNL A   1     -25.642   4.093  27.123  0.00  0.00    +0.266 C 
ATOM     17  N   UNL A   1     -25.614   5.252  26.449  0.00  0.00    -0.200 NA
ATOM     18  C   UNL A   1     -25.026   6.479  26.963  0.00  0.00    +0.139 C 
ATOM     19  O   UNL A   1     -25.143   3.966  28.243  0.00  0.00    -0.268 OA
ENDBRANCH  10  16
BRANCH  13  20
ATOM     20  O   UNL A   1     -28.193  -0.208  24.477  0.00  0.00    -0.456 OA
BRANCH  20  21
ATOM     21  C   UNL A   1     -29.460   0.005  23.866  0.00  0.00    +0.243 C 
BRANCH  21  22
ATOM     22  C   UNL A   1     -30.065  -1.377  23.573  0.00  0.00    +0.229 C 
ATOM     23  O   UNL A   1     -30.729  -1.878  24.721  0.00  0.00    -0.216 OA
ENDBRANCH  21  22
ENDBRANCH  20  21
ENDBRANCH  13  20
ENDBRANCH   6   9
ENDBRANCH   1   8
BRANCH   1  24
ATOM     24  C   UNL A   1     -26.825   0.230  29.035  0.00  0.00    +0.317 C 
ATOM     25  O   UNL A   1     -26.638   1.421  28.922  0.00  0.00    -0.171 OA
BRANCH  24  26
ATOM     26  C   UNL A   1     -27.924  -0.041  30.075  0.00  0.00    +0.115 C 
BRANCH  26  32
ATOM     27  C   UNL A   1     -31.017   0.361  27.812  0.00  0.00    +0.210 C 
ATOM     28  C   UNL A   1     -30.605   0.505  29.906  0.00  0.00    +0.202 C 
ATOM     29  F   UNL A   1     -28.859  -0.543  27.107  0.00  0.00    -0.201 F 
ATOM     30 CL   UNL A   1     -31.076   0.488  31.529  0.00  0.00    -0.043 Cl
ATOM     31  O   UNL A   1     -31.582   0.739  29.051  0.00  0.00    -0.437 OA
ATOM     32  C   UNL A   1     -29.298   0.128  29.346  0.00  0.00    +0.061 C 
ATOM     33  C   UNL A   1     -29.651   0.003  27.999  0.00  0.00    +0.178 C 
ENDBRANCH  26  32
ENDBRANCH  24  26
ENDBRANCH   1  24
BRANCH   1  34
ATOM     34  C   UNL A   1     -24.855  -1.012  30.143  0.00  0.00    +0.200 C 
BRANCH  34  35
ATOM     35  C   UNL A   1     -24.973  -2.505  29.788  0.00  0.00    +0.021 C 
ATOM     36  C   UNL A   1     -23.906  -3.173  29.146  0.00  0.00    -0.000 C 
ATOM     37  C   UNL A   1     -23.989  -4.549  28.853  0.00  0.00    -0.000 C 
ATOM     38  C   UNL A   1     -25.137  -5.280  29.205  0.00  0.00    -0.000 C 
ATOM     39  C   UNL A   1     -26.232  -4.611  29.784  0.00  0.00    -0.000 C 
ATOM     40  C   UNL A   1     -26.155  -3.232  30.065  0.00  0.00    -0.000 C 
ENDBRANCH  34  35
BRANCH  34  41
ATOM     41  C   UNL A   1     -25.387  -0.679  31.571  0.00  0.00    +0.120 C 
ATOM     42  C   UNL A   1     -25.189   0.773  32.028  0.00  0.00    +0.023 C 
ATOM     43  C   UNL A   1     -25.336   0.684  33.544  0.00  0.00    +0.020 C 
ATOM     44  C   UNL A   1     -24.829  -0.715  33.905  0.00  0.00    +0.089 C 
ATOM     45  N   UNL A   1     -24.758  -1.481  32.646  0.00  0.00    -0.215 NA
ENDBRANCH  34  41
ENDBRANCH   1  34
TORSDOF 12
