MODEL 729
MODEL 1
REMARK VINA RESULT:    -7.151      0.000      0.000
REMARK INTER + INTRA:          -9.622
REMARK INTER:                  -8.823
REMARK INTRA:                  -0.798
REMARK UNBOUND:                -0.798
REMARK  Name = No_729-gen_results/8p0m/2024-11-27-11-27-31/
REMARK  4 active torsions:
REMARK  status: ('A' for Active; 'I' for Inactive)
REMARK    1  A    between atoms: C_5  and  C_8
REMARK    2  A    between atoms: N_9  and  C_11
REMARK    3  A    between atoms: C_11  and  C_15
REMARK    4  A    between atoms: C_18  and  C_20
REMARK                            x       y       z     vdW  Elec       q    Type
REMARK                         _______ _______ _______ _____ _____    ______ ____
ROOT
ATOM      1  C   UNL A   1     -24.169   1.160  29.438  0.00  0.00    +0.265 C 
ATOM      2  N   UNL A   1     -24.040   0.130  30.196  0.00  0.00    -0.203 NA
ATOM      3  O   UNL A   1     -24.327   2.369  29.929  0.00  0.00    -0.268 OA
ENDROOT
BRANCH   1   8
ATOM      4  F   UNL A   1     -24.387   0.681  23.985  0.00  0.00    -0.201 F 
ATOM      5  C   UNL A   1     -24.297   0.770  25.216  0.00  0.00    +0.178 A 
ATOM      6  C   UNL A   1     -23.540   1.538  25.744  0.00  0.00    +0.087 A 
ATOM      7  C   UNL A   1     -23.362   1.806  27.167  0.00  0.00    +0.018 A 
ATOM      8  C   UNL A   1     -24.256   1.011  28.010  0.00  0.00    +0.058 A 
ATOM      9  C   UNL A   1     -25.156   0.172  27.366  0.00  0.00    +0.037 A 
ATOM     10  C   UNL A   1     -25.216   0.030  26.030  0.00  0.00    +0.168 A 
ATOM     11  F   UNL A   1     -26.067  -0.773  25.466  0.00  0.00    -0.202 F 
ATOM     12 CL   UNL A   1     -22.361   2.517  24.827  0.00  0.00    -0.080 Cl
ENDBRANCH   1   8
BRANCH   2  13
ATOM     13  C   UNL A   1     -23.303  -1.093  30.040  0.00  0.00    +0.100 C 
ATOM     14  C   UNL A   1     -21.984  -0.678  29.667  0.00  0.00    +0.024 C 
BRANCH  13  15
ATOM     15  C   UNL A   1     -23.948  -2.182  29.786  0.00  0.00    +0.043 C 
ATOM     16  C   UNL A   1     -23.878  -3.295  28.995  0.00  0.00    -0.028 C 
ATOM     17  C   UNL A   1     -24.726  -4.343  28.846  0.00  0.00    -0.016 C 
ATOM     18  C   UNL A   1     -25.947  -3.935  29.633  0.00  0.00    +0.113 C 
ATOM     19  C   UNL A   1     -25.345  -2.253  30.235  0.00  0.00    +0.026 C 
BRANCH  18  20
ATOM     20  C   UNL A   1     -27.080  -4.405  29.925  0.00  0.00    +0.076 C 
ATOM     21  N   UNL A   1     -28.303  -4.454  29.995  0.00  0.00    -0.196 NA
ENDBRANCH  18  20
ENDBRANCH  13  15
ENDBRANCH   2  13
TORSDOF 4
ENDMDL
ENDMDL
