MODEL 72
MODEL 1
REMARK VINA RESULT:    -4.395      0.000      0.000
REMARK INTER + INTRA:          -4.395
REMARK INTER:                  -4.395
REMARK INTRA:                   0.000
REMARK UNBOUND:                 0.000
REMARK  Name = No_72-gen_results/8p0m/2024-11-27-11-27-31/
REMARK  0 active torsions:
REMARK  status: ('A' for Active; 'I' for Inactive)
REMARK                            x       y       z     vdW  Elec       q    Type
REMARK                         _______ _______ _______ _____ _____    ______ ____
ROOT
ATOM      1  C   UNL A   1     -25.033  -5.153  29.061  0.00  0.00    +0.001 A 
ATOM      2  C   UNL A   1     -24.169  -4.328  28.872  0.00  0.00    +0.011 A 
ATOM      3  C   UNL A   1     -24.296  -2.984  29.222  0.00  0.00    +0.058 A 
ATOM      4  C   UNL A   1     -25.545  -2.518  29.792  0.00  0.00    +0.011 A 
ATOM      5  C   UNL A   1     -26.510  -3.535  29.975  0.00  0.00    +0.001 A 
ATOM      6  C   UNL A   1     -26.301  -4.774  29.608  0.00  0.00    +0.000 A 
ATOM      7 CL   UNL A   1     -23.103  -1.777  28.979  0.00  0.00    -0.082 Cl
ENDROOT
TORSDOF 0
ENDMDL
ENDMDL
