REMARK  Name = outputs/IAG933/test6/raw/output_73_IAG933_linker_design_.xyz
REMARK  13 active torsions:
REMARK  status: ('A' for Active; 'I' for Inactive)
REMARK    1  A    between atoms: C_1  and  C_2
REMARK    2  A    between atoms: C_1  and  C_8
REMARK    3  A    between atoms: C_1  and  C_33
REMARK    4  A    between atoms: C_9  and  S_38
REMARK    5  A    between atoms: C_13  and  C_39
REMARK    6  A    between atoms: C_14  and  C_15
REMARK    7  A    between atoms: C_21  and  O_22
REMARK    8  A    between atoms: O_22  and  C_23
REMARK    9  A    between atoms: C_23  and  C_24
REMARK   10  A    between atoms: C_29  and  C_32
REMARK   11  A    between atoms: C_29  and  C_41
REMARK   12  A    between atoms: C_33  and  C_35
REMARK   13  A    between atoms: S_38  and  C_41
REMARK                            x       y       z     vdW  Elec       q    Type
REMARK                         _______ _______ _______ _____ _____    ______ ____
ROOT
ATOM      1  C   UNL A   1     -23.073   0.355  28.845  0.00  0.00    +0.016 C 
ATOM      2 CL   UNL A   1     -23.117   1.761  24.689  0.00  0.00    -0.082 Cl
ATOM      3  C   UNL A   1     -21.939   0.832  28.219  0.00  0.00    +0.090 C 
ATOM      4  C   UNL A   1     -24.316   0.574  28.324  0.00  0.00    +0.010 C 
ATOM      5  C   UNL A   1     -23.213   1.529  26.400  0.00  0.00    +0.059 C 
ATOM      6  N   UNL A   1     -20.650   0.579  28.720  0.00  0.00    -0.128 NA
ATOM      7  C   UNL A   1     -24.406   1.260  27.096  0.00  0.00    +0.012 C 
ATOM      8  C   UNL A   1     -22.029   1.444  27.018  0.00  0.00    +0.029 C 
ENDROOT
BRANCH   7   9
ATOM      9  C   UNL A   1     -25.688   1.614  26.461  0.00  0.00    +0.039 C 
ATOM     10  C   UNL A   1     -26.250   2.920  26.395  0.00  0.00    +0.077 C 
ATOM     11  C   UNL A   1     -27.438   3.091  25.645  0.00  0.00    +0.107 C 
ATOM     12  N   UNL A   1     -28.075   2.089  25.003  0.00  0.00    -0.208 NA
ATOM     13  C   UNL A   1     -27.543   0.849  25.079  0.00  0.00    +0.253 C 
ATOM     14  C   UNL A   1     -26.354   0.576  25.777  0.00  0.00    +0.193 C 
ATOM     15  F   UNL A   1     -25.860  -0.681  25.795  0.00  0.00    -0.199 F 
BRANCH  10  16
ATOM     16  C   UNL A   1     -25.642   4.093  27.123  0.00  0.00    +0.266 C 
ATOM     17  N   UNL A   1     -25.614   5.252  26.449  0.00  0.00    -0.200 NA
ATOM     18  C   UNL A   1     -25.026   6.479  26.963  0.00  0.00    +0.139 C 
ATOM     19  O   UNL A   1     -25.143   3.966  28.243  0.00  0.00    -0.268 OA
ENDBRANCH  10  16
BRANCH  13  20
ATOM     20  O   UNL A   1     -28.193  -0.208  24.477  0.00  0.00    -0.456 OA
BRANCH  20  21
ATOM     21  C   UNL A   1     -29.460   0.005  23.866  0.00  0.00    +0.243 C 
BRANCH  21  22
ATOM     22  C   UNL A   1     -30.065  -1.377  23.573  0.00  0.00    +0.229 C 
ATOM     23  O   UNL A   1     -30.729  -1.878  24.721  0.00  0.00    -0.216 OA
ENDBRANCH  21  22
ENDBRANCH  20  21
ENDBRANCH  13  20
ENDBRANCH   7   9
BRANCH   4  24
ATOM     24  C   UNL A   1     -25.496  -0.053  29.138  0.00  0.00    +0.180 C 
ATOM     25  O   UNL A   1     -26.382  -0.748  28.220  0.00  0.00    -0.218 OA
BRANCH  24  26
ATOM     26  C   UNL A   1     -24.855  -1.012  30.143  0.00  0.00    +0.074 C 
BRANCH  26  27
ATOM     27  C   UNL A   1     -24.973  -2.505  29.788  0.00  0.00    -0.018 C 
ATOM     28  C   UNL A   1     -23.906  -3.173  29.146  0.00  0.00    -0.004 C 
ATOM     29  C   UNL A   1     -23.989  -4.549  28.853  0.00  0.00    -0.000 C 
ATOM     30  C   UNL A   1     -25.137  -5.280  29.205  0.00  0.00    -0.000 C 
ATOM     31  C   UNL A   1     -26.232  -4.611  29.784  0.00  0.00    -0.000 C 
ATOM     32  C   UNL A   1     -26.155  -3.232  30.065  0.00  0.00    -0.004 C 
ENDBRANCH  26  27
BRANCH  26  33
ATOM     33  C   UNL A   1     -25.387  -0.679  31.571  0.00  0.00    +0.089 C 
ATOM     34  C   UNL A   1     -25.189   0.773  32.028  0.00  0.00    +0.066 C 
ATOM     35  C   UNL A   1     -25.336   0.684  33.544  0.00  0.00    +0.031 C 
ATOM     36  C   UNL A   1     -24.829  -0.715  33.905  0.00  0.00    +0.090 C 
ATOM     37  N   UNL A   1     -24.758  -1.481  32.646  0.00  0.00    -0.218 NA
BRANCH  34  38
ATOM     38  S   UNL A   1     -25.215   2.302  31.258  0.00  0.00    -0.140 S 
BRANCH  38  39
ATOM     39  C   UNL A   1     -26.602   3.451  31.661  0.00  0.00    +0.058 C 
BRANCH  39  40
ATOM     40  C   UNL A   1     -27.532   3.546  30.443  0.00  0.00    +0.012 C 
BRANCH  40  41
ATOM     41  C   UNL A   1     -27.972   2.141  29.792  0.00  0.00    +0.001 C 
ATOM     42  C   UNL A   1     -28.082   0.625  30.043  0.00  0.00    +0.000 C 
ENDBRANCH  40  41
ENDBRANCH  39  40
ENDBRANCH  38  39
ENDBRANCH  34  38
ENDBRANCH  26  33
ENDBRANCH  24  26
ENDBRANCH   4  24
TORSDOF 13
