REMARK  Name = outputs/IAG933/test6/raw/output_7301_IAG933_linker_design_.xyz
REMARK  10 active torsions:
REMARK  status: ('A' for Active; 'I' for Inactive)
REMARK    1  A    between atoms: C_1  and  C_2
REMARK    2  A    between atoms: C_1  and  C_8
REMARK    3  A    between atoms: C_1  and  C_39
REMARK    4  A    between atoms: C_13  and  C_37
REMARK    5  A    between atoms: C_14  and  C_15
REMARK    6  A    between atoms: C_21  and  O_22
REMARK    7  A    between atoms: O_22  and  C_23
REMARK    8  A    between atoms: C_23  and  C_24
REMARK    9  A    between atoms: C_28  and  C_34
REMARK   10  A    between atoms: N_38  and  C_39
REMARK                            x       y       z     vdW  Elec       q    Type
REMARK                         _______ _______ _______ _____ _____    ______ ____
ROOT
ATOM      1  C   UNL A   1     -21.941   1.594  26.606  0.00  0.00    +0.203 C 
ATOM      2  C   UNL A   1     -21.241   0.618  28.457  0.00  0.00    +0.149 C 
ATOM      3  C   UNL A   1     -23.165   1.281  27.167  0.00  0.00    +0.106 C 
ATOM      4  O   UNL A   1     -24.142   3.311  30.743  0.00  0.00    -0.230 OA
ATOM      5  C   UNL A   1     -24.102   2.300  30.260  0.00  0.00    +0.146 C 
ATOM      6  O   UNL A   1     -20.721   1.531  27.383  0.00  0.00    -0.478 OA
ATOM      7  C   UNL A   1     -23.941   1.238  29.284  0.00  0.00    +0.136 C 
ATOM      8  C   UNL A   1     -24.549   1.241  27.371  0.00  0.00    +0.105 C 
ATOM      9  N   UNL A   1     -24.967   0.887  28.664  0.00  0.00    -0.298 N 
ATOM     10  C   UNL A   1     -22.738   0.674  28.712  0.00  0.00    +0.221 C 
ATOM     11  O   UNL A   1     -22.309  -0.505  29.561  0.00  0.00    -0.211 OA
ATOM     12  C   UNL A   1     -20.351  -0.111  28.636  0.00  0.00    +0.038 C 
ENDROOT
BRANCH   8  13
ATOM     13  C   UNL A   1     -25.688   1.614  26.461  0.00  0.00    +0.034 C 
ATOM     14  C   UNL A   1     -26.250   2.920  26.395  0.00  0.00    +0.074 C 
ATOM     15  C   UNL A   1     -27.438   3.091  25.645  0.00  0.00    +0.106 C 
ATOM     16  N   UNL A   1     -28.075   2.089  25.003  0.00  0.00    -0.208 NA
ATOM     17  C   UNL A   1     -27.543   0.849  25.079  0.00  0.00    +0.253 C 
ATOM     18  C   UNL A   1     -26.354   0.576  25.777  0.00  0.00    +0.191 C 
ATOM     19  F   UNL A   1     -25.860  -0.681  25.795  0.00  0.00    -0.200 F 
BRANCH  14  20
ATOM     20  C   UNL A   1     -25.642   4.093  27.123  0.00  0.00    +0.266 C 
ATOM     21  N   UNL A   1     -25.614   5.252  26.449  0.00  0.00    -0.200 NA
ATOM     22  C   UNL A   1     -25.026   6.479  26.963  0.00  0.00    +0.139 C 
ATOM     23  O   UNL A   1     -25.143   3.966  28.243  0.00  0.00    -0.268 OA
ENDBRANCH  14  20
BRANCH  17  24
ATOM     24  O   UNL A   1     -28.193  -0.208  24.477  0.00  0.00    -0.456 OA
BRANCH  24  25
ATOM     25  C   UNL A   1     -29.460   0.005  23.866  0.00  0.00    +0.243 C 
BRANCH  25  26
ATOM     26  C   UNL A   1     -30.065  -1.377  23.573  0.00  0.00    +0.229 C 
ATOM     27  O   UNL A   1     -30.729  -1.878  24.721  0.00  0.00    -0.216 OA
ENDBRANCH  25  26
ENDBRANCH  24  25
ENDBRANCH  17  24
ENDBRANCH   8  13
BRANCH   1  29
ATOM     28  O   UNL A   1     -22.977   2.917  24.942  0.00  0.00    -0.216 OA
ATOM     29  C   UNL A   1     -21.735   1.865  25.134  0.00  0.00    +0.225 C 
ENDBRANCH   1  29
BRANCH   9  30
ATOM     30  C   UNL A   1     -25.696  -0.227  29.143  0.00  0.00    +0.097 C 
BRANCH  30  31
ATOM     31  C   UNL A   1     -24.855  -1.012  30.143  0.00  0.00    +0.058 C 
BRANCH  31  32
ATOM     32  C   UNL A   1     -24.973  -2.505  29.788  0.00  0.00    -0.019 C 
ATOM     33  C   UNL A   1     -23.906  -3.173  29.146  0.00  0.00    -0.004 C 
ATOM     34  C   UNL A   1     -23.989  -4.549  28.853  0.00  0.00    -0.000 C 
ATOM     35  C   UNL A   1     -25.137  -5.280  29.205  0.00  0.00    -0.000 C 
ATOM     36  C   UNL A   1     -26.232  -4.611  29.784  0.00  0.00    -0.000 C 
ATOM     37  C   UNL A   1     -26.155  -3.232  30.065  0.00  0.00    -0.004 C 
ENDBRANCH  31  32
BRANCH  31  38
ATOM     38  C   UNL A   1     -25.387  -0.679  31.571  0.00  0.00    +0.079 C 
ATOM     39  C   UNL A   1     -25.189   0.773  32.028  0.00  0.00    +0.019 C 
ATOM     40  C   UNL A   1     -25.336   0.684  33.544  0.00  0.00    +0.020 C 
ATOM     41  C   UNL A   1     -24.829  -0.715  33.905  0.00  0.00    +0.089 C 
ATOM     42  N   UNL A   1     -24.758  -1.481  32.646  0.00  0.00    -0.219 NA
ENDBRANCH  31  38
ENDBRANCH  30  31
ENDBRANCH   9  30
TORSDOF 10
