REMARK  Name = outputs/IAG933/test6/raw/output_7304_IAG933_linker_design_.xyz
REMARK  13 active torsions:
REMARK  status: ('A' for Active; 'I' for Inactive)
REMARK    1  A    between atoms: C_1  and  C_2
REMARK    2  A    between atoms: C_1  and  C_8
REMARK    3  A    between atoms: C_1  and  N_34
REMARK    4  A    between atoms: C_13  and  C_40
REMARK    5  A    between atoms: C_14  and  C_15
REMARK    6  A    between atoms: C_21  and  O_22
REMARK    7  A    between atoms: O_22  and  C_23
REMARK    8  A    between atoms: C_23  and  C_24
REMARK    9  A    between atoms: C_29  and  N_34
REMARK   10  A    between atoms: O_30  and  N_39
REMARK   11  A    between atoms: C_31  and  N_37
REMARK   12  A    between atoms: N_34  and  C_35
REMARK   13  A    between atoms: C_35  and  N_37
REMARK                            x       y       z     vdW  Elec       q    Type
REMARK                         _______ _______ _______ _____ _____    ______ ____
ROOT
ATOM      1  N   UNL A   1     -25.011  -0.064  29.015  0.00  0.00    -0.255 NA
ENDROOT
BRANCH   1   2
ATOM      2  C   UNL A   1     -23.995   0.188  27.955  0.00  0.00    +0.064 C 
ATOM      3  C   UNL A   1     -21.639   1.369  27.470  0.00  0.00    +0.002 C 
ATOM      4  C   UNL A   1     -24.352   1.359  27.234  0.00  0.00    +0.041 C 
ATOM      5  C   UNL A   1     -22.996   1.223  28.208  0.00  0.00    +0.021 C 
BRANCH   4   6
ATOM      6  C   UNL A   1     -25.688   1.614  26.461  0.00  0.00    +0.017 C 
ATOM      7  C   UNL A   1     -26.250   2.920  26.395  0.00  0.00    +0.073 C 
ATOM      8  C   UNL A   1     -27.438   3.091  25.645  0.00  0.00    +0.106 C 
ATOM      9  N   UNL A   1     -28.075   2.089  25.003  0.00  0.00    -0.208 NA
ATOM     10  C   UNL A   1     -27.543   0.849  25.079  0.00  0.00    +0.253 C 
ATOM     11  C   UNL A   1     -26.354   0.576  25.777  0.00  0.00    +0.189 C 
ATOM     12  F   UNL A   1     -25.860  -0.681  25.795  0.00  0.00    -0.200 F 
BRANCH   7  13
ATOM     13  C   UNL A   1     -25.642   4.093  27.123  0.00  0.00    +0.266 C 
ATOM     14  N   UNL A   1     -25.614   5.252  26.449  0.00  0.00    -0.200 NA
ATOM     15  C   UNL A   1     -25.026   6.479  26.963  0.00  0.00    +0.139 C 
ATOM     16  O   UNL A   1     -25.143   3.966  28.243  0.00  0.00    -0.268 OA
ENDBRANCH   7  13
BRANCH  10  17
ATOM     17  O   UNL A   1     -28.193  -0.208  24.477  0.00  0.00    -0.456 OA
BRANCH  17  18
ATOM     18  C   UNL A   1     -29.460   0.005  23.866  0.00  0.00    +0.243 C 
BRANCH  18  19
ATOM     19  C   UNL A   1     -30.065  -1.377  23.573  0.00  0.00    +0.229 C 
ATOM     20  O   UNL A   1     -30.729  -1.878  24.721  0.00  0.00    -0.216 OA
ENDBRANCH  18  19
ENDBRANCH  17  18
ENDBRANCH  10  17
ENDBRANCH   4   6
ENDBRANCH   1   2
BRANCH   1  21
ATOM     21  C   UNL A   1     -24.855  -1.012  30.143  0.00  0.00    +0.097 C 
BRANCH  21  22
ATOM     22  C   UNL A   1     -24.973  -2.505  29.788  0.00  0.00    -0.006 C 
ATOM     23  C   UNL A   1     -23.906  -3.173  29.146  0.00  0.00    -0.003 C 
ATOM     24  C   UNL A   1     -23.989  -4.549  28.853  0.00  0.00    -0.000 C 
ATOM     25  C   UNL A   1     -25.137  -5.280  29.205  0.00  0.00    -0.000 C 
ATOM     26  C   UNL A   1     -26.232  -4.611  29.784  0.00  0.00    -0.000 C 
ATOM     27  C   UNL A   1     -26.155  -3.232  30.065  0.00  0.00    -0.003 C 
ENDBRANCH  21  22
BRANCH  21  28
ATOM     28  C   UNL A   1     -25.387  -0.679  31.571  0.00  0.00    +0.092 C 
ATOM     29  C   UNL A   1     -25.189   0.773  32.028  0.00  0.00    +0.021 C 
ATOM     30  C   UNL A   1     -25.336   0.684  33.544  0.00  0.00    +0.020 C 
ATOM     31  C   UNL A   1     -24.829  -0.715  33.905  0.00  0.00    +0.089 C 
ATOM     32  N   UNL A   1     -24.758  -1.481  32.646  0.00  0.00    -0.218 NA
ENDBRANCH  21  28
ENDBRANCH   1  21
BRANCH   1  33
ATOM     33  C   UNL A   1     -25.801   0.967  29.086  0.00  0.00    +0.166 C 
BRANCH  33  34
ATOM     34  N   UNL A   1     -27.027   1.305  28.928  0.00  0.00    -0.178 NA
BRANCH  34  36
ATOM     35  C   UNL A   1     -29.096  -0.360  28.901  0.00  0.00    +0.048 C 
ATOM     36  C   UNL A   1     -28.248   0.794  29.364  0.00  0.00    +0.184 C 
ATOM     37  C   UNL A   1     -30.057   0.092  27.805  0.00  0.00    +0.031 C 
ATOM     38  C   UNL A   1     -30.321   1.553  28.142  0.00  0.00    -0.005 C 
ATOM     39  N   UNL A   1     -28.899   1.702  30.140  0.00  0.00    -0.223 N 
ATOM     40  C   UNL A   1     -29.739   2.375  29.237  0.00  0.00    +0.097 C 
BRANCH  39  41
ATOM     41  O   UNL A   1     -28.352   2.708  31.013  0.00  0.00    -0.253 OA
ATOM     42  C   UNL A   1     -28.846   4.066  31.019  0.00  0.00    +0.209 C 
ENDBRANCH  39  41
ENDBRANCH  34  36
ENDBRANCH  33  34
ENDBRANCH   1  33
TORSDOF 13
