REMARK  Name = outputs/IAG933/test6/raw/output_7308_IAG933_linker_design_.xyz
REMARK  17 active torsions:
REMARK  status: ('A' for Active; 'I' for Inactive)
REMARK    1  A    between atoms: C_1  and  C_2
REMARK    2  A    between atoms: C_1  and  C_8
REMARK    3  A    between atoms: C_1  and  C_54
REMARK    4  A    between atoms: C_13  and  N_53
REMARK    5  A    between atoms: C_14  and  C_15
REMARK    6  A    between atoms: C_21  and  O_22
REMARK    7  A    between atoms: O_22  and  C_23
REMARK    8  A    between atoms: C_23  and  C_24
REMARK    9  A    between atoms: C_28  and  C_46
REMARK   10  A    between atoms: C_28  and  C_47
REMARK   11  A    between atoms: N_40  and  C_51
REMARK   12  A    between atoms: C_45  and  C_55
REMARK   13  A    between atoms: C_45  and  C_59
REMARK   14  A    between atoms: C_46  and  N_53
REMARK   15  A    between atoms: C_51  and  C_55
REMARK   16  A    between atoms: N_53  and  C_54
REMARK   17  A    between atoms: C_54  and  C_59
REMARK                            x       y       z     vdW  Elec       q    Type
REMARK                         _______ _______ _______ _____ _____    ______ ____
ROOT
ATOM      1  C   UNL A   1     -25.399   0.118  29.015  0.00  0.00    +0.066 C 
ENDROOT
BRANCH   1   2
ATOM      2  C   UNL A   1     -24.855  -1.012  30.143  0.00  0.00    +0.053 C 
BRANCH   2   3
ATOM      3  C   UNL A   1     -24.973  -2.505  29.788  0.00  0.00    -0.020 C 
ATOM      4  C   UNL A   1     -23.906  -3.173  29.146  0.00  0.00    -0.004 C 
ATOM      5  C   UNL A   1     -23.989  -4.549  28.853  0.00  0.00    -0.000 C 
ATOM      6  C   UNL A   1     -25.137  -5.280  29.205  0.00  0.00    -0.000 C 
ATOM      7  C   UNL A   1     -26.232  -4.611  29.784  0.00  0.00    -0.000 C 
ATOM      8  C   UNL A   1     -26.155  -3.232  30.065  0.00  0.00    -0.004 C 
ENDBRANCH   2   3
BRANCH   2   9
ATOM      9  C   UNL A   1     -25.387  -0.679  31.571  0.00  0.00    +0.078 C 
ATOM     10  C   UNL A   1     -25.189   0.773  32.028  0.00  0.00    +0.019 C 
ATOM     11  C   UNL A   1     -25.336   0.684  33.544  0.00  0.00    +0.020 C 
ATOM     12  C   UNL A   1     -24.829  -0.715  33.905  0.00  0.00    +0.089 C 
ATOM     13  N   UNL A   1     -24.758  -1.481  32.646  0.00  0.00    -0.219 NA
ENDBRANCH   2   9
ENDBRANCH   1   2
BRANCH   1  14
ATOM     14  N   UNL A   1     -24.970   1.218  27.698  0.00  0.00    -0.268 NA
BRANCH  14  15
ATOM     15  C   UNL A   1     -25.688   1.614  26.461  0.00  0.00    +0.128 C 
ATOM     16  C   UNL A   1     -26.250   2.920  26.395  0.00  0.00    +0.070 C 
ATOM     17  C   UNL A   1     -27.438   3.091  25.645  0.00  0.00    +0.103 C 
ATOM     18  N   UNL A   1     -28.075   2.089  25.003  0.00  0.00    -0.212 NA
ATOM     19  C   UNL A   1     -27.543   0.849  25.079  0.00  0.00    +0.235 C 
ATOM     20  C   UNL A   1     -26.354   0.576  25.777  0.00  0.00    +0.255 C 
ATOM     21  F   UNL A   1     -25.860  -0.681  25.795  0.00  0.00    -0.225 F 
BRANCH  16  22
ATOM     22  C   UNL A   1     -25.642   4.093  27.123  0.00  0.00    +0.264 C 
ATOM     23  N   UNL A   1     -25.614   5.252  26.449  0.00  0.00    -0.200 NA
ATOM     24  C   UNL A   1     -25.026   6.479  26.963  0.00  0.00    +0.139 C 
ATOM     25  O   UNL A   1     -25.143   3.966  28.243  0.00  0.00    -0.269 OA
ENDBRANCH  16  22
BRANCH  19  26
ATOM     26  O   UNL A   1     -28.193  -0.208  24.477  0.00  0.00    -0.459 OA
BRANCH  26  27
ATOM     27  C   UNL A   1     -29.460   0.005  23.866  0.00  0.00    +0.242 C 
BRANCH  27  28
ATOM     28  C   UNL A   1     -30.065  -1.377  23.573  0.00  0.00    +0.229 C 
ATOM     29  O   UNL A   1     -30.729  -1.878  24.721  0.00  0.00    -0.216 OA
ENDBRANCH  27  28
ENDBRANCH  26  27
ENDBRANCH  19  26
ENDBRANCH  14  15
BRANCH  14  30
ATOM     30  C   UNL A   1     -23.603   1.312  27.028  0.00  0.00    +0.075 C 
BRANCH  30  31
ATOM     31  C   UNL A   1     -22.514   1.578  28.012  0.00  0.00    +0.049 C 
ATOM     32  C   UNL A   1     -21.028   1.641  27.569  0.00  0.00    +0.004 C 
BRANCH  31  34
ATOM     33  O   UNL A   1     -22.415  -0.241  29.425  0.00  0.00    -0.220 OA
ATOM     34  C   UNL A   1     -22.707   1.032  29.355  0.00  0.00    +0.183 C 
ENDBRANCH  31  34
ENDBRANCH  30  31
ENDBRANCH  14  30
ENDBRANCH   1  14
BRANCH   1  35
ATOM     35  C   UNL A   1     -26.973  -0.256  28.915  0.00  0.00    +0.049 C 
BRANCH  35  36
ATOM     36  C   UNL A   1     -27.991   0.416  29.897  0.00  0.00    +0.158 C 
ATOM     37  O   UNL A   1     -29.070  -0.461  30.259  0.00  0.00    -0.223 OA
BRANCH  36  38
ATOM     38  C   UNL A   1     -28.444   1.712  29.234  0.00  0.00    +0.087 C 
BRANCH  38  40
ATOM     39  O   UNL A   1     -30.063   1.643  30.933  0.00  0.00    -0.200 OA
ATOM     40  C   UNL A   1     -29.758   2.369  29.656  0.00  0.00    +0.236 C 
BRANCH  40  49
ATOM     41  O   UNL A   1     -32.008   7.372  32.590  0.00  0.00    -0.220 OA
ATOM     42  C   UNL A   1     -26.980   5.414  30.104  0.00  0.00    +0.003 C 
ATOM     43  C   UNL A   1     -27.498   6.271  32.598  0.00  0.00    +0.211 C 
ATOM     44  C   UNL A   1     -32.072   5.258  29.176  0.00  0.00    +0.056 C 
ATOM     45  C   UNL A   1     -28.667   6.136  31.646  0.00  0.00    +0.118 C 
ATOM     46  C   UNL A   1     -28.321   5.569  30.423  0.00  0.00    +0.033 C 
ATOM     47  C   UNL A   1     -26.204   5.999  32.268  0.00  0.00    +0.043 C 
ATOM     48  C   UNL A   1     -25.970   5.638  30.964  0.00  0.00    +0.003 C 
ATOM     49  N   UNL A   1     -29.420   3.866  28.967  0.00  0.00    -0.233 N 
ATOM     50  O   UNL A   1     -27.750   6.563  33.833  0.00  0.00    -0.285 OA
ATOM     51  C   UNL A   1     -30.769   7.026  32.747  0.00  0.00    +0.468 C 
ATOM     52  C   UNL A   1     -30.586   3.777  28.117  0.00  0.00    +0.232 C 
ATOM     53  O   UNL A   1     -30.423   7.178  33.921  0.00  0.00    -0.220 OA
ATOM     54  C   UNL A   1     -29.456   5.080  29.644  0.00  0.00    +0.070 C 
ATOM     55  C   UNL A   1     -30.522   5.790  29.775  0.00  0.00    +0.080 C 
ATOM     56  N   UNL A   1     -30.024   6.620  31.685  0.00  0.00    -0.128 N 
ATOM     57  N   UNL A   1     -30.621   6.778  30.465  0.00  0.00    -0.141 NA
ATOM     58  O   UNL A   1     -30.456   4.405  26.814  0.00  0.00    -0.275 OA
ATOM     59  C   UNL A   1     -32.027   4.020  28.662  0.00  0.00    +0.092 C 
ENDBRANCH  40  49
ENDBRANCH  38  40
ENDBRANCH  36  38
ENDBRANCH  35  36
ENDBRANCH   1  35
TORSDOF 17
