REMARK  Name = No_731-gen_results/8p0m/2024-11-27-11-27-31/
REMARK  6 active torsions:
REMARK  status: ('A' for Active; 'I' for Inactive)
REMARK    1  A    between atoms: C_3  and  C_7
REMARK    2  A    between atoms: C_7  and  C_8
REMARK    3  A    between atoms: C_7  and  C_14
REMARK    4  A    between atoms: C_14  and  C_15
REMARK    5  A    between atoms: C_15  and  C_16
REMARK    6  A    between atoms: C_15  and  C_19
REMARK                            x       y       z     vdW  Elec       q    Type
REMARK                         _______ _______ _______ _____ _____    ______ ____
ROOT
ATOM      1  C   UNL A   1     -26.317   0.399  27.365  0.00  0.00    +0.045 C 
ENDROOT
BRANCH   1   4
ATOM      2  C   UNL A   1     -28.016  -0.814  28.878  0.00  0.00    -0.004 A 
ATOM      3  C   UNL A   1     -28.469  -0.785  29.829  0.00  0.00    -0.000 A 
ATOM      4  C   UNL A   1     -27.087   0.290  28.638  0.00  0.00    -0.018 A 
ATOM      5  C   UNL A   1     -26.832   1.249  29.587  0.00  0.00    -0.004 A 
ATOM      6  C   UNL A   1     -28.391   0.080  31.006  0.00  0.00    -0.000 A 
ATOM      7  C   UNL A   1     -27.494   1.152  30.784  0.00  0.00    -0.000 A 
ENDBRANCH   1   4
BRANCH   1   8
ATOM      8  C   UNL A   1     -26.881   0.971  26.372  0.00  0.00    -0.018 A 
ATOM      9  C   UNL A   1     -28.203   1.464  26.421  0.00  0.00    -0.004 A 
ATOM     10  C   UNL A   1     -28.751   1.953  25.151  0.00  0.00    -0.000 A 
ATOM     11  C   UNL A   1     -27.999   1.766  23.994  0.00  0.00    -0.000 A 
ATOM     12  C   UNL A   1     -26.820   1.131  23.982  0.00  0.00    -0.000 A 
ATOM     13  C   UNL A   1     -26.190   0.712  25.105  0.00  0.00    -0.004 A 
ENDBRANCH   1   8
BRANCH   1  14
ATOM     14  C   UNL A   1     -24.984  -0.169  27.454  0.00  0.00    +0.018 C 
BRANCH  14  15
ATOM     15  C   UNL A   1     -24.107   0.338  28.551  0.00  0.00    +0.081 C 
BRANCH  15  16
ATOM     16  C   UNL A   1     -23.110  -0.479  29.020  0.00  0.00    +0.009 C 
ATOM     17  C   UNL A   1     -23.401  -1.649  29.523  0.00  0.00    +0.001 C 
ATOM     18  C   UNL A   1     -21.709  -0.103  28.885  0.00  0.00    +0.001 C 
ENDBRANCH  15  16
BRANCH  15  19
ATOM     19  C   UNL A   1     -23.958   1.745  28.770  0.00  0.00    +0.260 C 
ATOM     20  O   UNL A   1     -24.248   2.382  29.588  0.00  0.00    -0.272 OA
ATOM     21  N   UNL A   1     -23.465   2.477  27.617  0.00  0.00    -0.088 NA
ENDBRANCH  15  19
ENDBRANCH  14  15
ENDBRANCH   1  14
TORSDOF 6
