REMARK  Name = outputs/IAG933/test6/raw/output_7312_IAG933_linker_design_.xyz
REMARK  15 active torsions:
REMARK  status: ('A' for Active; 'I' for Inactive)
REMARK    1  A    between atoms: C_1  and  C_2
REMARK    2  A    between atoms: C_1  and  C_8
REMARK    3  A    between atoms: C_1  and  C_30
REMARK    4  A    between atoms: C_13  and  N_35
REMARK    5  A    between atoms: C_14  and  C_15
REMARK    6  A    between atoms: C_21  and  O_22
REMARK    7  A    between atoms: O_22  and  C_23
REMARK    8  A    between atoms: C_23  and  C_24
REMARK    9  A    between atoms: C_29  and  C_36
REMARK   10  A    between atoms: C_31  and  C_32
REMARK   11  A    between atoms: C_31  and  C_40
REMARK   12  A    between atoms: C_32  and  N_33
REMARK   13  A    between atoms: N_34  and  N_35
REMARK   14  A    between atoms: N_35  and  C_36
REMARK   15  A    between atoms: N_38  and  C_40
REMARK                            x       y       z     vdW  Elec       q    Type
REMARK                         _______ _______ _______ _____ _____    ______ ____
ROOT
ATOM      1  N   UNL A   1     -24.920   1.258  27.545  0.00  0.00    -0.169 NA
ENDROOT
BRANCH   1   2
ATOM      2  C   UNL A   1     -25.688   1.614  26.461  0.00  0.00    +0.148 C 
ATOM      3  C   UNL A   1     -26.250   2.920  26.395  0.00  0.00    +0.071 C 
ATOM      4  C   UNL A   1     -27.438   3.091  25.645  0.00  0.00    +0.103 C 
ATOM      5  N   UNL A   1     -28.075   2.089  25.003  0.00  0.00    -0.212 NA
ATOM      6  C   UNL A   1     -27.543   0.849  25.079  0.00  0.00    +0.236 C 
ATOM      7  C   UNL A   1     -26.354   0.576  25.777  0.00  0.00    +0.256 C 
ATOM      8  F   UNL A   1     -25.860  -0.681  25.795  0.00  0.00    -0.225 F 
BRANCH   3   9
ATOM      9  C   UNL A   1     -25.642   4.093  27.123  0.00  0.00    +0.264 C 
ATOM     10  N   UNL A   1     -25.614   5.252  26.449  0.00  0.00    -0.200 NA
ATOM     11  C   UNL A   1     -25.026   6.479  26.963  0.00  0.00    +0.139 C 
ATOM     12  O   UNL A   1     -25.143   3.966  28.243  0.00  0.00    -0.269 OA
ENDBRANCH   3   9
BRANCH   6  13
ATOM     13  O   UNL A   1     -28.193  -0.208  24.477  0.00  0.00    -0.459 OA
BRANCH  13  14
ATOM     14  C   UNL A   1     -29.460   0.005  23.866  0.00  0.00    +0.242 C 
BRANCH  14  15
ATOM     15  C   UNL A   1     -30.065  -1.377  23.573  0.00  0.00    +0.229 C 
ATOM     16  O   UNL A   1     -30.729  -1.878  24.721  0.00  0.00    -0.216 OA
ENDBRANCH  14  15
ENDBRANCH  13  14
ENDBRANCH   6  13
ENDBRANCH   1   2
BRANCH   1  19
ATOM     17  O   UNL A   1     -26.542  -0.891  28.475  0.00  0.00    -0.272 OA
ATOM     18  C   UNL A   1     -25.758  -0.250  29.052  0.00  0.00    +0.261 C 
ATOM     19  N   UNL A   1     -25.651   1.096  28.654  0.00  0.00    -0.126 NA
BRANCH  18  20
ATOM     20  C   UNL A   1     -24.855  -1.012  30.143  0.00  0.00    +0.118 C 
BRANCH  20  21
ATOM     21  C   UNL A   1     -24.973  -2.505  29.788  0.00  0.00    -0.012 C 
ATOM     22  C   UNL A   1     -23.906  -3.173  29.146  0.00  0.00    -0.004 C 
ATOM     23  C   UNL A   1     -23.989  -4.549  28.853  0.00  0.00    -0.000 C 
ATOM     24  C   UNL A   1     -25.137  -5.280  29.205  0.00  0.00    -0.000 C 
ATOM     25  C   UNL A   1     -26.232  -4.611  29.784  0.00  0.00    -0.000 C 
ATOM     26  C   UNL A   1     -26.155  -3.232  30.065  0.00  0.00    -0.004 C 
ENDBRANCH  20  21
BRANCH  20  27
ATOM     27  C   UNL A   1     -25.387  -0.679  31.571  0.00  0.00    +0.086 C 
ATOM     28  C   UNL A   1     -25.189   0.773  32.028  0.00  0.00    +0.020 C 
ATOM     29  C   UNL A   1     -25.336   0.684  33.544  0.00  0.00    +0.020 C 
ATOM     30  C   UNL A   1     -24.829  -0.715  33.905  0.00  0.00    +0.089 C 
ATOM     31  N   UNL A   1     -24.758  -1.481  32.646  0.00  0.00    -0.219 NA
ENDBRANCH  20  27
ENDBRANCH  18  20
ENDBRANCH   1  19
BRANCH   1  32
ATOM     32  C   UNL A   1     -23.601   1.125  27.629  0.00  0.00    +0.181 C 
BRANCH  32  33
ATOM     33  C   UNL A   1     -22.725   1.815  26.826  0.00  0.00    +0.262 C 
ATOM     34  N   UNL A   1     -21.383   1.955  27.083  0.00  0.00    -0.172 NA
ATOM     35  O   UNL A   1     -23.189   2.322  25.788  0.00  0.00    -0.272 OA
BRANCH  34  37
ATOM     36  F   UNL A   1     -19.400   2.043  28.248  0.00  0.00    -0.213 F 
ATOM     37  C   UNL A   1     -20.508   1.335  27.910  0.00  0.00    +0.257 C 
BRANCH  37  38
ATOM     38  C   UNL A   1     -20.571   0.058  28.524  0.00  0.00    +0.077 C 
BRANCH  38  39
ATOM     39  C   UNL A   1     -21.796  -0.254  29.002  0.00  0.00    +0.093 C 
BRANCH  39  40
ATOM     40  N   UNL A   1     -22.471  -0.299  29.389  0.00  0.00    -0.216 NA
ATOM     41  C   UNL A   1     -23.028   0.407  28.731  0.00  0.00    +0.107 C 
ENDBRANCH  39  40
ENDBRANCH  38  39
ENDBRANCH  37  38
ENDBRANCH  34  37
ENDBRANCH  32  33
ENDBRANCH   1  32
TORSDOF 15
