REMARK  Name = outputs/IAG933/test6/raw/output_7316_IAG933_linker_design_.xyz
REMARK  12 active torsions:
REMARK  status: ('A' for Active; 'I' for Inactive)
REMARK    1  A    between atoms: C_1  and  C_2
REMARK    2  A    between atoms: C_1  and  C_8
REMARK    3  A    between atoms: C_1  and  N_36
REMARK    4  A    between atoms: C_13  and  O_35
REMARK    5  A    between atoms: C_14  and  C_15
REMARK    6  A    between atoms: C_21  and  O_22
REMARK    7  A    between atoms: O_22  and  C_23
REMARK    8  A    between atoms: C_23  and  C_24
REMARK    9  A    between atoms: C_33  and  O_35
REMARK   10  A    between atoms: C_34  and  N_41
REMARK   11  A    between atoms: C_40  and  N_41
REMARK   12  A    between atoms: C_42  and  C_45
REMARK                            x       y       z     vdW  Elec       q    Type
REMARK                         _______ _______ _______ _____ _____    ______ ____
ROOT
ATOM      1  C   UNL A   1     -22.621  -0.089  29.051  0.00  0.00    +0.235 C 
ATOM      2  C   UNL A   1     -23.766   1.209  27.744  0.00  0.00    +0.169 C 
ATOM      3  N   UNL A   1     -23.970  -0.149  29.470  0.00  0.00    -0.258 N 
ATOM      4  O   UNL A   1     -21.498  -0.790  29.567  0.00  0.00    -0.275 OA
ATOM      5  C   UNL A   1     -24.630   1.011  28.948  0.00  0.00    +0.197 C 
ATOM      6  C   UNL A   1     -22.481   0.844  28.020  0.00  0.00    +0.174 C 
ENDROOT
BRANCH   6   9
ATOM      7  F   UNL A   1     -20.319   1.809  28.066  0.00  0.00    -0.198 F 
ATOM      8  F   UNL A   1     -21.426   1.676  26.186  0.00  0.00    -0.198 F 
ATOM      9  C   UNL A   1     -21.399   1.411  27.441  0.00  0.00    +0.330 C 
ENDBRANCH   6   9
BRANCH   3  10
ATOM     10  C   UNL A   1     -24.855  -1.012  30.143  0.00  0.00    +0.115 C 
BRANCH  10  11
ATOM     11  C   UNL A   1     -24.973  -2.505  29.788  0.00  0.00    -0.003 C 
ATOM     12  C   UNL A   1     -23.906  -3.173  29.146  0.00  0.00    -0.003 C 
ATOM     13  C   UNL A   1     -23.989  -4.549  28.853  0.00  0.00    -0.000 C 
ATOM     14  C   UNL A   1     -25.137  -5.280  29.205  0.00  0.00    -0.000 C 
ATOM     15  C   UNL A   1     -26.232  -4.611  29.784  0.00  0.00    -0.000 C 
ATOM     16  C   UNL A   1     -26.155  -3.232  30.065  0.00  0.00    -0.003 C 
ENDBRANCH  10  11
BRANCH  10  17
ATOM     17  C   UNL A   1     -25.387  -0.679  31.571  0.00  0.00    +0.095 C 
ATOM     18  C   UNL A   1     -25.189   0.773  32.028  0.00  0.00    +0.021 C 
ATOM     19  C   UNL A   1     -25.336   0.684  33.544  0.00  0.00    +0.020 C 
ATOM     20  C   UNL A   1     -24.829  -0.715  33.905  0.00  0.00    +0.089 C 
ATOM     21  N   UNL A   1     -24.758  -1.481  32.646  0.00  0.00    -0.217 NA
ENDBRANCH  10  17
ENDBRANCH   3  10
BRANCH   2  22
ATOM     22  O   UNL A   1     -24.256   1.666  26.517  0.00  0.00    -0.346 OA
BRANCH  22  23
ATOM     23  C   UNL A   1     -25.688   1.614  26.461  0.00  0.00    +0.185 C 
ATOM     24  C   UNL A   1     -26.250   2.920  26.395  0.00  0.00    +0.082 C 
ATOM     25  C   UNL A   1     -27.438   3.091  25.645  0.00  0.00    +0.104 C 
ATOM     26  N   UNL A   1     -28.075   2.089  25.003  0.00  0.00    -0.212 NA
ATOM     27  C   UNL A   1     -27.543   0.849  25.079  0.00  0.00    +0.237 C 
ATOM     28  C   UNL A   1     -26.354   0.576  25.777  0.00  0.00    +0.267 C 
ATOM     29  F   UNL A   1     -25.860  -0.681  25.795  0.00  0.00    -0.224 F 
BRANCH  24  30
ATOM     30  C   UNL A   1     -25.642   4.093  27.123  0.00  0.00    +0.265 C 
ATOM     31  N   UNL A   1     -25.614   5.252  26.449  0.00  0.00    -0.200 NA
ATOM     32  C   UNL A   1     -25.026   6.479  26.963  0.00  0.00    +0.139 C 
ATOM     33  O   UNL A   1     -25.143   3.966  28.243  0.00  0.00    -0.269 OA
ENDBRANCH  24  30
BRANCH  27  34
ATOM     34  O   UNL A   1     -28.193  -0.208  24.477  0.00  0.00    -0.459 OA
BRANCH  34  35
ATOM     35  C   UNL A   1     -29.460   0.005  23.866  0.00  0.00    +0.242 C 
BRANCH  35  36
ATOM     36  C   UNL A   1     -30.065  -1.377  23.573  0.00  0.00    +0.229 C 
ATOM     37  O   UNL A   1     -30.729  -1.878  24.721  0.00  0.00    -0.216 OA
ENDBRANCH  35  36
ENDBRANCH  34  35
ENDBRANCH  27  34
ENDBRANCH  22  23
ENDBRANCH   2  22
BRANCH   5  38
ATOM     38  N   UNL A   1     -25.854   1.358  29.294  0.00  0.00    -0.216 NA
BRANCH  38  41
ATOM     39  O   UNL A   1     -29.825  -1.339  29.427  0.00  0.00    -0.286 OA
ATOM     40  C   UNL A   1     -29.165   1.836  27.856  0.00  0.00    +0.005 C 
ATOM     41  C   UNL A   1     -27.180   1.161  29.075  0.00  0.00    +0.070 C 
ATOM     42  C   UNL A   1     -27.848  -0.035  29.384  0.00  0.00    +0.058 C 
ATOM     43  C   UNL A   1     -29.147  -0.298  28.958  0.00  0.00    +0.197 C 
ATOM     44  C   UNL A   1     -29.763   0.597  28.080  0.00  0.00    +0.042 C 
ATOM     45  C   UNL A   1     -27.945   2.174  28.468  0.00  0.00    +0.016 C 
ENDBRANCH  38  41
ENDBRANCH   5  38
TORSDOF 12
