MODEL 731
MODEL 1
REMARK VINA RESULT:    -6.760      0.000      0.000
REMARK INTER + INTRA:         -11.355
REMARK INTER:                  -9.132
REMARK INTRA:                  -2.223
REMARK UNBOUND:                -2.223
REMARK  Name = No_731-gen_results/8p0m/2024-11-27-11-27-31/
REMARK  6 active torsions:
REMARK  status: ('A' for Active; 'I' for Inactive)
REMARK    1  A    between atoms: C_3  and  C_7
REMARK    2  A    between atoms: C_7  and  C_8
REMARK    3  A    between atoms: C_7  and  C_14
REMARK    4  A    between atoms: C_14  and  C_15
REMARK    5  A    between atoms: C_15  and  C_16
REMARK    6  A    between atoms: C_15  and  C_19
REMARK                            x       y       z     vdW  Elec       q    Type
REMARK                         _______ _______ _______ _____ _____    ______ ____
ROOT
ATOM      1  C   UNL A   1     -25.592  -1.148  29.136  0.00  0.00    +0.045 C 
ENDROOT
BRANCH   1   4
ATOM      2  C   UNL A   1     -24.129  -3.218  28.663  0.00  0.00    -0.004 A 
ATOM      3  C   UNL A   1     -24.102  -4.268  28.747  0.00  0.00    -0.000 A 
ATOM      4  C   UNL A   1     -25.380  -2.625  29.135  0.00  0.00    -0.018 A 
ATOM      5  C   UNL A   1     -26.399  -3.386  29.652  0.00  0.00    -0.004 A 
ATOM      6  C   UNL A   1     -25.003  -5.308  29.244  0.00  0.00    -0.000 A 
ATOM      7  C   UNL A   1     -26.217  -4.744  29.703  0.00  0.00    -0.000 A 
ENDBRANCH   1   4
BRANCH   1   8
ATOM      8  C   UNL A   1     -25.861  -0.582  28.023  0.00  0.00    -0.018 A 
ATOM      9  C   UNL A   1     -24.885  -0.340  27.031  0.00  0.00    -0.004 A 
ATOM     10  C   UNL A   1     -25.327   0.455  25.880  0.00  0.00    -0.000 A 
ATOM     11  C   UNL A   1     -26.599   1.019  25.919  0.00  0.00    -0.000 A 
ATOM     12  C   UNL A   1     -27.421   0.899  26.969  0.00  0.00    -0.000 A 
ATOM     13  C   UNL A   1     -27.145   0.125  28.045  0.00  0.00    -0.004 A 
ENDBRANCH   1   8
BRANCH   1  14
ATOM     14  C   UNL A   1     -25.473  -0.556  30.455  0.00  0.00    +0.018 C 
BRANCH  14  15
ATOM     15  C   UNL A   1     -24.258   0.272  30.716  0.00  0.00    +0.081 C 
BRANCH  15  16
ATOM     16  C   UNL A   1     -23.052  -0.366  30.859  0.00  0.00    +0.009 C 
ATOM     17  C   UNL A   1     -22.808  -1.077  31.927  0.00  0.00    +0.001 C 
ATOM     18  C   UNL A   1     -22.061  -0.340  29.792  0.00  0.00    +0.001 C 
ENDBRANCH  15  16
BRANCH  15  19
ATOM     19  C   UNL A   1     -24.228   1.654  30.343  0.00  0.00    +0.260 C 
ATOM     20  O   UNL A   1     -24.236   2.143  29.384  0.00  0.00    -0.272 OA
ATOM     21  N   UNL A   1     -23.988   2.563  31.450  0.00  0.00    -0.088 NA
ENDBRANCH  15  19
ENDBRANCH  14  15
ENDBRANCH   1  14
TORSDOF 6
ENDMDL
ENDMDL
