REMARK  Name = No_732-gen_results/8p0m/2024-11-27-11-27-31/
REMARK  1 active torsions:
REMARK  status: ('A' for Active; 'I' for Inactive)
REMARK    1  A    between atoms: C_2  and  N_7
REMARK                            x       y       z     vdW  Elec       q    Type
REMARK                         _______ _______ _______ _____ _____    ______ ____
ROOT
ATOM      1  C   UNL A   1     -28.016  -0.814  28.878  0.00  0.00    +0.015 A 
ATOM      2  C   UNL A   1     -28.469  -0.785  29.829  0.00  0.00    +0.048 A 
ATOM      3  C   UNL A   1     -26.504  -0.778  28.877  0.00  0.00    +0.001 A 
ATOM      4  C   UNL A   1     -25.810  -0.853  30.103  0.00  0.00    +0.000 A 
ATOM      5  C   UNL A   1     -27.991  -0.892  31.226  0.00  0.00    +0.015 A 
ATOM      6  C   UNL A   1     -26.604  -0.868  31.265  0.00  0.00    +0.001 A 
ENDROOT
BRANCH   2   7
ATOM      7  N   UNL A   1     -29.977  -0.829  29.850  0.00  0.00    -0.307 N 
ATOM      8  C   UNL A   1     -30.739  -1.644  30.346  0.00  0.00    +0.091 C 
ATOM      9  C   UNL A   1     -32.119  -1.583  30.093  0.00  0.00    +0.021 C 
ATOM     10  C   UNL A   1     -30.579   0.135  29.012  0.00  0.00    +0.091 C 
ATOM     11  C   UNL A   1     -31.872   0.204  28.744  0.00  0.00    +0.021 C 
ATOM     12  C   UNL A   1     -32.675  -0.718  29.343  0.00  0.00    +0.004 C 
ENDBRANCH   2   7
TORSDOF 1
