REMARK  Name = outputs/IAG933/test6/raw/output_7326_IAG933_linker_design_.xyz
REMARK  17 active torsions:
REMARK  status: ('A' for Active; 'I' for Inactive)
REMARK    1  A    between atoms: C_1  and  C_2
REMARK    2  A    between atoms: C_1  and  C_8
REMARK    3  A    between atoms: C_9  and  C_32
REMARK    4  A    between atoms: C_13  and  C_33
REMARK    5  A    between atoms: C_14  and  C_15
REMARK    6  A    between atoms: C_21  and  O_22
REMARK    7  A    between atoms: O_22  and  C_23
REMARK    8  A    between atoms: C_23  and  C_24
REMARK    9  A    between atoms: N_28  and  C_33
REMARK   10  A    between atoms: C_29  and  O_34
REMARK   11  A    between atoms: C_29  and  C_38
REMARK   12  A    between atoms: C_31  and  C_38
REMARK   13  A    between atoms: C_32  and  C_39
REMARK   14  A    between atoms: C_32  and  N_41
REMARK   15  A    between atoms: C_33  and  C_35
REMARK   16  A    between atoms: O_34  and  C_39
REMARK   17  A    between atoms: C_35  and  N_41
REMARK                            x       y       z     vdW  Elec       q    Type
REMARK                         _______ _______ _______ _____ _____    ______ ____
ROOT
ATOM      1  C   UNL A   1     -24.570   1.285  27.610  0.00  0.00    +0.101 C 
ENDROOT
BRANCH   1   2
ATOM      2  C   UNL A   1     -25.688   1.614  26.461  0.00  0.00    +0.090 C 
ATOM      3  C   UNL A   1     -26.250   2.920  26.395  0.00  0.00    +0.057 C 
ATOM      4  C   UNL A   1     -27.438   3.091  25.645  0.00  0.00    +0.102 C 
ATOM      5  N   UNL A   1     -28.075   2.089  25.003  0.00  0.00    -0.212 NA
ATOM      6  C   UNL A   1     -27.543   0.849  25.079  0.00  0.00    +0.234 C 
ATOM      7  C   UNL A   1     -26.354   0.576  25.777  0.00  0.00    +0.242 C 
ATOM      8  F   UNL A   1     -25.860  -0.681  25.795  0.00  0.00    -0.227 F 
BRANCH   3   9
ATOM      9  C   UNL A   1     -25.642   4.093  27.123  0.00  0.00    +0.263 C 
ATOM     10  N   UNL A   1     -25.614   5.252  26.449  0.00  0.00    -0.200 NA
ATOM     11  C   UNL A   1     -25.026   6.479  26.963  0.00  0.00    +0.139 C 
ATOM     12  O   UNL A   1     -25.143   3.966  28.243  0.00  0.00    -0.269 OA
ENDBRANCH   3   9
BRANCH   6  13
ATOM     13  O   UNL A   1     -28.193  -0.208  24.477  0.00  0.00    -0.459 OA
BRANCH  13  14
ATOM     14  C   UNL A   1     -29.460   0.005  23.866  0.00  0.00    +0.242 C 
BRANCH  14  15
ATOM     15  C   UNL A   1     -30.065  -1.377  23.573  0.00  0.00    +0.229 C 
ATOM     16  O   UNL A   1     -30.729  -1.878  24.721  0.00  0.00    -0.216 OA
ENDBRANCH  14  15
ENDBRANCH  13  14
ENDBRANCH   6  13
ENDBRANCH   1   2
BRANCH   1  17
ATOM     17  N   UNL A   1     -23.310   1.663  27.010  0.00  0.00    -0.267 N 
ATOM     18  C   UNL A   1     -23.128   2.329  25.650  0.00  0.00    +0.116 C 
ATOM     19  C   UNL A   1     -22.163   1.252  27.731  0.00  0.00    +0.297 C 
ATOM     20  N   UNL A   1     -22.131   0.221  28.503  0.00  0.00    -0.099 NA
ATOM     21  F   UNL A   1     -21.061   1.867  27.448  0.00  0.00    -0.164 F 
ENDBRANCH   1  17
BRANCH   1  22
ATOM     22  C   UNL A   1     -24.200   1.816  29.009  0.00  0.00    +0.109 C 
BRANCH  22  23
ATOM     23  N   UNL A   1     -24.150   2.209  30.287  0.00  0.00    -0.215 NA
BRANCH  23  24
ATOM     24  C   UNL A   1     -25.266   2.121  31.231  0.00  0.00    +0.104 C 
BRANCH  24  26
ATOM     25  C   UNL A   1     -25.387  -0.679  31.571  0.00  0.00    +0.079 C 
ATOM     26  C   UNL A   1     -25.189   0.773  32.028  0.00  0.00    +0.036 C 
ATOM     27  C   UNL A   1     -25.336   0.684  33.544  0.00  0.00    +0.022 C 
ATOM     28  C   UNL A   1     -24.829  -0.715  33.905  0.00  0.00    +0.089 C 
ATOM     29  N   UNL A   1     -24.758  -1.481  32.646  0.00  0.00    -0.219 NA
BRANCH  25  30
ATOM     30  C   UNL A   1     -24.855  -1.012  30.143  0.00  0.00    +0.044 C 
BRANCH  30  31
ATOM     31  C   UNL A   1     -24.973  -2.505  29.788  0.00  0.00    -0.021 C 
ATOM     32  C   UNL A   1     -23.906  -3.173  29.146  0.00  0.00    -0.004 C 
ATOM     33  C   UNL A   1     -23.989  -4.549  28.853  0.00  0.00    -0.000 C 
ATOM     34  C   UNL A   1     -25.137  -5.280  29.205  0.00  0.00    -0.000 C 
ATOM     35  C   UNL A   1     -26.232  -4.611  29.784  0.00  0.00    -0.000 C 
ATOM     36  C   UNL A   1     -26.155  -3.232  30.065  0.00  0.00    -0.004 C 
ENDBRANCH  30  31
ENDBRANCH  25  30
ENDBRANCH  24  26
BRANCH  24  37
ATOM     37  C   UNL A   1     -25.538   3.515  31.885  0.00  0.00    +0.159 C 
BRANCH  37  38
ATOM     38  O   UNL A   1     -24.335   4.127  32.307  0.00  0.00    -0.352 OA
BRANCH  38  39
ATOM     39  C   UNL A   1     -24.404   5.288  33.157  0.00  0.00    +0.144 C 
BRANCH  39  40
ATOM     40  C   UNL A   1     -25.456   6.274  32.624  0.00  0.00    +0.052 C 
BRANCH  40  41
ATOM     41  C   UNL A   1     -26.044   7.229  33.642  0.00  0.00    +0.112 C 
ATOM     42  N   UNL A   1     -26.641   8.407  33.004  0.00  0.00    -0.131 NA
ENDBRANCH  40  41
ENDBRANCH  39  40
ENDBRANCH  38  39
ENDBRANCH  37  38
ENDBRANCH  24  37
ENDBRANCH  23  24
ENDBRANCH  22  23
ENDBRANCH   1  22
TORSDOF 17
