MODEL 732
MODEL 1
REMARK VINA RESULT:    -6.025      0.000      0.000
REMARK INTER + INTRA:          -6.681
REMARK INTER:                  -6.378
REMARK INTRA:                  -0.304
REMARK UNBOUND:                -0.304
REMARK  Name = No_732-gen_results/8p0m/2024-11-27-11-27-31/
REMARK  1 active torsions:
REMARK  status: ('A' for Active; 'I' for Inactive)
REMARK    1  A    between atoms: C_2  and  N_7
REMARK                            x       y       z     vdW  Elec       q    Type
REMARK                         _______ _______ _______ _____ _____    ______ ____
ROOT
ATOM      1  C   UNL A   1     -23.892  -3.502  28.655  0.00  0.00    +0.015 A 
ATOM      2  C   UNL A   1     -24.448  -2.667  28.977  0.00  0.00    +0.048 A 
ATOM      3  C   UNL A   1     -24.507  -4.850  28.959  0.00  0.00    +0.001 A 
ATOM      4  C   UNL A   1     -25.807  -4.909  29.504  0.00  0.00    +0.000 A 
ATOM      5  C   UNL A   1     -25.809  -2.456  29.522  0.00  0.00    +0.015 A 
ATOM      6  C   UNL A   1     -26.409  -3.674  29.809  0.00  0.00    +0.001 A 
ENDROOT
BRANCH   2   7
ATOM      7  N   UNL A   1     -23.854  -1.314  28.674  0.00  0.00    -0.307 N 
ATOM      8  C   UNL A   1     -24.272  -0.404  27.975  0.00  0.00    +0.091 C 
ATOM      9  C   UNL A   1     -23.466   0.711  27.691  0.00  0.00    +0.021 C 
ATOM     10  C   UNL A   1     -22.529  -1.165  29.139  0.00  0.00    +0.091 C 
ATOM     11  C   UNL A   1     -21.744  -0.135  28.872  0.00  0.00    +0.021 C 
ATOM     12  C   UNL A   1     -22.272   0.859  28.106  0.00  0.00    +0.004 C 
ENDBRANCH   2   7
TORSDOF 1
ENDMDL
ENDMDL
