REMARK  Name = outputs/IAG933/test6/raw/output_7339_IAG933_linker_design_.xyz
REMARK  16 active torsions:
REMARK  status: ('A' for Active; 'I' for Inactive)
REMARK    1  A    between atoms: C_1  and  C_2
REMARK    2  A    between atoms: C_1  and  C_8
REMARK    3  A    between atoms: C_9  and  C_45
REMARK    4  A    between atoms: C_13  and  C_32
REMARK    5  A    between atoms: C_14  and  C_15
REMARK    6  A    between atoms: C_21  and  O_22
REMARK    7  A    between atoms: O_22  and  C_23
REMARK    8  A    between atoms: C_23  and  C_24
REMARK    9  A    between atoms: C_28  and  C_40
REMARK   10  A    between atoms: C_29  and  C_33
REMARK   11  A    between atoms: N_30  and  C_35
REMARK   12  A    between atoms: C_31  and  C_35
REMARK   13  A    between atoms: C_31  and  C_45
REMARK   14  A    between atoms: C_32  and  C_40
REMARK   15  A    between atoms: C_33  and  C_40
REMARK   16  A    between atoms: N_43  and  C_45
REMARK                            x       y       z     vdW  Elec       q    Type
REMARK                         _______ _______ _______ _____ _____    ______ ____
ROOT
ATOM      1  C   UNL A   1     -23.404   1.352  29.777  0.00  0.00    +0.242 C 
ATOM      2  O   UNL A   1     -23.053   0.260  30.309  0.00  0.00    -0.273 OA
ATOM      3  N   UNL A   1     -24.262   2.233  30.261  0.00  0.00    -0.207 NA
ENDROOT
BRANCH   1   4
ATOM      4  C   UNL A   1     -22.479   1.801  28.600  0.00  0.00    +0.097 C 
BRANCH   4   5
ATOM      5  C   UNL A   1     -23.373   2.098  27.487  0.00  0.00    +0.105 C 
BRANCH   5   6
ATOM      6  C   UNL A   1     -22.615   2.095  26.096  0.00  0.00    +0.311 C 
ATOM      7  O   UNL A   1     -23.182   2.021  24.967  0.00  0.00    -0.259 OA
ATOM      8  F   UNL A   1     -21.334   2.010  26.165  0.00  0.00    -0.164 F 
ENDBRANCH   5   6
BRANCH   5   9
ATOM      9  C   UNL A   1     -24.569   1.149  27.318  0.00  0.00    +0.040 C 
BRANCH   9  10
ATOM     10  C   UNL A   1     -25.688   1.614  26.461  0.00  0.00    +0.016 C 
ATOM     11  C   UNL A   1     -26.250   2.920  26.395  0.00  0.00    +0.073 C 
ATOM     12  C   UNL A   1     -27.438   3.091  25.645  0.00  0.00    +0.106 C 
ATOM     13  N   UNL A   1     -28.075   2.089  25.003  0.00  0.00    -0.208 NA
ATOM     14  C   UNL A   1     -27.543   0.849  25.079  0.00  0.00    +0.253 C 
ATOM     15  C   UNL A   1     -26.354   0.576  25.777  0.00  0.00    +0.189 C 
ATOM     16  F   UNL A   1     -25.860  -0.681  25.795  0.00  0.00    -0.200 F 
BRANCH  11  17
ATOM     17  C   UNL A   1     -25.642   4.093  27.123  0.00  0.00    +0.266 C 
ATOM     18  N   UNL A   1     -25.614   5.252  26.449  0.00  0.00    -0.200 NA
ATOM     19  C   UNL A   1     -25.026   6.479  26.963  0.00  0.00    +0.139 C 
ATOM     20  O   UNL A   1     -25.143   3.966  28.243  0.00  0.00    -0.268 OA
ENDBRANCH  11  17
BRANCH  14  21
ATOM     21  O   UNL A   1     -28.193  -0.208  24.477  0.00  0.00    -0.456 OA
BRANCH  21  22
ATOM     22  C   UNL A   1     -29.460   0.005  23.866  0.00  0.00    +0.243 C 
BRANCH  22  23
ATOM     23  C   UNL A   1     -30.065  -1.377  23.573  0.00  0.00    +0.229 C 
ATOM     24  O   UNL A   1     -30.729  -1.878  24.721  0.00  0.00    -0.216 OA
ENDBRANCH  22  23
ENDBRANCH  21  22
ENDBRANCH  14  21
ENDBRANCH   9  10
ENDBRANCH   5   9
ENDBRANCH   4   5
ENDBRANCH   1   4
BRANCH   3  25
ATOM     25  C   UNL A   1     -24.690   2.207  31.686  0.00  0.00    +0.098 C 
BRANCH  25  27
ATOM     26  C   UNL A   1     -25.387  -0.679  31.571  0.00  0.00    +0.079 C 
ATOM     27  C   UNL A   1     -25.189   0.773  32.028  0.00  0.00    +0.038 C 
ATOM     28  C   UNL A   1     -25.336   0.684  33.544  0.00  0.00    +0.022 C 
ATOM     29  C   UNL A   1     -24.829  -0.715  33.905  0.00  0.00    +0.089 C 
ATOM     30  N   UNL A   1     -24.758  -1.481  32.646  0.00  0.00    -0.219 NA
BRANCH  26  31
ATOM     31  C   UNL A   1     -24.855  -1.012  30.143  0.00  0.00    +0.044 C 
BRANCH  31  32
ATOM     32  C   UNL A   1     -24.973  -2.505  29.788  0.00  0.00    -0.021 C 
ATOM     33  C   UNL A   1     -23.906  -3.173  29.146  0.00  0.00    -0.004 C 
ATOM     34  C   UNL A   1     -23.989  -4.549  28.853  0.00  0.00    -0.000 C 
ATOM     35  C   UNL A   1     -25.137  -5.280  29.205  0.00  0.00    -0.000 C 
ATOM     36  C   UNL A   1     -26.232  -4.611  29.784  0.00  0.00    -0.000 C 
ATOM     37  C   UNL A   1     -26.155  -3.232  30.065  0.00  0.00    -0.004 C 
ENDBRANCH  31  32
ENDBRANCH  26  31
ENDBRANCH  25  27
BRANCH  25  38
ATOM     38  C   UNL A   1     -25.954   3.016  32.002  0.00  0.00    +0.039 C 
BRANCH  38  39
ATOM     39  C   UNL A   1     -26.107   3.661  33.389  0.00  0.00    +0.076 C 
BRANCH  39  40
ATOM     40  N   UNL A   1     -25.031   4.670  33.479  0.00  0.00    -0.247 NA
ATOM     41  N   UNL A   1     -26.497   8.497  34.245  0.00  0.00    -0.100 NA
ATOM     42  C   UNL A   1     -24.686   5.472  34.792  0.00  0.00    +0.221 C 
ATOM     43  C   UNL A   1     -25.515   6.998  32.701  0.00  0.00    +0.067 C 
ATOM     44  C   UNL A   1     -25.109   5.594  32.328  0.00  0.00    +0.078 C 
ATOM     45  C   UNL A   1     -26.141   7.145  33.950  0.00  0.00    +0.209 C 
ATOM     46  O   UNL A   1     -25.777   6.344  35.041  0.00  0.00    -0.321 OA
ENDBRANCH  39  40
ENDBRANCH  38  39
ENDBRANCH  25  38
ENDBRANCH   3  25
TORSDOF 16
