MODEL 733
MODEL 1
REMARK VINA RESULT:    -7.091      0.000      0.000
REMARK INTER + INTRA:         -13.399
REMARK INTER:                 -10.407
REMARK INTRA:                  -2.991
REMARK UNBOUND:                -2.991
REMARK  Name = No_733-gen_results/8p0m/2024-11-27-11-27-31/
REMARK  8 active torsions:
REMARK  status: ('A' for Active; 'I' for Inactive)
REMARK    1  A    between atoms: C_2  and  O_7
REMARK    2  A    between atoms: C_4  and  C_14
REMARK    3  A    between atoms: O_7  and  C_8
REMARK    4  A    between atoms: C_10  and  C_22
REMARK    5  A    between atoms: C_14  and  C_15
REMARK    6  A    between atoms: C_23  and  C_25
REMARK    7  A    between atoms: C_25  and  N_27
REMARK    8  A    between atoms: C_28  and  C_29
REMARK                            x       y       z     vdW  Elec       q    Type
REMARK                         _______ _______ _______ _____ _____    ______ ____
ROOT
ATOM      1  C   UNL A   1     -29.435 -13.510   8.091  0.00  0.00    +0.145 A 
ATOM      2  C   UNL A   1     -29.255 -14.185   9.153  0.00  0.00    +0.037 A 
ATOM      3  C   UNL A   1     -30.138 -15.079   9.797  0.00  0.00    +0.003 A 
ATOM      4  C   UNL A   1     -31.406 -15.180   9.184  0.00  0.00    +0.000 A 
ATOM      5  C   UNL A   1     -30.760 -13.739   7.453  0.00  0.00    +0.037 A 
ATOM      6  C   UNL A   1     -31.691 -14.490   8.026  0.00  0.00    +0.003 A 
ENDROOT
BRANCH   3   7
ATOM      7  C   UNL A   1     -29.834 -15.724  11.025  0.00  0.00    -0.006 C 
ATOM      8  C   UNL A   1     -29.707 -15.119  12.104  0.00  0.00    -0.020 C 
ATOM      9  C   UNL A   1     -29.487 -15.711  13.419  0.00  0.00    +0.028 C 
BRANCH   8  10
ATOM     10  C   UNL A   1     -29.863 -13.638  12.237  0.00  0.00    +0.148 C 
BRANCH  10  11
ATOM     11  N   UNL A   1     -30.633 -12.909  11.802  0.00  0.00    -0.264 NA
ATOM     12  C   UNL A   1     -30.348 -11.584  11.543  0.00  0.00    +0.093 C 
BRANCH  12  13
ATOM     13  C   UNL A   1     -31.334 -10.791  10.883  0.00  0.00    +0.019 A 
ATOM     14  C   UNL A   1     -32.258 -11.629  10.056  0.00  0.00    +0.002 A 
ATOM     15  C   UNL A   1     -33.216 -10.829   9.305  0.00  0.00    +0.000 A 
ATOM     16  C   UNL A   1     -33.256  -9.428   9.362  0.00  0.00    +0.000 A 
ATOM     17  C   UNL A   1     -32.343  -8.733  10.198  0.00  0.00    +0.000 A 
ATOM     18  C   UNL A   1     -31.461  -9.448  10.901  0.00  0.00    +0.002 A 
ENDBRANCH  12  13
ENDBRANCH  10  11
ENDBRANCH   8  10
ENDBRANCH   3   7
BRANCH   1  19
ATOM     19  O   UNL A   1     -28.584 -12.775   7.459  0.00  0.00    -0.453 OA
BRANCH  19  21
ATOM     20  C   UNL A   1     -27.595 -11.236   8.605  0.00  0.00    +0.067 A 
ATOM     21  C   UNL A   1     -28.405 -11.413   7.954  0.00  0.00    +0.147 A 
ATOM     22  C   UNL A   1     -27.433  -9.859   9.095  0.00  0.00    +0.140 A 
ATOM     23  C   UNL A   1     -28.415  -8.866   8.806  0.00  0.00    +0.010 A 
ATOM     24  C   UNL A   1     -29.578 -10.591   7.550  0.00  0.00    +0.037 A 
ATOM     25  C   UNL A   1     -29.459  -9.302   7.979  0.00  0.00    +0.001 A 
ATOM     26  F   UNL A   1     -26.369  -9.490   9.801  0.00  0.00    -0.204 F 
BRANCH  23  27
ATOM     27  C   UNL A   1     -28.304  -7.516   9.282  0.00  0.00    +0.055 C 
BRANCH  27  28
ATOM     28  C   UNL A   1     -29.116  -6.587   8.625  0.00  0.00    -0.015 A 
ATOM     29  C   UNL A   1     -28.795  -5.992   7.509  0.00  0.00    -0.004 A 
ATOM     30  C   UNL A   1     -28.947  -4.802   7.247  0.00  0.00    +0.003 A 
ATOM     31  C   UNL A   1     -29.957  -4.033   8.037  0.00  0.00    +0.042 A 
ATOM     32  C   UNL A   1     -30.570  -4.738   9.050  0.00  0.00    +0.195 A 
ATOM     33  C   UNL A   1     -30.133  -5.991   9.460  0.00  0.00    +0.038 A 
ATOM     34  O   UNL A   1     -31.496  -4.019   9.742  0.00  0.00    -0.287 OA
ENDBRANCH  27  28
ENDBRANCH  23  27
ENDBRANCH  19  21
ENDBRANCH   1  19
TORSDOF 8
ENDMDL
ENDMDL
