REMARK  Name = outputs/IAG933/test6/raw/output_7341_IAG933_linker_design_.xyz
REMARK  10 active torsions:
REMARK  status: ('A' for Active; 'I' for Inactive)
REMARK    1  A    between atoms: C_1  and  C_2
REMARK    2  A    between atoms: C_1  and  C_8
REMARK    3  A    between atoms: C_9  and  P_36
REMARK    4  A    between atoms: C_13  and  C_34
REMARK    5  A    between atoms: C_14  and  C_15
REMARK    6  A    between atoms: C_21  and  O_22
REMARK    7  A    between atoms: O_22  and  C_23
REMARK    8  A    between atoms: C_23  and  C_24
REMARK    9  A    between atoms: N_31  and  C_41
REMARK   10  A    between atoms: P_36  and  C_41
REMARK                            x       y       z     vdW  Elec       q    Type
REMARK                         _______ _______ _______ _____ _____    ______ ____
ROOT
ATOM      1  C   UNL A   1     -21.761   1.479  27.347  0.00  0.00    +0.201 C 
ATOM      2  C   UNL A   1     -20.859  -0.179  28.886  0.00  0.00    +0.066 C 
ATOM      3  N   UNL A   1     -25.338   1.764  29.223  0.00  0.00    -0.025 NA
ATOM      4  C   UNL A   1     -22.017   0.685  28.430  0.00  0.00    +0.267 C 
ATOM      5  O   UNL A   1     -22.778   2.745  25.591  0.00  0.00    -0.288 OA
ATOM      6  C   UNL A   1     -24.322   1.619  27.098  0.00  0.00    +0.197 C 
ATOM      7  C   UNL A   1     -22.967   1.940  26.633  0.00  0.00    +0.216 C 
ATOM      8  N   UNL A   1     -23.218   0.678  29.082  0.00  0.00    -0.063 NA
ATOM      9  C   UNL A   1     -24.249   1.349  28.456  0.00  0.00    +0.344 C 
ATOM     10  F   UNL A   1     -20.481   1.881  27.189  0.00  0.00    -0.201 F 
ENDROOT
BRANCH   6  11
ATOM     11  C   UNL A   1     -25.688   1.614  26.461  0.00  0.00    +0.035 C 
ATOM     12  C   UNL A   1     -26.250   2.920  26.395  0.00  0.00    +0.074 C 
ATOM     13  C   UNL A   1     -27.438   3.091  25.645  0.00  0.00    +0.106 C 
ATOM     14  N   UNL A   1     -28.075   2.089  25.003  0.00  0.00    -0.208 NA
ATOM     15  C   UNL A   1     -27.543   0.849  25.079  0.00  0.00    +0.253 C 
ATOM     16  C   UNL A   1     -26.354   0.576  25.777  0.00  0.00    +0.190 C 
ATOM     17  F   UNL A   1     -25.860  -0.681  25.795  0.00  0.00    -0.200 F 
BRANCH  12  18
ATOM     18  C   UNL A   1     -25.642   4.093  27.123  0.00  0.00    +0.266 C 
ATOM     19  N   UNL A   1     -25.614   5.252  26.449  0.00  0.00    -0.200 NA
ATOM     20  C   UNL A   1     -25.026   6.479  26.963  0.00  0.00    +0.139 C 
ATOM     21  O   UNL A   1     -25.143   3.966  28.243  0.00  0.00    -0.268 OA
ENDBRANCH  12  18
BRANCH  15  22
ATOM     22  O   UNL A   1     -28.193  -0.208  24.477  0.00  0.00    -0.456 OA
BRANCH  22  23
ATOM     23  C   UNL A   1     -29.460   0.005  23.866  0.00  0.00    +0.243 C 
BRANCH  23  24
ATOM     24  C   UNL A   1     -30.065  -1.377  23.573  0.00  0.00    +0.229 C 
ATOM     25  O   UNL A   1     -30.729  -1.878  24.721  0.00  0.00    -0.216 OA
ENDBRANCH  23  24
ENDBRANCH  22  23
ENDBRANCH  15  22
ENDBRANCH   6  11
BRANCH   3  26
ATOM     26  C   UNL A   1     -26.365   2.257  30.177  0.00  0.00    +0.326 C 
BRANCH  26  28
ATOM     27  N   UNL A   1     -26.274   3.345  32.591  0.00  0.00    -0.068 NA
ATOM     28  P   UNL A   1     -25.467   2.423  31.575  0.00  0.00    +0.249 P 
ATOM     29  O   UNL A   1     -24.149   3.018  31.438  0.00  0.00    -0.296 OA
BRANCH  28  31
ATOM     30  C   UNL A   1     -25.387  -0.679  31.571  0.00  0.00    +0.086 C 
ATOM     31  C   UNL A   1     -25.189   0.773  32.028  0.00  0.00    +0.090 C 
ATOM     32  C   UNL A   1     -25.336   0.684  33.544  0.00  0.00    +0.029 C 
ATOM     33  C   UNL A   1     -24.829  -0.715  33.905  0.00  0.00    +0.089 C 
ATOM     34  N   UNL A   1     -24.758  -1.481  32.646  0.00  0.00    -0.219 NA
BRANCH  30  35
ATOM     35  C   UNL A   1     -24.855  -1.012  30.143  0.00  0.00    +0.044 C 
BRANCH  35  36
ATOM     36  C   UNL A   1     -24.973  -2.505  29.788  0.00  0.00    -0.021 C 
ATOM     37  C   UNL A   1     -23.906  -3.173  29.146  0.00  0.00    -0.004 C 
ATOM     38  C   UNL A   1     -23.989  -4.549  28.853  0.00  0.00    -0.000 C 
ATOM     39  C   UNL A   1     -25.137  -5.280  29.205  0.00  0.00    -0.000 C 
ATOM     40  C   UNL A   1     -26.232  -4.611  29.784  0.00  0.00    -0.000 C 
ATOM     41  C   UNL A   1     -26.155  -3.232  30.065  0.00  0.00    -0.004 C 
ENDBRANCH  35  36
ENDBRANCH  30  35
ENDBRANCH  28  31
ENDBRANCH  26  28
ENDBRANCH   3  26
TORSDOF 10
