REMARK  Name = outputs/IAG933/test6/raw/output_7342_IAG933_linker_design_.xyz
REMARK  12 active torsions:
REMARK  status: ('A' for Active; 'I' for Inactive)
REMARK    1  A    between atoms: C_1  and  C_2
REMARK    2  A    between atoms: C_1  and  C_8
REMARK    3  A    between atoms: C_1  and  C_35
REMARK    4  A    between atoms: C_13  and  N_40
REMARK    5  A    between atoms: C_14  and  C_15
REMARK    6  A    between atoms: C_21  and  O_22
REMARK    7  A    between atoms: O_22  and  C_23
REMARK    8  A    between atoms: C_23  and  C_24
REMARK    9  A    between atoms: C_29  and  C_32
REMARK   10  A    between atoms: C_31  and  C_38
REMARK   11  A    between atoms: C_36  and  C_38
REMARK   12  A    between atoms: C_36  and  N_41
REMARK                            x       y       z     vdW  Elec       q    Type
REMARK                         _______ _______ _______ _____ _____    ______ ____
ROOT
ATOM      1  O   UNL A   1     -20.129   0.228  28.681  0.00  0.00    -0.247 OA
ATOM      2  O   UNL A   1     -22.387  -0.387  29.100  0.00  0.00    -0.448 OA
ATOM      3  C   UNL A   1     -25.719   0.938  28.761  0.00  0.00    +0.064 C 
ATOM      4  C   UNL A   1     -23.345   1.149  27.512  0.00  0.00    +0.218 C 
ATOM      5  C   UNL A   1     -24.871  -0.216  28.864  0.00  0.00    +0.062 C 
ATOM      6  F   UNL A   1     -21.457   2.607  28.065  0.00  0.00    -0.223 F 
ATOM      7  N   UNL A   1     -24.876   1.312  27.619  0.00  0.00    -0.257 NA
ATOM      8  C   UNL A   1     -21.362   0.395  28.641  0.00  0.00    +0.352 C 
ATOM      9  C   UNL A   1     -21.897   1.420  28.101  0.00  0.00    +0.285 C 
ATOM     10  C   UNL A   1     -23.454   0.253  28.508  0.00  0.00    +0.197 C 
ENDROOT
BRANCH   7  11
ATOM     11  C   UNL A   1     -25.688   1.614  26.461  0.00  0.00    +0.129 C 
ATOM     12  C   UNL A   1     -26.250   2.920  26.395  0.00  0.00    +0.070 C 
ATOM     13  C   UNL A   1     -27.438   3.091  25.645  0.00  0.00    +0.103 C 
ATOM     14  N   UNL A   1     -28.075   2.089  25.003  0.00  0.00    -0.212 NA
ATOM     15  C   UNL A   1     -27.543   0.849  25.079  0.00  0.00    +0.235 C 
ATOM     16  C   UNL A   1     -26.354   0.576  25.777  0.00  0.00    +0.255 C 
ATOM     17  F   UNL A   1     -25.860  -0.681  25.795  0.00  0.00    -0.225 F 
BRANCH  12  18
ATOM     18  C   UNL A   1     -25.642   4.093  27.123  0.00  0.00    +0.264 C 
ATOM     19  N   UNL A   1     -25.614   5.252  26.449  0.00  0.00    -0.200 NA
ATOM     20  C   UNL A   1     -25.026   6.479  26.963  0.00  0.00    +0.139 C 
ATOM     21  O   UNL A   1     -25.143   3.966  28.243  0.00  0.00    -0.269 OA
ENDBRANCH  12  18
BRANCH  15  22
ATOM     22  O   UNL A   1     -28.193  -0.208  24.477  0.00  0.00    -0.459 OA
BRANCH  22  23
ATOM     23  C   UNL A   1     -29.460   0.005  23.866  0.00  0.00    +0.242 C 
BRANCH  23  24
ATOM     24  C   UNL A   1     -30.065  -1.377  23.573  0.00  0.00    +0.229 C 
ATOM     25  O   UNL A   1     -30.729  -1.878  24.721  0.00  0.00    -0.216 OA
ENDBRANCH  23  24
ENDBRANCH  22  23
ENDBRANCH  15  22
ENDBRANCH   7  11
BRANCH   4  26
ATOM     26  C   UNL A   1     -22.887   1.653  25.974  0.00  0.00    +0.384 C 
ATOM     27  O   UNL A   1     -21.544   1.807  25.627  0.00  0.00    -0.244 OA
ATOM     28  O   UNL A   1     -23.604   1.574  24.797  0.00  0.00    -0.244 OA
ENDBRANCH   4  26
BRANCH   5  29
ATOM     29  C   UNL A   1     -24.855  -1.012  30.143  0.00  0.00    +0.043 C 
BRANCH  29  30
ATOM     30  C   UNL A   1     -24.973  -2.505  29.788  0.00  0.00    -0.021 C 
ATOM     31  C   UNL A   1     -23.906  -3.173  29.146  0.00  0.00    -0.004 C 
ATOM     32  C   UNL A   1     -23.989  -4.549  28.853  0.00  0.00    -0.000 C 
ATOM     33  C   UNL A   1     -25.137  -5.280  29.205  0.00  0.00    -0.000 C 
ATOM     34  C   UNL A   1     -26.232  -4.611  29.784  0.00  0.00    -0.000 C 
ATOM     35  C   UNL A   1     -26.155  -3.232  30.065  0.00  0.00    -0.004 C 
ENDBRANCH  29  30
BRANCH  29  36
ATOM     36  C   UNL A   1     -25.387  -0.679  31.571  0.00  0.00    +0.077 C 
ATOM     37  C   UNL A   1     -25.189   0.773  32.028  0.00  0.00    +0.019 C 
ATOM     38  C   UNL A   1     -25.336   0.684  33.544  0.00  0.00    +0.020 C 
ATOM     39  C   UNL A   1     -24.829  -0.715  33.905  0.00  0.00    +0.089 C 
ATOM     40  N   UNL A   1     -24.758  -1.481  32.646  0.00  0.00    -0.219 NA
ENDBRANCH  29  36
ENDBRANCH   5  29
BRANCH   3  41
ATOM     41  C   UNL A   1     -26.714   2.168  29.357  0.00  0.00    +0.040 C 
BRANCH  41  42
ATOM     42  C   UNL A   1     -26.864   3.340  29.909  0.00  0.00    +0.118 C 
BRANCH  42  45
ATOM     43  N   UNL A   1     -26.027   4.991  33.121  0.00  0.00    -0.068 NA
ATOM     44  O   UNL A   1     -24.736   3.822  31.761  0.00  0.00    -0.247 OA
ATOM     45  N   UNL A   1     -26.768   4.411  30.984  0.00  0.00    -0.186 NA
ATOM     46  C   UNL A   1     -25.790   4.402  31.952  0.00  0.00    +0.359 C 
ENDBRANCH  42  45
ENDBRANCH  41  42
ENDBRANCH   3  41
TORSDOF 12
