REMARK  Name = outputs/IAG933/test6/raw/output_7343_IAG933_linker_design_.xyz
REMARK  11 active torsions:
REMARK  status: ('A' for Active; 'I' for Inactive)
REMARK    1  A    between atoms: C_1  and  C_2
REMARK    2  A    between atoms: C_1  and  C_8
REMARK    3  A    between atoms: C_1  and  C_37
REMARK    4  A    between atoms: C_13  and  N_31
REMARK    5  A    between atoms: C_14  and  C_15
REMARK    6  A    between atoms: C_21  and  O_22
REMARK    7  A    between atoms: O_22  and  C_23
REMARK    8  A    between atoms: C_23  and  C_24
REMARK    9  A    between atoms: N_31  and  C_36
REMARK   10  A    between atoms: C_33  and  C_37
REMARK   11  A    between atoms: C_35  and  C_39
REMARK                            x       y       z     vdW  Elec       q    Type
REMARK                         _______ _______ _______ _____ _____    ______ ____
ROOT
ATOM      1  C   UNL A   1     -21.150   1.075  27.554  0.00  0.00    +0.008 C 
ATOM      2  C   UNL A   1     -22.383  -0.236  29.170  0.00  0.00    +0.004 C 
ATOM      3  C   UNL A   1     -21.196   0.274  28.695  0.00  0.00    +0.000 C 
ATOM      4  C   UNL A   1     -23.539   0.210  28.558  0.00  0.00    +0.051 C 
ATOM      5  C   UNL A   1     -23.431   0.993  27.479  0.00  0.00    +0.080 C 
ATOM      6  C   UNL A   1     -22.329   1.367  26.931  0.00  0.00    +0.095 C 
ENDROOT
BRANCH   6   9
ATOM      7  O   UNL A   1     -23.183   1.568  24.761  0.00  0.00    -0.240 OA
ATOM      8  O   UNL A   1     -21.389   2.638  25.272  0.00  0.00    -0.240 OA
ATOM      9  C   UNL A   1     -22.330   1.938  25.547  0.00  0.00    +0.389 C 
ENDBRANCH   6   9
BRANCH   4  10
ATOM     10  C   UNL A   1     -24.914  -0.147  28.959  0.00  0.00    +0.179 C 
ATOM     11  O   UNL A   1     -26.072  -0.100  28.444  0.00  0.00    -0.291 OA
BRANCH  10  12
ATOM     12  C   UNL A   1     -24.855  -1.012  30.143  0.00  0.00    +0.100 C 
BRANCH  12  13
ATOM     13  C   UNL A   1     -24.973  -2.505  29.788  0.00  0.00    -0.014 C 
ATOM     14  C   UNL A   1     -23.906  -3.173  29.146  0.00  0.00    -0.004 C 
ATOM     15  C   UNL A   1     -23.989  -4.549  28.853  0.00  0.00    -0.000 C 
ATOM     16  C   UNL A   1     -25.137  -5.280  29.205  0.00  0.00    -0.000 C 
ATOM     17  C   UNL A   1     -26.232  -4.611  29.784  0.00  0.00    -0.000 C 
ATOM     18  C   UNL A   1     -26.155  -3.232  30.065  0.00  0.00    -0.004 C 
ENDBRANCH  12  13
BRANCH  12  19
ATOM     19  C   UNL A   1     -25.387  -0.679  31.571  0.00  0.00    +0.084 C 
ATOM     20  C   UNL A   1     -25.189   0.773  32.028  0.00  0.00    +0.020 C 
ATOM     21  C   UNL A   1     -25.336   0.684  33.544  0.00  0.00    +0.020 C 
ATOM     22  C   UNL A   1     -24.829  -0.715  33.905  0.00  0.00    +0.089 C 
ATOM     23  N   UNL A   1     -24.758  -1.481  32.646  0.00  0.00    -0.219 NA
ENDBRANCH  12  19
ENDBRANCH  10  12
ENDBRANCH   4  10
BRANCH   5  24
ATOM     24  N   UNL A   1     -24.507   1.442  26.972  0.00  0.00    -0.209 NA
BRANCH  24  25
ATOM     25  C   UNL A   1     -25.688   1.614  26.461  0.00  0.00    +0.108 C 
ATOM     26  C   UNL A   1     -26.250   2.920  26.395  0.00  0.00    +0.092 C 
ATOM     27  C   UNL A   1     -27.438   3.091  25.645  0.00  0.00    +0.108 C 
ATOM     28  N   UNL A   1     -28.075   2.089  25.003  0.00  0.00    -0.208 NA
ATOM     29  C   UNL A   1     -27.543   0.849  25.079  0.00  0.00    +0.255 C 
ATOM     30  C   UNL A   1     -26.354   0.576  25.777  0.00  0.00    +0.208 C 
ATOM     31  F   UNL A   1     -25.860  -0.681  25.795  0.00  0.00    -0.198 F 
BRANCH  26  32
ATOM     32  C   UNL A   1     -25.642   4.093  27.123  0.00  0.00    +0.268 C 
ATOM     33  N   UNL A   1     -25.614   5.252  26.449  0.00  0.00    -0.200 NA
ATOM     34  C   UNL A   1     -25.026   6.479  26.963  0.00  0.00    +0.139 C 
ATOM     35  O   UNL A   1     -25.143   3.966  28.243  0.00  0.00    -0.268 OA
ENDBRANCH  26  32
BRANCH  29  36
ATOM     36  O   UNL A   1     -28.193  -0.208  24.477  0.00  0.00    -0.456 OA
BRANCH  36  37
ATOM     37  C   UNL A   1     -29.460   0.005  23.866  0.00  0.00    +0.243 C 
BRANCH  37  38
ATOM     38  C   UNL A   1     -30.065  -1.377  23.573  0.00  0.00    +0.229 C 
ATOM     39  O   UNL A   1     -30.729  -1.878  24.721  0.00  0.00    -0.216 OA
ENDBRANCH  37  38
ENDBRANCH  36  37
ENDBRANCH  29  36
ENDBRANCH  24  25
ENDBRANCH   5  24
TORSDOF 11
