REMARK  Name = outputs/IAG933/test6/raw/output_7344_IAG933_linker_design_.xyz
REMARK  11 active torsions:
REMARK  status: ('A' for Active; 'I' for Inactive)
REMARK    1  A    between atoms: C_1  and  C_2
REMARK    2  A    between atoms: C_1  and  C_8
REMARK    3  A    between atoms: C_9  and  N_31
REMARK    4  A    between atoms: C_13  and  C_36
REMARK    5  A    between atoms: C_14  and  C_15
REMARK    6  A    between atoms: C_21  and  O_22
REMARK    7  A    between atoms: O_22  and  C_23
REMARK    8  A    between atoms: C_23  and  C_24
REMARK    9  A    between atoms: N_31  and  C_42
REMARK   10  A    between atoms: C_32  and  C_35
REMARK   11  A    between atoms: O_37  and  C_46
REMARK                            x       y       z     vdW  Elec       q    Type
REMARK                         _______ _______ _______ _____ _____    ______ ____
ROOT
ATOM      1  N   UNL A   1     -26.227   1.851  31.327  0.00  0.00    -0.256 N 
ATOM      2  C   UNL A   1     -25.765   1.609  29.604  0.00  0.00    +0.253 C 
ATOM      3  O   UNL A   1     -26.997   1.581  28.919  0.00  0.00    -0.270 OA
ENDROOT
BRANCH   1   9
ATOM      4  C   UNL A   1     -28.777   1.410  30.534  0.00  0.00    +0.018 C 
ATOM      5  C   UNL A   1     -27.808   2.864  33.904  0.00  0.00    +0.032 C 
ATOM      6  C   UNL A   1     -29.713   1.390  33.184  0.00  0.00    +0.034 C 
ATOM      7  C   UNL A   1     -30.104   0.955  30.871  0.00  0.00    +0.038 C 
ATOM      8  C   UNL A   1     -28.457   1.955  32.831  0.00  0.00    -0.005 C 
ATOM      9  C   UNL A   1     -27.802   1.786  31.593  0.00  0.00    +0.050 C 
ATOM     10  C   UNL A   1     -30.575   0.902  32.208  0.00  0.00    +0.139 C 
BRANCH  10  11
ATOM     11  O   UNL A   1     -31.786   0.384  32.569  0.00  0.00    -0.471 OA
ATOM     12  C   UNL A   1     -31.727  -0.961  33.076  0.00  0.00    +0.253 C 
ENDBRANCH  10  11
ENDBRANCH   1   9
BRANCH   2  16
ATOM     13 CL   UNL A   1     -23.123   1.726  24.714  0.00  0.00    -0.043 Cl
ATOM     14  C   UNL A   1     -22.027   1.428  28.469  0.00  0.00    +0.233 C 
ATOM     15  C   UNL A   1     -23.244   1.567  26.437  0.00  0.00    +0.198 C 
ATOM     16  C   UNL A   1     -24.490   1.455  28.574  0.00  0.00    +0.057 C 
ATOM     17  C   UNL A   1     -24.491   1.505  27.137  0.00  0.00    +0.052 C 
ATOM     18  C   UNL A   1     -23.244   1.383  29.194  0.00  0.00    +0.025 C 
ATOM     19  O   UNL A   1     -22.065   1.651  27.115  0.00  0.00    -0.461 OA
BRANCH  17  20
ATOM     20  C   UNL A   1     -25.688   1.614  26.461  0.00  0.00    +0.042 C 
ATOM     21  C   UNL A   1     -26.250   2.920  26.395  0.00  0.00    +0.077 C 
ATOM     22  C   UNL A   1     -27.438   3.091  25.645  0.00  0.00    +0.107 C 
ATOM     23  N   UNL A   1     -28.075   2.089  25.003  0.00  0.00    -0.208 NA
ATOM     24  C   UNL A   1     -27.543   0.849  25.079  0.00  0.00    +0.253 C 
ATOM     25  C   UNL A   1     -26.354   0.576  25.777  0.00  0.00    +0.193 C 
ATOM     26  F   UNL A   1     -25.860  -0.681  25.795  0.00  0.00    -0.199 F 
BRANCH  21  27
ATOM     27  C   UNL A   1     -25.642   4.093  27.123  0.00  0.00    +0.266 C 
ATOM     28  N   UNL A   1     -25.614   5.252  26.449  0.00  0.00    -0.200 NA
ATOM     29  C   UNL A   1     -25.026   6.479  26.963  0.00  0.00    +0.139 C 
ATOM     30  O   UNL A   1     -25.143   3.966  28.243  0.00  0.00    -0.268 OA
ENDBRANCH  21  27
BRANCH  24  31
ATOM     31  O   UNL A   1     -28.193  -0.208  24.477  0.00  0.00    -0.456 OA
BRANCH  31  32
ATOM     32  C   UNL A   1     -29.460   0.005  23.866  0.00  0.00    +0.243 C 
BRANCH  32  33
ATOM     33  C   UNL A   1     -30.065  -1.377  23.573  0.00  0.00    +0.229 C 
ATOM     34  O   UNL A   1     -30.729  -1.878  24.721  0.00  0.00    -0.216 OA
ENDBRANCH  32  33
ENDBRANCH  31  32
ENDBRANCH  24  31
ENDBRANCH  17  20
ENDBRANCH   2  16
BRANCH   1  36
ATOM     35  C   UNL A   1     -25.387  -0.679  31.571  0.00  0.00    +0.096 C 
ATOM     36  C   UNL A   1     -25.189   0.773  32.028  0.00  0.00    +0.098 C 
ATOM     37  C   UNL A   1     -25.336   0.684  33.544  0.00  0.00    +0.040 C 
ATOM     38  C   UNL A   1     -24.829  -0.715  33.905  0.00  0.00    +0.090 C 
ATOM     39  N   UNL A   1     -24.758  -1.481  32.646  0.00  0.00    -0.217 NA
BRANCH  35  40
ATOM     40  C   UNL A   1     -24.855  -1.012  30.143  0.00  0.00    +0.045 C 
BRANCH  40  41
ATOM     41  C   UNL A   1     -24.973  -2.505  29.788  0.00  0.00    -0.021 C 
ATOM     42  C   UNL A   1     -23.906  -3.173  29.146  0.00  0.00    -0.004 C 
ATOM     43  C   UNL A   1     -23.989  -4.549  28.853  0.00  0.00    -0.000 C 
ATOM     44  C   UNL A   1     -25.137  -5.280  29.205  0.00  0.00    -0.000 C 
ATOM     45  C   UNL A   1     -26.232  -4.611  29.784  0.00  0.00    -0.000 C 
ATOM     46  C   UNL A   1     -26.155  -3.232  30.065  0.00  0.00    -0.004 C 
ENDBRANCH  40  41
ENDBRANCH  35  40
ENDBRANCH   1  36
TORSDOF 11
