MODEL 734
MODEL 1
REMARK VINA RESULT:    -8.478      0.000      0.000
REMARK INTER + INTRA:          -8.478
REMARK INTER:                  -8.478
REMARK INTRA:                   0.000
REMARK UNBOUND:                 0.000
REMARK  Name = No_734-gen_results/8p0m/2024-11-27-11-27-31/
REMARK  0 active torsions:
REMARK  status: ('A' for Active; 'I' for Inactive)
REMARK                            x       y       z     vdW  Elec       q    Type
REMARK                         _______ _______ _______ _____ _____    ______ ____
ROOT
ATOM      1  C   UNL A   1     -27.340   2.324  28.510  0.00  0.00    +0.017 A 
ATOM      2  C   UNL A   1     -26.372   1.636  28.740  0.00  0.00    +0.070 A 
ATOM      3  C   UNL A   1     -25.140   1.804  28.110  0.00  0.00    +0.013 A 
ATOM      4  C   UNL A   1     -25.006   2.814  27.078  0.00  0.00    -0.017 A 
ATOM      5  C   UNL A   1     -23.839   3.051  26.396  0.00  0.00    +0.052 C 
ATOM      6  C   UNL A   1     -27.344   3.296  27.416  0.00  0.00    +0.001 A 
ATOM      7  C   UNL A   1     -26.159   3.555  26.729  0.00  0.00    -0.004 A 
ATOM      8  C   UNL A   1     -22.778   1.977  26.528  0.00  0.00    -0.026 C 
ATOM      9  C   UNL A   1     -21.981   1.855  27.199  0.00  0.00    -0.030 C 
ATOM     10  C   UNL A   1     -21.186   0.763  27.806  0.00  0.00    +0.030 C 
ATOM     11  C   UNL A   1     -21.366   0.341  29.089  0.00  0.00    +0.031 C 
ATOM     12  C   UNL A   1     -22.582  -0.253  29.479  0.00  0.00    -0.022 A 
ATOM     13  C   UNL A   1     -22.720  -0.862  30.749  0.00  0.00    -0.004 A 
ATOM     14  C   UNL A   1     -23.941  -1.495  31.088  0.00  0.00    -0.000 A 
ATOM     15  C   UNL A   1     -24.931  -1.648  30.126  0.00  0.00    -0.000 A 
ATOM     16  C   UNL A   1     -26.127  -2.254  30.478  0.00  0.00    +0.000 A 
ATOM     17  C   UNL A   1     -24.438  -1.919  28.760  0.00  0.00    -0.000 A 
ATOM     18  C   UNL A   1     -23.418  -0.925  28.326  0.00  0.00    -0.004 A 
ATOM     19  C   UNL A   1     -26.512  -3.396  30.068  0.00  0.00    +0.000 A 
ATOM     20  C   UNL A   1     -27.853  -3.909  30.326  0.00  0.00    +0.000 A 
ATOM     21  C   UNL A   1     -28.640  -3.091  31.167  0.00  0.00    +0.000 A 
ATOM     22  C   UNL A   1     -26.927  -1.440  31.341  0.00  0.00    +0.001 A 
ATOM     23  C   UNL A   1     -26.470  -0.213  31.834  0.00  0.00    +0.015 A 
ATOM     24  C   UNL A   1     -28.199  -1.898  31.703  0.00  0.00    +0.000 A 
ATOM     25  C   UNL A   1     -26.407   0.131  32.956  0.00  0.00    +0.001 A 
ATOM     26  C   UNL A   1     -26.171   1.468  33.493  0.00  0.00    +0.000 A 
ATOM     27  C   UNL A   1     -25.706   2.396  32.456  0.00  0.00    +0.001 A 
ATOM     28  C   UNL A   1     -25.414   1.984  31.212  0.00  0.00    +0.017 A 
ATOM     29  C   UNL A   1     -25.876   0.690  30.762  0.00  0.00    +0.070 A 
ATOM     30  N   UNL A   1     -26.343   0.630  29.514  0.00  0.00    -0.212 NA
ENDROOT
TORSDOF 0
ENDMDL
ENDMDL
