REMARK  Name = outputs/IAG933/test6/raw/output_7351_IAG933_linker_design_.xyz
REMARK  9 active torsions:
REMARK  status: ('A' for Active; 'I' for Inactive)
REMARK    1  A    between atoms: C_1  and  C_2
REMARK    2  A    between atoms: C_13  and  C_41
REMARK    3  A    between atoms: C_14  and  C_15
REMARK    4  A    between atoms: C_21  and  O_22
REMARK    5  A    between atoms: O_22  and  C_23
REMARK    6  A    between atoms: C_23  and  C_24
REMARK    7  A    between atoms: C_29  and  C_31
REMARK    8  A    between atoms: C_33  and  C_34
REMARK    9  A    between atoms: N_37  and  C_39
REMARK                            x       y       z     vdW  Elec       q    Type
REMARK                         _______ _______ _______ _____ _____    ______ ____
ROOT
ATOM      1  O   UNL A   1     -23.069   2.334  25.157  0.00  0.00    -0.247 OA
ATOM      2  O   UNL A   1     -21.948   0.066  28.935  0.00  0.00    -0.226 OA
ATOM      3  C   UNL A   1     -22.599   0.842  28.244  0.00  0.00    +0.412 C 
ATOM      4  N   UNL A   1     -23.979   1.087  28.094  0.00  0.00    -0.235 N 
ATOM      5  C   UNL A   1     -23.211   1.903  26.329  0.00  0.00    +0.347 C 
ATOM      6  C   UNL A   1     -24.354   1.473  26.945  0.00  0.00    +0.203 C 
ATOM      7  O   UNL A   1     -22.127   1.609  27.144  0.00  0.00    -0.376 OA
ENDROOT
BRANCH   4  16
ATOM      8  C   UNL A   1     -24.855  -1.012  30.143  0.00  0.00    +0.040 C 
ATOM      9  C   UNL A   1     -25.387  -0.679  31.571  0.00  0.00    +0.077 C 
ATOM     10  C   UNL A   1     -25.189   0.773  32.028  0.00  0.00    +0.023 C 
ATOM     11  C   UNL A   1     -25.336   0.684  33.544  0.00  0.00    +0.021 C 
ATOM     12  C   UNL A   1     -24.829  -0.715  33.905  0.00  0.00    +0.089 C 
ATOM     13  N   UNL A   1     -24.758  -1.481  32.646  0.00  0.00    -0.219 NA
ATOM     14  C   UNL A   1     -24.276   2.068  30.176  0.00  0.00    +0.026 C 
ATOM     15  C   UNL A   1     -25.089   2.204  31.435  0.00  0.00    +0.042 C 
ATOM     16  C   UNL A   1     -24.776   1.146  29.218  0.00  0.00    +0.080 C 
ATOM     17  C   UNL A   1     -25.548  -0.140  29.229  0.00  0.00    +0.026 C 
BRANCH   8  18
ATOM     18  C   UNL A   1     -24.973  -2.505  29.788  0.00  0.00    -0.021 C 
ATOM     19  C   UNL A   1     -23.906  -3.173  29.146  0.00  0.00    -0.004 C 
ATOM     20  C   UNL A   1     -23.989  -4.549  28.853  0.00  0.00    -0.000 C 
ATOM     21  C   UNL A   1     -25.137  -5.280  29.205  0.00  0.00    -0.000 C 
ATOM     22  C   UNL A   1     -26.232  -4.611  29.784  0.00  0.00    -0.000 C 
ATOM     23  C   UNL A   1     -26.155  -3.232  30.065  0.00  0.00    -0.004 C 
ENDBRANCH   8  18
BRANCH  15  25
ATOM     24  C   UNL A   1     -27.523   2.080  31.125  0.00  0.00    +0.023 C 
ATOM     25  C   UNL A   1     -26.496   2.886  31.029  0.00  0.00    +0.065 C 
ATOM     26  N   UNL A   1     -26.510   4.187  30.773  0.00  0.00    -0.133 NA
BRANCH  24  28
ATOM     27  O   UNL A   1     -29.055   1.944  29.385  0.00  0.00    -0.215 OA
ATOM     28  C   UNL A   1     -28.863   2.546  30.652  0.00  0.00    +0.209 C 
ENDBRANCH  24  28
ENDBRANCH  15  25
ENDBRANCH   4  16
BRANCH   6  29
ATOM     29  C   UNL A   1     -25.688   1.614  26.461  0.00  0.00    +0.045 C 
ATOM     30  C   UNL A   1     -26.250   2.920  26.395  0.00  0.00    +0.075 C 
ATOM     31  C   UNL A   1     -27.438   3.091  25.645  0.00  0.00    +0.106 C 
ATOM     32  N   UNL A   1     -28.075   2.089  25.003  0.00  0.00    -0.208 NA
ATOM     33  C   UNL A   1     -27.543   0.849  25.079  0.00  0.00    +0.253 C 
ATOM     34  C   UNL A   1     -26.354   0.576  25.777  0.00  0.00    +0.191 C 
ATOM     35  F   UNL A   1     -25.860  -0.681  25.795  0.00  0.00    -0.200 F 
BRANCH  30  36
ATOM     36  C   UNL A   1     -25.642   4.093  27.123  0.00  0.00    +0.266 C 
ATOM     37  N   UNL A   1     -25.614   5.252  26.449  0.00  0.00    -0.200 NA
ATOM     38  C   UNL A   1     -25.026   6.479  26.963  0.00  0.00    +0.139 C 
ATOM     39  O   UNL A   1     -25.143   3.966  28.243  0.00  0.00    -0.268 OA
ENDBRANCH  30  36
BRANCH  33  40
ATOM     40  O   UNL A   1     -28.193  -0.208  24.477  0.00  0.00    -0.456 OA
BRANCH  40  41
ATOM     41  C   UNL A   1     -29.460   0.005  23.866  0.00  0.00    +0.243 C 
BRANCH  41  42
ATOM     42  C   UNL A   1     -30.065  -1.377  23.573  0.00  0.00    +0.229 C 
ATOM     43  O   UNL A   1     -30.729  -1.878  24.721  0.00  0.00    -0.216 OA
ENDBRANCH  41  42
ENDBRANCH  40  41
ENDBRANCH  33  40
ENDBRANCH   6  29
TORSDOF 9
