REMARK  Name = outputs/IAG933/test6/raw/output_7354_IAG933_linker_design_.xyz
REMARK  12 active torsions:
REMARK  status: ('A' for Active; 'I' for Inactive)
REMARK    1  A    between atoms: C_1  and  C_2
REMARK    2  A    between atoms: C_1  and  C_8
REMARK    3  A    between atoms: C_1  and  C_34
REMARK    4  A    between atoms: C_13  and  C_38
REMARK    5  A    between atoms: C_14  and  C_15
REMARK    6  A    between atoms: C_21  and  O_22
REMARK    7  A    between atoms: O_22  and  C_23
REMARK    8  A    between atoms: C_23  and  C_24
REMARK    9  A    between atoms: C_34  and  C_44
REMARK   10  A    between atoms: S_36  and  C_40
REMARK   11  A    between atoms: S_36  and  C_45
REMARK   12  A    between atoms: C_40  and  C_44
REMARK                            x       y       z     vdW  Elec       q    Type
REMARK                         _______ _______ _______ _____ _____    ______ ____
ROOT
ATOM      1  C   UNL A   1     -23.265   1.658  26.688  0.00  0.00    +0.067 C 
ATOM      2  C   UNL A   1     -22.384   1.363  27.758  0.00  0.00    +0.129 C 
ATOM      3  F   UNL A   1     -21.120   1.751  27.614  0.00  0.00    -0.208 F 
ATOM      4  C   UNL A   1     -25.327  -0.173  29.017  0.00  0.00    -0.044 C 
ATOM      5  C   UNL A   1     -24.357   0.576  28.297  0.00  0.00    -0.036 C 
ATOM      6  C   UNL A   1     -24.524   1.313  27.126  0.00  0.00    +0.078 C 
ATOM      7 CL   UNL A   1     -22.917   2.435  25.207  0.00  0.00    -0.084 Cl
ATOM      8  C   UNL A   1     -23.029   0.646  28.691  0.00  0.00    +0.079 C 
ENDROOT
BRANCH   6   9
ATOM      9  C   UNL A   1     -25.688   1.614  26.461  0.00  0.00    +0.024 C 
ATOM     10  C   UNL A   1     -26.250   2.920  26.395  0.00  0.00    +0.073 C 
ATOM     11  C   UNL A   1     -27.438   3.091  25.645  0.00  0.00    +0.106 C 
ATOM     12  N   UNL A   1     -28.075   2.089  25.003  0.00  0.00    -0.208 NA
ATOM     13  C   UNL A   1     -27.543   0.849  25.079  0.00  0.00    +0.253 C 
ATOM     14  C   UNL A   1     -26.354   0.576  25.777  0.00  0.00    +0.190 C 
ATOM     15  F   UNL A   1     -25.860  -0.681  25.795  0.00  0.00    -0.200 F 
BRANCH  10  16
ATOM     16  C   UNL A   1     -25.642   4.093  27.123  0.00  0.00    +0.266 C 
ATOM     17  N   UNL A   1     -25.614   5.252  26.449  0.00  0.00    -0.200 NA
ATOM     18  C   UNL A   1     -25.026   6.479  26.963  0.00  0.00    +0.139 C 
ATOM     19  O   UNL A   1     -25.143   3.966  28.243  0.00  0.00    -0.268 OA
ENDBRANCH  10  16
BRANCH  13  20
ATOM     20  O   UNL A   1     -28.193  -0.208  24.477  0.00  0.00    -0.456 OA
BRANCH  20  21
ATOM     21  C   UNL A   1     -29.460   0.005  23.866  0.00  0.00    +0.243 C 
BRANCH  21  22
ATOM     22  C   UNL A   1     -30.065  -1.377  23.573  0.00  0.00    +0.229 C 
ATOM     23  O   UNL A   1     -30.729  -1.878  24.721  0.00  0.00    -0.216 OA
ENDBRANCH  21  22
ENDBRANCH  20  21
ENDBRANCH  13  20
ENDBRANCH   6   9
BRANCH   4  24
ATOM     24  C   UNL A   1     -24.855  -1.012  30.143  0.00  0.00    +0.056 C 
BRANCH  24  25
ATOM     25  C   UNL A   1     -24.973  -2.505  29.788  0.00  0.00    -0.017 C 
ATOM     26  C   UNL A   1     -23.906  -3.173  29.146  0.00  0.00    -0.004 C 
ATOM     27  C   UNL A   1     -23.989  -4.549  28.853  0.00  0.00    -0.000 C 
ATOM     28  C   UNL A   1     -25.137  -5.280  29.205  0.00  0.00    -0.000 C 
ATOM     29  C   UNL A   1     -26.232  -4.611  29.784  0.00  0.00    -0.000 C 
ATOM     30  C   UNL A   1     -26.155  -3.232  30.065  0.00  0.00    -0.004 C 
ENDBRANCH  24  25
BRANCH  24  31
ATOM     31  C   UNL A   1     -25.387  -0.679  31.571  0.00  0.00    +0.081 C 
ATOM     32  C   UNL A   1     -25.189   0.773  32.028  0.00  0.00    +0.019 C 
ATOM     33  C   UNL A   1     -25.336   0.684  33.544  0.00  0.00    +0.020 C 
ATOM     34  C   UNL A   1     -24.829  -0.715  33.905  0.00  0.00    +0.089 C 
ATOM     35  N   UNL A   1     -24.758  -1.481  32.646  0.00  0.00    -0.219 NA
ENDBRANCH  24  31
ENDBRANCH   4  24
BRANCH   4  36
ATOM     36  C   UNL A   1     -26.654  -0.277  28.722  0.00  0.00    +0.048 C 
BRANCH  36  37
ATOM     37  C   UNL A   1     -27.708  -0.986  28.195  0.00  0.00    +0.160 C 
BRANCH  37  39
ATOM     38  O   UNL A   1     -29.664  -1.900  29.459  0.00  0.00    -0.169 OA
ATOM     39  S   UNL A   1     -29.395  -0.623  28.742  0.00  0.00    +0.009 S 
ATOM     40  O   UNL A   1     -30.064  -0.443  27.576  0.00  0.00    -0.169 OA
BRANCH  39  46
ATOM     41  C   UNL A   1     -29.310   1.879  29.615  0.00  0.00    +0.018 C 
ATOM     42  C   UNL A   1     -28.737   2.264  31.939  0.00  0.00    +0.000 C 
ATOM     43  C   UNL A   1     -28.857   2.721  30.620  0.00  0.00    +0.001 C 
ATOM     44  C   UNL A   1     -29.676   0.128  31.327  0.00  0.00    +0.018 C 
ATOM     45  C   UNL A   1     -29.191   0.995  32.293  0.00  0.00    +0.001 C 
ATOM     46  C   UNL A   1     -29.536   0.552  29.999  0.00  0.00    +0.106 C 
ENDBRANCH  39  46
ENDBRANCH  37  39
ENDBRANCH  36  37
ENDBRANCH   4  36
TORSDOF 12
