MODEL 735
MODEL 1
REMARK VINA RESULT:    -4.331      0.000      0.000
REMARK INTER + INTRA:          -4.331
REMARK INTER:                  -4.331
REMARK INTRA:                   0.000
REMARK UNBOUND:                 0.000
REMARK  Name = No_735-gen_results/8p0m/2024-11-27-11-27-31/
REMARK  0 active torsions:
REMARK  status: ('A' for Active; 'I' for Inactive)
REMARK                            x       y       z     vdW  Elec       q    Type
REMARK                         _______ _______ _______ _____ _____    ______ ____
ROOT
ATOM      1  F   UNL A   1     -23.477  -2.034  28.624  0.00  0.00    -0.204 F 
ATOM      2  C   UNL A   1     -24.303  -2.774  28.910  0.00  0.00    +0.140 A 
ATOM      3  C   UNL A   1     -25.409  -2.464  29.421  0.00  0.00    +0.030 A 
ATOM      4  C   UNL A   1     -23.965  -4.243  28.623  0.00  0.00    +0.030 A 
ATOM      5  C   UNL A   1     -24.936  -5.248  29.005  0.00  0.00    +0.002 A 
ATOM      6  C   UNL A   1     -26.399  -3.522  29.833  0.00  0.00    +0.002 A 
ATOM      7  C   UNL A   1     -26.115  -4.868  29.604  0.00  0.00    +0.000 A 
ENDROOT
TORSDOF 0
ENDMDL
ENDMDL
