REMARK  Name = outputs/IAG933/test6/raw/output_7363_IAG933_linker_design_.xyz
REMARK  10 active torsions:
REMARK  status: ('A' for Active; 'I' for Inactive)
REMARK    1  A    between atoms: C_1  and  C_2
REMARK    2  A    between atoms: C_1  and  C_8
REMARK    3  A    between atoms: C_1  and  N_33
REMARK    4  A    between atoms: C_13  and  C_31
REMARK    5  A    between atoms: C_14  and  C_15
REMARK    6  A    between atoms: C_21  and  O_22
REMARK    7  A    between atoms: O_22  and  C_23
REMARK    8  A    between atoms: C_23  and  C_24
REMARK    9  A    between atoms: N_33  and  C_38
REMARK   10  A    between atoms: N_33  and  C_44
REMARK                            x       y       z     vdW  Elec       q    Type
REMARK                         _______ _______ _______ _____ _____    ______ ____
ROOT
ATOM      1  C   UNL A   1     -23.960   0.546  27.843  0.00  0.00    +0.081 C 
ATOM      2  C   UNL A   1     -24.489   1.507  27.100  0.00  0.00    +0.129 C 
ATOM      3  C   UNL A   1     -21.690   1.669  28.146  0.00  0.00    +0.408 C 
ATOM      4  O   UNL A   1     -23.116   2.226  25.177  0.00  0.00    -0.250 OA
ATOM      5  F   UNL A   1     -20.459   2.206  27.935  0.00  0.00    -0.178 F 
ATOM      6  O   UNL A   1     -22.802  -0.266  28.992  0.00  0.00    -0.442 OA
ATOM      7  O   UNL A   1     -22.487   2.692  27.360  0.00  0.00    -0.413 OA
ATOM      8  C   UNL A   1     -21.624   0.251  28.628  0.00  0.00    +0.298 C 
ATOM      9  N   UNL A   1     -20.473  -0.181  28.729  0.00  0.00    -0.105 NA
ATOM     10  C   UNL A   1     -24.052   0.044  28.609  0.00  0.00    +0.247 C 
ATOM     11  C   UNL A   1     -23.302   2.188  26.389  0.00  0.00    +0.323 C 
ENDROOT
BRANCH   2  12
ATOM     12  C   UNL A   1     -25.688   1.614  26.461  0.00  0.00    +0.026 C 
ATOM     13  C   UNL A   1     -26.250   2.920  26.395  0.00  0.00    +0.073 C 
ATOM     14  C   UNL A   1     -27.438   3.091  25.645  0.00  0.00    +0.106 C 
ATOM     15  N   UNL A   1     -28.075   2.089  25.003  0.00  0.00    -0.208 NA
ATOM     16  C   UNL A   1     -27.543   0.849  25.079  0.00  0.00    +0.253 C 
ATOM     17  C   UNL A   1     -26.354   0.576  25.777  0.00  0.00    +0.190 C 
ATOM     18  F   UNL A   1     -25.860  -0.681  25.795  0.00  0.00    -0.200 F 
BRANCH  13  19
ATOM     19  C   UNL A   1     -25.642   4.093  27.123  0.00  0.00    +0.266 C 
ATOM     20  N   UNL A   1     -25.614   5.252  26.449  0.00  0.00    -0.200 NA
ATOM     21  C   UNL A   1     -25.026   6.479  26.963  0.00  0.00    +0.139 C 
ATOM     22  O   UNL A   1     -25.143   3.966  28.243  0.00  0.00    -0.268 OA
ENDBRANCH  13  19
BRANCH  16  23
ATOM     23  O   UNL A   1     -28.193  -0.208  24.477  0.00  0.00    -0.456 OA
BRANCH  23  24
ATOM     24  C   UNL A   1     -29.460   0.005  23.866  0.00  0.00    +0.243 C 
BRANCH  24  25
ATOM     25  C   UNL A   1     -30.065  -1.377  23.573  0.00  0.00    +0.229 C 
ATOM     26  O   UNL A   1     -30.729  -1.878  24.721  0.00  0.00    -0.216 OA
ENDBRANCH  24  25
ENDBRANCH  23  24
ENDBRANCH  16  23
ENDBRANCH   2  12
BRANCH  10  27
ATOM     27  N   UNL A   1     -25.351  -0.015  29.177  0.00  0.00    -0.272 N 
BRANCH  27  33
ATOM     28  C   UNL A   1     -28.599   1.925  29.772  0.00  0.00    +0.001 C 
ATOM     29  C   UNL A   1     -27.739  -0.626  29.162  0.00  0.00    +0.015 C 
ATOM     30  C   UNL A   1     -29.463   0.858  29.948  0.00  0.00    +0.000 C 
ATOM     31  C   UNL A   1     -27.328   1.673  29.292  0.00  0.00    +0.015 C 
ATOM     32  C   UNL A   1     -29.045  -0.408  29.580  0.00  0.00    +0.001 C 
ATOM     33  C   UNL A   1     -26.840   0.381  29.186  0.00  0.00    +0.051 C 
ENDBRANCH  27  33
BRANCH  27  34
ATOM     34  C   UNL A   1     -24.855  -1.012  30.143  0.00  0.00    +0.114 C 
BRANCH  34  35
ATOM     35  C   UNL A   1     -24.973  -2.505  29.788  0.00  0.00    -0.003 C 
ATOM     36  C   UNL A   1     -23.906  -3.173  29.146  0.00  0.00    -0.003 C 
ATOM     37  C   UNL A   1     -23.989  -4.549  28.853  0.00  0.00    -0.000 C 
ATOM     38  C   UNL A   1     -25.137  -5.280  29.205  0.00  0.00    -0.000 C 
ATOM     39  C   UNL A   1     -26.232  -4.611  29.784  0.00  0.00    -0.000 C 
ATOM     40  C   UNL A   1     -26.155  -3.232  30.065  0.00  0.00    -0.003 C 
ENDBRANCH  34  35
BRANCH  34  41
ATOM     41  C   UNL A   1     -25.387  -0.679  31.571  0.00  0.00    +0.095 C 
ATOM     42  C   UNL A   1     -25.189   0.773  32.028  0.00  0.00    +0.021 C 
ATOM     43  C   UNL A   1     -25.336   0.684  33.544  0.00  0.00    +0.020 C 
ATOM     44  C   UNL A   1     -24.829  -0.715  33.905  0.00  0.00    +0.089 C 
ATOM     45  N   UNL A   1     -24.758  -1.481  32.646  0.00  0.00    -0.217 NA
ENDBRANCH  34  41
ENDBRANCH  27  34
ENDBRANCH  10  27
TORSDOF 10
