MODEL 736
MODEL 1
REMARK VINA RESULT:    -7.618      0.000      0.000
REMARK INTER + INTRA:         -11.240
REMARK INTER:                  -9.845
REMARK INTRA:                  -1.395
REMARK UNBOUND:                -1.395
REMARK  Name = No_736-gen_results/8p0m/2024-11-27-11-27-31/
REMARK  5 active torsions:
REMARK  status: ('A' for Active; 'I' for Inactive)
REMARK    1  A    between atoms: C_4  and  C_12
REMARK    2  A    between atoms: C_15  and  C_19
REMARK    3  A    between atoms: C_19  and  C_20
REMARK    4  A    between atoms: C_19  and  C_21
REMARK    5  A    between atoms: C_20  and  C_22
REMARK                            x       y       z     vdW  Elec       q    Type
REMARK                         _______ _______ _______ _____ _____    ______ ____
ROOT
ATOM      1  C   UNL A   1      -6.763   1.392  36.118  0.00  0.00    +0.080 C 
ATOM      2  C   UNL A   1      -7.339   2.342  35.200  0.00  0.00    +0.154 C 
ATOM      3  C   UNL A   1      -8.470   3.002  35.651  0.00  0.00    +0.065 C 
ATOM      4  C   UNL A   1      -9.181   2.365  36.586  0.00  0.00    +0.009 C 
ATOM      5  C   UNL A   1      -8.565   2.200  37.834  0.00  0.00    +0.001 C 
ATOM      6  C   UNL A   1      -7.224   1.515  37.500  0.00  0.00    +0.012 C 
ATOM      7  C   UNL A   1     -10.472   3.427  36.901  0.00  0.00    +0.001 C 
ATOM      8  O   UNL A   1      -6.676   2.519  34.062  0.00  0.00    -0.296 OA
ENDROOT
BRANCH   1  12
ATOM      9  C   UNL A   1      -2.696   0.377  35.693  0.00  0.00    +0.142 A 
ATOM     10  C   UNL A   1      -3.869   0.558  35.924  0.00  0.00    +0.029 A 
ATOM     11  C   UNL A   1      -4.888  -0.138  35.302  0.00  0.00    +0.001 A 
ATOM     12  C   UNL A   1      -6.308   0.095  35.487  0.00  0.00    -0.015 A 
ATOM     13  C   UNL A   1      -7.316  -0.643  34.901  0.00  0.00    -0.004 A 
ATOM     14  C   UNL A   1      -2.286  -0.852  35.156  0.00  0.00    +0.059 A 
ATOM     15  C   UNL A   1      -3.199  -1.664  34.602  0.00  0.00    +0.142 A 
ATOM     16  C   UNL A   1      -4.603  -1.391  34.696  0.00  0.00    +0.027 A 
ATOM     17  C   UNL A   1      -6.937  -1.858  34.261  0.00  0.00    -0.000 A 
ATOM     18  C   UNL A   1      -5.609  -2.211  34.164  0.00  0.00    +0.002 A 
ATOM     19  F   UNL A   1      -1.732   1.201  36.245  0.00  0.00    -0.204 F 
ATOM     20  F   UNL A   1      -2.794  -2.725  33.978  0.00  0.00    -0.204 F 
ENDBRANCH   1  12
BRANCH   4  21
ATOM     21  C   UNL A   1     -10.130   1.250  36.150  0.00  0.00    +0.021 C 
BRANCH  21  22
ATOM     22  C   UNL A   1     -10.358   1.174  34.694  0.00  0.00    +0.095 C 
ATOM     23 CL   UNL A   1     -11.826   1.533  33.924  0.00  0.00    -0.114 Cl
ENDBRANCH  21  22
BRANCH  21  24
ATOM     24  C   UNL A   1     -10.152   0.004  36.779  0.00  0.00    +0.028 C 
BRANCH  24  25
ATOM     25  C   UNL A   1     -11.002  -0.568  37.400  0.00  0.00    -0.022 A 
ATOM     26  C   UNL A   1     -11.057  -2.002  37.516  0.00  0.00    -0.004 A 
ATOM     27  C   UNL A   1     -12.052  -2.674  38.269  0.00  0.00    -0.000 A 
ATOM     28  C   UNL A   1     -12.133  -2.336  39.682  0.00  0.00    -0.000 A 
ATOM     29  C   UNL A   1     -11.771  -0.968  39.968  0.00  0.00    -0.000 A 
ATOM     30  C   UNL A   1     -11.119  -0.166  38.964  0.00  0.00    -0.004 A 
ENDBRANCH  24  25
ENDBRANCH  21  24
ENDBRANCH   4  21
TORSDOF 5
ENDMDL
ENDMDL
