REMARK  Name = No_737-gen_results/8p0m/2024-11-27-11-27-31/
REMARK  0 active torsions:
REMARK  status: ('A' for Active; 'I' for Inactive)
REMARK                            x       y       z     vdW  Elec       q    Type
REMARK                         _______ _______ _______ _____ _____    ______ ____
ROOT
ATOM      1  O   UNL A   1     -28.123  -1.335  28.487  0.00  0.00    -0.273 OA
ATOM      2  C   UNL A   1     -27.481  -0.404  28.709  0.00  0.00    +0.241 C 
ATOM      3  C   UNL A   1     -27.190   0.246  29.527  0.00  0.00    +0.078 C 
ATOM      4  N   UNL A   1     -26.687  -0.000  27.442  0.00  0.00    -0.205 NA
ATOM      5  C   UNL A   1     -26.350   1.433  29.742  0.00  0.00    +0.011 C 
ATOM      6  C   UNL A   1     -25.965   1.022  27.472  0.00  0.00    +0.115 C 
ATOM      7  C   UNL A   1     -25.700   1.809  28.597  0.00  0.00    +0.024 C 
ATOM      8  C   UNL A   1     -27.861  -0.116  30.977  0.00  0.00    +0.010 C 
ENDROOT
TORSDOF 0
