REMARK  Name = outputs/IAG933/test6/raw/output_7372_IAG933_linker_design_.xyz
REMARK  11 active torsions:
REMARK  status: ('A' for Active; 'I' for Inactive)
REMARK    1  A    between atoms: C_1  and  C_2
REMARK    2  A    between atoms: C_1  and  C_8
REMARK    3  A    between atoms: C_1  and  N_42
REMARK    4  A    between atoms: C_13  and  C_37
REMARK    5  A    between atoms: C_14  and  C_15
REMARK    6  A    between atoms: C_21  and  O_22
REMARK    7  A    between atoms: O_22  and  C_23
REMARK    8  A    between atoms: C_23  and  C_24
REMARK    9  A    between atoms: C_34  and  N_42
REMARK   10  A    between atoms: O_36  and  C_40
REMARK   11  A    between atoms: C_38  and  N_42
REMARK                            x       y       z     vdW  Elec       q    Type
REMARK                         _______ _______ _______ _____ _____    ______ ____
ROOT
ATOM      1  C   UNL A   1     -21.194   1.752  27.209  0.00  0.00    -0.021 C 
ATOM      2  C   UNL A   1     -22.117   2.099  26.232  0.00  0.00    -0.004 C 
ATOM      3  C   UNL A   1     -23.460   1.866  26.190  0.00  0.00    +0.001 C 
ATOM      4  C   UNL A   1     -24.122   0.588  28.262  0.00  0.00    +0.044 C 
ATOM      5  C   UNL A   1     -24.404   1.335  27.038  0.00  0.00    +0.015 C 
ATOM      6  C   UNL A   1     -21.555   0.995  28.352  0.00  0.00    +0.053 C 
ATOM      7  C   UNL A   1     -22.804   0.536  28.820  0.00  0.00    -0.007 C 
ENDROOT
BRANCH   5   8
ATOM      8  C   UNL A   1     -25.688   1.614  26.461  0.00  0.00    +0.039 C 
ATOM      9  C   UNL A   1     -26.250   2.920  26.395  0.00  0.00    +0.077 C 
ATOM     10  C   UNL A   1     -27.438   3.091  25.645  0.00  0.00    +0.107 C 
ATOM     11  N   UNL A   1     -28.075   2.089  25.003  0.00  0.00    -0.208 NA
ATOM     12  C   UNL A   1     -27.543   0.849  25.079  0.00  0.00    +0.253 C 
ATOM     13  C   UNL A   1     -26.354   0.576  25.777  0.00  0.00    +0.193 C 
ATOM     14  F   UNL A   1     -25.860  -0.681  25.795  0.00  0.00    -0.199 F 
BRANCH   9  15
ATOM     15  C   UNL A   1     -25.642   4.093  27.123  0.00  0.00    +0.266 C 
ATOM     16  N   UNL A   1     -25.614   5.252  26.449  0.00  0.00    -0.200 NA
ATOM     17  C   UNL A   1     -25.026   6.479  26.963  0.00  0.00    +0.139 C 
ATOM     18  O   UNL A   1     -25.143   3.966  28.243  0.00  0.00    -0.268 OA
ENDBRANCH   9  15
BRANCH  12  19
ATOM     19  O   UNL A   1     -28.193  -0.208  24.477  0.00  0.00    -0.456 OA
BRANCH  19  20
ATOM     20  C   UNL A   1     -29.460   0.005  23.866  0.00  0.00    +0.243 C 
BRANCH  20  21
ATOM     21  C   UNL A   1     -30.065  -1.377  23.573  0.00  0.00    +0.229 C 
ATOM     22  O   UNL A   1     -30.729  -1.878  24.721  0.00  0.00    -0.216 OA
ENDBRANCH  20  21
ENDBRANCH  19  20
ENDBRANCH  12  19
ENDBRANCH   5   8
BRANCH   4  23
ATOM     23  N   UNL A   1     -25.014  -0.149  28.986  0.00  0.00    -0.306 N 
BRANCH  23  27
ATOM     24  C   UNL A   1     -28.094   1.843  29.797  0.00  0.00    +0.004 C 
ATOM     25  C   UNL A   1     -28.802   1.084  30.891  0.00  0.00    +0.030 C 
ATOM     26  C   UNL A   1     -27.308   0.467  29.390  0.00  0.00    +0.020 C 
ATOM     27  C   UNL A   1     -26.460  -0.228  28.432  0.00  0.00    +0.073 C 
ATOM     28  C   UNL A   1     -29.478  -0.459  29.000  0.00  0.00    +0.031 C 
ATOM     29  C   UNL A   1     -29.776   0.032  30.392  0.00  0.00    +0.115 C 
ATOM     30  C   UNL A   1     -28.006  -0.724  28.798  0.00  0.00    +0.022 C 
BRANCH  29  32
ATOM     31  C   UNL A   1     -30.931  -0.735  32.024  0.00  0.00    +0.174 C 
ATOM     32  O   UNL A   1     -29.918  -1.034  31.141  0.00  0.00    -0.354 OA
ENDBRANCH  29  32
ENDBRANCH  23  27
BRANCH  23  33
ATOM     33  C   UNL A   1     -24.855  -1.012  30.143  0.00  0.00    +0.111 C 
BRANCH  33  34
ATOM     34  C   UNL A   1     -24.973  -2.505  29.788  0.00  0.00    -0.003 C 
ATOM     35  C   UNL A   1     -23.906  -3.173  29.146  0.00  0.00    -0.003 C 
ATOM     36  C   UNL A   1     -23.989  -4.549  28.853  0.00  0.00    -0.000 C 
ATOM     37  C   UNL A   1     -25.137  -5.280  29.205  0.00  0.00    -0.000 C 
ATOM     38  C   UNL A   1     -26.232  -4.611  29.784  0.00  0.00    -0.000 C 
ATOM     39  C   UNL A   1     -26.155  -3.232  30.065  0.00  0.00    -0.003 C 
ENDBRANCH  33  34
BRANCH  33  40
ATOM     40  C   UNL A   1     -25.387  -0.679  31.571  0.00  0.00    +0.095 C 
ATOM     41  C   UNL A   1     -25.189   0.773  32.028  0.00  0.00    +0.021 C 
ATOM     42  C   UNL A   1     -25.336   0.684  33.544  0.00  0.00    +0.020 C 
ATOM     43  C   UNL A   1     -24.829  -0.715  33.905  0.00  0.00    +0.089 C 
ATOM     44  N   UNL A   1     -24.758  -1.481  32.646  0.00  0.00    -0.217 NA
ENDBRANCH  33  40
ENDBRANCH  23  33
ENDBRANCH   4  23
TORSDOF 11
