REMARK  Name = outputs/IAG933/test6/raw/output_7377_IAG933_linker_design_.xyz
REMARK  17 active torsions:
REMARK  status: ('A' for Active; 'I' for Inactive)
REMARK    1  A    between atoms: C_1  and  C_2
REMARK    2  A    between atoms: C_1  and  C_8
REMARK    3  A    between atoms: C_9  and  C_41
REMARK    4  A    between atoms: C_13  and  C_42
REMARK    5  A    between atoms: C_14  and  C_15
REMARK    6  A    between atoms: C_21  and  O_22
REMARK    7  A    between atoms: O_22  and  C_23
REMARK    8  A    between atoms: C_23  and  C_24
REMARK    9  A    between atoms: C_30  and  C_44
REMARK   10  A    between atoms: C_30  and  C_46
REMARK   11  A    between atoms: C_31  and  C_37
REMARK   12  A    between atoms: C_31  and  O_43
REMARK   13  A    between atoms: C_32  and  C_39
REMARK   14  A    between atoms: C_37  and  C_42
REMARK   15  A    between atoms: C_39  and  C_41
REMARK   16  A    between atoms: N_40  and  C_44
REMARK   17  A    between atoms: C_41  and  O_43
REMARK                            x       y       z     vdW  Elec       q    Type
REMARK                         _______ _______ _______ _____ _____    ______ ____
ROOT
ATOM      1  C   UNL A   1     -24.522   1.639  30.958  0.00  0.00    +0.117 C 
ENDROOT
BRANCH   1   3
ATOM      2  C   UNL A   1     -25.387  -0.679  31.571  0.00  0.00    +0.080 C 
ATOM      3  C   UNL A   1     -25.189   0.773  32.028  0.00  0.00    +0.045 C 
ATOM      4  C   UNL A   1     -25.336   0.684  33.544  0.00  0.00    +0.023 C 
ATOM      5  C   UNL A   1     -24.829  -0.715  33.905  0.00  0.00    +0.089 C 
ATOM      6  N   UNL A   1     -24.758  -1.481  32.646  0.00  0.00    -0.219 NA
BRANCH   2   7
ATOM      7  C   UNL A   1     -24.855  -1.012  30.143  0.00  0.00    +0.044 C 
BRANCH   7   8
ATOM      8  C   UNL A   1     -24.973  -2.505  29.788  0.00  0.00    -0.021 C 
ATOM      9  C   UNL A   1     -23.906  -3.173  29.146  0.00  0.00    -0.004 C 
ATOM     10  C   UNL A   1     -23.989  -4.549  28.853  0.00  0.00    -0.000 C 
ATOM     11  C   UNL A   1     -25.137  -5.280  29.205  0.00  0.00    -0.000 C 
ATOM     12  C   UNL A   1     -26.232  -4.611  29.784  0.00  0.00    -0.000 C 
ATOM     13  C   UNL A   1     -26.155  -3.232  30.065  0.00  0.00    -0.004 C 
ENDBRANCH   7   8
ENDBRANCH   2   7
ENDBRANCH   1   3
BRANCH   1  14
ATOM     14  C   UNL A   1     -24.953   2.974  30.858  0.00  0.00    +0.030 C 
BRANCH  14  17
ATOM     15  C   UNL A   1     -24.943   3.765  33.369  0.00  0.00    +0.030 C 
ATOM     16  C   UNL A   1     -25.987   5.928  32.618  0.00  0.00    +0.030 C 
ATOM     17  C   UNL A   1     -25.641   3.493  32.004  0.00  0.00    +0.005 C 
ATOM     18  O   UNL A   1     -23.463   5.568  33.319  0.00  0.00    -0.226 OA
ATOM     19  C   UNL A   1     -26.326   4.790  31.697  0.00  0.00    +0.003 C 
ATOM     20  C   UNL A   1     -24.868   5.325  33.566  0.00  0.00    +0.128 C 
BRANCH  20  21
ATOM     21  C   UNL A   1     -25.157   5.821  35.048  0.00  0.00    +0.046 C 
BRANCH  21  22
ATOM     22  C   UNL A   1     -24.091   6.813  35.796  0.00  0.00    +0.060 C 
ATOM     23  C   UNL A   1     -24.850   8.127  36.248  0.00  0.00    +0.017 C 
BRANCH  22  26
ATOM     24  C   UNL A   1     -22.340   7.761  34.208  0.00  0.00    +0.090 C 
ATOM     25  C   UNL A   1     -21.935   7.662  36.571  0.00  0.00    +0.090 C 
ATOM     26  N   UNL A   1     -22.641   6.984  35.469  0.00  0.00    -0.272 NA
ENDBRANCH  22  26
ENDBRANCH  21  22
ENDBRANCH  20  21
ENDBRANCH  14  17
ENDBRANCH   1  14
BRANCH   1  27
ATOM     27  O   UNL A   1     -23.284   1.381  29.878  0.00  0.00    -0.356 OA
BRANCH  27  28
ATOM     28  C   UNL A   1     -22.472   1.463  28.451  0.00  0.00    +0.142 C 
BRANCH  28  29
ATOM     29  C   UNL A   1     -23.457   1.990  27.368  0.00  0.00    +0.030 C 
ATOM     30  C   UNL A   1     -22.824   2.256  25.949  0.00  0.00    +0.003 C 
BRANCH  29  31
ATOM     31  C   UNL A   1     -24.732   1.244  27.405  0.00  0.00    +0.010 C 
BRANCH  31  32
ATOM     32  C   UNL A   1     -25.688   1.614  26.461  0.00  0.00    +0.070 C 
ATOM     33  C   UNL A   1     -26.250   2.920  26.395  0.00  0.00    +0.055 C 
ATOM     34  C   UNL A   1     -27.438   3.091  25.645  0.00  0.00    +0.102 C 
ATOM     35  N   UNL A   1     -28.075   2.089  25.003  0.00  0.00    -0.212 NA
ATOM     36  C   UNL A   1     -27.543   0.849  25.079  0.00  0.00    +0.234 C 
ATOM     37  C   UNL A   1     -26.354   0.576  25.777  0.00  0.00    +0.240 C 
ATOM     38  F   UNL A   1     -25.860  -0.681  25.795  0.00  0.00    -0.227 F 
BRANCH  33  39
ATOM     39  C   UNL A   1     -25.642   4.093  27.123  0.00  0.00    +0.262 C 
ATOM     40  N   UNL A   1     -25.614   5.252  26.449  0.00  0.00    -0.200 NA
ATOM     41  C   UNL A   1     -25.026   6.479  26.963  0.00  0.00    +0.139 C 
ATOM     42  O   UNL A   1     -25.143   3.966  28.243  0.00  0.00    -0.269 OA
ENDBRANCH  33  39
BRANCH  36  43
ATOM     43  O   UNL A   1     -28.193  -0.208  24.477  0.00  0.00    -0.459 OA
BRANCH  43  44
ATOM     44  C   UNL A   1     -29.460   0.005  23.866  0.00  0.00    +0.242 C 
BRANCH  44  45
ATOM     45  C   UNL A   1     -30.065  -1.377  23.573  0.00  0.00    +0.229 C 
ATOM     46  O   UNL A   1     -30.729  -1.878  24.721  0.00  0.00    -0.216 OA
ENDBRANCH  44  45
ENDBRANCH  43  44
ENDBRANCH  36  43
ENDBRANCH  31  32
ENDBRANCH  29  31
ENDBRANCH  28  29
ENDBRANCH  27  28
ENDBRANCH   1  27
TORSDOF 17
