REMARK  Name = No_738-gen_results/8p0m/2024-11-27-11-27-31/
REMARK  4 active torsions:
REMARK  status: ('A' for Active; 'I' for Inactive)
REMARK    1  A    between atoms: C_1  and  C_8
REMARK    2  A    between atoms: C_5  and  C_10
REMARK    3  A    between atoms: C_9  and  C_13
REMARK    4  A    between atoms: C_14  and  C_15
REMARK                            x       y       z     vdW  Elec       q    Type
REMARK                         _______ _______ _______ _____ _____    ______ ____
ROOT
ATOM      1  C   UNL A   1     -28.016  -0.814  28.878  0.00  0.00    -0.009 C 
ATOM      2  C   UNL A   1     -27.064  -0.119  28.608  0.00  0.00    -0.044 C 
ATOM      3  C   UNL A   1     -25.765  -0.390  29.036  0.00  0.00    +0.022 C 
ATOM      4  C   UNL A   1     -24.552   0.406  28.765  0.00  0.00    +0.013 C 
ATOM      5  C   UNL A   1     -24.696   1.448  27.799  0.00  0.00    +0.081 C 
ATOM      6  C   UNL A   1     -25.976   1.725  27.308  0.00  0.00    +0.013 C 
ATOM      7  C   UNL A   1     -27.072   1.013  27.654  0.00  0.00    +0.022 C 
ENDROOT
BRANCH   5   8
ATOM      8  C   UNL A   1     -23.489   2.193  27.489  0.00  0.00    +0.260 C 
ATOM      9  N   UNL A   1     -22.289   1.806  27.907  0.00  0.00    -0.088 NA
ATOM     10  O   UNL A   1     -23.566   3.096  26.582  0.00  0.00    -0.272 OA
ENDBRANCH   5   8
BRANCH   1  11
ATOM     11  C   UNL A   1     -29.210  -0.050  29.349  0.00  0.00    -0.001 C 
ATOM     12  C   UNL A   1     -30.347  -0.866  29.661  0.00  0.00    -0.000 C 
BRANCH  12  13
ATOM     13  C   UNL A   1     -31.542  -0.595  29.083  0.00  0.00    -0.000 C 
ATOM     14  C   UNL A   1     -32.604  -1.438  29.215  0.00  0.00    -0.000 C 
BRANCH  14  15
ATOM     15  C   UNL A   1     -32.477  -2.591  30.052  0.00  0.00    +0.000 C 
ATOM     16  C   UNL A   1     -31.287  -2.879  30.670  0.00  0.00    +0.000 C 
ENDBRANCH  14  15
ENDBRANCH  12  13
ENDBRANCH   1  11
TORSDOF 4
