MODEL 738
MODEL 1
REMARK VINA RESULT:    -5.897      0.000      0.000
REMARK INTER + INTRA:          -8.194
REMARK INTER:                  -7.276
REMARK INTRA:                  -0.917
REMARK UNBOUND:                -0.917
REMARK  Name = No_738-gen_results/8p0m/2024-11-27-11-27-31/
REMARK  4 active torsions:
REMARK  status: ('A' for Active; 'I' for Inactive)
REMARK    1  A    between atoms: C_1  and  C_8
REMARK    2  A    between atoms: C_5  and  C_10
REMARK    3  A    between atoms: C_9  and  C_13
REMARK    4  A    between atoms: C_14  and  C_15
REMARK                            x       y       z     vdW  Elec       q    Type
REMARK                         _______ _______ _______ _____ _____    ______ ____
ROOT
ATOM      1  C   UNL A   1     -30.823 -10.538  29.481  0.00  0.00    -0.009 C 
ATOM      2  C   UNL A   1     -29.994 -10.747  30.336  0.00  0.00    -0.044 C 
ATOM      3  C   UNL A   1     -30.047 -10.191  31.613  0.00  0.00    +0.022 C 
ATOM      4  C   UNL A   1     -29.077 -10.381  32.710  0.00  0.00    +0.013 C 
ATOM      5  C   UNL A   1     -28.096 -11.398  32.502  0.00  0.00    +0.081 C 
ATOM      6  C   UNL A   1     -28.036 -12.015  31.248  0.00  0.00    +0.013 C 
ATOM      7  C   UNL A   1     -28.902 -11.743  30.247  0.00  0.00    +0.022 C 
ENDROOT
BRANCH   5   8
ATOM      8  C   UNL A   1     -27.179 -11.625  33.604  0.00  0.00    +0.260 C 
ATOM      9  N   UNL A   1     -26.984 -10.726  34.563  0.00  0.00    -0.088 NA
ATOM     10  O   UNL A   1     -26.749 -12.820  33.781  0.00  0.00    -0.272 OA
ENDBRANCH   5   8
BRANCH   1  11
ATOM     11  C   UNL A   1     -30.244 -10.210  28.143  0.00  0.00    -0.001 C 
ATOM     12  C   UNL A   1     -30.623 -11.115  27.098  0.00  0.00    -0.000 C 
BRANCH  12  13
ATOM     13  C   UNL A   1     -29.663 -11.710  26.350  0.00  0.00    -0.000 C 
ATOM     14  C   UNL A   1     -29.339 -13.022  26.520  0.00  0.00    -0.000 C 
BRANCH  14  15
ATOM     15  C   UNL A   1     -30.088 -13.809  27.451  0.00  0.00    +0.000 C 
ATOM     16  C   UNL A   1     -30.702 -14.968  27.053  0.00  0.00    +0.000 C 
ENDBRANCH  14  15
ENDBRANCH  12  13
ENDBRANCH   1  11
TORSDOF 4
ENDMDL
ENDMDL
