REMARK  Name = outputs/IAG933/test6/raw/output_7396_IAG933_linker_design_.xyz
REMARK  13 active torsions:
REMARK  status: ('A' for Active; 'I' for Inactive)
REMARK    1  A    between atoms: C_1  and  C_2
REMARK    2  A    between atoms: C_1  and  C_8
REMARK    3  A    between atoms: C_1  and  C_28
REMARK    4  A    between atoms: C_13  and  C_34
REMARK    5  A    between atoms: C_14  and  C_15
REMARK    6  A    between atoms: C_15  and  O_18
REMARK    7  A    between atoms: O_18  and  C_40
REMARK    8  A    between atoms: C_21  and  O_22
REMARK    9  A    between atoms: O_22  and  C_23
REMARK   10  A    between atoms: C_23  and  C_24
REMARK   11  A    between atoms: C_33  and  C_42
REMARK   12  A    between atoms: C_33  and  C_43
REMARK   13  A    between atoms: C_40  and  C_42
REMARK                            x       y       z     vdW  Elec       q    Type
REMARK                         _______ _______ _______ _____ _____    ______ ____
ROOT
ATOM      1  C   UNL A   1     -25.688   1.614  26.461  0.00  0.00    +0.087 C 
ATOM      2  C   UNL A   1     -26.250   2.920  26.395  0.00  0.00    +0.054 C 
ATOM      3  C   UNL A   1     -27.438   3.091  25.645  0.00  0.00    +0.102 C 
ATOM      4  N   UNL A   1     -28.075   2.089  25.003  0.00  0.00    -0.212 NA
ATOM      5  C   UNL A   1     -27.543   0.849  25.079  0.00  0.00    +0.234 C 
ATOM      6  C   UNL A   1     -26.354   0.576  25.777  0.00  0.00    +0.241 C 
ATOM      7  F   UNL A   1     -25.860  -0.681  25.795  0.00  0.00    -0.227 F 
ENDROOT
BRANCH   1  12
ATOM      8  C   UNL A   1     -24.439  -0.045  29.182  0.00  0.00    +0.184 C 
ATOM      9  N   UNL A   1     -22.963   0.106  28.862  0.00  0.00    -0.222 NA
ATOM     10  C   UNL A   1     -23.119   2.184  26.207  0.00  0.00    +0.206 C 
ATOM     11  C   UNL A   1     -22.566   0.961  27.856  0.00  0.00    +0.243 C 
ATOM     12  C   UNL A   1     -24.878   1.260  27.497  0.00  0.00    +0.093 C 
ATOM     13  O   UNL A   1     -21.398   1.393  27.263  0.00  0.00    -0.319 OA
ATOM     14  O   UNL A   1     -21.772   1.895  26.103  0.00  0.00    -0.171 OA
ATOM     15  N   UNL A   1     -25.387   0.761  28.698  0.00  0.00    -0.197 NA
ATOM     16  C   UNL A   1     -23.547   1.516  27.185  0.00  0.00    +0.130 C 
BRANCH   8  17
ATOM     17  C   UNL A   1     -24.855  -1.012  30.143  0.00  0.00    +0.077 C 
BRANCH  17  18
ATOM     18  C   UNL A   1     -24.973  -2.505  29.788  0.00  0.00    -0.018 C 
ATOM     19  C   UNL A   1     -23.906  -3.173  29.146  0.00  0.00    -0.004 C 
ATOM     20  C   UNL A   1     -23.989  -4.549  28.853  0.00  0.00    -0.000 C 
ATOM     21  C   UNL A   1     -25.137  -5.280  29.205  0.00  0.00    -0.000 C 
ATOM     22  C   UNL A   1     -26.232  -4.611  29.784  0.00  0.00    -0.000 C 
ATOM     23  C   UNL A   1     -26.155  -3.232  30.065  0.00  0.00    -0.004 C 
ENDBRANCH  17  18
BRANCH  17  24
ATOM     24  C   UNL A   1     -25.387  -0.679  31.571  0.00  0.00    +0.080 C 
ATOM     25  C   UNL A   1     -25.189   0.773  32.028  0.00  0.00    +0.019 C 
ATOM     26  C   UNL A   1     -25.336   0.684  33.544  0.00  0.00    +0.020 C 
ATOM     27  C   UNL A   1     -24.829  -0.715  33.905  0.00  0.00    +0.089 C 
ATOM     28  N   UNL A   1     -24.758  -1.481  32.646  0.00  0.00    -0.219 NA
ENDBRANCH  17  24
ENDBRANCH   8  17
ENDBRANCH   1  12
BRANCH   2  29
ATOM     29  C   UNL A   1     -25.642   4.093  27.123  0.00  0.00    +0.218 C 
ATOM     30  N   UNL A   1     -25.614   5.252  26.449  0.00  0.00    -0.236 NA
ATOM     31  C   UNL A   1     -25.026   6.479  26.963  0.00  0.00    +0.155 C 
BRANCH  29  32
ATOM     32  O   UNL A   1     -25.143   3.966  28.243  0.00  0.00    -0.457 OA
BRANCH  32  33
ATOM     33  C   UNL A   1     -25.266   4.543  29.501  0.00  0.00    +0.247 C 
BRANCH  33  35
ATOM     34  O   UNL A   1     -26.157   4.920  31.627  0.00  0.00    -0.211 OA
ATOM     35  C   UNL A   1     -26.184   3.940  30.556  0.00  0.00    +0.255 C 
BRANCH  35  36
ATOM     36  C   UNL A   1     -27.671   3.732  30.212  0.00  0.00    +0.218 C 
ATOM     37  O   UNL A   1     -28.600   4.318  30.724  0.00  0.00    -0.290 OA
BRANCH  36  39
ATOM     38  O   UNL A   1     -27.905   1.227  29.815  0.00  0.00    -0.212 OA
ATOM     39  C   UNL A   1     -27.989   2.581  29.295  0.00  0.00    +0.249 C 
ENDBRANCH  36  39
ENDBRANCH  35  36
ENDBRANCH  33  35
ENDBRANCH  32  33
ENDBRANCH  29  32
ENDBRANCH   2  29
BRANCH   5  40
ATOM     40  O   UNL A   1     -28.193  -0.208  24.477  0.00  0.00    -0.459 OA
BRANCH  40  41
ATOM     41  C   UNL A   1     -29.460   0.005  23.866  0.00  0.00    +0.242 C 
BRANCH  41  42
ATOM     42  C   UNL A   1     -30.065  -1.377  23.573  0.00  0.00    +0.229 C 
ATOM     43  O   UNL A   1     -30.729  -1.878  24.721  0.00  0.00    -0.216 OA
ENDBRANCH  41  42
ENDBRANCH  40  41
ENDBRANCH   5  40
TORSDOF 13
