MODEL 739
MODEL 1
REMARK VINA RESULT:    -6.565      0.000      0.000
REMARK INTER + INTRA:          -6.992
REMARK INTER:                  -6.949
REMARK INTRA:                  -0.043
REMARK UNBOUND:                -0.043
REMARK  Name = No_739-gen_results/8p0m/2024-11-27-11-27-31/
REMARK  1 active torsions:
REMARK  status: ('A' for Active; 'I' for Inactive)
REMARK    1  A    between atoms: C_2  and  C_8
REMARK                            x       y       z     vdW  Elec       q    Type
REMARK                         _______ _______ _______ _____ _____    ______ ____
ROOT
ATOM      1  C   UNL A   1     -23.293  -0.579  29.252  0.00  0.00    +0.249 C 
ATOM      2  O   UNL A   1     -22.418  -0.762  29.866  0.00  0.00    -0.270 OA
ATOM      3  N   UNL A   1     -23.336   0.277  28.139  0.00  0.00    -0.276 N 
ATOM      4  C   UNL A   1     -22.281   1.228  27.995  0.00  0.00    +0.094 C 
ATOM      5  C   UNL A   1     -22.197   1.862  27.131  0.00  0.00    +0.022 C 
ATOM      6  C   UNL A   1     -23.278   1.906  26.058  0.00  0.00    +0.004 C 
ATOM      7  C   UNL A   1     -24.330   0.990  26.162  0.00  0.00    +0.022 C 
ATOM      8  C   UNL A   1     -24.342   0.160  27.176  0.00  0.00    +0.094 C 
ENDROOT
BRANCH   1  10
ATOM      9  C   UNL A   1     -25.281  -1.538  29.883  0.00  0.00    +0.007 A 
ATOM     10  C   UNL A   1     -24.386  -1.778  29.381  0.00  0.00    +0.054 A 
ATOM     11  C   UNL A   1     -26.278  -2.668  30.009  0.00  0.00    +0.030 A 
ATOM     12  C   UNL A   1     -25.909  -3.965  29.595  0.00  0.00    +0.140 A 
ATOM     13  C   UNL A   1     -23.753  -3.025  28.896  0.00  0.00    +0.007 A 
ATOM     14  C   UNL A   1     -24.638  -4.089  29.002  0.00  0.00    +0.030 A 
ATOM     15  F   UNL A   1     -26.727  -4.921  29.650  0.00  0.00    -0.204 F 
ENDBRANCH   1  10
TORSDOF 1
ENDMDL
ENDMDL
