MODEL 73
MODEL 1
REMARK VINA RESULT:    -6.061      0.000      0.000
REMARK INTER + INTRA:          -7.509
REMARK INTER:                  -7.125
REMARK INTRA:                  -0.384
REMARK UNBOUND:                -0.384
REMARK  Name = No_73-gen_results/8p0m/2024-11-27-11-27-31/
REMARK  3 active torsions:
REMARK  status: ('A' for Active; 'I' for Inactive)
REMARK    1  A    between atoms: C_2  and  C_5
REMARK    2  A    between atoms: C_3  and  C_9
REMARK    3  A    between atoms: C_10  and  C_11
REMARK                            x       y       z     vdW  Elec       q    Type
REMARK                         _______ _______ _______ _____ _____    ______ ____
ROOT
ATOM      1  C   UNL A   1     -25.540  -2.601  29.783  0.00  0.00    -0.003 A 
ATOM      2  C   UNL A   1     -26.163  -3.444  29.888  0.00  0.00    -0.003 A 
ATOM      3  C   UNL A   1     -24.244  -2.901  29.175  0.00  0.00    -0.000 A 
ATOM      4  C   UNL A   1     -23.904  -4.168  28.769  0.00  0.00    -0.000 A 
ATOM      5  C   UNL A   1     -24.861  -5.184  28.950  0.00  0.00    -0.000 A 
ATOM      6  C   UNL A   1     -26.106  -4.851  29.489  0.00  0.00    -0.003 A 
ENDROOT
BRANCH   2   7
ATOM      7  C   UNL A   1     -27.580  -3.207  30.491  0.00  0.00    +0.136 C 
ATOM      8  N   UNL A   1     -28.586  -3.980  30.124  0.00  0.00    -0.126 NA
ENDBRANCH   2   7
BRANCH   3   9
ATOM      9  C   UNL A   1     -23.199  -1.829  28.922  0.00  0.00    -0.000 C 
ATOM     10  C   UNL A   1     -23.399  -0.597  28.940  0.00  0.00    -0.000 C 
BRANCH  10  11
ATOM     11  C   UNL A   1     -22.468   0.396  28.686  0.00  0.00    -0.005 C 
ATOM     12  C   UNL A   1     -22.589   1.296  27.600  0.00  0.00    -0.026 C 
ATOM     13  C   UNL A   1     -23.753   1.224  26.811  0.00  0.00    +0.031 C 
ENDBRANCH  10  11
ENDBRANCH   3   9
TORSDOF 3
ENDMDL
ENDMDL
