REMARK  Name = outputs/IAG933/test6/raw/output_7407_IAG933_linker_design_.xyz
REMARK  14 active torsions:
REMARK  status: ('A' for Active; 'I' for Inactive)
REMARK    1  A    between atoms: C_1  and  C_2
REMARK    2  A    between atoms: C_1  and  C_8
REMARK    3  A    between atoms: C_1  and  C_43
REMARK    4  A    between atoms: C_13  and  C_38
REMARK    5  A    between atoms: C_14  and  C_15
REMARK    6  A    between atoms: C_21  and  O_22
REMARK    7  A    between atoms: O_22  and  C_23
REMARK    8  A    between atoms: C_23  and  C_24
REMARK    9  A    between atoms: C_29  and  C_43
REMARK   10  A    between atoms: C_31  and  C_33
REMARK   11  A    between atoms: C_31  and  N_45
REMARK   12  A    between atoms: C_32  and  O_41
REMARK   13  A    between atoms: C_32  and  N_45
REMARK   14  A    between atoms: O_41  and  C_43
REMARK                            x       y       z     vdW  Elec       q    Type
REMARK                         _______ _______ _______ _____ _____    ______ ____
ROOT
ATOM      1  C   UNL A   1     -25.076  -0.137  28.880  0.00  0.00    +0.166 C 
ENDROOT
BRANCH   1   3
ATOM      2  O   UNL A   1     -23.055   2.813  25.864  0.00  0.00    -0.284 OA
ATOM      3  C   UNL A   1     -24.102   0.457  28.479  0.00  0.00    +0.219 C 
ATOM      4  C   UNL A   1     -21.993   1.586  27.493  0.00  0.00    +0.215 C 
ATOM      5  C   UNL A   1     -21.805   0.698  28.502  0.00  0.00    +0.205 C 
ATOM      6  C   UNL A   1     -24.339   1.324  27.173  0.00  0.00    +0.064 C 
ATOM      7  O   UNL A   1     -22.884   0.116  29.039  0.00  0.00    -0.467 OA
ATOM      8  F   UNL A   1     -20.927   2.240  27.112  0.00  0.00    -0.198 F 
ATOM      9  C   UNL A   1     -23.179   1.896  26.864  0.00  0.00    +0.226 C 
BRANCH   6  10
ATOM     10  C   UNL A   1     -25.688   1.614  26.461  0.00  0.00    +0.041 C 
ATOM     11  C   UNL A   1     -26.250   2.920  26.395  0.00  0.00    +0.076 C 
ATOM     12  C   UNL A   1     -27.438   3.091  25.645  0.00  0.00    +0.107 C 
ATOM     13  N   UNL A   1     -28.075   2.089  25.003  0.00  0.00    -0.208 NA
ATOM     14  C   UNL A   1     -27.543   0.849  25.079  0.00  0.00    +0.253 C 
ATOM     15  C   UNL A   1     -26.354   0.576  25.777  0.00  0.00    +0.193 C 
ATOM     16  F   UNL A   1     -25.860  -0.681  25.795  0.00  0.00    -0.199 F 
BRANCH  11  17
ATOM     17  C   UNL A   1     -25.642   4.093  27.123  0.00  0.00    +0.266 C 
ATOM     18  N   UNL A   1     -25.614   5.252  26.449  0.00  0.00    -0.200 NA
ATOM     19  C   UNL A   1     -25.026   6.479  26.963  0.00  0.00    +0.139 C 
ATOM     20  O   UNL A   1     -25.143   3.966  28.243  0.00  0.00    -0.268 OA
ENDBRANCH  11  17
BRANCH  14  21
ATOM     21  O   UNL A   1     -28.193  -0.208  24.477  0.00  0.00    -0.456 OA
BRANCH  21  22
ATOM     22  C   UNL A   1     -29.460   0.005  23.866  0.00  0.00    +0.243 C 
BRANCH  22  23
ATOM     23  C   UNL A   1     -30.065  -1.377  23.573  0.00  0.00    +0.229 C 
ATOM     24  O   UNL A   1     -30.729  -1.878  24.721  0.00  0.00    -0.216 OA
ENDBRANCH  22  23
ENDBRANCH  21  22
ENDBRANCH  14  21
ENDBRANCH   6  10
ENDBRANCH   1   3
BRANCH   1  25
ATOM     25  C   UNL A   1     -24.855  -1.012  30.143  0.00  0.00    +0.070 C 
BRANCH  25  26
ATOM     26  C   UNL A   1     -24.973  -2.505  29.788  0.00  0.00    -0.019 C 
ATOM     27  C   UNL A   1     -23.906  -3.173  29.146  0.00  0.00    -0.004 C 
ATOM     28  C   UNL A   1     -23.989  -4.549  28.853  0.00  0.00    -0.000 C 
ATOM     29  C   UNL A   1     -25.137  -5.280  29.205  0.00  0.00    -0.000 C 
ATOM     30  C   UNL A   1     -26.232  -4.611  29.784  0.00  0.00    -0.000 C 
ATOM     31  C   UNL A   1     -26.155  -3.232  30.065  0.00  0.00    -0.004 C 
ENDBRANCH  25  26
BRANCH  25  32
ATOM     32  C   UNL A   1     -25.387  -0.679  31.571  0.00  0.00    +0.079 C 
ATOM     33  C   UNL A   1     -25.189   0.773  32.028  0.00  0.00    +0.019 C 
ATOM     34  C   UNL A   1     -25.336   0.684  33.544  0.00  0.00    +0.020 C 
ATOM     35  C   UNL A   1     -24.829  -0.715  33.905  0.00  0.00    +0.089 C 
ATOM     36  N   UNL A   1     -24.758  -1.481  32.646  0.00  0.00    -0.219 NA
ENDBRANCH  25  32
ENDBRANCH   1  25
BRANCH   1  37
ATOM     37  O   UNL A   1     -26.155  -0.265  28.140  0.00  0.00    -0.334 OA
BRANCH  37  38
ATOM     38  C   UNL A   1     -27.496  -0.084  28.549  0.00  0.00    +0.237 C 
BRANCH  38  39
ATOM     39  N   UNL A   1     -27.981   0.400  29.733  0.00  0.00    -0.159 NA
BRANCH  39  40
ATOM     40  C   UNL A   1     -28.807   1.018  30.376  0.00  0.00    +0.230 C 
ATOM     41  O   UNL A   1     -29.715   1.255  29.477  0.00  0.00    -0.203 OA
BRANCH  40  43
ATOM     42  C   UNL A   1     -27.979   5.082  31.101  0.00  0.00    +0.142 C 
ATOM     43  C   UNL A   1     -28.219   2.429  30.709  0.00  0.00    +0.077 C 
ATOM     44  O   UNL A   1     -27.128   4.339  30.322  0.00  0.00    -0.354 OA
ATOM     45  C   UNL A   1     -27.798   3.326  29.512  0.00  0.00    +0.146 C 
ATOM     46  C   UNL A   1     -28.468   4.121  32.244  0.00  0.00    +0.032 C 
ATOM     47  C   UNL A   1     -29.326   2.889  31.653  0.00  0.00    +0.009 C 
ENDBRANCH  40  43
ENDBRANCH  39  40
ENDBRANCH  38  39
ENDBRANCH  37  38
ENDBRANCH   1  37
TORSDOF 14
