MODEL 740
MODEL 1
REMARK VINA RESULT:    -6.543      0.000      0.000
REMARK INTER + INTRA:          -7.278
REMARK INTER:                  -6.926
REMARK INTRA:                  -0.352
REMARK UNBOUND:                -0.352
REMARK  Name = No_740-gen_results/8p0m/2024-11-27-11-27-31/
REMARK  1 active torsions:
REMARK  status: ('A' for Active; 'I' for Inactive)
REMARK    1  A    between atoms: C_2  and  C_7
REMARK                            x       y       z     vdW  Elec       q    Type
REMARK                         _______ _______ _______ _____ _____    ______ ____
ROOT
ATOM      1  C   UNL A   1     -24.028  -3.816  28.855  0.00  0.00    +0.000 A 
ATOM      2  C   UNL A   1     -24.405  -2.692  29.097  0.00  0.00    +0.000 A 
ATOM      3  C   UNL A   1     -25.658  -2.460  29.654  0.00  0.00    +0.000 A 
ATOM      4  C   UNL A   1     -26.565  -3.547  29.918  0.00  0.00    +0.000 A 
ATOM      5  C   UNL A   1     -26.058  -4.810  29.586  0.00  0.00    +0.000 A 
ATOM      6  C   UNL A   1     -24.872  -4.975  29.046  0.00  0.00    +0.000 A 
ENDROOT
BRANCH   2   7
ATOM      7  C   UNL A   1     -23.615  -1.453  28.865  0.00  0.00    +0.000 A 
ATOM      8  C   UNL A   1     -22.482  -1.168  29.217  0.00  0.00    +0.000 A 
ATOM      9  C   UNL A   1     -21.746   0.042  28.828  0.00  0.00    +0.000 A 
ATOM     10  C   UNL A   1     -22.428   0.959  28.002  0.00  0.00    +0.000 A 
ATOM     11  C   UNL A   1     -24.251  -0.460  27.966  0.00  0.00    +0.000 A 
ATOM     12  C   UNL A   1     -23.661   0.658  27.595  0.00  0.00    +0.000 A 
ENDBRANCH   2   7
TORSDOF 1
ENDMDL
ENDMDL
