REMARK  Name = outputs/IAG933/test6/raw/output_7420_IAG933_linker_design_.xyz
REMARK  17 active torsions:
REMARK  status: ('A' for Active; 'I' for Inactive)
REMARK    1  A    between atoms: C_1  and  C_2
REMARK    2  A    between atoms: C_1  and  C_8
REMARK    3  A    between atoms: C_1  and  C_40
REMARK    4  A    between atoms: C_13  and  C_39
REMARK    5  A    between atoms: C_14  and  C_15
REMARK    6  A    between atoms: C_21  and  O_22
REMARK    7  A    between atoms: O_22  and  C_23
REMARK    8  A    between atoms: C_23  and  C_24
REMARK    9  A    between atoms: N_30  and  C_43
REMARK   10  A    between atoms: C_32  and  C_36
REMARK   11  A    between atoms: C_32  and  C_46
REMARK   12  A    between atoms: C_33  and  C_39
REMARK   13  A    between atoms: C_33  and  C_42
REMARK   14  A    between atoms: C_36  and  C_47
REMARK   15  A    between atoms: C_40  and  C_42
REMARK   16  A    between atoms: C_43  and  C_47
REMARK   17  A    between atoms: C_44  and  C_48
REMARK                            x       y       z     vdW  Elec       q    Type
REMARK                         _______ _______ _______ _____ _____    ______ ____
ROOT
ATOM      1  N   UNL A   1     -26.453   0.116  28.632  0.00  0.00    -0.188 NA
ATOM      2  C   UNL A   1     -24.968   0.011  28.965  0.00  0.00    +0.034 C 
ENDROOT
BRANCH   1   4
ATOM      3  O   UNL A   1     -28.136  -1.088  29.860  0.00  0.00    -0.273 OA
ATOM      4  C   UNL A   1     -27.723  -0.210  29.110  0.00  0.00    +0.245 C 
BRANCH   4   5
ATOM      5  C   UNL A   1     -28.805   0.658  28.385  0.00  0.00    +0.090 C 
BRANCH   5   6
ATOM      6  C   UNL A   1     -29.177   1.849  29.415  0.00  0.00    +0.047 C 
BRANCH   6   7
ATOM      7  C   UNL A   1     -30.038   2.850  28.681  0.00  0.00    +0.177 C 
ATOM      8  O   UNL A   1     -29.526   4.120  28.677  0.00  0.00    -0.218 OA
BRANCH   7  14
ATOM      9  C   UNL A   1     -34.342   2.397  28.768  0.00  0.00    +0.003 C 
ATOM     10  C   UNL A   1     -32.263   3.063  29.800  0.00  0.00    +0.194 C 
ATOM     11  O   UNL A   1     -31.482   3.652  30.815  0.00  0.00    -0.287 OA
ATOM     12  C   UNL A   1     -33.661   2.127  27.605  0.00  0.00    -0.003 C 
ATOM     13  C   UNL A   1     -33.632   2.862  29.872  0.00  0.00    +0.042 C 
ATOM     14  C   UNL A   1     -31.579   2.723  28.639  0.00  0.00    +0.044 C 
ATOM     15  C   UNL A   1     -32.275   2.371  27.488  0.00  0.00    -0.002 C 
BRANCH  15  17
ATOM     16  N   UNL A   1     -31.970   3.744  25.688  0.00  0.00    -0.126 NA
ATOM     17  C   UNL A   1     -31.714   2.360  26.089  0.00  0.00    +0.136 C 
ENDBRANCH  15  17
ENDBRANCH   7  14
ENDBRANCH   6   7
ENDBRANCH   5   6
ENDBRANCH   4   5
ENDBRANCH   1   4
BRANCH   2  18
ATOM     18  C   UNL A   1     -24.855  -1.012  30.143  0.00  0.00    +0.072 C 
BRANCH  18  19
ATOM     19  C   UNL A   1     -24.973  -2.505  29.788  0.00  0.00    -0.016 C 
ATOM     20  C   UNL A   1     -23.906  -3.173  29.146  0.00  0.00    -0.004 C 
ATOM     21  C   UNL A   1     -23.989  -4.549  28.853  0.00  0.00    -0.000 C 
ATOM     22  C   UNL A   1     -25.137  -5.280  29.205  0.00  0.00    -0.000 C 
ATOM     23  C   UNL A   1     -26.232  -4.611  29.784  0.00  0.00    -0.000 C 
ATOM     24  C   UNL A   1     -26.155  -3.232  30.065  0.00  0.00    -0.004 C 
ENDBRANCH  18  19
BRANCH  18  25
ATOM     25  C   UNL A   1     -25.387  -0.679  31.571  0.00  0.00    +0.082 C 
ATOM     26  C   UNL A   1     -25.189   0.773  32.028  0.00  0.00    +0.020 C 
ATOM     27  C   UNL A   1     -25.336   0.684  33.544  0.00  0.00    +0.020 C 
ATOM     28  C   UNL A   1     -24.829  -0.715  33.905  0.00  0.00    +0.089 C 
ATOM     29  N   UNL A   1     -24.758  -1.481  32.646  0.00  0.00    -0.219 NA
ENDBRANCH  18  25
ENDBRANCH   2  18
BRANCH   2  30
ATOM     30  C   UNL A   1     -23.433   0.056  28.399  0.00  0.00    +0.039 C 
BRANCH  30  31
ATOM     31  C   UNL A   1     -23.175   1.529  27.910  0.00  0.00    +0.006 C 
ATOM     32  C   UNL A   1     -21.608   1.502  27.711  0.00  0.00    +0.000 C 
BRANCH  31  33
ATOM     33  C   UNL A   1     -24.154   1.652  26.630  0.00  0.00    +0.008 C 
BRANCH  33  34
ATOM     34  C   UNL A   1     -25.688   1.614  26.461  0.00  0.00    +0.070 C 
ATOM     35  C   UNL A   1     -26.250   2.920  26.395  0.00  0.00    +0.055 C 
ATOM     36  C   UNL A   1     -27.438   3.091  25.645  0.00  0.00    +0.102 C 
ATOM     37  N   UNL A   1     -28.075   2.089  25.003  0.00  0.00    -0.212 NA
ATOM     38  C   UNL A   1     -27.543   0.849  25.079  0.00  0.00    +0.234 C 
ATOM     39  C   UNL A   1     -26.354   0.576  25.777  0.00  0.00    +0.240 C 
ATOM     40  F   UNL A   1     -25.860  -0.681  25.795  0.00  0.00    -0.227 F 
BRANCH  35  41
ATOM     41  C   UNL A   1     -25.642   4.093  27.123  0.00  0.00    +0.262 C 
ATOM     42  N   UNL A   1     -25.614   5.252  26.449  0.00  0.00    -0.200 NA
ATOM     43  C   UNL A   1     -25.026   6.479  26.963  0.00  0.00    +0.139 C 
ATOM     44  O   UNL A   1     -25.143   3.966  28.243  0.00  0.00    -0.269 OA
ENDBRANCH  35  41
BRANCH  38  45
ATOM     45  O   UNL A   1     -28.193  -0.208  24.477  0.00  0.00    -0.459 OA
BRANCH  45  46
ATOM     46  C   UNL A   1     -29.460   0.005  23.866  0.00  0.00    +0.242 C 
BRANCH  46  47
ATOM     47  C   UNL A   1     -30.065  -1.377  23.573  0.00  0.00    +0.229 C 
ATOM     48  O   UNL A   1     -30.729  -1.878  24.721  0.00  0.00    -0.216 OA
ENDBRANCH  46  47
ENDBRANCH  45  46
ENDBRANCH  38  45
ENDBRANCH  33  34
ENDBRANCH  31  33
ENDBRANCH  30  31
ENDBRANCH   2  30
TORSDOF 17
