REMARK  Name = outputs/IAG933/test6/raw/output_7423_IAG933_linker_design_.xyz
REMARK  6 active torsions:
REMARK  status: ('A' for Active; 'I' for Inactive)
REMARK    1  A    between atoms: C_1  and  C_2
REMARK    2  A    between atoms: C_13  and  C_32
REMARK    3  A    between atoms: C_14  and  C_15
REMARK    4  A    between atoms: C_21  and  O_22
REMARK    5  A    between atoms: O_22  and  C_23
REMARK    6  A    between atoms: C_23  and  C_24
REMARK                            x       y       z     vdW  Elec       q    Type
REMARK                         _______ _______ _______ _____ _____    ______ ____
ROOT
ATOM      1  C   UNL A   1     -24.855  -1.012  30.143  0.00  0.00    +0.074 C 
ATOM      2  C   UNL A   1     -25.387  -0.679  31.571  0.00  0.00    +0.085 C 
ATOM      3  C   UNL A   1     -25.189   0.773  32.028  0.00  0.00    +0.052 C 
ATOM      4  C   UNL A   1     -25.336   0.684  33.544  0.00  0.00    +0.023 C 
ATOM      5  C   UNL A   1     -24.829  -0.715  33.905  0.00  0.00    +0.089 C 
ATOM      6  N   UNL A   1     -24.758  -1.481  32.646  0.00  0.00    -0.219 NA
ATOM      7  N   UNL A   1     -25.646   3.116  32.636  0.00  0.00    -0.114 NA
ATOM      8  C   UNL A   1     -21.913   0.752  28.628  0.00  0.00    +0.032 C 
ATOM      9  C   UNL A   1     -22.041   1.493  27.505  0.00  0.00    +0.152 C 
ATOM     10  F   UNL A   1     -20.946   2.129  27.109  0.00  0.00    -0.203 F 
ATOM     11  C   UNL A   1     -24.562   1.298  27.319  0.00  0.00    +0.068 C 
ATOM     12 CL   UNL A   1     -22.976   2.502  25.302  0.00  0.00    -0.079 Cl
ATOM     13  C   UNL A   1     -26.184   1.521  29.370  0.00  0.00    +0.189 C 
ATOM     14  C   UNL A   1     -23.258   1.698  26.842  0.00  0.00    +0.099 C 
ATOM     15  N   UNL A   1     -25.084   0.968  28.558  0.00  0.00    -0.274 N 
ATOM     16  N   UNL A   1     -26.018   2.474  30.356  0.00  0.00    -0.179 NA
ATOM     17  C   UNL A   1     -24.195   0.054  29.390  0.00  0.00    +0.035 C 
ATOM     18  C   UNL A   1     -25.126   2.318  31.578  0.00  0.00    +0.167 C 
ATOM     19  C   UNL A   1     -22.839   0.125  29.490  0.00  0.00    +0.013 C 
ENDROOT
BRANCH  11  20
ATOM     20  C   UNL A   1     -25.688   1.614  26.461  0.00  0.00    +0.053 C 
ATOM     21  C   UNL A   1     -26.250   2.920  26.395  0.00  0.00    +0.078 C 
ATOM     22  C   UNL A   1     -27.438   3.091  25.645  0.00  0.00    +0.107 C 
ATOM     23  N   UNL A   1     -28.075   2.089  25.003  0.00  0.00    -0.208 NA
ATOM     24  C   UNL A   1     -27.543   0.849  25.079  0.00  0.00    +0.253 C 
ATOM     25  C   UNL A   1     -26.354   0.576  25.777  0.00  0.00    +0.194 C 
ATOM     26  F   UNL A   1     -25.860  -0.681  25.795  0.00  0.00    -0.199 F 
BRANCH  21  27
ATOM     27  C   UNL A   1     -25.642   4.093  27.123  0.00  0.00    +0.267 C 
ATOM     28  N   UNL A   1     -25.614   5.252  26.449  0.00  0.00    -0.200 NA
ATOM     29  C   UNL A   1     -25.026   6.479  26.963  0.00  0.00    +0.139 C 
ATOM     30  O   UNL A   1     -25.143   3.966  28.243  0.00  0.00    -0.268 OA
ENDBRANCH  21  27
BRANCH  24  31
ATOM     31  O   UNL A   1     -28.193  -0.208  24.477  0.00  0.00    -0.456 OA
BRANCH  31  32
ATOM     32  C   UNL A   1     -29.460   0.005  23.866  0.00  0.00    +0.243 C 
BRANCH  32  33
ATOM     33  C   UNL A   1     -30.065  -1.377  23.573  0.00  0.00    +0.229 C 
ATOM     34  O   UNL A   1     -30.729  -1.878  24.721  0.00  0.00    -0.216 OA
ENDBRANCH  32  33
ENDBRANCH  31  32
ENDBRANCH  24  31
ENDBRANCH  11  20
BRANCH   1  35
ATOM     35  C   UNL A   1     -24.973  -2.505  29.788  0.00  0.00    -0.016 C 
ATOM     36  C   UNL A   1     -23.906  -3.173  29.146  0.00  0.00    -0.004 C 
ATOM     37  C   UNL A   1     -23.989  -4.549  28.853  0.00  0.00    -0.000 C 
ATOM     38  C   UNL A   1     -25.137  -5.280  29.205  0.00  0.00    -0.000 C 
ATOM     39  C   UNL A   1     -26.232  -4.611  29.784  0.00  0.00    -0.000 C 
ATOM     40  C   UNL A   1     -26.155  -3.232  30.065  0.00  0.00    -0.004 C 
ENDBRANCH   1  35
TORSDOF 6
