REMARK  Name = outputs/IAG933/test6/raw/output_7428_IAG933_linker_design_.xyz
REMARK  15 active torsions:
REMARK  status: ('A' for Active; 'I' for Inactive)
REMARK    1  A    between atoms: C_1  and  C_2
REMARK    2  A    between atoms: C_1  and  C_8
REMARK    3  A    between atoms: C_1  and  C_42
REMARK    4  A    between atoms: C_13  and  N_44
REMARK    5  A    between atoms: C_14  and  C_15
REMARK    6  A    between atoms: C_21  and  O_22
REMARK    7  A    between atoms: O_22  and  C_23
REMARK    8  A    between atoms: C_23  and  C_24
REMARK    9  A    between atoms: C_29  and  C_42
REMARK   10  A    between atoms: N_30  and  C_39
REMARK   11  A    between atoms: N_30  and  C_42
REMARK   12  A    between atoms: C_33  and  C_38
REMARK   13  A    between atoms: C_36  and  O_37
REMARK   14  A    between atoms: C_36  and  C_38
REMARK   15  A    between atoms: C_43  and  N_44
REMARK                            x       y       z     vdW  Elec       q    Type
REMARK                         _______ _______ _______ _____ _____    ______ ____
ROOT
ATOM      1  C   UNL A   1     -25.321  -0.134  28.932  0.00  0.00    +0.174 C 
ENDROOT
BRANCH   1   2
ATOM      2  C   UNL A   1     -24.262   0.399  28.097  0.00  0.00    +0.249 C 
ATOM      3  O   UNL A   1     -23.127  -0.323  28.095  0.00  0.00    -0.273 OA
ATOM      4  N   UNL A   1     -24.418   1.377  27.172  0.00  0.00    -0.255 N 
BRANCH   4   5
ATOM      5  C   UNL A   1     -25.688   1.614  26.461  0.00  0.00    +0.092 C 
ATOM      6  C   UNL A   1     -26.250   2.920  26.395  0.00  0.00    +0.090 C 
ATOM      7  C   UNL A   1     -27.438   3.091  25.645  0.00  0.00    +0.108 C 
ATOM      8  N   UNL A   1     -28.075   2.089  25.003  0.00  0.00    -0.208 NA
ATOM      9  C   UNL A   1     -27.543   0.849  25.079  0.00  0.00    +0.255 C 
ATOM     10  C   UNL A   1     -26.354   0.576  25.777  0.00  0.00    +0.207 C 
ATOM     11  F   UNL A   1     -25.860  -0.681  25.795  0.00  0.00    -0.198 F 
BRANCH   6  12
ATOM     12  C   UNL A   1     -25.642   4.093  27.123  0.00  0.00    +0.268 C 
ATOM     13  N   UNL A   1     -25.614   5.252  26.449  0.00  0.00    -0.200 NA
ATOM     14  C   UNL A   1     -25.026   6.479  26.963  0.00  0.00    +0.139 C 
ATOM     15  O   UNL A   1     -25.143   3.966  28.243  0.00  0.00    -0.268 OA
ENDBRANCH   6  12
BRANCH   9  16
ATOM     16  O   UNL A   1     -28.193  -0.208  24.477  0.00  0.00    -0.456 OA
BRANCH  16  17
ATOM     17  C   UNL A   1     -29.460   0.005  23.866  0.00  0.00    +0.243 C 
BRANCH  17  18
ATOM     18  C   UNL A   1     -30.065  -1.377  23.573  0.00  0.00    +0.229 C 
ATOM     19  O   UNL A   1     -30.729  -1.878  24.721  0.00  0.00    -0.216 OA
ENDBRANCH  17  18
ENDBRANCH  16  17
ENDBRANCH   9  16
ENDBRANCH   4   5
BRANCH   4  21
ATOM     20  C   UNL A   1     -21.972   1.865  27.450  0.00  0.00    +0.024 C 
ATOM     21  C   UNL A   1     -23.207   1.928  26.615  0.00  0.00    +0.098 C 
ENDBRANCH   4  21
ENDBRANCH   1   2
BRANCH   1  22
ATOM     22  C   UNL A   1     -24.855  -1.012  30.143  0.00  0.00    +0.067 C 
BRANCH  22  23
ATOM     23  C   UNL A   1     -24.973  -2.505  29.788  0.00  0.00    -0.019 C 
ATOM     24  C   UNL A   1     -23.906  -3.173  29.146  0.00  0.00    -0.004 C 
ATOM     25  C   UNL A   1     -23.989  -4.549  28.853  0.00  0.00    -0.000 C 
ATOM     26  C   UNL A   1     -25.137  -5.280  29.205  0.00  0.00    -0.000 C 
ATOM     27  C   UNL A   1     -26.232  -4.611  29.784  0.00  0.00    -0.000 C 
ATOM     28  C   UNL A   1     -26.155  -3.232  30.065  0.00  0.00    -0.004 C 
ENDBRANCH  22  23
BRANCH  22  29
ATOM     29  C   UNL A   1     -25.387  -0.679  31.571  0.00  0.00    +0.079 C 
ATOM     30  C   UNL A   1     -25.189   0.773  32.028  0.00  0.00    +0.019 C 
ATOM     31  C   UNL A   1     -25.336   0.684  33.544  0.00  0.00    +0.020 C 
ATOM     32  C   UNL A   1     -24.829  -0.715  33.905  0.00  0.00    +0.089 C 
ATOM     33  N   UNL A   1     -24.758  -1.481  32.646  0.00  0.00    -0.219 NA
ENDBRANCH  22  29
ENDBRANCH   1  22
BRANCH   1  34
ATOM     34  N   UNL A   1     -26.585   0.489  29.364  0.00  0.00    -0.230 NA
BRANCH  34  40
ATOM     35  C   UNL A   1     -28.944  -0.638  29.957  0.00  0.00    +0.012 C 
ATOM     36  C   UNL A   1     -29.818   0.101  27.445  0.00  0.00    +0.001 C 
ATOM     37  C   UNL A   1     -30.309  -1.022  29.508  0.00  0.00    -0.018 C 
ATOM     38  C   UNL A   1     -28.543   0.527  27.886  0.00  0.00    +0.016 C 
ATOM     39  C   UNL A   1     -30.643  -0.634  28.272  0.00  0.00    -0.004 C 
ATOM     40  C   UNL A   1     -28.020   0.116  29.126  0.00  0.00    +0.066 C 
BRANCH  37  41
ATOM     41  C   UNL A   1     -31.488  -1.855  30.120  0.00  0.00    +0.058 C 
BRANCH  41  42
ATOM     42  C   UNL A   1     -31.300  -3.072  31.067  0.00  0.00    +0.147 C 
BRANCH  42  43
ATOM     43  O   UNL A   1     -29.912  -3.320  31.109  0.00  0.00    -0.351 OA
ATOM     44  C   UNL A   1     -29.677  -4.286  30.118  0.00  0.00    +0.174 C 
ENDBRANCH  42  43
ENDBRANCH  41  42
ENDBRANCH  37  41
ENDBRANCH  34  40
ENDBRANCH   1  34
TORSDOF 15
