REMARK  Name = outputs/IAG933/test6/raw/output_7429_IAG933_linker_design_.xyz
REMARK  13 active torsions:
REMARK  status: ('A' for Active; 'I' for Inactive)
REMARK    1  A    between atoms: C_1  and  C_2
REMARK    2  A    between atoms: C_1  and  C_8
REMARK    3  A    between atoms: C_1  and  C_33
REMARK    4  A    between atoms: C_13  and  N_31
REMARK    5  A    between atoms: C_14  and  C_15
REMARK    6  A    between atoms: C_21  and  O_22
REMARK    7  A    between atoms: O_22  and  C_23
REMARK    8  A    between atoms: C_23  and  C_24
REMARK    9  A    between atoms: C_32  and  C_38
REMARK   10  A    between atoms: C_33  and  C_41
REMARK   11  A    between atoms: C_33  and  C_45
REMARK   12  A    between atoms: C_36  and  C_39
REMARK   13  A    between atoms: C_38  and  C_45
REMARK                            x       y       z     vdW  Elec       q    Type
REMARK                         _______ _______ _______ _____ _____    ______ ____
ROOT
ATOM      1  C   UNL A   1     -25.483   0.003  29.157  0.00  0.00    +0.024 C 
ENDROOT
BRANCH   1   5
ATOM      2  C   UNL A   1     -22.999   0.343  28.777  0.00  0.00    +0.041 C 
ATOM      3  N   UNL A   1     -24.492   1.244  27.211  0.00  0.00    -0.306 N 
ATOM      4  C   UNL A   1     -22.442   1.601  28.072  0.00  0.00    +0.113 C 
ATOM      5  C   UNL A   1     -24.343   0.126  28.087  0.00  0.00    +0.075 C 
ATOM      6  C   UNL A   1     -23.193   1.730  26.752  0.00  0.00    +0.110 C 
ATOM      7  N   UNL A   1     -21.012   1.413  27.843  0.00  0.00    -0.131 NA
BRANCH   3   8
ATOM      8  C   UNL A   1     -25.688   1.614  26.461  0.00  0.00    +0.086 C 
ATOM      9  C   UNL A   1     -26.250   2.920  26.395  0.00  0.00    +0.090 C 
ATOM     10  C   UNL A   1     -27.438   3.091  25.645  0.00  0.00    +0.108 C 
ATOM     11  N   UNL A   1     -28.075   2.089  25.003  0.00  0.00    -0.208 NA
ATOM     12  C   UNL A   1     -27.543   0.849  25.079  0.00  0.00    +0.255 C 
ATOM     13  C   UNL A   1     -26.354   0.576  25.777  0.00  0.00    +0.206 C 
ATOM     14  F   UNL A   1     -25.860  -0.681  25.795  0.00  0.00    -0.198 F 
BRANCH   9  15
ATOM     15  C   UNL A   1     -25.642   4.093  27.123  0.00  0.00    +0.268 C 
ATOM     16  N   UNL A   1     -25.614   5.252  26.449  0.00  0.00    -0.200 NA
ATOM     17  C   UNL A   1     -25.026   6.479  26.963  0.00  0.00    +0.139 C 
ATOM     18  O   UNL A   1     -25.143   3.966  28.243  0.00  0.00    -0.268 OA
ENDBRANCH   9  15
BRANCH  12  19
ATOM     19  O   UNL A   1     -28.193  -0.208  24.477  0.00  0.00    -0.456 OA
BRANCH  19  20
ATOM     20  C   UNL A   1     -29.460   0.005  23.866  0.00  0.00    +0.243 C 
BRANCH  20  21
ATOM     21  C   UNL A   1     -30.065  -1.377  23.573  0.00  0.00    +0.229 C 
ATOM     22  O   UNL A   1     -30.729  -1.878  24.721  0.00  0.00    -0.216 OA
ENDBRANCH  20  21
ENDBRANCH  19  20
ENDBRANCH  12  19
ENDBRANCH   3   8
ENDBRANCH   1   5
BRANCH   1  23
ATOM     23  C   UNL A   1     -24.855  -1.012  30.143  0.00  0.00    +0.040 C 
BRANCH  23  24
ATOM     24  C   UNL A   1     -24.973  -2.505  29.788  0.00  0.00    -0.021 C 
ATOM     25  C   UNL A   1     -23.906  -3.173  29.146  0.00  0.00    -0.004 C 
ATOM     26  C   UNL A   1     -23.989  -4.549  28.853  0.00  0.00    -0.000 C 
ATOM     27  C   UNL A   1     -25.137  -5.280  29.205  0.00  0.00    -0.000 C 
ATOM     28  C   UNL A   1     -26.232  -4.611  29.784  0.00  0.00    -0.000 C 
ATOM     29  C   UNL A   1     -26.155  -3.232  30.065  0.00  0.00    -0.004 C 
ENDBRANCH  23  24
BRANCH  23  30
ATOM     30  C   UNL A   1     -25.387  -0.679  31.571  0.00  0.00    +0.077 C 
ATOM     31  C   UNL A   1     -25.189   0.773  32.028  0.00  0.00    +0.019 C 
ATOM     32  C   UNL A   1     -25.336   0.684  33.544  0.00  0.00    +0.020 C 
ATOM     33  C   UNL A   1     -24.829  -0.715  33.905  0.00  0.00    +0.089 C 
ATOM     34  N   UNL A   1     -24.758  -1.481  32.646  0.00  0.00    -0.219 NA
ENDBRANCH  23  30
ENDBRANCH   1  23
BRANCH   1  35
ATOM     35  C   UNL A   1     -27.014  -0.280  29.146  0.00  0.00    +0.003 C 
BRANCH  35  36
ATOM     36  C   UNL A   1     -27.860   0.940  29.101  0.00  0.00    +0.018 C 
BRANCH  36  38
ATOM     37  C   UNL A   1     -31.503  -0.153  28.111  0.00  0.00    +0.022 C 
ATOM     38  C   UNL A   1     -29.214   0.311  28.918  0.00  0.00    +0.073 C 
ATOM     39  C   UNL A   1     -31.222   1.250  28.602  0.00  0.00    +0.095 C 
ATOM     40  C   UNL A   1     -31.133  -1.220  29.157  0.00  0.00    +0.003 C 
ATOM     41  C   UNL A   1     -29.656  -1.003  29.549  0.00  0.00    +0.018 C 
ATOM     42  N   UNL A   1     -30.163   1.347  29.387  0.00  0.00    -0.216 NA
BRANCH  39  45
ATOM     43  C   UNL A   1     -30.841   4.622  26.814  0.00  0.00    -0.000 C 
ATOM     44  C   UNL A   1     -30.958   4.252  25.488  0.00  0.00    -0.000 C 
ATOM     45  C   UNL A   1     -31.247   2.320  27.524  0.00  0.00    -0.006 C 
ATOM     46  C   UNL A   1     -31.008   3.682  27.816  0.00  0.00    -0.003 C 
ATOM     47  C   UNL A   1     -31.283   2.932  25.194  0.00  0.00    -0.000 C 
ATOM     48  C   UNL A   1     -31.419   1.970  26.197  0.00  0.00    -0.003 C 
ENDBRANCH  39  45
ENDBRANCH  36  38
ENDBRANCH  35  36
ENDBRANCH   1  35
TORSDOF 13
