MODEL 742
MODEL 1
REMARK VINA RESULT:    -4.697      0.000      0.000
REMARK INTER + INTRA:          -4.697
REMARK INTER:                  -4.697
REMARK INTRA:                   0.000
REMARK UNBOUND:                 0.000
REMARK  Name = No_742-gen_results/8p0m/2024-11-27-11-27-31/
REMARK  0 active torsions:
REMARK  status: ('A' for Active; 'I' for Inactive)
REMARK                            x       y       z     vdW  Elec       q    Type
REMARK                         _______ _______ _______ _____ _____    ______ ____
ROOT
ATOM      1  C   UNL A   1     -26.163  -4.559  29.605  0.00  0.00    +0.030 A 
ATOM      2  C   UNL A   1     -26.242  -3.410  29.974  0.00  0.00    +0.014 A 
ATOM      3  C   UNL A   1     -25.223  -2.501  29.716  0.00  0.00    +0.058 A 
ATOM      4  C   UNL A   1     -24.018  -2.910  29.040  0.00  0.00    +0.014 A 
ATOM      5  C   UNL A   1     -24.001  -4.261  28.669  0.00  0.00    +0.030 A 
ATOM      6  C   UNL A   1     -24.984  -5.084  28.952  0.00  0.00    +0.140 A 
ATOM      7  F   UNL A   1     -24.895  -6.345  28.570  0.00  0.00    -0.204 F 
ATOM      8 CL   UNL A   1     -25.229  -0.825  30.206  0.00  0.00    -0.082 Cl
ENDROOT
TORSDOF 0
ENDMDL
ENDMDL
