REMARK  Name = outputs/IAG933/test6/raw/output_743_IAG933_linker_design_.xyz
REMARK  14 active torsions:
REMARK  status: ('A' for Active; 'I' for Inactive)
REMARK    1  A    between atoms: C_1  and  C_2
REMARK    2  A    between atoms: C_1  and  C_8
REMARK    3  A    between atoms: C_1  and  C_36
REMARK    4  A    between atoms: C_13  and  C_29
REMARK    5  A    between atoms: C_14  and  C_15
REMARK    6  A    between atoms: C_21  and  O_22
REMARK    7  A    between atoms: O_22  and  C_23
REMARK    8  A    between atoms: C_23  and  C_24
REMARK    9  A    between atoms: C_28  and  C_36
REMARK   10  A    between atoms: C_28  and  C_37
REMARK   11  A    between atoms: C_29  and  C_37
REMARK   12  A    between atoms: C_29  and  C_38
REMARK   13  A    between atoms: C_32  and  C_33
REMARK   14  A    between atoms: C_32  and  C_37
REMARK                            x       y       z     vdW  Elec       q    Type
REMARK                         _______ _______ _______ _____ _____    ______ ____
ROOT
ATOM      1  C   UNL A   1     -23.927   1.288  27.994  0.00  0.00    +0.126 C 
ENDROOT
BRANCH   1   2
ATOM      2  C   UNL A   1     -25.028   1.284  29.101  0.00  0.00    +0.188 C 
ATOM      3  O   UNL A   1     -25.217   2.202  29.779  0.00  0.00    -0.293 OA
BRANCH   2   5
ATOM      4  O   UNL A   1     -26.615  -0.564  28.840  0.00  0.00    -0.215 OA
ATOM      5  C   UNL A   1     -25.411  -0.132  29.113  0.00  0.00    +0.214 C 
BRANCH   5   6
ATOM      6  C   UNL A   1     -24.855  -1.012  30.143  0.00  0.00    +0.076 C 
BRANCH   6   7
ATOM      7  C   UNL A   1     -24.973  -2.505  29.788  0.00  0.00    -0.018 C 
ATOM      8  C   UNL A   1     -23.906  -3.173  29.146  0.00  0.00    -0.004 C 
ATOM      9  C   UNL A   1     -23.989  -4.549  28.853  0.00  0.00    -0.000 C 
ATOM     10  C   UNL A   1     -25.137  -5.280  29.205  0.00  0.00    -0.000 C 
ATOM     11  C   UNL A   1     -26.232  -4.611  29.784  0.00  0.00    -0.000 C 
ATOM     12  C   UNL A   1     -26.155  -3.232  30.065  0.00  0.00    -0.004 C 
ENDBRANCH   6   7
BRANCH   6  13
ATOM     13  C   UNL A   1     -25.387  -0.679  31.571  0.00  0.00    +0.080 C 
ATOM     14  C   UNL A   1     -25.189   0.773  32.028  0.00  0.00    +0.019 C 
ATOM     15  C   UNL A   1     -25.336   0.684  33.544  0.00  0.00    +0.020 C 
ATOM     16  C   UNL A   1     -24.829  -0.715  33.905  0.00  0.00    +0.089 C 
ATOM     17  N   UNL A   1     -24.758  -1.481  32.646  0.00  0.00    -0.219 NA
ENDBRANCH   6  13
ENDBRANCH   5   6
ENDBRANCH   2   5
ENDBRANCH   1   2
BRANCH   1  18
ATOM     18  C   UNL A   1     -22.725   0.885  28.497  0.00  0.00    +0.193 C 
ATOM     19  O   UNL A   1     -22.431   0.353  29.591  0.00  0.00    -0.293 OA
BRANCH  18  21
ATOM     20  F   UNL A   1     -20.722   1.900  27.759  0.00  0.00    -0.226 F 
ATOM     21  C   UNL A   1     -21.917   1.305  27.684  0.00  0.00    +0.257 C 
ENDBRANCH  18  21
ENDBRANCH   1  18
BRANCH   1  22
ATOM     22  C   UNL A   1     -24.252   1.486  26.764  0.00  0.00    +0.088 C 
BRANCH  22  23
ATOM     23  C   UNL A   1     -25.688   1.614  26.461  0.00  0.00    +0.076 C 
ATOM     24  C   UNL A   1     -26.250   2.920  26.395  0.00  0.00    +0.055 C 
ATOM     25  C   UNL A   1     -27.438   3.091  25.645  0.00  0.00    +0.102 C 
ATOM     26  N   UNL A   1     -28.075   2.089  25.003  0.00  0.00    -0.212 NA
ATOM     27  C   UNL A   1     -27.543   0.849  25.079  0.00  0.00    +0.234 C 
ATOM     28  C   UNL A   1     -26.354   0.576  25.777  0.00  0.00    +0.240 C 
ATOM     29  F   UNL A   1     -25.860  -0.681  25.795  0.00  0.00    -0.227 F 
BRANCH  24  30
ATOM     30  C   UNL A   1     -25.642   4.093  27.123  0.00  0.00    +0.262 C 
ATOM     31  N   UNL A   1     -25.614   5.252  26.449  0.00  0.00    -0.200 NA
ATOM     32  C   UNL A   1     -25.026   6.479  26.963  0.00  0.00    +0.139 C 
ATOM     33  O   UNL A   1     -25.143   3.966  28.243  0.00  0.00    -0.269 OA
ENDBRANCH  24  30
BRANCH  27  34
ATOM     34  O   UNL A   1     -28.193  -0.208  24.477  0.00  0.00    -0.459 OA
BRANCH  34  35
ATOM     35  C   UNL A   1     -29.460   0.005  23.866  0.00  0.00    +0.242 C 
BRANCH  35  36
ATOM     36  C   UNL A   1     -30.065  -1.377  23.573  0.00  0.00    +0.229 C 
ATOM     37  O   UNL A   1     -30.729  -1.878  24.721  0.00  0.00    -0.216 OA
ENDBRANCH  35  36
ENDBRANCH  34  35
ENDBRANCH  27  34
ENDBRANCH  22  23
BRANCH  22  39
ATOM     38  F   UNL A   1     -23.521   1.235  24.468  0.00  0.00    -0.198 F 
ATOM     39  C   UNL A   1     -23.322   1.799  25.599  0.00  0.00    +0.320 C 
ATOM     40  F   UNL A   1     -22.288   2.551  25.553  0.00  0.00    -0.198 F 
ENDBRANCH  22  39
ENDBRANCH   1  22
TORSDOF 14
