REMARK  Name = outputs/IAG933/test6/raw/output_7447_IAG933_linker_design_.xyz
REMARK  10 active torsions:
REMARK  status: ('A' for Active; 'I' for Inactive)
REMARK    1  A    between atoms: C_1  and  C_2
REMARK    2  A    between atoms: C_1  and  C_8
REMARK    3  A    between atoms: C_1  and  N_36
REMARK    4  A    between atoms: C_13  and  C_30
REMARK    5  A    between atoms: C_14  and  C_15
REMARK    6  A    between atoms: C_21  and  O_22
REMARK    7  A    between atoms: O_22  and  C_23
REMARK    8  A    between atoms: C_23  and  C_24
REMARK    9  A    between atoms: C_29  and  O_44
REMARK   10  A    between atoms: C_33  and  O_44
REMARK                            x       y       z     vdW  Elec       q    Type
REMARK                         _______ _______ _______ _____ _____    ______ ____
ROOT
ATOM      1 CL   UNL A   1     -22.739   2.430  25.698  0.00  0.00    -0.080 Cl
ATOM      2  C   UNL A   1     -24.777   1.351  27.295  0.00  0.00    +0.067 A 
ATOM      3  C   UNL A   1     -25.346   0.780  28.392  0.00  0.00    +0.209 A 
ATOM      4  O   UNL A   1     -22.214   0.086  30.114  0.00  0.00    -0.264 OA
ATOM      5  N   UNL A   1     -24.420   0.111  29.297  0.00  0.00    -0.262 N 
ATOM      6  C   UNL A   1     -22.538   1.157  28.050  0.00  0.00    +0.206 A 
ATOM      7  F   UNL A   1     -21.133   1.426  27.971  0.00  0.00    -0.198 F 
ATOM      8  C   UNL A   1     -23.369   1.578  27.076  0.00  0.00    +0.094 A 
ATOM      9  C   UNL A   1     -23.044   0.456  29.201  0.00  0.00    +0.292 A 
ENDROOT
BRANCH   2  10
ATOM     10  C   UNL A   1     -25.688   1.614  26.461  0.00  0.00    +0.043 C 
ATOM     11  C   UNL A   1     -26.250   2.920  26.395  0.00  0.00    +0.077 C 
ATOM     12  C   UNL A   1     -27.438   3.091  25.645  0.00  0.00    +0.107 C 
ATOM     13  N   UNL A   1     -28.075   2.089  25.003  0.00  0.00    -0.208 NA
ATOM     14  C   UNL A   1     -27.543   0.849  25.079  0.00  0.00    +0.253 C 
ATOM     15  C   UNL A   1     -26.354   0.576  25.777  0.00  0.00    +0.193 C 
ATOM     16  F   UNL A   1     -25.860  -0.681  25.795  0.00  0.00    -0.199 F 
BRANCH  11  17
ATOM     17  C   UNL A   1     -25.642   4.093  27.123  0.00  0.00    +0.266 C 
ATOM     18  N   UNL A   1     -25.614   5.252  26.449  0.00  0.00    -0.200 NA
ATOM     19  C   UNL A   1     -25.026   6.479  26.963  0.00  0.00    +0.139 C 
ATOM     20  O   UNL A   1     -25.143   3.966  28.243  0.00  0.00    -0.268 OA
ENDBRANCH  11  17
BRANCH  14  21
ATOM     21  O   UNL A   1     -28.193  -0.208  24.477  0.00  0.00    -0.456 OA
BRANCH  21  22
ATOM     22  C   UNL A   1     -29.460   0.005  23.866  0.00  0.00    +0.243 C 
BRANCH  22  23
ATOM     23  C   UNL A   1     -30.065  -1.377  23.573  0.00  0.00    +0.229 C 
ATOM     24  O   UNL A   1     -30.729  -1.878  24.721  0.00  0.00    -0.216 OA
ENDBRANCH  22  23
ENDBRANCH  21  22
ENDBRANCH  14  21
ENDBRANCH   2  10
BRANCH   5  25
ATOM     25  C   UNL A   1     -24.855  -1.012  30.143  0.00  0.00    +0.130 C 
BRANCH  25  26
ATOM     26  C   UNL A   1     -24.973  -2.505  29.788  0.00  0.00    -0.000 C 
ATOM     27  C   UNL A   1     -23.906  -3.173  29.146  0.00  0.00    -0.002 C 
ATOM     28  C   UNL A   1     -23.989  -4.549  28.853  0.00  0.00    -0.000 C 
ATOM     29  C   UNL A   1     -25.137  -5.280  29.205  0.00  0.00    -0.000 C 
ATOM     30  C   UNL A   1     -26.232  -4.611  29.784  0.00  0.00    -0.000 C 
ATOM     31  C   UNL A   1     -26.155  -3.232  30.065  0.00  0.00    -0.002 C 
ENDBRANCH  25  26
BRANCH  25  32
ATOM     32  C   UNL A   1     -25.387  -0.679  31.571  0.00  0.00    +0.098 C 
ATOM     33  C   UNL A   1     -25.189   0.773  32.028  0.00  0.00    +0.021 C 
ATOM     34  C   UNL A   1     -25.336   0.684  33.544  0.00  0.00    +0.020 C 
ATOM     35  C   UNL A   1     -24.829  -0.715  33.905  0.00  0.00    +0.089 C 
ATOM     36  N   UNL A   1     -24.758  -1.481  32.646  0.00  0.00    -0.217 NA
ENDBRANCH  25  32
ENDBRANCH   5  25
BRANCH   3  37
ATOM     37  O   UNL A   1     -26.644   0.439  28.645  0.00  0.00    -0.462 OA
BRANCH  37  38
ATOM     38  C   UNL A   1     -27.942   1.112  28.909  0.00  0.00    +0.203 C 
ATOM     39  C   UNL A   1     -29.070   0.108  28.457  0.00  0.00    +0.221 C 
ATOM     40  C   UNL A   1     -30.648   0.542  28.620  0.00  0.00    +0.179 C 
ATOM     41  C   UNL A   1     -28.512   1.770  30.189  0.00  0.00    +0.078 C 
ATOM     42  C   UNL A   1     -29.822   2.470  29.798  0.00  0.00    +0.146 C 
ATOM     43  O   UNL A   1     -29.073  -1.069  29.073  0.00  0.00    -0.216 OA
ATOM     44  O   UNL A   1     -30.832   1.388  29.640  0.00  0.00    -0.351 OA
ENDBRANCH  37  38
ENDBRANCH   3  37
TORSDOF 10
