MODEL 744
MODEL 1
REMARK VINA RESULT:    -5.366      0.000      0.000
REMARK INTER + INTRA:          -6.268
REMARK INTER:                  -5.993
REMARK INTRA:                  -0.274
REMARK UNBOUND:                -0.274
REMARK  Name = No_744-gen_results/8p0m/2024-11-27-11-27-31/
REMARK  2 active torsions:
REMARK  status: ('A' for Active; 'I' for Inactive)
REMARK    1  A    between atoms: C_6  and  C_8
REMARK    2  A    between atoms: C_9  and  C_10
REMARK                            x       y       z     vdW  Elec       q    Type
REMARK                         _______ _______ _______ _____ _____    ______ ____
ROOT
ATOM      1  C   UNL A   1     -27.082  -2.846  30.286  0.00  0.00    +0.011 A 
ATOM      2  C   UNL A   1     -27.154  -4.041  30.115  0.00  0.00    +0.058 A 
ATOM      3  C   UNL A   1     -26.147  -4.798  29.608  0.00  0.00    +0.011 A 
ATOM      4  C   UNL A   1     -24.943  -4.159  29.258  0.00  0.00    +0.001 A 
ATOM      5  C   UNL A   1     -25.848  -2.144  30.039  0.00  0.00    +0.001 A 
ATOM      6  C   UNL A   1     -24.816  -2.853  29.502  0.00  0.00    +0.000 A 
ATOM      7 CL   UNL A   1     -28.589  -4.938  30.534  0.00  0.00    -0.082 Cl
ENDROOT
BRANCH   6   8
ATOM      8  C   UNL A   1     -23.547  -2.128  29.190  0.00  0.00    -0.000 C 
ATOM      9  C   UNL A   1     -23.366  -1.020  28.968  0.00  0.00    -0.000 C 
BRANCH   9  10
ATOM     10  C   UNL A   1     -22.519  -0.249  28.652  0.00  0.00    -0.005 C 
ATOM     11  C   UNL A   1     -22.538   0.926  27.776  0.00  0.00    -0.026 C 
ATOM     12  C   UNL A   1     -21.507   1.782  27.455  0.00  0.00    +0.031 C 
ENDBRANCH   9  10
ENDBRANCH   6   8
TORSDOF 2
ENDMDL
ENDMDL
