REMARK  Name = outputs/IAG933/test6/raw/output_745_IAG933_linker_design_.xyz
REMARK  12 active torsions:
REMARK  status: ('A' for Active; 'I' for Inactive)
REMARK    1  A    between atoms: C_1  and  C_2
REMARK    2  A    between atoms: C_1  and  C_8
REMARK    3  A    between atoms: C_1  and  C_40
REMARK    4  A    between atoms: C_13  and  C_43
REMARK    5  A    between atoms: C_14  and  C_15
REMARK    6  A    between atoms: C_21  and  O_22
REMARK    7  A    between atoms: O_22  and  C_23
REMARK    8  A    between atoms: C_23  and  C_24
REMARK    9  A    between atoms: C_30  and  C_41
REMARK   10  A    between atoms: C_37  and  C_41
REMARK   11  A    between atoms: C_37  and  N_42
REMARK   12  A    between atoms: C_39  and  C_40
REMARK                            x       y       z     vdW  Elec       q    Type
REMARK                         _______ _______ _______ _____ _____    ______ ____
ROOT
ATOM      1  C   UNL A   1     -22.423   1.196  27.961  0.00  0.00    +0.236 C 
ATOM      2  N   UNL A   1     -23.414   1.521  27.100  0.00  0.00    -0.166 NA
ATOM      3  F   UNL A   1     -21.054   1.393  27.512  0.00  0.00    -0.218 F 
ATOM      4  C   UNL A   1     -23.106   0.206  28.952  0.00  0.00    +0.065 C 
ATOM      5 CL   UNL A   1     -22.978   2.114  25.608  0.00  0.00    -0.017 Cl
ATOM      6  C   UNL A   1     -24.799   0.289  28.867  0.00  0.00    +0.098 C 
ATOM      7  C   UNL A   1     -24.596   1.192  27.389  0.00  0.00    +0.109 C 
ENDROOT
BRANCH   7   8
ATOM      8  C   UNL A   1     -25.688   1.614  26.461  0.00  0.00    +0.032 C 
ATOM      9  C   UNL A   1     -26.250   2.920  26.395  0.00  0.00    +0.074 C 
ATOM     10  C   UNL A   1     -27.438   3.091  25.645  0.00  0.00    +0.106 C 
ATOM     11  N   UNL A   1     -28.075   2.089  25.003  0.00  0.00    -0.208 NA
ATOM     12  C   UNL A   1     -27.543   0.849  25.079  0.00  0.00    +0.253 C 
ATOM     13  C   UNL A   1     -26.354   0.576  25.777  0.00  0.00    +0.190 C 
ATOM     14  F   UNL A   1     -25.860  -0.681  25.795  0.00  0.00    -0.200 F 
BRANCH   9  15
ATOM     15  C   UNL A   1     -25.642   4.093  27.123  0.00  0.00    +0.266 C 
ATOM     16  N   UNL A   1     -25.614   5.252  26.449  0.00  0.00    -0.200 NA
ATOM     17  C   UNL A   1     -25.026   6.479  26.963  0.00  0.00    +0.139 C 
ATOM     18  O   UNL A   1     -25.143   3.966  28.243  0.00  0.00    -0.268 OA
ENDBRANCH   9  15
BRANCH  12  19
ATOM     19  O   UNL A   1     -28.193  -0.208  24.477  0.00  0.00    -0.456 OA
BRANCH  19  20
ATOM     20  C   UNL A   1     -29.460   0.005  23.866  0.00  0.00    +0.243 C 
BRANCH  20  21
ATOM     21  C   UNL A   1     -30.065  -1.377  23.573  0.00  0.00    +0.229 C 
ATOM     22  O   UNL A   1     -30.729  -1.878  24.721  0.00  0.00    -0.216 OA
ENDBRANCH  20  21
ENDBRANCH  19  20
ENDBRANCH  12  19
ENDBRANCH   7   8
BRANCH   6  24
ATOM     23  O   UNL A   1     -27.247   0.046  28.870  0.00  0.00    -0.273 OA
ATOM     24  C   UNL A   1     -26.460   0.864  29.041  0.00  0.00    +0.242 C 
ATOM     25  N   UNL A   1     -26.584   2.201  29.345  0.00  0.00    -0.207 NA
BRANCH  25  27
ATOM     26  C   UNL A   1     -27.144   3.451  31.302  0.00  0.00    +0.024 C 
ATOM     27  C   UNL A   1     -27.700   2.938  29.959  0.00  0.00    +0.105 C 
BRANCH  27  28
ATOM     28  C   UNL A   1     -28.763   3.792  29.648  0.00  0.00    +0.110 C 
BRANCH  28  29
ATOM     29  C   UNL A   1     -29.323   4.573  30.903  0.00  0.00    +0.263 C 
ATOM     30  O   UNL A   1     -29.977   4.118  31.828  0.00  0.00    -0.272 OA
ATOM     31  N   UNL A   1     -28.853   5.992  30.993  0.00  0.00    -0.088 NA
ENDBRANCH  28  29
ENDBRANCH  27  28
ENDBRANCH  25  27
ENDBRANCH   6  24
BRANCH   6  32
ATOM     32  C   UNL A   1     -24.855  -1.012  30.143  0.00  0.00    +0.048 C 
BRANCH  32  33
ATOM     33  C   UNL A   1     -24.973  -2.505  29.788  0.00  0.00    -0.021 C 
ATOM     34  C   UNL A   1     -23.906  -3.173  29.146  0.00  0.00    -0.004 C 
ATOM     35  C   UNL A   1     -23.989  -4.549  28.853  0.00  0.00    -0.000 C 
ATOM     36  C   UNL A   1     -25.137  -5.280  29.205  0.00  0.00    -0.000 C 
ATOM     37  C   UNL A   1     -26.232  -4.611  29.784  0.00  0.00    -0.000 C 
ATOM     38  C   UNL A   1     -26.155  -3.232  30.065  0.00  0.00    -0.004 C 
ENDBRANCH  32  33
BRANCH  32  39
ATOM     39  C   UNL A   1     -25.387  -0.679  31.571  0.00  0.00    +0.077 C 
ATOM     40  C   UNL A   1     -25.189   0.773  32.028  0.00  0.00    +0.019 C 
ATOM     41  C   UNL A   1     -25.336   0.684  33.544  0.00  0.00    +0.020 C 
ATOM     42  C   UNL A   1     -24.829  -0.715  33.905  0.00  0.00    +0.089 C 
ATOM     43  N   UNL A   1     -24.758  -1.481  32.646  0.00  0.00    -0.219 NA
ENDBRANCH  32  39
ENDBRANCH   6  32
TORSDOF 12
