REMARK  Name = outputs/IAG933/test6/raw/output_7450_IAG933_linker_design_.xyz
REMARK  14 active torsions:
REMARK  status: ('A' for Active; 'I' for Inactive)
REMARK    1  A    between atoms: C_1  and  C_2
REMARK    2  A    between atoms: C_1  and  C_8
REMARK    3  A    between atoms: C_1  and  N_44
REMARK    4  A    between atoms: C_13  and  C_35
REMARK    5  A    between atoms: C_14  and  C_15
REMARK    6  A    between atoms: C_15  and  O_18
REMARK    7  A    between atoms: O_18  and  C_43
REMARK    8  A    between atoms: C_21  and  O_22
REMARK    9  A    between atoms: O_22  and  C_23
REMARK   10  A    between atoms: C_23  and  C_24
REMARK   11  A    between atoms: C_29  and  C_45
REMARK   12  A    between atoms: N_30  and  C_33
REMARK   13  A    between atoms: C_35  and  C_45
REMARK   14  A    between atoms: C_39  and  C_43
REMARK                            x       y       z     vdW  Elec       q    Type
REMARK                         _______ _______ _______ _____ _____    ______ ____
ROOT
ATOM      1  C   UNL A   1     -25.688   1.614  26.461  0.00  0.00    +0.070 C 
ATOM      2  C   UNL A   1     -26.250   2.920  26.395  0.00  0.00    +0.053 C 
ATOM      3  C   UNL A   1     -27.438   3.091  25.645  0.00  0.00    +0.102 C 
ATOM      4  N   UNL A   1     -28.075   2.089  25.003  0.00  0.00    -0.212 NA
ATOM      5  C   UNL A   1     -27.543   0.849  25.079  0.00  0.00    +0.234 C 
ATOM      6  C   UNL A   1     -26.354   0.576  25.777  0.00  0.00    +0.240 C 
ATOM      7  F   UNL A   1     -25.860  -0.681  25.795  0.00  0.00    -0.227 F 
ENDROOT
BRANCH   2   8
ATOM      8  C   UNL A   1     -25.642   4.093  27.123  0.00  0.00    +0.218 C 
ATOM      9  N   UNL A   1     -25.614   5.252  26.449  0.00  0.00    -0.236 NA
ATOM     10  C   UNL A   1     -25.026   6.479  26.963  0.00  0.00    +0.155 C 
BRANCH   8  11
ATOM     11  O   UNL A   1     -25.143   3.966  28.243  0.00  0.00    -0.456 OA
BRANCH  11  12
ATOM     12  C   UNL A   1     -25.268   4.202  29.578  0.00  0.00    +0.234 C 
BRANCH  12  16
ATOM     13  C   UNL A   1     -27.616   4.022  29.822  0.00  0.00    +0.001 C 
ATOM     14  C   UNL A   1     -26.754   6.254  29.843  0.00  0.00    +0.001 C 
ATOM     15  C   UNL A   1     -29.038   5.876  29.284  0.00  0.00    +0.085 C 
ATOM     16  C   UNL A   1     -26.554   4.878  29.825  0.00  0.00    +0.021 C 
ATOM     17  C   UNL A   1     -28.834   4.567  29.566  0.00  0.00    +0.019 C 
ATOM     18  C   UNL A   1     -28.017   6.759  29.585  0.00  0.00    +0.019 C 
BRANCH  15  19
ATOM     19  N   UNL A   1     -30.150   6.030  28.516  0.00  0.00    -0.205 N 
ATOM     20  O   UNL A   1     -30.007   6.466  27.382  0.00  0.00    -0.084 OA
ATOM     21  C   UNL A   1     -31.331   5.450  28.899  0.00  0.00    +0.162 C 
ENDBRANCH  15  19
ENDBRANCH  12  16
ENDBRANCH  11  12
ENDBRANCH   8  11
ENDBRANCH   2   8
BRANCH   5  22
ATOM     22  O   UNL A   1     -28.193  -0.208  24.477  0.00  0.00    -0.459 OA
BRANCH  22  23
ATOM     23  C   UNL A   1     -29.460   0.005  23.866  0.00  0.00    +0.242 C 
BRANCH  23  24
ATOM     24  C   UNL A   1     -30.065  -1.377  23.573  0.00  0.00    +0.229 C 
ATOM     25  O   UNL A   1     -30.729  -1.878  24.721  0.00  0.00    -0.216 OA
ENDBRANCH  23  24
ENDBRANCH  22  23
ENDBRANCH   5  22
BRANCH   1  26
ATOM     26  C   UNL A   1     -24.246   1.276  26.239  0.00  0.00    +0.011 C 
BRANCH  26  27
ATOM     27  C   UNL A   1     -23.114   2.101  26.810  0.00  0.00    +0.042 C 
BRANCH  27  29
ATOM     28  C   UNL A   1     -22.656  -0.409  29.793  0.00  0.00    +0.189 C 
ATOM     29  C   UNL A   1     -22.968   1.961  28.321  0.00  0.00    +0.222 C 
ATOM     30  O   UNL A   1     -24.063   1.361  29.171  0.00  0.00    -0.249 OA
ATOM     31  O   UNL A   1     -20.547   1.656  27.680  0.00  0.00    -0.270 OA
ATOM     32  C   UNL A   1     -21.563   1.272  28.365  0.00  0.00    +0.277 C 
ATOM     33  N   UNL A   1     -21.593   0.276  29.232  0.00  0.00    -0.155 NA
ATOM     34  N   UNL A   1     -23.852  -0.048  29.695  0.00  0.00    -0.217 N 
BRANCH  34  35
ATOM     35  C   UNL A   1     -24.855  -1.012  30.143  0.00  0.00    +0.149 C 
BRANCH  35  36
ATOM     36  C   UNL A   1     -24.973  -2.505  29.788  0.00  0.00    +0.002 C 
ATOM     37  C   UNL A   1     -23.906  -3.173  29.146  0.00  0.00    -0.002 C 
ATOM     38  C   UNL A   1     -23.989  -4.549  28.853  0.00  0.00    -0.000 C 
ATOM     39  C   UNL A   1     -25.137  -5.280  29.205  0.00  0.00    -0.000 C 
ATOM     40  C   UNL A   1     -26.232  -4.611  29.784  0.00  0.00    -0.000 C 
ATOM     41  C   UNL A   1     -26.155  -3.232  30.065  0.00  0.00    -0.002 C 
ENDBRANCH  35  36
BRANCH  35  42
ATOM     42  C   UNL A   1     -25.387  -0.679  31.571  0.00  0.00    +0.100 C 
ATOM     43  C   UNL A   1     -25.189   0.773  32.028  0.00  0.00    +0.021 C 
ATOM     44  C   UNL A   1     -25.336   0.684  33.544  0.00  0.00    +0.020 C 
ATOM     45  C   UNL A   1     -24.829  -0.715  33.905  0.00  0.00    +0.089 C 
ATOM     46  N   UNL A   1     -24.758  -1.481  32.646  0.00  0.00    -0.217 NA
ENDBRANCH  35  42
ENDBRANCH  34  35
ENDBRANCH  27  29
ENDBRANCH  26  27
ENDBRANCH   1  26
TORSDOF 14
