REMARK  Name = outputs/IAG933/test6/raw/output_7455_IAG933_linker_design_.xyz
REMARK  16 active torsions:
REMARK  status: ('A' for Active; 'I' for Inactive)
REMARK    1  A    between atoms: C_1  and  C_2
REMARK    2  A    between atoms: C_1  and  C_8
REMARK    3  A    between atoms: C_1  and  N_52
REMARK    4  A    between atoms: C_14  and  C_15
REMARK    5  A    between atoms: C_15  and  O_18
REMARK    6  A    between atoms: O_18  and  C_43
REMARK    7  A    between atoms: C_21  and  O_22
REMARK    8  A    between atoms: O_22  and  C_23
REMARK    9  A    between atoms: C_23  and  C_24
REMARK   10  A    between atoms: C_28  and  C_47
REMARK   11  A    between atoms: C_29  and  C_43
REMARK   12  A    between atoms: C_29  and  C_56
REMARK   13  A    between atoms: C_29  and  C_57
REMARK   14  A    between atoms: O_30  and  C_41
REMARK   15  A    between atoms: C_39  and  O_54
REMARK   16  A    between atoms: C_43  and  O_54
REMARK                            x       y       z     vdW  Elec       q    Type
REMARK                         _______ _______ _______ _____ _____    ______ ____
ROOT
ATOM      1  C   UNL A   1     -25.438   3.569  29.751  0.00  0.00    +0.293 C 
ENDROOT
BRANCH   1   2
ATOM      2  C   UNL A   1     -26.981   4.137  30.218  0.00  0.00    +0.093 C 
BRANCH   2  13
ATOM      3  C   UNL A   1     -29.226   8.081  35.295  0.00  0.00    +0.019 C 
ATOM      4  C   UNL A   1     -28.993   4.331  34.471  0.00  0.00    +0.001 C 
ATOM      5  C   UNL A   1     -27.893   3.811  32.268  0.00  0.00    +0.001 C 
ATOM      6  C   UNL A   1     -26.407   6.190  33.512  0.00  0.00    +0.077 C 
ATOM      7  C   UNL A   1     -25.080   6.206  31.803  0.00  0.00    +0.118 C 
ATOM      8  C   UNL A   1     -26.555   5.998  31.978  0.00  0.00    +0.044 C 
ATOM      9  C   UNL A   1     -28.842   6.801  34.398  0.00  0.00    +0.073 C 
ATOM     10  N   UNL A   1     -27.710   6.427  33.863  0.00  0.00    -0.221 NA
ATOM     11  C   UNL A   1     -29.229   5.796  34.151  0.00  0.00    +0.017 C 
ATOM     12  C   UNL A   1     -27.799   3.804  33.608  0.00  0.00    +0.000 C 
ATOM     13  C   UNL A   1     -27.175   4.550  31.533  0.00  0.00    +0.014 C 
ATOM     14  C   UNL A   1     -25.238   7.178  33.117  0.00  0.00    +0.047 C 
BRANCH   7  15
ATOM     15  O   UNL A   1     -24.361   5.085  32.255  0.00  0.00    -0.353 OA
ATOM     16  C   UNL A   1     -23.527   5.305  33.356  0.00  0.00    +0.174 C 
ENDBRANCH   7  15
ENDBRANCH   2  13
BRANCH   2  21
ATOM     17  C   UNL A   1     -28.794   1.489  30.018  0.00  0.00    -0.000 C 
ATOM     18  C   UNL A   1     -27.881   2.620  30.175  0.00  0.00    -0.004 C 
ATOM     19  C   UNL A   1     -30.112   2.949  28.747  0.00  0.00    -0.000 C 
ATOM     20  C   UNL A   1     -29.107   3.934  28.898  0.00  0.00    -0.004 C 
ATOM     21  C   UNL A   1     -27.971   3.582  29.663  0.00  0.00    -0.016 C 
ATOM     22  C   UNL A   1     -29.928   1.624  29.272  0.00  0.00    -0.000 C 
ENDBRANCH   2  21
ENDBRANCH   1   2
BRANCH   1  23
ATOM     23  O   UNL A   1     -25.143   3.966  28.243  0.00  0.00    -0.436 OA
BRANCH  23  24
ATOM     24  C   UNL A   1     -25.642   4.093  27.123  0.00  0.00    +0.224 C 
ATOM     25  N   UNL A   1     -25.614   5.252  26.449  0.00  0.00    -0.236 NA
ATOM     26  C   UNL A   1     -25.026   6.479  26.963  0.00  0.00    +0.155 C 
BRANCH  24  28
ATOM     27  C   UNL A   1     -25.688   1.614  26.461  0.00  0.00    +0.041 C 
ATOM     28  C   UNL A   1     -26.250   2.920  26.395  0.00  0.00    +0.074 C 
ATOM     29  C   UNL A   1     -27.438   3.091  25.645  0.00  0.00    +0.107 C 
ATOM     30  N   UNL A   1     -28.075   2.089  25.003  0.00  0.00    -0.208 NA
ATOM     31  C   UNL A   1     -27.543   0.849  25.079  0.00  0.00    +0.253 C 
ATOM     32  C   UNL A   1     -26.354   0.576  25.777  0.00  0.00    +0.193 C 
ATOM     33  F   UNL A   1     -25.860  -0.681  25.795  0.00  0.00    -0.199 F 
BRANCH  31  34
ATOM     34  O   UNL A   1     -28.193  -0.208  24.477  0.00  0.00    -0.456 OA
BRANCH  34  35
ATOM     35  C   UNL A   1     -29.460   0.005  23.866  0.00  0.00    +0.243 C 
BRANCH  35  36
ATOM     36  C   UNL A   1     -30.065  -1.377  23.573  0.00  0.00    +0.229 C 
ATOM     37  O   UNL A   1     -30.729  -1.878  24.721  0.00  0.00    -0.216 OA
ENDBRANCH  35  36
ENDBRANCH  34  35
ENDBRANCH  31  34
ENDBRANCH  24  28
ENDBRANCH  23  24
ENDBRANCH   1  23
BRANCH   1  38
ATOM     38  O   UNL A   1     -24.130   2.645  29.261  0.00  0.00    -0.315 OA
BRANCH  38  41
ATOM     39  C   UNL A   1     -22.438   1.137  28.620  0.00  0.00    +0.224 C 
ATOM     40  O   UNL A   1     -21.125   1.153  28.227  0.00  0.00    -0.340 OA
ATOM     41  C   UNL A   1     -23.236   2.136  28.225  0.00  0.00    +0.177 C 
ATOM     42  C   UNL A   1     -20.704   1.858  27.081  0.00  0.00    +0.169 C 
ATOM     43  C   UNL A   1     -22.957   2.679  26.956  0.00  0.00    +0.004 C 
ATOM     44  C   UNL A   1     -21.719   2.468  26.379  0.00  0.00    +0.004 C 
BRANCH  39  46
ATOM     45  O   UNL A   1     -22.287  -0.324  30.220  0.00  0.00    -0.271 OA
ATOM     46  C   UNL A   1     -23.074   0.212  29.433  0.00  0.00    +0.272 C 
ATOM     47  N   UNL A   1     -24.381  -0.017  29.454  0.00  0.00    -0.199 NA
BRANCH  47  48
ATOM     48  C   UNL A   1     -24.855  -1.012  30.143  0.00  0.00    +0.133 C 
BRANCH  48  49
ATOM     49  C   UNL A   1     -24.973  -2.505  29.788  0.00  0.00    -0.001 C 
ATOM     50  C   UNL A   1     -23.906  -3.173  29.146  0.00  0.00    -0.003 C 
ATOM     51  C   UNL A   1     -23.989  -4.549  28.853  0.00  0.00    -0.000 C 
ATOM     52  C   UNL A   1     -25.137  -5.280  29.205  0.00  0.00    -0.000 C 
ATOM     53  C   UNL A   1     -26.232  -4.611  29.784  0.00  0.00    -0.000 C 
ATOM     54  C   UNL A   1     -26.155  -3.232  30.065  0.00  0.00    -0.003 C 
ENDBRANCH  48  49
BRANCH  48  55
ATOM     55  C   UNL A   1     -25.387  -0.679  31.571  0.00  0.00    +0.097 C 
ATOM     56  C   UNL A   1     -25.189   0.773  32.028  0.00  0.00    +0.021 C 
ATOM     57  C   UNL A   1     -25.336   0.684  33.544  0.00  0.00    +0.020 C 
ATOM     58  C   UNL A   1     -24.829  -0.715  33.905  0.00  0.00    +0.089 C 
ATOM     59  N   UNL A   1     -24.758  -1.481  32.646  0.00  0.00    -0.217 NA
ENDBRANCH  48  55
ENDBRANCH  47  48
ENDBRANCH  39  46
ENDBRANCH  38  41
ENDBRANCH   1  38
TORSDOF 16
