MODEL 745
MODEL 1
REMARK VINA RESULT:    -4.274      0.000      0.000
REMARK INTER + INTRA:          -4.274
REMARK INTER:                  -4.274
REMARK INTRA:                   0.000
REMARK UNBOUND:                 0.000
REMARK  Name = No_745-gen_results/8p0m/2024-11-27-11-27-31/
REMARK  0 active torsions:
REMARK  status: ('A' for Active; 'I' for Inactive)
REMARK                            x       y       z     vdW  Elec       q    Type
REMARK                         _______ _______ _______ _____ _____    ______ ____
ROOT
ATOM      1  C   UNL A   1     -26.070  -4.859  29.654  0.00  0.00    +0.000 A 
ATOM      2  C   UNL A   1     -26.214  -3.660  29.713  0.00  0.00    +0.000 A 
ATOM      3  C   UNL A   1     -25.251  -2.754  29.314  0.00  0.00    +0.000 A 
ATOM      4  C   UNL A   1     -24.040  -3.265  28.769  0.00  0.00    +0.000 A 
ATOM      5  C   UNL A   1     -23.996  -4.602  28.567  0.00  0.00    +0.000 A 
ATOM      6  C   UNL A   1     -24.984  -5.391  28.943  0.00  0.00    +0.000 A 
ENDROOT
TORSDOF 0
ENDMDL
ENDMDL
