REMARK  Name = outputs/IAG933/test6/raw/output_7460_IAG933_linker_design_.xyz
REMARK  14 active torsions:
REMARK  status: ('A' for Active; 'I' for Inactive)
REMARK    1  A    between atoms: C_1  and  C_2
REMARK    2  A    between atoms: C_1  and  C_8
REMARK    3  A    between atoms: C_1  and  C_38
REMARK    4  A    between atoms: C_13  and  C_35
REMARK    5  A    between atoms: C_14  and  C_15
REMARK    6  A    between atoms: C_21  and  O_22
REMARK    7  A    between atoms: O_22  and  C_23
REMARK    8  A    between atoms: C_23  and  C_24
REMARK    9  A    between atoms: C_29  and  C_34
REMARK   10  A    between atoms: N_32  and  C_34
REMARK   11  A    between atoms: N_32  and  C_38
REMARK   12  A    between atoms: C_35  and  C_36
REMARK   13  A    between atoms: C_35  and  C_38
REMARK   14  A    between atoms: C_36  and  C_40
REMARK                            x       y       z     vdW  Elec       q    Type
REMARK                         _______ _______ _______ _____ _____    ______ ____
ROOT
ATOM      1  C   UNL A   1     -25.382   0.034  28.967  0.00  0.00    +0.079 C 
ENDROOT
BRANCH   1   2
ATOM      2  C   UNL A   1     -24.855  -1.012  30.143  0.00  0.00    +0.054 C 
BRANCH   2   3
ATOM      3  C   UNL A   1     -24.973  -2.505  29.788  0.00  0.00    -0.020 C 
ATOM      4  C   UNL A   1     -23.906  -3.173  29.146  0.00  0.00    -0.004 C 
ATOM      5  C   UNL A   1     -23.989  -4.549  28.853  0.00  0.00    -0.000 C 
ATOM      6  C   UNL A   1     -25.137  -5.280  29.205  0.00  0.00    -0.000 C 
ATOM      7  C   UNL A   1     -26.232  -4.611  29.784  0.00  0.00    -0.000 C 
ATOM      8  C   UNL A   1     -26.155  -3.232  30.065  0.00  0.00    -0.004 C 
ENDBRANCH   2   3
BRANCH   2   9
ATOM      9  C   UNL A   1     -25.387  -0.679  31.571  0.00  0.00    +0.078 C 
ATOM     10  C   UNL A   1     -25.189   0.773  32.028  0.00  0.00    +0.019 C 
ATOM     11  C   UNL A   1     -25.336   0.684  33.544  0.00  0.00    +0.020 C 
ATOM     12  C   UNL A   1     -24.829  -0.715  33.905  0.00  0.00    +0.089 C 
ATOM     13  N   UNL A   1     -24.758  -1.481  32.646  0.00  0.00    -0.219 NA
ENDBRANCH   2   9
ENDBRANCH   1   2
BRANCH   1  14
ATOM     14  N   UNL A   1     -26.533  -0.662  28.327  0.00  0.00    -0.219 NA
BRANCH  14  15
ATOM     15  C   UNL A   1     -27.627  -0.873  28.829  0.00  0.00    +0.090 C 
BRANCH  15  17
ATOM     16  N   UNL A   1     -29.080   2.209  30.034  0.00  0.00    -0.189 NA
ATOM     17  C   UNL A   1     -28.816   0.027  28.828  0.00  0.00    +0.039 C 
ATOM     18  O   UNL A   1     -28.441   1.172  31.913  0.00  0.00    -0.204 OA
ATOM     19  C   UNL A   1     -29.490   1.177  30.929  0.00  0.00    +0.226 C 
ATOM     20  C   UNL A   1     -29.646  -0.130  30.109  0.00  0.00    +0.054 C 
ATOM     21  C   UNL A   1     -28.494   1.552  28.840  0.00  0.00    +0.093 C 
ENDBRANCH  15  17
ENDBRANCH  14  15
ENDBRANCH   1  14
BRANCH   1  22
ATOM     22  C   UNL A   1     -25.037   1.026  27.741  0.00  0.00    +0.024 C 
BRANCH  22  23
ATOM     23  C   UNL A   1     -25.688   1.614  26.461  0.00  0.00    +0.071 C 
ATOM     24  C   UNL A   1     -26.250   2.920  26.395  0.00  0.00    +0.055 C 
ATOM     25  C   UNL A   1     -27.438   3.091  25.645  0.00  0.00    +0.102 C 
ATOM     26  N   UNL A   1     -28.075   2.089  25.003  0.00  0.00    -0.212 NA
ATOM     27  C   UNL A   1     -27.543   0.849  25.079  0.00  0.00    +0.234 C 
ATOM     28  C   UNL A   1     -26.354   0.576  25.777  0.00  0.00    +0.240 C 
ATOM     29  F   UNL A   1     -25.860  -0.681  25.795  0.00  0.00    -0.227 F 
BRANCH  24  30
ATOM     30  C   UNL A   1     -25.642   4.093  27.123  0.00  0.00    +0.262 C 
ATOM     31  N   UNL A   1     -25.614   5.252  26.449  0.00  0.00    -0.200 NA
ATOM     32  C   UNL A   1     -25.026   6.479  26.963  0.00  0.00    +0.139 C 
ATOM     33  O   UNL A   1     -25.143   3.966  28.243  0.00  0.00    -0.269 OA
ENDBRANCH  24  30
BRANCH  27  34
ATOM     34  O   UNL A   1     -28.193  -0.208  24.477  0.00  0.00    -0.459 OA
BRANCH  34  35
ATOM     35  C   UNL A   1     -29.460   0.005  23.866  0.00  0.00    +0.242 C 
BRANCH  35  36
ATOM     36  C   UNL A   1     -30.065  -1.377  23.573  0.00  0.00    +0.229 C 
ATOM     37  O   UNL A   1     -30.729  -1.878  24.721  0.00  0.00    -0.216 OA
ENDBRANCH  35  36
ENDBRANCH  34  35
ENDBRANCH  27  34
ENDBRANCH  22  23
BRANCH  22  38
ATOM     38  C   UNL A   1     -23.593   1.008  27.248  0.00  0.00    +0.002 C 
BRANCH  38  40
ATOM     39  C   UNL A   1     -21.134   1.546  27.528  0.00  0.00    +0.000 C 
ATOM     40  C   UNL A   1     -22.519   1.508  28.253  0.00  0.00    +0.000 C 
ENDBRANCH  38  40
ENDBRANCH  22  38
ENDBRANCH   1  22
TORSDOF 14
