REMARK  Name = outputs/IAG933/test6/raw/output_7462_IAG933_linker_design_.xyz
REMARK  8 active torsions:
REMARK  status: ('A' for Active; 'I' for Inactive)
REMARK    1  A    between atoms: C_1  and  C_2
REMARK    2  A    between atoms: C_1  and  C_8
REMARK    3  A    between atoms: C_1  and  C_30
REMARK    4  A    between atoms: C_13  and  C_33
REMARK    5  A    between atoms: C_14  and  C_15
REMARK    6  A    between atoms: C_21  and  O_22
REMARK    7  A    between atoms: O_22  and  C_23
REMARK    8  A    between atoms: C_23  and  C_24
REMARK                            x       y       z     vdW  Elec       q    Type
REMARK                         _______ _______ _______ _____ _____    ______ ____
ROOT
ATOM      1  O   UNL A   1     -26.025   0.043  28.416  0.00  0.00    -0.274 OA
ATOM      2  C   UNL A   1     -23.437   1.248  28.090  0.00  0.00    +0.143 C 
ATOM      3  C   UNL A   1     -24.941  -0.202  28.894  0.00  0.00    +0.233 C 
ATOM      4  C   UNL A   1     -21.845   1.606  27.869  0.00  0.00    +0.195 C 
ATOM      5  C   UNL A   1     -22.055  -0.475  29.083  0.00  0.00    +0.234 C 
ATOM      6  C   UNL A   1     -24.310   1.329  26.910  0.00  0.00    +0.158 C 
ATOM      7  N   UNL A   1     -23.535  -0.093  28.670  0.00  0.00    -0.251 N 
ATOM      8  N   UNL A   1     -23.399   1.245  25.732  0.00  0.00    -0.088 N 
ATOM      9  C   UNL A   1     -22.667   2.326  25.942  0.00  0.00    +0.432 C 
ATOM     10  O   UNL A   1     -21.514   2.008  26.679  0.00  0.00    -0.435 OA
ATOM     11  F   UNL A   1     -23.993   0.974  24.546  0.00  0.00    -0.103 F 
ATOM     12  O   UNL A   1     -22.047  -0.281  30.512  0.00  0.00    -0.201 OA
ATOM     13  O   UNL A   1     -22.991   3.445  25.663  0.00  0.00    -0.224 OA
ATOM     14  C   UNL A   1     -21.085   0.322  28.195  0.00  0.00    +0.100 C 
ENDROOT
BRANCH   6  15
ATOM     15  C   UNL A   1     -25.688   1.614  26.461  0.00  0.00    +0.038 C 
ATOM     16  C   UNL A   1     -26.250   2.920  26.395  0.00  0.00    +0.074 C 
ATOM     17  C   UNL A   1     -27.438   3.091  25.645  0.00  0.00    +0.106 C 
ATOM     18  N   UNL A   1     -28.075   2.089  25.003  0.00  0.00    -0.208 NA
ATOM     19  C   UNL A   1     -27.543   0.849  25.079  0.00  0.00    +0.253 C 
ATOM     20  C   UNL A   1     -26.354   0.576  25.777  0.00  0.00    +0.191 C 
ATOM     21  F   UNL A   1     -25.860  -0.681  25.795  0.00  0.00    -0.200 F 
BRANCH  16  22
ATOM     22  C   UNL A   1     -25.642   4.093  27.123  0.00  0.00    +0.266 C 
ATOM     23  N   UNL A   1     -25.614   5.252  26.449  0.00  0.00    -0.200 NA
ATOM     24  C   UNL A   1     -25.026   6.479  26.963  0.00  0.00    +0.139 C 
ATOM     25  O   UNL A   1     -25.143   3.966  28.243  0.00  0.00    -0.268 OA
ENDBRANCH  16  22
BRANCH  19  26
ATOM     26  O   UNL A   1     -28.193  -0.208  24.477  0.00  0.00    -0.456 OA
BRANCH  26  27
ATOM     27  C   UNL A   1     -29.460   0.005  23.866  0.00  0.00    +0.243 C 
BRANCH  27  28
ATOM     28  C   UNL A   1     -30.065  -1.377  23.573  0.00  0.00    +0.229 C 
ATOM     29  O   UNL A   1     -30.729  -1.878  24.721  0.00  0.00    -0.216 OA
ENDBRANCH  27  28
ENDBRANCH  26  27
ENDBRANCH  19  26
ENDBRANCH   6  15
BRANCH   3  30
ATOM     30  C   UNL A   1     -24.855  -1.012  30.143  0.00  0.00    +0.115 C 
BRANCH  30  31
ATOM     31  C   UNL A   1     -24.973  -2.505  29.788  0.00  0.00    -0.013 C 
ATOM     32  C   UNL A   1     -23.906  -3.173  29.146  0.00  0.00    -0.004 C 
ATOM     33  C   UNL A   1     -23.989  -4.549  28.853  0.00  0.00    -0.000 C 
ATOM     34  C   UNL A   1     -25.137  -5.280  29.205  0.00  0.00    -0.000 C 
ATOM     35  C   UNL A   1     -26.232  -4.611  29.784  0.00  0.00    -0.000 C 
ATOM     36  C   UNL A   1     -26.155  -3.232  30.065  0.00  0.00    -0.004 C 
ENDBRANCH  30  31
BRANCH  30  37
ATOM     37  C   UNL A   1     -25.387  -0.679  31.571  0.00  0.00    +0.086 C 
ATOM     38  C   UNL A   1     -25.189   0.773  32.028  0.00  0.00    +0.020 C 
ATOM     39  C   UNL A   1     -25.336   0.684  33.544  0.00  0.00    +0.020 C 
ATOM     40  C   UNL A   1     -24.829  -0.715  33.905  0.00  0.00    +0.089 C 
ATOM     41  N   UNL A   1     -24.758  -1.481  32.646  0.00  0.00    -0.219 NA
ENDBRANCH  30  37
ENDBRANCH   3  30
TORSDOF 8
