REMARK  Name = outputs/IAG933/test6/raw/output_7467_IAG933_linker_design_.xyz
REMARK  12 active torsions:
REMARK  status: ('A' for Active; 'I' for Inactive)
REMARK    1  A    between atoms: C_1  and  C_2
REMARK    2  A    between atoms: C_1  and  C_8
REMARK    3  A    between atoms: C_1  and  N_42
REMARK    4  A    between atoms: C_13  and  C_38
REMARK    5  A    between atoms: C_14  and  C_15
REMARK    6  A    between atoms: C_15  and  O_18
REMARK    7  A    between atoms: O_18  and  C_39
REMARK    8  A    between atoms: C_21  and  O_22
REMARK    9  A    between atoms: O_22  and  C_23
REMARK   10  A    between atoms: C_23  and  C_24
REMARK   11  A    between atoms: C_28  and  C_30
REMARK   12  A    between atoms: C_39  and  C_47
REMARK                            x       y       z     vdW  Elec       q    Type
REMARK                         _______ _______ _______ _____ _____    ______ ____
ROOT
ATOM      1  C   UNL A   1     -25.688   1.614  26.461  0.00  0.00    +0.075 C 
ATOM      2  C   UNL A   1     -26.250   2.920  26.395  0.00  0.00    +0.077 C 
ATOM      3  C   UNL A   1     -27.438   3.091  25.645  0.00  0.00    +0.107 C 
ATOM      4  N   UNL A   1     -28.075   2.089  25.003  0.00  0.00    -0.208 NA
ATOM      5  C   UNL A   1     -27.543   0.849  25.079  0.00  0.00    +0.253 C 
ATOM      6  C   UNL A   1     -26.354   0.576  25.777  0.00  0.00    +0.196 C 
ATOM      7  F   UNL A   1     -25.860  -0.681  25.795  0.00  0.00    -0.199 F 
ENDROOT
BRANCH   1  12
ATOM      8  O   UNL A   1     -21.084   2.435  27.549  0.00  0.00    -0.286 OA
ATOM      9  C   UNL A   1     -22.858  -0.014  29.355  0.00  0.00    +0.143 C 
ATOM     10  O   UNL A   1     -24.874   0.603  28.303  0.00  0.00    -0.400 OA
ATOM     11  C   UNL A   1     -22.167   1.653  27.666  0.00  0.00    +0.206 C 
ATOM     12  C   UNL A   1     -24.495   1.305  27.229  0.00  0.00    +0.181 C 
ATOM     13  C   UNL A   1     -21.961   0.742  28.702  0.00  0.00    +0.038 C 
ATOM     14  N   UNL A   1     -24.261  -0.038  29.236  0.00  0.00    -0.112 NA
ATOM     15 CL   UNL A   1     -22.894   2.334  25.271  0.00  0.00    -0.076 Cl
ATOM     16  C   UNL A   1     -23.239   1.726  26.868  0.00  0.00    +0.133 C 
BRANCH  14  17
ATOM     17  C   UNL A   1     -24.855  -1.012  30.143  0.00  0.00    +0.134 C 
BRANCH  17  18
ATOM     18  C   UNL A   1     -24.973  -2.505  29.788  0.00  0.00    -0.003 C 
ATOM     19  C   UNL A   1     -23.906  -3.173  29.146  0.00  0.00    -0.003 C 
ATOM     20  C   UNL A   1     -23.989  -4.549  28.853  0.00  0.00    -0.000 C 
ATOM     21  C   UNL A   1     -25.137  -5.280  29.205  0.00  0.00    -0.000 C 
ATOM     22  C   UNL A   1     -26.232  -4.611  29.784  0.00  0.00    -0.000 C 
ATOM     23  C   UNL A   1     -26.155  -3.232  30.065  0.00  0.00    -0.003 C 
ENDBRANCH  17  18
BRANCH  17  24
ATOM     24  C   UNL A   1     -25.387  -0.679  31.571  0.00  0.00    +0.095 C 
ATOM     25  C   UNL A   1     -25.189   0.773  32.028  0.00  0.00    +0.021 C 
ATOM     26  C   UNL A   1     -25.336   0.684  33.544  0.00  0.00    +0.020 C 
ATOM     27  C   UNL A   1     -24.829  -0.715  33.905  0.00  0.00    +0.089 C 
ATOM     28  N   UNL A   1     -24.758  -1.481  32.646  0.00  0.00    -0.218 NA
ENDBRANCH  17  24
ENDBRANCH  14  17
ENDBRANCH   1  12
BRANCH   2  29
ATOM     29  C   UNL A   1     -25.642   4.093  27.123  0.00  0.00    +0.222 C 
ATOM     30  N   UNL A   1     -25.614   5.252  26.449  0.00  0.00    -0.236 NA
ATOM     31  C   UNL A   1     -25.026   6.479  26.963  0.00  0.00    +0.155 C 
BRANCH  29  32
ATOM     32  O   UNL A   1     -25.143   3.966  28.243  0.00  0.00    -0.455 OA
BRANCH  32  33
ATOM     33  C   UNL A   1     -25.307   4.604  29.497  0.00  0.00    +0.234 C 
BRANCH  33  40
ATOM     34  C   UNL A   1     -27.595   5.352  30.249  0.00  0.00    +0.075 C 
ATOM     35  C   UNL A   1     -27.914   2.919  31.593  0.00  0.00    -0.001 C 
ATOM     36  C   UNL A   1     -26.733   3.171  30.917  0.00  0.00    -0.001 C 
ATOM     37  C   UNL A   1     -29.874   6.101  31.083  0.00  0.00    +0.031 C 
ATOM     38  C   UNL A   1     -28.779   5.087  30.947  0.00  0.00    -0.016 C 
ATOM     39  C   UNL A   1     -28.940   3.855  31.547  0.00  0.00    -0.004 C 
ATOM     40  C   UNL A   1     -26.587   4.363  30.189  0.00  0.00    +0.027 C 
BRANCH  34  41
ATOM     41  C   UNL A   1     -27.453   6.639  29.729  0.00  0.00    +0.387 C 
ATOM     42  O   UNL A   1     -28.363   6.978  28.898  0.00  0.00    -0.241 OA
ATOM     43  O   UNL A   1     -26.550   7.396  30.132  0.00  0.00    -0.241 OA
ENDBRANCH  34  41
ENDBRANCH  33  40
ENDBRANCH  32  33
ENDBRANCH  29  32
ENDBRANCH   2  29
BRANCH   5  44
ATOM     44  O   UNL A   1     -28.193  -0.208  24.477  0.00  0.00    -0.456 OA
BRANCH  44  45
ATOM     45  C   UNL A   1     -29.460   0.005  23.866  0.00  0.00    +0.243 C 
BRANCH  45  46
ATOM     46  C   UNL A   1     -30.065  -1.377  23.573  0.00  0.00    +0.229 C 
ATOM     47  O   UNL A   1     -30.729  -1.878  24.721  0.00  0.00    -0.216 OA
ENDBRANCH  45  46
ENDBRANCH  44  45
ENDBRANCH   5  44
TORSDOF 12
