REMARK  Name = outputs/IAG933/test6/raw/output_7469_IAG933_linker_design_.xyz
REMARK  10 active torsions:
REMARK  status: ('A' for Active; 'I' for Inactive)
REMARK    1  A    between atoms: C_1  and  C_2
REMARK    2  A    between atoms: C_1  and  C_8
REMARK    3  A    between atoms: C_1  and  C_39
REMARK    4  A    between atoms: C_9  and  C_33
REMARK    5  A    between atoms: C_13  and  C_30
REMARK    6  A    between atoms: C_14  and  C_15
REMARK    7  A    between atoms: C_21  and  O_22
REMARK    8  A    between atoms: O_22  and  C_23
REMARK    9  A    between atoms: C_23  and  C_24
REMARK   10  A    between atoms: C_28  and  C_39
REMARK                            x       y       z     vdW  Elec       q    Type
REMARK                         _______ _______ _______ _____ _____    ______ ____
ROOT
ATOM      1  C   UNL A   1     -24.855  -1.012  30.143  0.00  0.00    +0.043 C 
ENDROOT
BRANCH   1   2
ATOM      2  C   UNL A   1     -24.973  -2.505  29.788  0.00  0.00    -0.021 C 
ATOM      3  C   UNL A   1     -23.906  -3.173  29.146  0.00  0.00    -0.004 C 
ATOM      4  C   UNL A   1     -23.989  -4.549  28.853  0.00  0.00    -0.000 C 
ATOM      5  C   UNL A   1     -25.137  -5.280  29.205  0.00  0.00    -0.000 C 
ATOM      6  C   UNL A   1     -26.232  -4.611  29.784  0.00  0.00    -0.000 C 
ATOM      7  C   UNL A   1     -26.155  -3.232  30.065  0.00  0.00    -0.004 C 
ENDBRANCH   1   2
BRANCH   1   8
ATOM      8  C   UNL A   1     -25.387  -0.679  31.571  0.00  0.00    +0.081 C 
ATOM      9  C   UNL A   1     -25.189   0.773  32.028  0.00  0.00    +0.066 C 
ATOM     10  C   UNL A   1     -25.336   0.684  33.544  0.00  0.00    +0.024 C 
ATOM     11  C   UNL A   1     -24.829  -0.715  33.905  0.00  0.00    +0.089 C 
ATOM     12  N   UNL A   1     -24.758  -1.481  32.646  0.00  0.00    -0.219 NA
BRANCH   9  16
ATOM     13  N   UNL A   1     -26.392   2.985  31.821  0.00  0.00    -0.251 N 
ATOM     14  C   UNL A   1     -22.961   6.220  33.099  0.00  0.00    -0.022 C 
ATOM     15  O   UNL A   1     -28.469   3.652  30.871  0.00  0.00    -0.274 OA
ATOM     16  C   UNL A   1     -25.458   2.115  31.223  0.00  0.00    +0.210 C 
ATOM     17  C   UNL A   1     -26.086   5.455  32.748  0.00  0.00    -0.019 C 
ATOM     18  C   UNL A   1     -27.442   3.811  31.568  0.00  0.00    +0.232 C 
ATOM     19  C   UNL A   1     -27.412   4.990  32.405  0.00  0.00    +0.111 C 
ATOM     20  C   UNL A   1     -24.873   7.547  32.402  0.00  0.00    -0.001 C 
ATOM     21  C   UNL A   1     -25.971   6.780  32.658  0.00  0.00    -0.004 C 
ATOM     22  C   UNL A   1     -23.646   5.084  33.363  0.00  0.00    +0.049 C 
ATOM     23  C   UNL A   1     -25.177   3.342  32.373  0.00  0.00    +0.142 C 
ATOM     24  C   UNL A   1     -23.541   7.372  32.604  0.00  0.00    -0.004 C 
ATOM     25  O   UNL A   1     -24.398   2.548  30.350  0.00  0.00    -0.203 OA
ATOM     26  C   UNL A   1     -25.041   4.614  33.066  0.00  0.00    -0.021 C 
ENDBRANCH   9  16
ENDBRANCH   1   8
BRANCH   1  27
ATOM     27  C   UNL A   1     -24.970  -0.021  28.921  0.00  0.00    +0.032 C 
BRANCH  27  28
ATOM     28  C   UNL A   1     -23.951   0.830  28.099  0.00  0.00    -0.025 C 
ATOM     29  C   UNL A   1     -24.284   1.422  26.905  0.00  0.00    -0.019 C 
ATOM     30  C   UNL A   1     -22.003   1.965  26.407  0.00  0.00    -0.000 C 
ATOM     31  C   UNL A   1     -21.636   1.448  27.629  0.00  0.00    -0.000 C 
ATOM     32  C   UNL A   1     -22.605   0.913  28.454  0.00  0.00    -0.005 C 
ATOM     33  C   UNL A   1     -23.317   1.937  26.004  0.00  0.00    -0.004 C 
BRANCH  29  34
ATOM     34  C   UNL A   1     -25.688   1.614  26.461  0.00  0.00    +0.092 C 
ATOM     35  C   UNL A   1     -26.250   2.920  26.395  0.00  0.00    +0.059 C 
ATOM     36  C   UNL A   1     -27.438   3.091  25.645  0.00  0.00    +0.102 C 
ATOM     37  N   UNL A   1     -28.075   2.089  25.003  0.00  0.00    -0.212 NA
ATOM     38  C   UNL A   1     -27.543   0.849  25.079  0.00  0.00    +0.234 C 
ATOM     39  C   UNL A   1     -26.354   0.576  25.777  0.00  0.00    +0.244 C 
ATOM     40  F   UNL A   1     -25.860  -0.681  25.795  0.00  0.00    -0.227 F 
BRANCH  35  41
ATOM     41  C   UNL A   1     -25.642   4.093  27.123  0.00  0.00    +0.263 C 
ATOM     42  N   UNL A   1     -25.614   5.252  26.449  0.00  0.00    -0.200 NA
ATOM     43  C   UNL A   1     -25.026   6.479  26.963  0.00  0.00    +0.139 C 
ATOM     44  O   UNL A   1     -25.143   3.966  28.243  0.00  0.00    -0.269 OA
ENDBRANCH  35  41
BRANCH  38  45
ATOM     45  O   UNL A   1     -28.193  -0.208  24.477  0.00  0.00    -0.459 OA
BRANCH  45  46
ATOM     46  C   UNL A   1     -29.460   0.005  23.866  0.00  0.00    +0.242 C 
BRANCH  46  47
ATOM     47  C   UNL A   1     -30.065  -1.377  23.573  0.00  0.00    +0.229 C 
ATOM     48  O   UNL A   1     -30.729  -1.878  24.721  0.00  0.00    -0.216 OA
ENDBRANCH  46  47
ENDBRANCH  45  46
ENDBRANCH  38  45
ENDBRANCH  29  34
ENDBRANCH  27  28
ENDBRANCH   1  27
TORSDOF 10
