MODEL 746
MODEL 1
REMARK VINA RESULT:    -4.696      0.000      0.000
REMARK INTER + INTRA:          -4.696
REMARK INTER:                  -4.696
REMARK INTRA:                   0.000
REMARK UNBOUND:                 0.000
REMARK  Name = No_746-gen_results/8p0m/2024-11-27-11-27-31/
REMARK  0 active torsions:
REMARK  status: ('A' for Active; 'I' for Inactive)
REMARK                            x       y       z     vdW  Elec       q    Type
REMARK                         _______ _______ _______ _____ _____    ______ ____
ROOT
ATOM      1 CL   UNL A   1     -27.238  -4.699  30.062  0.00  0.00    -0.080 Cl
ATOM      2  C   UNL A   1     -26.147  -3.851  29.651  0.00  0.00    +0.087 A 
ATOM      3  C   UNL A   1     -26.142  -2.495  29.946  0.00  0.00    +0.044 A 
ATOM      4  C   UNL A   1     -24.952  -1.815  30.110  0.00  0.00    +0.152 A 
ATOM      5  C   UNL A   1     -23.793  -2.212  29.403  0.00  0.00    +0.087 A 
ATOM      6  C   UNL A   1     -23.842  -3.496  28.908  0.00  0.00    +0.044 A 
ATOM      7  C   UNL A   1     -24.927  -4.285  29.018  0.00  0.00    +0.152 A 
ATOM      8  F   UNL A   1     -24.964  -0.499  30.440  0.00  0.00    -0.203 F 
ATOM      9  F   UNL A   1     -24.896  -5.550  28.581  0.00  0.00    -0.203 F 
ATOM     10 CL   UNL A   1     -22.462  -1.129  29.294  0.00  0.00    -0.080 Cl
ENDROOT
TORSDOF 0
ENDMDL
ENDMDL
