REMARK  Name = outputs/IAG933/test6/raw/output_7471_IAG933_linker_design_.xyz
REMARK  13 active torsions:
REMARK  status: ('A' for Active; 'I' for Inactive)
REMARK    1  A    between atoms: C_1  and  C_2
REMARK    2  A    between atoms: C_1  and  C_8
REMARK    3  A    between atoms: C_1  and  N_37
REMARK    4  A    between atoms: C_13  and  C_38
REMARK    5  A    between atoms: C_14  and  C_15
REMARK    6  A    between atoms: C_21  and  O_22
REMARK    7  A    between atoms: O_22  and  C_23
REMARK    8  A    between atoms: C_23  and  C_24
REMARK    9  A    between atoms: O_31  and  C_44
REMARK   10  A    between atoms: C_33  and  N_37
REMARK   11  A    between atoms: N_37  and  C_47
REMARK   12  A    between atoms: N_39  and  C_46
REMARK   13  A    between atoms: C_46  and  C_48
REMARK                            x       y       z     vdW  Elec       q    Type
REMARK                         _______ _______ _______ _____ _____    ______ ____
ROOT
ATOM      1  N   UNL A   1     -25.236  -0.061  29.127  0.00  0.00    -0.263 NA
ENDROOT
BRANCH   1   5
ATOM      2  C   UNL A   1     -22.938   0.627  28.528  0.00  0.00    +0.165 C 
ATOM      3  F   UNL A   1     -21.075   1.879  27.671  0.00  0.00    -0.201 F 
ATOM      4  F   UNL A   1     -22.312  -0.112  29.439  0.00  0.00    -0.205 F 
ATOM      5  C   UNL A   1     -24.235   0.595  28.370  0.00  0.00    +0.135 C 
ATOM      6  C   UNL A   1     -24.483   1.467  27.122  0.00  0.00    +0.020 C 
ATOM      7  C   UNL A   1     -22.420   1.575  27.659  0.00  0.00    +0.181 C 
ATOM      8  N   UNL A   1     -23.179   3.036  25.742  0.00  0.00    -0.126 NA
ATOM      9  C   UNL A   1     -23.261   2.044  26.908  0.00  0.00    +0.116 C 
BRANCH   6  10
ATOM     10  C   UNL A   1     -25.688   1.614  26.461  0.00  0.00    +0.037 C 
ATOM     11  C   UNL A   1     -26.250   2.920  26.395  0.00  0.00    +0.076 C 
ATOM     12  C   UNL A   1     -27.438   3.091  25.645  0.00  0.00    +0.107 C 
ATOM     13  N   UNL A   1     -28.075   2.089  25.003  0.00  0.00    -0.208 NA
ATOM     14  C   UNL A   1     -27.543   0.849  25.079  0.00  0.00    +0.253 C 
ATOM     15  C   UNL A   1     -26.354   0.576  25.777  0.00  0.00    +0.193 C 
ATOM     16  F   UNL A   1     -25.860  -0.681  25.795  0.00  0.00    -0.199 F 
BRANCH  11  17
ATOM     17  C   UNL A   1     -25.642   4.093  27.123  0.00  0.00    +0.266 C 
ATOM     18  N   UNL A   1     -25.614   5.252  26.449  0.00  0.00    -0.200 NA
ATOM     19  C   UNL A   1     -25.026   6.479  26.963  0.00  0.00    +0.139 C 
ATOM     20  O   UNL A   1     -25.143   3.966  28.243  0.00  0.00    -0.268 OA
ENDBRANCH  11  17
BRANCH  14  21
ATOM     21  O   UNL A   1     -28.193  -0.208  24.477  0.00  0.00    -0.456 OA
BRANCH  21  22
ATOM     22  C   UNL A   1     -29.460   0.005  23.866  0.00  0.00    +0.243 C 
BRANCH  22  23
ATOM     23  C   UNL A   1     -30.065  -1.377  23.573  0.00  0.00    +0.229 C 
ATOM     24  O   UNL A   1     -30.729  -1.878  24.721  0.00  0.00    -0.216 OA
ENDBRANCH  22  23
ENDBRANCH  21  22
ENDBRANCH  14  21
ENDBRANCH   6  10
ENDBRANCH   1   5
BRANCH   1  26
ATOM     25  C   UNL A   1     -28.052   0.468  28.734  0.00  0.00    +0.019 C 
ATOM     26  C   UNL A   1     -26.679   0.308  29.054  0.00  0.00    +0.060 C 
ATOM     27  C   UNL A   1     -27.314   1.523  29.603  0.00  0.00    +0.032 C 
BRANCH  27  28
ATOM     28  C   UNL A   1     -28.173   1.595  30.948  0.00  0.00    +0.073 C 
BRANCH  28  31
ATOM     29  C   UNL A   1     -29.454   3.723  31.995  0.00  0.00    +0.060 C 
ATOM     30  C   UNL A   1     -30.061   4.799  31.400  0.00  0.00    +0.047 C 
ATOM     31  N   UNL A   1     -28.920   2.848  30.921  0.00  0.00    -0.272 NA
ATOM     32  C   UNL A   1     -29.221   3.372  29.735  0.00  0.00    +0.102 C 
ATOM     33  C   UNL A   1     -28.659   3.864  33.312  0.00  0.00    +0.017 C 
ATOM     34  C   UNL A   1     -29.635   4.635  30.023  0.00  0.00    +0.133 C 
BRANCH  34  35
ATOM     35  O   UNL A   1     -29.593   5.674  29.023  0.00  0.00    -0.352 OA
ATOM     36  C   UNL A   1     -30.010   5.309  27.676  0.00  0.00    +0.174 C 
ENDBRANCH  34  35
ENDBRANCH  28  31
ENDBRANCH  27  28
ENDBRANCH   1  26
BRANCH   1  37
ATOM     37  C   UNL A   1     -24.855  -1.012  30.143  0.00  0.00    +0.097 C 
BRANCH  37  38
ATOM     38  C   UNL A   1     -24.973  -2.505  29.788  0.00  0.00    -0.006 C 
ATOM     39  C   UNL A   1     -23.906  -3.173  29.146  0.00  0.00    -0.003 C 
ATOM     40  C   UNL A   1     -23.989  -4.549  28.853  0.00  0.00    -0.000 C 
ATOM     41  C   UNL A   1     -25.137  -5.280  29.205  0.00  0.00    -0.000 C 
ATOM     42  C   UNL A   1     -26.232  -4.611  29.784  0.00  0.00    -0.000 C 
ATOM     43  C   UNL A   1     -26.155  -3.232  30.065  0.00  0.00    -0.003 C 
ENDBRANCH  37  38
BRANCH  37  44
ATOM     44  C   UNL A   1     -25.387  -0.679  31.571  0.00  0.00    +0.092 C 
ATOM     45  C   UNL A   1     -25.189   0.773  32.028  0.00  0.00    +0.021 C 
ATOM     46  C   UNL A   1     -25.336   0.684  33.544  0.00  0.00    +0.020 C 
ATOM     47  C   UNL A   1     -24.829  -0.715  33.905  0.00  0.00    +0.089 C 
ATOM     48  N   UNL A   1     -24.758  -1.481  32.646  0.00  0.00    -0.218 NA
ENDBRANCH  37  44
ENDBRANCH   1  37
TORSDOF 13
