REMARK  Name = outputs/IAG933/test6/raw/output_7478_IAG933_linker_design_.xyz
REMARK  14 active torsions:
REMARK  status: ('A' for Active; 'I' for Inactive)
REMARK    1  A    between atoms: C_1  and  C_2
REMARK    2  A    between atoms: C_1  and  C_8
REMARK    3  A    between atoms: C_1  and  C_34
REMARK    4  A    between atoms: C_13  and  N_41
REMARK    5  A    between atoms: C_14  and  C_15
REMARK    6  A    between atoms: C_21  and  O_22
REMARK    7  A    between atoms: O_22  and  C_23
REMARK    8  A    between atoms: C_23  and  C_24
REMARK    9  A    between atoms: C_28  and  O_35
REMARK   10  A    between atoms: C_28  and  C_39
REMARK   11  A    between atoms: C_29  and  C_34
REMARK   12  A    between atoms: C_32  and  C_39
REMARK   13  A    between atoms: C_32  and  C_40
REMARK   14  A    between atoms: C_34  and  O_35
REMARK                            x       y       z     vdW  Elec       q    Type
REMARK                         _______ _______ _______ _____ _____    ______ ____
ROOT
ATOM      1  C   UNL A   1     -24.332   0.427  28.193  0.00  0.00    +0.119 C 
ATOM      2  N   UNL A   1     -22.249  -0.389  29.606  0.00  0.00    -0.131 NA
ATOM      3 CL   UNL A   1     -22.833   2.536  25.141  0.00  0.00    -0.093 Cl
ATOM      4  C   UNL A   1     -22.802   0.094  28.317  0.00  0.00    +0.115 C 
ATOM      5  C   UNL A   1     -23.184   1.782  26.666  0.00  0.00    +0.155 C 
ATOM      6  N   UNL A   1     -24.458   1.274  27.178  0.00  0.00    -0.292 N 
ATOM      7  C   UNL A   1     -22.033   1.200  27.601  0.00  0.00    +0.058 C 
ENDROOT
BRANCH   6   8
ATOM      8  C   UNL A   1     -25.688   1.614  26.461  0.00  0.00    +0.087 C 
ATOM      9  C   UNL A   1     -26.250   2.920  26.395  0.00  0.00    +0.090 C 
ATOM     10  C   UNL A   1     -27.438   3.091  25.645  0.00  0.00    +0.108 C 
ATOM     11  N   UNL A   1     -28.075   2.089  25.003  0.00  0.00    -0.208 NA
ATOM     12  C   UNL A   1     -27.543   0.849  25.079  0.00  0.00    +0.255 C 
ATOM     13  C   UNL A   1     -26.354   0.576  25.777  0.00  0.00    +0.206 C 
ATOM     14  F   UNL A   1     -25.860  -0.681  25.795  0.00  0.00    -0.198 F 
BRANCH   9  15
ATOM     15  C   UNL A   1     -25.642   4.093  27.123  0.00  0.00    +0.268 C 
ATOM     16  N   UNL A   1     -25.614   5.252  26.449  0.00  0.00    -0.200 NA
ATOM     17  C   UNL A   1     -25.026   6.479  26.963  0.00  0.00    +0.139 C 
ATOM     18  O   UNL A   1     -25.143   3.966  28.243  0.00  0.00    -0.268 OA
ENDBRANCH   9  15
BRANCH  12  19
ATOM     19  O   UNL A   1     -28.193  -0.208  24.477  0.00  0.00    -0.456 OA
BRANCH  19  20
ATOM     20  C   UNL A   1     -29.460   0.005  23.866  0.00  0.00    +0.243 C 
BRANCH  20  21
ATOM     21  C   UNL A   1     -30.065  -1.377  23.573  0.00  0.00    +0.229 C 
ATOM     22  O   UNL A   1     -30.729  -1.878  24.721  0.00  0.00    -0.216 OA
ENDBRANCH  20  21
ENDBRANCH  19  20
ENDBRANCH  12  19
ENDBRANCH   6   8
BRANCH   1  23
ATOM     23  C   UNL A   1     -25.491  -0.042  29.088  0.00  0.00    +0.140 C 
BRANCH  23  24
ATOM     24  C   UNL A   1     -24.855  -1.012  30.143  0.00  0.00    +0.067 C 
BRANCH  24  25
ATOM     25  C   UNL A   1     -24.973  -2.505  29.788  0.00  0.00    -0.019 C 
ATOM     26  C   UNL A   1     -23.906  -3.173  29.146  0.00  0.00    -0.004 C 
ATOM     27  C   UNL A   1     -23.989  -4.549  28.853  0.00  0.00    -0.000 C 
ATOM     28  C   UNL A   1     -25.137  -5.280  29.205  0.00  0.00    -0.000 C 
ATOM     29  C   UNL A   1     -26.232  -4.611  29.784  0.00  0.00    -0.000 C 
ATOM     30  C   UNL A   1     -26.155  -3.232  30.065  0.00  0.00    -0.004 C 
ENDBRANCH  24  25
BRANCH  24  31
ATOM     31  C   UNL A   1     -25.387  -0.679  31.571  0.00  0.00    +0.079 C 
ATOM     32  C   UNL A   1     -25.189   0.773  32.028  0.00  0.00    +0.019 C 
ATOM     33  C   UNL A   1     -25.336   0.684  33.544  0.00  0.00    +0.020 C 
ATOM     34  C   UNL A   1     -24.829  -0.715  33.905  0.00  0.00    +0.089 C 
ATOM     35  N   UNL A   1     -24.758  -1.481  32.646  0.00  0.00    -0.219 NA
ENDBRANCH  24  31
ENDBRANCH  23  24
BRANCH  23  36
ATOM     36  O   UNL A   1     -26.933   0.018  28.613  0.00  0.00    -0.354 OA
BRANCH  36  37
ATOM     37  C   UNL A   1     -28.273  -0.127  29.371  0.00  0.00    +0.143 C 
BRANCH  37  38
ATOM     38  C   UNL A   1     -29.415   0.715  28.780  0.00  0.00    +0.044 C 
BRANCH  38  39
ATOM     39  C   UNL A   1     -30.023  -0.151  27.622  0.00  0.00    +0.117 C 
BRANCH  39  42
ATOM     40  O   UNL A   1     -30.845  -1.629  29.326  0.00  0.00    -0.246 OA
ATOM     41  O   UNL A   1     -32.091  -1.387  27.589  0.00  0.00    -0.246 OA
ATOM     42  C   UNL A   1     -31.062  -1.092  28.216  0.00  0.00    +0.365 C 
ENDBRANCH  39  42
ENDBRANCH  38  39
ENDBRANCH  37  38
ENDBRANCH  36  37
ENDBRANCH  23  36
ENDBRANCH   1  23
TORSDOF 14
