MODEL 747
MODEL 1
REMARK VINA RESULT:    -4.124      0.000      0.000
REMARK INTER + INTRA:          -4.652
REMARK INTER:                  -4.606
REMARK INTRA:                  -0.046
REMARK UNBOUND:                -0.046
REMARK  Name = No_747-gen_results/8p0m/2024-11-27-11-27-31/
REMARK  2 active torsions:
REMARK  status: ('A' for Active; 'I' for Inactive)
REMARK    1  A    between atoms: C_1  and  C_2
REMARK    2  A    between atoms: C_3  and  C_4
REMARK                            x       y       z     vdW  Elec       q    Type
REMARK                         _______ _______ _______ _____ _____    ______ ____
ROOT
ATOM      1  C   UNL A   1      -8.903  -9.188  20.248  0.00  0.00    -0.026 C 
ATOM      2  C   UNL A   1      -9.886  -9.430  19.295  0.00  0.00    -0.005 C 
ENDROOT
BRANCH   1   3
ATOM      3  C   UNL A   1      -7.731  -9.187  19.950  0.00  0.00    +0.026 C 
ATOM      4  C   UNL A   1      -6.982  -7.998  19.645  0.00  0.00    +0.005 C 
ENDBRANCH   1   3
BRANCH   2   5
ATOM      5  C   UNL A   1      -9.542  -9.643  17.913  0.00  0.00    -0.000 C 
ATOM      6  C   UNL A   1      -9.464 -10.857  17.303  0.00  0.00    -0.000 C 
ENDBRANCH   2   5
TORSDOF 2
ENDMDL
ENDMDL
