REMARK  Name = outputs/IAG933/test6/raw/output_7480_IAG933_linker_design_.xyz
REMARK  16 active torsions:
REMARK  status: ('A' for Active; 'I' for Inactive)
REMARK    1  A    between atoms: C_1  and  C_2
REMARK    2  A    between atoms: C_1  and  C_8
REMARK    3  A    between atoms: C_1  and  C_37
REMARK    4  A    between atoms: C_13  and  C_31
REMARK    5  A    between atoms: C_14  and  C_15
REMARK    6  A    between atoms: C_21  and  O_22
REMARK    7  A    between atoms: O_22  and  C_23
REMARK    8  A    between atoms: C_23  and  C_24
REMARK    9  A    between atoms: C_28  and  O_29
REMARK   10  A    between atoms: C_28  and  N_42
REMARK   11  A    between atoms: C_31  and  C_35
REMARK   12  A    between atoms: C_31  and  C_39
REMARK   13  A    between atoms: N_34  and  C_37
REMARK   14  A    between atoms: C_35  and  C_36
REMARK   15  A    between atoms: C_37  and  C_39
REMARK   16  A    between atoms: C_39  and  N_42
REMARK                            x       y       z     vdW  Elec       q    Type
REMARK                         _______ _______ _______ _____ _____    ______ ____
ROOT
ATOM      1  C   UNL A   1     -24.343   0.739  28.362  0.00  0.00    +0.100 C 
ENDROOT
BRANCH   1   2
ATOM      2  N   UNL A   1     -23.089   1.065  28.856  0.00  0.00    -0.185 NA
BRANCH   2   3
ATOM      3  C   UNL A   1     -22.150   1.223  27.754  0.00  0.00    +0.279 C 
BRANCH   3   4
ATOM      4  O   UNL A   1     -21.143   2.133  27.451  0.00  0.00    -0.160 OA
ATOM      5  F   UNL A   1     -22.296   2.715  27.486  0.00  0.00    -0.045 F 
ENDBRANCH   3   4
ENDBRANCH   2   3
ENDBRANCH   1   2
BRANCH   1   6
ATOM      6  C   UNL A   1     -25.332   0.063  29.139  0.00  0.00    +0.120 C 
BRANCH   6  10
ATOM      7  C   UNL A   1     -27.577   0.468  28.806  0.00  0.00    +0.463 C 
ATOM      8  O   UNL A   1     -28.583   1.077  28.527  0.00  0.00    -0.221 OA
ATOM      9  O   UNL A   1     -27.639  -0.838  28.461  0.00  0.00    -0.221 OA
ATOM     10  N   UNL A   1     -26.439   0.958  29.284  0.00  0.00    -0.166 NA
ENDBRANCH   6  10
BRANCH   6  11
ATOM     11  C   UNL A   1     -24.855  -1.012  30.143  0.00  0.00    +0.060 C 
BRANCH  11  12
ATOM     12  C   UNL A   1     -24.973  -2.505  29.788  0.00  0.00    -0.019 C 
ATOM     13  C   UNL A   1     -23.906  -3.173  29.146  0.00  0.00    -0.004 C 
ATOM     14  C   UNL A   1     -23.989  -4.549  28.853  0.00  0.00    -0.000 C 
ATOM     15  C   UNL A   1     -25.137  -5.280  29.205  0.00  0.00    -0.000 C 
ATOM     16  C   UNL A   1     -26.232  -4.611  29.784  0.00  0.00    -0.000 C 
ATOM     17  C   UNL A   1     -26.155  -3.232  30.065  0.00  0.00    -0.004 C 
ENDBRANCH  11  12
BRANCH  11  18
ATOM     18  C   UNL A   1     -25.387  -0.679  31.571  0.00  0.00    +0.079 C 
ATOM     19  C   UNL A   1     -25.189   0.773  32.028  0.00  0.00    +0.019 C 
ATOM     20  C   UNL A   1     -25.336   0.684  33.544  0.00  0.00    +0.020 C 
ATOM     21  C   UNL A   1     -24.829  -0.715  33.905  0.00  0.00    +0.089 C 
ATOM     22  N   UNL A   1     -24.758  -1.481  32.646  0.00  0.00    -0.219 NA
ENDBRANCH  11  18
ENDBRANCH   6  11
ENDBRANCH   1   6
BRANCH   1  23
ATOM     23  C   UNL A   1     -24.371   1.219  27.076  0.00  0.00    +0.048 C 
BRANCH  23  24
ATOM     24  C   UNL A   1     -25.688   1.614  26.461  0.00  0.00    +0.017 C 
ATOM     25  C   UNL A   1     -26.250   2.920  26.395  0.00  0.00    +0.073 C 
ATOM     26  C   UNL A   1     -27.438   3.091  25.645  0.00  0.00    +0.106 C 
ATOM     27  N   UNL A   1     -28.075   2.089  25.003  0.00  0.00    -0.208 NA
ATOM     28  C   UNL A   1     -27.543   0.849  25.079  0.00  0.00    +0.253 C 
ATOM     29  C   UNL A   1     -26.354   0.576  25.777  0.00  0.00    +0.189 C 
ATOM     30  F   UNL A   1     -25.860  -0.681  25.795  0.00  0.00    -0.200 F 
BRANCH  25  31
ATOM     31  C   UNL A   1     -25.642   4.093  27.123  0.00  0.00    +0.266 C 
ATOM     32  N   UNL A   1     -25.614   5.252  26.449  0.00  0.00    -0.200 NA
ATOM     33  C   UNL A   1     -25.026   6.479  26.963  0.00  0.00    +0.139 C 
ATOM     34  O   UNL A   1     -25.143   3.966  28.243  0.00  0.00    -0.268 OA
ENDBRANCH  25  31
BRANCH  28  35
ATOM     35  O   UNL A   1     -28.193  -0.208  24.477  0.00  0.00    -0.456 OA
BRANCH  35  36
ATOM     36  C   UNL A   1     -29.460   0.005  23.866  0.00  0.00    +0.243 C 
BRANCH  36  37
ATOM     37  C   UNL A   1     -30.065  -1.377  23.573  0.00  0.00    +0.229 C 
ATOM     38  O   UNL A   1     -30.729  -1.878  24.721  0.00  0.00    -0.216 OA
ENDBRANCH  36  37
ENDBRANCH  35  36
ENDBRANCH  28  35
ENDBRANCH  23  24
BRANCH  23  39
ATOM     39  C   UNL A   1     -23.388   1.280  26.006  0.00  0.00    +0.078 C 
BRANCH  39  40
ATOM     40  C   UNL A   1     -22.627   2.058  24.973  0.00  0.00    +0.319 C 
ATOM     41  F   UNL A   1     -22.128   2.939  24.767  0.00  0.00    -0.198 F 
ATOM     42  F   UNL A   1     -23.313   1.133  24.472  0.00  0.00    -0.198 F 
ENDBRANCH  39  40
ENDBRANCH  23  39
ENDBRANCH   1  23
TORSDOF 16
