REMARK  Name = outputs/IAG933/test6/raw/output_7483_IAG933_linker_design_.xyz
REMARK  15 active torsions:
REMARK  status: ('A' for Active; 'I' for Inactive)
REMARK    1  A    between atoms: C_1  and  C_2
REMARK    2  A    between atoms: C_1  and  C_8
REMARK    3  A    between atoms: C_1  and  C_59
REMARK    4  A    between atoms: C_13  and  C_28
REMARK    5  A    between atoms: C_14  and  C_15
REMARK    6  A    between atoms: C_21  and  O_22
REMARK    7  A    between atoms: O_22  and  C_23
REMARK    8  A    between atoms: C_23  and  C_24
REMARK    9  A    between atoms: C_28  and  N_41
REMARK   10  A    between atoms: C_29  and  C_37
REMARK   11  A    between atoms: C_32  and  C_54
REMARK   12  A    between atoms: C_34  and  C_55
REMARK   13  A    between atoms: N_41  and  C_51
REMARK   14  A    between atoms: N_41  and  C_59
REMARK   15  A    between atoms: C_44  and  N_47
REMARK                            x       y       z     vdW  Elec       q    Type
REMARK                         _______ _______ _______ _____ _____    ______ ____
ROOT
ATOM      1  C   UNL A   1     -26.685   0.130  29.059  0.00  0.00    -0.004 C 
ATOM      2  C   UNL A   1     -25.247  -0.110  28.927  0.00  0.00    +0.026 C 
ENDROOT
BRANCH   1   5
ATOM      3  O   UNL A   1     -29.211  -1.152  29.009  0.00  0.00    -0.293 OA
ATOM      4  C   UNL A   1     -29.222   0.410  32.325  0.00  0.00    +0.001 C 
ATOM      5  C   UNL A   1     -27.850  -0.455  30.118  0.00  0.00    +0.105 C 
ATOM      6  C   UNL A   1     -28.396  -0.552  31.672  0.00  0.00    -0.017 C 
ATOM      7  C   UNL A   1     -29.709   1.662  31.790  0.00  0.00    +0.166 C 
ATOM      8  C   UNL A   1     -28.873  -0.222  29.531  0.00  0.00    +0.188 C 
ATOM      9  O   UNL A   1     -29.805   2.110  30.429  0.00  0.00    -0.342 OA
ATOM     10  C   UNL A   1     -29.608   1.095  29.637  0.00  0.00    +0.207 C 
BRANCH   7  11
ATOM     11  C   UNL A   1     -30.636   2.157  32.573  0.00  0.00    +0.200 C 
ATOM     12  C   UNL A   1     -32.688   1.006  32.270  0.00  0.00    +0.122 C 
ATOM     13  C   UNL A   1     -35.195   2.613  34.930  0.00  0.00    +0.082 C 
ATOM     14  C   UNL A   1     -32.978   3.500  33.579  0.00  0.00    +0.095 C 
ATOM     15  C   UNL A   1     -30.671   2.871  33.780  0.00  0.00    +0.249 C 
ATOM     16  C   UNL A   1     -33.983   0.872  32.764  0.00  0.00    -0.086 C 
ATOM     17  C   UNL A   1     -34.178   3.389  34.140  0.00  0.00    +0.031 C 
ATOM     18  C   UNL A   1     -35.901   1.675  34.367  0.00  0.00    +0.128 C 
ATOM     19  N   UNL A   1     -31.643   3.710  33.830  0.00  0.00    -0.262 N 
ATOM     20  O   UNL A   1     -29.950   2.592  34.802  0.00  0.00    -0.273 OA
ATOM     21  N   UNL A   1     -31.865   1.976  31.919  0.00  0.00    -0.218 NA
ATOM     22  N   UNL A   1     -37.270   1.545  34.767  0.00  0.00    -0.127 NA
ATOM     23  C   UNL A   1     -35.152   0.900  33.322  0.00  0.00    +0.036 C 
BRANCH  13  26
ATOM     24  O   UNL A   1     -36.040   4.090  36.475  0.00  0.00    -0.296 OA
ATOM     25  C   UNL A   1     -35.020   2.217  37.665  0.00  0.00    +0.072 C 
ATOM     26  C   UNL A   1     -35.535   3.024  36.438  0.00  0.00    +0.152 C 
ENDBRANCH  13  26
BRANCH  19  27
ATOM     27  C   UNL A   1     -31.399   5.054  34.172  0.00  0.00    +0.205 C 
ATOM     28  N   UNL A   1     -30.307   5.602  33.363  0.00  0.00    -0.107 NA
ENDBRANCH  19  27
ENDBRANCH   7  11
ENDBRANCH   1   5
BRANCH   2  29
ATOM     29  C   UNL A   1     -24.855  -1.012  30.143  0.00  0.00    +0.074 C 
BRANCH  29  30
ATOM     30  C   UNL A   1     -24.973  -2.505  29.788  0.00  0.00    -0.016 C 
ATOM     31  C   UNL A   1     -23.906  -3.173  29.146  0.00  0.00    -0.004 C 
ATOM     32  C   UNL A   1     -23.989  -4.549  28.853  0.00  0.00    -0.000 C 
ATOM     33  C   UNL A   1     -25.137  -5.280  29.205  0.00  0.00    -0.000 C 
ATOM     34  C   UNL A   1     -26.232  -4.611  29.784  0.00  0.00    -0.000 C 
ATOM     35  C   UNL A   1     -26.155  -3.232  30.065  0.00  0.00    -0.004 C 
ENDBRANCH  29  30
BRANCH  29  36
ATOM     36  C   UNL A   1     -25.387  -0.679  31.571  0.00  0.00    +0.082 C 
ATOM     37  C   UNL A   1     -25.189   0.773  32.028  0.00  0.00    +0.020 C 
ATOM     38  C   UNL A   1     -25.336   0.684  33.544  0.00  0.00    +0.020 C 
ATOM     39  C   UNL A   1     -24.829  -0.715  33.905  0.00  0.00    +0.089 C 
ATOM     40  N   UNL A   1     -24.758  -1.481  32.646  0.00  0.00    -0.219 NA
ENDBRANCH  29  36
ENDBRANCH   2  29
BRANCH   2  41
ATOM     41  N   UNL A   1     -24.212   0.620  28.209  0.00  0.00    -0.310 N 
BRANCH  41  42
ATOM     42  C   UNL A   1     -22.865   0.293  28.647  0.00  0.00    +0.091 C 
ATOM     43  C   UNL A   1     -21.906   1.148  27.899  0.00  0.00    +0.023 C 
ENDBRANCH  41  42
BRANCH  41  44
ATOM     44  C   UNL A   1     -24.292   1.413  26.898  0.00  0.00    +0.098 C 
BRANCH  44  45
ATOM     45  C   UNL A   1     -25.688   1.614  26.461  0.00  0.00    +0.090 C 
ATOM     46  C   UNL A   1     -26.250   2.920  26.395  0.00  0.00    +0.057 C 
ATOM     47  C   UNL A   1     -27.438   3.091  25.645  0.00  0.00    +0.102 C 
ATOM     48  N   UNL A   1     -28.075   2.089  25.003  0.00  0.00    -0.212 NA
ATOM     49  C   UNL A   1     -27.543   0.849  25.079  0.00  0.00    +0.234 C 
ATOM     50  C   UNL A   1     -26.354   0.576  25.777  0.00  0.00    +0.242 C 
ATOM     51  F   UNL A   1     -25.860  -0.681  25.795  0.00  0.00    -0.227 F 
BRANCH  46  52
ATOM     52  C   UNL A   1     -25.642   4.093  27.123  0.00  0.00    +0.263 C 
ATOM     53  N   UNL A   1     -25.614   5.252  26.449  0.00  0.00    -0.200 NA
ATOM     54  C   UNL A   1     -25.026   6.479  26.963  0.00  0.00    +0.139 C 
ATOM     55  O   UNL A   1     -25.143   3.966  28.243  0.00  0.00    -0.269 OA
ENDBRANCH  46  52
BRANCH  49  56
ATOM     56  O   UNL A   1     -28.193  -0.208  24.477  0.00  0.00    -0.459 OA
BRANCH  56  57
ATOM     57  C   UNL A   1     -29.460   0.005  23.866  0.00  0.00    +0.242 C 
BRANCH  57  58
ATOM     58  C   UNL A   1     -30.065  -1.377  23.573  0.00  0.00    +0.229 C 
ATOM     59  O   UNL A   1     -30.729  -1.878  24.721  0.00  0.00    -0.216 OA
ENDBRANCH  57  58
ENDBRANCH  56  57
ENDBRANCH  49  56
ENDBRANCH  44  45
ENDBRANCH  41  44
ENDBRANCH   2  41
TORSDOF 15
