REMARK  Name = outputs/IAG933/test6/raw/output_7488_IAG933_linker_design_.xyz
REMARK  17 active torsions:
REMARK  status: ('A' for Active; 'I' for Inactive)
REMARK    1  A    between atoms: C_1  and  C_2
REMARK    2  A    between atoms: C_1  and  C_8
REMARK    3  A    between atoms: C_9  and  C_33
REMARK    4  A    between atoms: C_14  and  C_15
REMARK    5  A    between atoms: C_15  and  O_18
REMARK    6  A    between atoms: O_18  and  C_42
REMARK    7  A    between atoms: C_21  and  O_22
REMARK    8  A    between atoms: O_22  and  C_23
REMARK    9  A    between atoms: C_23  and  C_24
REMARK   10  A    between atoms: C_28  and  C_33
REMARK   11  A    between atoms: C_28  and  C_42
REMARK   12  A    between atoms: C_28  and  C_43
REMARK   13  A    between atoms: N_30  and  C_41
REMARK   14  A    between atoms: C_41  and  N_46
REMARK   15  A    between atoms: C_42  and  C_50
REMARK   16  A    between atoms: C_43  and  C_47
REMARK   17  A    between atoms: C_45  and  C_50
REMARK                            x       y       z     vdW  Elec       q    Type
REMARK                         _______ _______ _______ _____ _____    ______ ____
ROOT
ATOM      1  C   UNL A   1     -25.435   3.188  29.346  0.00  0.00    +0.169 C 
ENDROOT
BRANCH   1   2
ATOM      2  C   UNL A   1     -25.484   4.099  30.696  0.00  0.00    +0.061 C 
BRANCH   2   5
ATOM      3  N   UNL A   1     -26.442   6.056  33.174  0.00  0.00    -0.145 NA
ATOM      4  C   UNL A   1     -25.194   5.782  33.766  0.00  0.00    +0.109 C 
ATOM      5  C   UNL A   1     -25.400   4.486  31.893  0.00  0.00    +0.081 C 
ATOM      6  N   UNL A   1     -26.538   4.899  32.030  0.00  0.00    -0.186 NA
ATOM      7  C   UNL A   1     -24.438   4.969  32.900  0.00  0.00    +0.038 C 
BRANCH   6   8
ATOM      8  C   UNL A   1     -27.442   5.440  31.006  0.00  0.00    +0.187 C 
BRANCH   8   9
ATOM      9  N   UNL A   1     -28.536   4.372  30.715  0.00  0.00    -0.257 N 
ATOM     10  N   UNL A   1     -27.665   2.380  31.998  0.00  0.00    -0.101 NA
ATOM     11  C   UNL A   1     -28.455   2.986  31.094  0.00  0.00    +0.247 C 
ATOM     12  C   UNL A   1     -29.571   2.383  30.471  0.00  0.00    +0.284 C 
ATOM     13  C   UNL A   1     -29.732   4.633  30.082  0.00  0.00    +0.156 C 
ATOM     14  N   UNL A   1     -30.424   3.445  29.845  0.00  0.00    -0.159 NA
ATOM     15  O   UNL A   1     -29.684   0.975  30.614  0.00  0.00    -0.270 OA
ENDBRANCH   8   9
ENDBRANCH   6   8
ENDBRANCH   2   5
ENDBRANCH   1   2
BRANCH   1  16
ATOM     16  C   UNL A   1     -24.342   2.118  29.832  0.00  0.00    +0.050 C 
BRANCH  16  17
ATOM     17  C   UNL A   1     -23.512   2.084  28.620  0.00  0.00    +0.092 C 
BRANCH  17  22
ATOM     18  O   UNL A   1     -21.365   1.958  27.589  0.00  0.00    -0.317 OA
ATOM     19  N   UNL A   1     -21.944   0.117  28.752  0.00  0.00    -0.203 NA
ATOM     20  C   UNL A   1     -20.622   0.018  28.371  0.00  0.00    +0.324 C 
ATOM     21  O   UNL A   1     -20.303   1.118  27.694  0.00  0.00    -0.144 OA
ATOM     22  C   UNL A   1     -22.365   1.329  28.278  0.00  0.00    +0.241 C 
ENDBRANCH  17  22
ENDBRANCH  16  17
BRANCH  16  23
ATOM     23  C   UNL A   1     -24.289   1.858  31.448  0.00  0.00    +0.005 C 
BRANCH  23  25
ATOM     24  C   UNL A   1     -25.387  -0.679  31.571  0.00  0.00    +0.077 C 
ATOM     25  C   UNL A   1     -25.189   0.773  32.028  0.00  0.00    +0.018 C 
ATOM     26  C   UNL A   1     -25.336   0.684  33.544  0.00  0.00    +0.020 C 
ATOM     27  C   UNL A   1     -24.829  -0.715  33.905  0.00  0.00    +0.089 C 
ATOM     28  N   UNL A   1     -24.758  -1.481  32.646  0.00  0.00    -0.219 NA
BRANCH  24  29
ATOM     29  C   UNL A   1     -24.855  -1.012  30.143  0.00  0.00    +0.044 C 
BRANCH  29  30
ATOM     30  C   UNL A   1     -24.973  -2.505  29.788  0.00  0.00    -0.021 C 
ATOM     31  C   UNL A   1     -23.906  -3.173  29.146  0.00  0.00    -0.004 C 
ATOM     32  C   UNL A   1     -23.989  -4.549  28.853  0.00  0.00    -0.000 C 
ATOM     33  C   UNL A   1     -25.137  -5.280  29.205  0.00  0.00    -0.000 C 
ATOM     34  C   UNL A   1     -26.232  -4.611  29.784  0.00  0.00    -0.000 C 
ATOM     35  C   UNL A   1     -26.155  -3.232  30.065  0.00  0.00    -0.004 C 
ENDBRANCH  29  30
ENDBRANCH  24  29
ENDBRANCH  23  25
ENDBRANCH  16  23
ENDBRANCH   1  16
BRANCH   1  36
ATOM     36  O   UNL A   1     -25.143   3.966  28.243  0.00  0.00    -0.464 OA
BRANCH  36  37
ATOM     37  C   UNL A   1     -25.642   4.093  27.123  0.00  0.00    +0.222 C 
ATOM     38  N   UNL A   1     -25.614   5.252  26.449  0.00  0.00    -0.236 NA
ATOM     39  C   UNL A   1     -25.026   6.479  26.963  0.00  0.00    +0.155 C 
BRANCH  37  41
ATOM     40  C   UNL A   1     -25.688   1.614  26.461  0.00  0.00    +0.041 C 
ATOM     41  C   UNL A   1     -26.250   2.920  26.395  0.00  0.00    +0.074 C 
ATOM     42  C   UNL A   1     -27.438   3.091  25.645  0.00  0.00    +0.107 C 
ATOM     43  N   UNL A   1     -28.075   2.089  25.003  0.00  0.00    -0.208 NA
ATOM     44  C   UNL A   1     -27.543   0.849  25.079  0.00  0.00    +0.253 C 
ATOM     45  C   UNL A   1     -26.354   0.576  25.777  0.00  0.00    +0.193 C 
ATOM     46  F   UNL A   1     -25.860  -0.681  25.795  0.00  0.00    -0.199 F 
BRANCH  44  47
ATOM     47  O   UNL A   1     -28.193  -0.208  24.477  0.00  0.00    -0.456 OA
BRANCH  47  48
ATOM     48  C   UNL A   1     -29.460   0.005  23.866  0.00  0.00    +0.243 C 
BRANCH  48  49
ATOM     49  C   UNL A   1     -30.065  -1.377  23.573  0.00  0.00    +0.229 C 
ATOM     50  O   UNL A   1     -30.729  -1.878  24.721  0.00  0.00    -0.216 OA
ENDBRANCH  48  49
ENDBRANCH  47  48
ENDBRANCH  44  47
ENDBRANCH  37  41
ENDBRANCH  36  37
ENDBRANCH   1  36
TORSDOF 17
