MODEL 748
MODEL 1
REMARK VINA RESULT:    -6.329      0.000      0.000
REMARK INTER + INTRA:          -7.650
REMARK INTER:                  -7.439
REMARK INTRA:                  -0.211
REMARK UNBOUND:                -0.211
REMARK  Name = No_748-gen_results/8p0m/2024-11-27-11-27-31/
REMARK  3 active torsions:
REMARK  status: ('A' for Active; 'I' for Inactive)
REMARK    1  A    between atoms: C_1  and  C_2
REMARK    2  A    between atoms: C_1  and  N_8
REMARK    3  A    between atoms: C_5  and  C_16
REMARK                            x       y       z     vdW  Elec       q    Type
REMARK                         _______ _______ _______ _____ _____    ______ ____
ROOT
ATOM      1  C   UNL A   1     -24.202  -0.885  29.935  0.00  0.00    +0.122 C 
ENDROOT
BRANCH   1   2
ATOM      2  N   UNL A   1     -24.566  -2.182  29.658  0.00  0.00    -0.256 N 
ATOM      3  C   UNL A   1     -23.841  -2.983  28.904  0.00  0.00    +0.132 C 
ATOM      4  C   UNL A   1     -24.330  -4.307  28.754  0.00  0.00    +0.202 C 
ATOM      5  C   UNL A   1     -25.841  -2.544  30.094  0.00  0.00    +0.324 C 
ATOM      6  O   UNL A   1     -26.538  -1.807  30.720  0.00  0.00    -0.251 OA
ATOM      7  N   UNL A   1     -26.396  -3.779  29.991  0.00  0.00    -0.185 NA
ATOM      8  F   UNL A   1     -23.582  -5.176  28.030  0.00  0.00    -0.234 F 
ATOM      9  C   UNL A   1     -25.512  -4.653  29.265  0.00  0.00    +0.154 C 
ENDBRANCH   1   2
BRANCH   1  10
ATOM     10  C   UNL A   1     -23.999  -0.179  28.974  0.00  0.00    -0.002 A 
ATOM     11  C   UNL A   1     -22.798   0.461  28.735  0.00  0.00    -0.003 A 
ATOM     12  C   UNL A   1     -22.531   1.377  27.642  0.00  0.00    +0.004 A 
ATOM     13  C   UNL A   1     -23.562   1.652  26.718  0.00  0.00    +0.057 A 
ATOM     14  C   UNL A   1     -24.824   1.002  26.964  0.00  0.00    +0.004 A 
ATOM     15  C   UNL A   1     -25.066   0.166  28.028  0.00  0.00    -0.003 A 
BRANCH  13  16
ATOM     16  C   UNL A   1     -23.402   2.564  25.632  0.00  0.00    +0.284 C 
ATOM     17  N   UNL A   1     -22.322   2.429  24.838  0.00  0.00    -0.084 NA
ATOM     18  O   UNL A   1     -23.984   3.696  25.594  0.00  0.00    -0.267 OA
ENDBRANCH  13  16
ENDBRANCH   1  10
TORSDOF 3
ENDMDL
ENDMDL
