REMARK  Name = outputs/IAG933/test6/raw/output_749_IAG933_linker_design_.xyz
REMARK  16 active torsions:
REMARK  status: ('A' for Active; 'I' for Inactive)
REMARK    1  A    between atoms: C_1  and  C_2
REMARK    2  A    between atoms: C_1  and  C_8
REMARK    3  A    between atoms: C_1  and  N_46
REMARK    4  A    between atoms: C_13  and  C_42
REMARK    5  A    between atoms: C_14  and  C_15
REMARK    6  A    between atoms: C_21  and  O_22
REMARK    7  A    between atoms: O_22  and  C_23
REMARK    8  A    between atoms: C_23  and  C_24
REMARK    9  A    between atoms: C_30  and  C_35
REMARK   10  A    between atoms: O_32  and  C_45
REMARK   11  A    between atoms: C_33  and  C_39
REMARK   12  A    between atoms: C_33  and  C_44
REMARK   13  A    between atoms: C_35  and  C_42
REMARK   14  A    between atoms: C_39  and  N_46
REMARK   15  A    between atoms: C_42  and  N_46
REMARK   16  A    between atoms: N_43  and  C_44
REMARK                            x       y       z     vdW  Elec       q    Type
REMARK                         _______ _______ _______ _____ _____    ______ ____
ROOT
ATOM      1  N   UNL A   1     -25.178   0.071  28.929  0.00  0.00    -0.270 NA
ENDROOT
BRANCH   1   2
ATOM      2  C   UNL A   1     -24.855  -1.012  30.143  0.00  0.00    +0.096 C 
BRANCH   2   3
ATOM      3  C   UNL A   1     -24.973  -2.505  29.788  0.00  0.00    -0.006 C 
ATOM      4  C   UNL A   1     -23.906  -3.173  29.146  0.00  0.00    -0.003 C 
ATOM      5  C   UNL A   1     -23.989  -4.549  28.853  0.00  0.00    -0.000 C 
ATOM      6  C   UNL A   1     -25.137  -5.280  29.205  0.00  0.00    -0.000 C 
ATOM      7  C   UNL A   1     -26.232  -4.611  29.784  0.00  0.00    -0.000 C 
ATOM      8  C   UNL A   1     -26.155  -3.232  30.065  0.00  0.00    -0.003 C 
ENDBRANCH   2   3
BRANCH   2   9
ATOM      9  C   UNL A   1     -25.387  -0.679  31.571  0.00  0.00    +0.092 C 
ATOM     10  C   UNL A   1     -25.189   0.773  32.028  0.00  0.00    +0.021 C 
ATOM     11  C   UNL A   1     -25.336   0.684  33.544  0.00  0.00    +0.020 C 
ATOM     12  C   UNL A   1     -24.829  -0.715  33.905  0.00  0.00    +0.089 C 
ATOM     13  N   UNL A   1     -24.758  -1.481  32.646  0.00  0.00    -0.218 NA
ENDBRANCH   2   9
ENDBRANCH   1   2
BRANCH   1  14
ATOM     14  C   UNL A   1     -26.636   0.344  28.709  0.00  0.00    +0.074 C 
BRANCH  14  15
ATOM     15  C   UNL A   1     -27.386   0.107  30.096  0.00  0.00    +0.039 C 
BRANCH  15  16
ATOM     16  C   UNL A   1     -28.623   1.037  30.078  0.00  0.00    +0.095 C 
BRANCH  16  23
ATOM     17  O   UNL A   1     -29.193  -0.248  32.224  0.00  0.00    -0.275 OA
ATOM     18  C   UNL A   1     -29.997  -0.141  28.449  0.00  0.00    +0.120 C 
ATOM     19  C   UNL A   1     -29.999  -0.393  31.362  0.00  0.00    +0.229 C 
ATOM     20  C   UNL A   1     -31.168  -1.199  31.633  0.00  0.00    +0.119 C 
ATOM     21  C   UNL A   1     -31.340  -0.862  28.184  0.00  0.00    -0.007 C 
ATOM     22  C   UNL A   1     -31.873  -1.821  29.288  0.00  0.00    +0.001 C 
ATOM     23  N   UNL A   1     -29.675   0.032  29.957  0.00  0.00    -0.275 N 
ATOM     24  C   UNL A   1     -30.917  -2.144  30.423  0.00  0.00    +0.146 C 
BRANCH  24  25
ATOM     25  O   UNL A   1     -29.820  -2.752  30.235  0.00  0.00    -0.349 OA
ATOM     26  C   UNL A   1     -30.115  -3.996  29.670  0.00  0.00    +0.174 C 
ENDBRANCH  24  25
ENDBRANCH  16  23
ENDBRANCH  15  16
ENDBRANCH  14  15
ENDBRANCH   1  14
BRANCH   1  27
ATOM     27  C   UNL A   1     -24.907   1.016  27.625  0.00  0.00    +0.072 C 
BRANCH  27  28
ATOM     28  C   UNL A   1     -25.688   1.614  26.461  0.00  0.00    +0.085 C 
ATOM     29  C   UNL A   1     -26.250   2.920  26.395  0.00  0.00    +0.056 C 
ATOM     30  C   UNL A   1     -27.438   3.091  25.645  0.00  0.00    +0.102 C 
ATOM     31  N   UNL A   1     -28.075   2.089  25.003  0.00  0.00    -0.212 NA
ATOM     32  C   UNL A   1     -27.543   0.849  25.079  0.00  0.00    +0.234 C 
ATOM     33  C   UNL A   1     -26.354   0.576  25.777  0.00  0.00    +0.241 C 
ATOM     34  F   UNL A   1     -25.860  -0.681  25.795  0.00  0.00    -0.227 F 
BRANCH  29  35
ATOM     35  C   UNL A   1     -25.642   4.093  27.123  0.00  0.00    +0.263 C 
ATOM     36  N   UNL A   1     -25.614   5.252  26.449  0.00  0.00    -0.200 NA
ATOM     37  C   UNL A   1     -25.026   6.479  26.963  0.00  0.00    +0.139 C 
ATOM     38  O   UNL A   1     -25.143   3.966  28.243  0.00  0.00    -0.269 OA
ENDBRANCH  29  35
BRANCH  32  39
ATOM     39  O   UNL A   1     -28.193  -0.208  24.477  0.00  0.00    -0.459 OA
BRANCH  39  40
ATOM     40  C   UNL A   1     -29.460   0.005  23.866  0.00  0.00    +0.242 C 
BRANCH  40  41
ATOM     41  C   UNL A   1     -30.065  -1.377  23.573  0.00  0.00    +0.229 C 
ATOM     42  O   UNL A   1     -30.729  -1.878  24.721  0.00  0.00    -0.216 OA
ENDBRANCH  40  41
ENDBRANCH  39  40
ENDBRANCH  32  39
ENDBRANCH  27  28
BRANCH  27  43
ATOM     43  C   UNL A   1     -23.500   1.477  27.099  0.00  0.00    +0.081 C 
BRANCH  43  45
ATOM     44  O   UNL A   1     -22.494  -0.093  28.548  0.00  0.00    -0.296 OA
ATOM     45  C   UNL A   1     -22.452   0.949  27.910  0.00  0.00    +0.152 C 
ATOM     46  C   UNL A   1     -21.131   1.548  27.556  0.00  0.00    +0.072 C 
ENDBRANCH  43  45
ENDBRANCH  27  43
ENDBRANCH   1  27
TORSDOF 16
