REMARK  Name = outputs/IAG933/test6/raw/output_7492_IAG933_linker_design_.xyz
REMARK  9 active torsions:
REMARK  status: ('A' for Active; 'I' for Inactive)
REMARK    1  A    between atoms: C_1  and  C_2
REMARK    2  A    between atoms: C_13  and  O_28
REMARK    3  A    between atoms: C_14  and  C_15
REMARK    4  A    between atoms: C_21  and  O_22
REMARK    5  A    between atoms: O_22  and  C_23
REMARK    6  A    between atoms: C_23  and  C_24
REMARK    7  A    between atoms: O_28  and  C_37
REMARK    8  A    between atoms: C_30  and  C_34
REMARK    9  A    between atoms: C_38  and  C_42
REMARK                            x       y       z     vdW  Elec       q    Type
REMARK                         _______ _______ _______ _____ _____    ______ ____
ROOT
ATOM      1  F   UNL A   1     -21.663   1.885  25.425  0.00  0.00    -0.207 F 
ATOM      2  C   UNL A   1     -23.343   0.299  28.363  0.00  0.00    +0.047 C 
ATOM      3  C   UNL A   1     -22.115   1.088  28.917  0.00  0.00    +0.031 C 
ATOM      4  C   UNL A   1     -22.107   1.520  26.636  0.00  0.00    +0.140 C 
ATOM      5  C   UNL A   1     -23.365   0.932  27.016  0.00  0.00    +0.166 C 
ATOM      6  C   UNL A   1     -21.490   1.663  27.770  0.00  0.00    +0.002 C 
ENDROOT
BRANCH   2  13
ATOM      7  C   UNL A   1     -24.855  -1.012  30.143  0.00  0.00    +0.047 C 
ATOM      8  C   UNL A   1     -25.387  -0.679  31.571  0.00  0.00    +0.079 C 
ATOM      9  C   UNL A   1     -25.189   0.773  32.028  0.00  0.00    +0.045 C 
ATOM     10  C   UNL A   1     -25.336   0.684  33.544  0.00  0.00    +0.022 C 
ATOM     11  C   UNL A   1     -24.829  -0.715  33.905  0.00  0.00    +0.089 C 
ATOM     12  N   UNL A   1     -24.758  -1.481  32.646  0.00  0.00    -0.219 NA
ATOM     13  C   UNL A   1     -24.793  -0.070  28.859  0.00  0.00    +0.087 C 
ATOM     14  O   UNL A   1     -26.740   1.299  29.103  0.00  0.00    -0.273 OA
ATOM     15  C   UNL A   1     -25.537   1.155  29.251  0.00  0.00    +0.242 C 
ATOM     16  C   UNL A   1     -24.739   2.041  31.334  0.00  0.00    +0.154 C 
ATOM     17  N   UNL A   1     -24.779   2.046  29.828  0.00  0.00    -0.200 NA
BRANCH   7  18
ATOM     18  C   UNL A   1     -24.973  -2.505  29.788  0.00  0.00    -0.021 C 
ATOM     19  C   UNL A   1     -23.906  -3.173  29.146  0.00  0.00    -0.004 C 
ATOM     20  C   UNL A   1     -23.989  -4.549  28.853  0.00  0.00    -0.000 C 
ATOM     21  C   UNL A   1     -25.137  -5.280  29.205  0.00  0.00    -0.000 C 
ATOM     22  C   UNL A   1     -26.232  -4.611  29.784  0.00  0.00    -0.000 C 
ATOM     23  C   UNL A   1     -26.155  -3.232  30.065  0.00  0.00    -0.004 C 
ENDBRANCH   7  18
BRANCH  16  26
ATOM     24  C   UNL A   1     -26.424   3.936  31.373  0.00  0.00    +0.074 C 
ATOM     25  O   UNL A   1     -24.485   3.861  32.797  0.00  0.00    -0.294 OA
ATOM     26  C   UNL A   1     -25.169   3.357  31.930  0.00  0.00    +0.171 C 
ENDBRANCH  16  26
ENDBRANCH   2  13
BRANCH   5  27
ATOM     27  O   UNL A   1     -24.583   1.433  26.786  0.00  0.00    -0.344 OA
BRANCH  27  28
ATOM     28  C   UNL A   1     -25.688   1.614  26.461  0.00  0.00    +0.185 C 
ATOM     29  C   UNL A   1     -26.250   2.920  26.395  0.00  0.00    +0.082 C 
ATOM     30  C   UNL A   1     -27.438   3.091  25.645  0.00  0.00    +0.104 C 
ATOM     31  N   UNL A   1     -28.075   2.089  25.003  0.00  0.00    -0.212 NA
ATOM     32  C   UNL A   1     -27.543   0.849  25.079  0.00  0.00    +0.237 C 
ATOM     33  C   UNL A   1     -26.354   0.576  25.777  0.00  0.00    +0.267 C 
ATOM     34  F   UNL A   1     -25.860  -0.681  25.795  0.00  0.00    -0.224 F 
BRANCH  29  35
ATOM     35  C   UNL A   1     -25.642   4.093  27.123  0.00  0.00    +0.265 C 
ATOM     36  N   UNL A   1     -25.614   5.252  26.449  0.00  0.00    -0.200 NA
ATOM     37  C   UNL A   1     -25.026   6.479  26.963  0.00  0.00    +0.139 C 
ATOM     38  O   UNL A   1     -25.143   3.966  28.243  0.00  0.00    -0.269 OA
ENDBRANCH  29  35
BRANCH  32  39
ATOM     39  O   UNL A   1     -28.193  -0.208  24.477  0.00  0.00    -0.459 OA
BRANCH  39  40
ATOM     40  C   UNL A   1     -29.460   0.005  23.866  0.00  0.00    +0.242 C 
BRANCH  40  41
ATOM     41  C   UNL A   1     -30.065  -1.377  23.573  0.00  0.00    +0.229 C 
ATOM     42  O   UNL A   1     -30.729  -1.878  24.721  0.00  0.00    -0.216 OA
ENDBRANCH  40  41
ENDBRANCH  39  40
ENDBRANCH  32  39
ENDBRANCH  27  28
ENDBRANCH   5  27
TORSDOF 9
