REMARK  Name = outputs/IAG933/test6/raw/output_7497_IAG933_linker_design_.xyz
REMARK  17 active torsions:
REMARK  status: ('A' for Active; 'I' for Inactive)
REMARK    1  A    between atoms: C_1  and  C_2
REMARK    2  A    between atoms: C_1  and  C_8
REMARK    3  A    between atoms: C_1  and  C_35
REMARK    4  A    between atoms: C_13  and  C_41
REMARK    5  A    between atoms: C_14  and  C_15
REMARK    6  A    between atoms: C_21  and  O_22
REMARK    7  A    between atoms: O_22  and  C_23
REMARK    8  A    between atoms: C_23  and  C_24
REMARK    9  A    between atoms: C_28  and  C_35
REMARK   10  A    between atoms: C_32  and  C_39
REMARK   11  A    between atoms: C_32  and  C_42
REMARK   12  A    between atoms: C_35  and  C_40
REMARK   13  A    between atoms: N_37  and  C_41
REMARK   14  A    between atoms: N_37  and  C_44
REMARK   15  A    between atoms: C_38  and  C_39
REMARK   16  A    between atoms: C_38  and  C_47
REMARK   17  A    between atoms: C_40  and  C_42
REMARK                            x       y       z     vdW  Elec       q    Type
REMARK                         _______ _______ _______ _____ _____    ______ ____
ROOT
ATOM      1  C   UNL A   1     -25.588  -0.129  29.115  0.00  0.00    +0.082 C 
ENDROOT
BRANCH   1   2
ATOM      2  C   UNL A   1     -24.451   0.827  28.631  0.00  0.00    +0.226 C 
ATOM      3  O   UNL A   1     -24.316   1.815  29.340  0.00  0.00    -0.275 OA
ATOM      4  N   UNL A   1     -23.626   0.722  27.457  0.00  0.00    -0.279 N 
BRANCH   4   6
ATOM      5  C   UNL A   1     -21.243   1.629  27.014  0.00  0.00    +0.023 C 
ATOM      6  C   UNL A   1     -22.250   0.923  27.905  0.00  0.00    +0.093 C 
ENDBRANCH   4   6
BRANCH   4   7
ATOM      7  C   UNL A   1     -24.209   1.599  26.405  0.00  0.00    +0.101 C 
BRANCH   7   8
ATOM      8  C   UNL A   1     -25.688   1.614  26.461  0.00  0.00    +0.090 C 
ATOM      9  C   UNL A   1     -26.250   2.920  26.395  0.00  0.00    +0.057 C 
ATOM     10  C   UNL A   1     -27.438   3.091  25.645  0.00  0.00    +0.102 C 
ATOM     11  N   UNL A   1     -28.075   2.089  25.003  0.00  0.00    -0.212 NA
ATOM     12  C   UNL A   1     -27.543   0.849  25.079  0.00  0.00    +0.234 C 
ATOM     13  C   UNL A   1     -26.354   0.576  25.777  0.00  0.00    +0.242 C 
ATOM     14  F   UNL A   1     -25.860  -0.681  25.795  0.00  0.00    -0.227 F 
BRANCH   9  15
ATOM     15  C   UNL A   1     -25.642   4.093  27.123  0.00  0.00    +0.263 C 
ATOM     16  N   UNL A   1     -25.614   5.252  26.449  0.00  0.00    -0.200 NA
ATOM     17  C   UNL A   1     -25.026   6.479  26.963  0.00  0.00    +0.139 C 
ATOM     18  O   UNL A   1     -25.143   3.966  28.243  0.00  0.00    -0.269 OA
ENDBRANCH   9  15
BRANCH  12  19
ATOM     19  O   UNL A   1     -28.193  -0.208  24.477  0.00  0.00    -0.459 OA
BRANCH  19  20
ATOM     20  C   UNL A   1     -29.460   0.005  23.866  0.00  0.00    +0.242 C 
BRANCH  20  21
ATOM     21  C   UNL A   1     -30.065  -1.377  23.573  0.00  0.00    +0.229 C 
ATOM     22  O   UNL A   1     -30.729  -1.878  24.721  0.00  0.00    -0.216 OA
ENDBRANCH  20  21
ENDBRANCH  19  20
ENDBRANCH  12  19
ENDBRANCH   7   8
ENDBRANCH   4   7
ENDBRANCH   1   2
BRANCH   1  23
ATOM     23  C   UNL A   1     -24.855  -1.012  30.143  0.00  0.00    +0.047 C 
BRANCH  23  24
ATOM     24  C   UNL A   1     -24.973  -2.505  29.788  0.00  0.00    -0.021 C 
ATOM     25  C   UNL A   1     -23.906  -3.173  29.146  0.00  0.00    -0.004 C 
ATOM     26  C   UNL A   1     -23.989  -4.549  28.853  0.00  0.00    -0.000 C 
ATOM     27  C   UNL A   1     -25.137  -5.280  29.205  0.00  0.00    -0.000 C 
ATOM     28  C   UNL A   1     -26.232  -4.611  29.784  0.00  0.00    -0.000 C 
ATOM     29  C   UNL A   1     -26.155  -3.232  30.065  0.00  0.00    -0.004 C 
ENDBRANCH  23  24
BRANCH  23  30
ATOM     30  C   UNL A   1     -25.387  -0.679  31.571  0.00  0.00    +0.077 C 
ATOM     31  C   UNL A   1     -25.189   0.773  32.028  0.00  0.00    +0.019 C 
ATOM     32  C   UNL A   1     -25.336   0.684  33.544  0.00  0.00    +0.020 C 
ATOM     33  C   UNL A   1     -24.829  -0.715  33.905  0.00  0.00    +0.089 C 
ATOM     34  N   UNL A   1     -24.758  -1.481  32.646  0.00  0.00    -0.219 NA
ENDBRANCH  23  30
ENDBRANCH   1  23
BRANCH   1  35
ATOM     35  C   UNL A   1     -27.111  -0.432  29.102  0.00  0.00    +0.009 C 
BRANCH  35  36
ATOM     36  C   UNL A   1     -28.244  -0.423  28.446  0.00  0.00    +0.001 C 
BRANCH  36  37
ATOM     37  C   UNL A   1     -29.384   0.402  29.038  0.00  0.00    +0.003 C 
BRANCH  37  38
ATOM     38  C   UNL A   1     -28.949   1.051  30.356  0.00  0.00    +0.033 C 
BRANCH  38  39
ATOM     39  C   UNL A   1     -28.762   2.588  30.043  0.00  0.00    +0.154 C 
ATOM     40  O   UNL A   1     -29.589   3.239  29.260  0.00  0.00    -0.223 OA
BRANCH  39  47
ATOM     41  C   UNL A   1     -25.621   4.535  31.163  0.00  0.00    +0.000 C 
ATOM     42  O   UNL A   1     -30.023   4.662  31.382  0.00  0.00    -0.223 OA
ATOM     43  C   UNL A   1     -26.499   3.715  30.269  0.00  0.00    +0.005 C 
ATOM     44  C   UNL A   1     -26.244   4.813  32.539  0.00  0.00    +0.003 C 
ATOM     45  C   UNL A   1     -27.804   5.114  32.491  0.00  0.00    +0.033 C 
ATOM     46  C   UNL A   1     -28.540   4.649  31.281  0.00  0.00    +0.154 C 
ATOM     47  C   UNL A   1     -27.763   3.366  30.729  0.00  0.00    +0.061 C 
ENDBRANCH  39  47
ENDBRANCH  38  39
ENDBRANCH  37  38
ENDBRANCH  36  37
ENDBRANCH  35  36
ENDBRANCH   1  35
TORSDOF 17
