REMARK  Name = outputs/IAG933/test6/raw/output_7498_IAG933_linker_design_.xyz
REMARK  14 active torsions:
REMARK  status: ('A' for Active; 'I' for Inactive)
REMARK    1  A    between atoms: C_1  and  C_2
REMARK    2  A    between atoms: C_1  and  C_8
REMARK    3  A    between atoms: C_1  and  C_38
REMARK    4  A    between atoms: C_14  and  C_15
REMARK    5  A    between atoms: C_15  and  O_18
REMARK    6  A    between atoms: O_18  and  C_35
REMARK    7  A    between atoms: C_21  and  O_22
REMARK    8  A    between atoms: O_22  and  C_23
REMARK    9  A    between atoms: C_23  and  C_24
REMARK   10  A    between atoms: C_34  and  C_40
REMARK   11  A    between atoms: C_35  and  C_40
REMARK   12  A    between atoms: C_35  and  C_47
REMARK   13  A    between atoms: N_36  and  C_45
REMARK   14  A    between atoms: C_42  and  C_45
REMARK                            x       y       z     vdW  Elec       q    Type
REMARK                         _______ _______ _______ _____ _____    ______ ____
ROOT
ATOM      1  C   UNL A   1     -24.791   3.366  29.215  0.00  0.00    +0.267 C 
ENDROOT
BRANCH   1   9
ATOM      2  F   UNL A   1     -22.629   2.398  26.709  0.00  0.00    -0.200 F 
ATOM      3  F   UNL A   1     -20.962   0.680  27.739  0.00  0.00    -0.202 F 
ATOM      4  C   UNL A   1     -22.680  -0.259  29.094  0.00  0.00    +0.047 C 
ATOM      5  C   UNL A   1     -23.919  -0.016  29.626  0.00  0.00    +0.066 C 
ATOM      6  C   UNL A   1     -22.140   0.752  28.316  0.00  0.00    +0.170 C 
ATOM      7  C   UNL A   1     -22.916   1.814  28.026  0.00  0.00    +0.185 C 
ATOM      8  N   UNL A   1     -24.473   1.198  29.693  0.00  0.00    -0.247 NA
ATOM      9  C   UNL A   1     -24.042   2.092  28.907  0.00  0.00    +0.135 C 
BRANCH   5  10
ATOM     10  C   UNL A   1     -24.855  -1.012  30.143  0.00  0.00    +0.079 C 
BRANCH  10  11
ATOM     11  C   UNL A   1     -24.973  -2.505  29.788  0.00  0.00    -0.015 C 
ATOM     12  C   UNL A   1     -23.906  -3.173  29.146  0.00  0.00    -0.004 C 
ATOM     13  C   UNL A   1     -23.989  -4.549  28.853  0.00  0.00    -0.000 C 
ATOM     14  C   UNL A   1     -25.137  -5.280  29.205  0.00  0.00    -0.000 C 
ATOM     15  C   UNL A   1     -26.232  -4.611  29.784  0.00  0.00    -0.000 C 
ATOM     16  C   UNL A   1     -26.155  -3.232  30.065  0.00  0.00    -0.004 C 
ENDBRANCH  10  11
BRANCH  10  17
ATOM     17  C   UNL A   1     -25.387  -0.679  31.571  0.00  0.00    +0.082 C 
ATOM     18  C   UNL A   1     -25.189   0.773  32.028  0.00  0.00    +0.020 C 
ATOM     19  C   UNL A   1     -25.336   0.684  33.544  0.00  0.00    +0.020 C 
ATOM     20  C   UNL A   1     -24.829  -0.715  33.905  0.00  0.00    +0.089 C 
ATOM     21  N   UNL A   1     -24.758  -1.481  32.646  0.00  0.00    -0.219 NA
ENDBRANCH  10  17
ENDBRANCH   5  10
ENDBRANCH   1   9
BRANCH   1  23
ATOM     22  O   UNL A   1     -24.943   3.494  31.597  0.00  0.00    -0.290 OA
ATOM     23  C   UNL A   1     -25.459   3.766  30.510  0.00  0.00    +0.210 C 
BRANCH  23  26
ATOM     24  C   UNL A   1     -28.132   5.443  28.803  0.00  0.00    +0.003 C 
ATOM     25  C   UNL A   1     -27.634   4.085  29.343  0.00  0.00    +0.024 C 
ATOM     26  C   UNL A   1     -26.722   4.423  30.524  0.00  0.00    +0.120 C 
ATOM     27  N   UNL A   1     -27.142   5.418  31.261  0.00  0.00    -0.267 NA
ATOM     28  C   UNL A   1     -29.062   5.978  29.869  0.00  0.00    +0.017 C 
ATOM     29  C   UNL A   1     -28.629   5.628  31.293  0.00  0.00    +0.072 C 
BRANCH  27  30
ATOM     30  C   UNL A   1     -26.129   6.362  31.859  0.00  0.00    +0.093 C 
BRANCH  30  32
ATOM     31  N   UNL A   1     -25.251   7.143  34.078  0.00  0.00    -0.130 NA
ATOM     32  C   UNL A   1     -25.660   5.964  33.269  0.00  0.00    +0.127 C 
ENDBRANCH  30  32
ENDBRANCH  27  30
ENDBRANCH  23  26
ENDBRANCH   1  23
BRANCH   1  33
ATOM     33  O   UNL A   1     -25.143   3.966  28.243  0.00  0.00    -0.450 OA
BRANCH  33  34
ATOM     34  C   UNL A   1     -25.642   4.093  27.123  0.00  0.00    +0.223 C 
ATOM     35  N   UNL A   1     -25.614   5.252  26.449  0.00  0.00    -0.236 NA
ATOM     36  C   UNL A   1     -25.026   6.479  26.963  0.00  0.00    +0.155 C 
BRANCH  34  38
ATOM     37  C   UNL A   1     -25.688   1.614  26.461  0.00  0.00    +0.041 C 
ATOM     38  C   UNL A   1     -26.250   2.920  26.395  0.00  0.00    +0.074 C 
ATOM     39  C   UNL A   1     -27.438   3.091  25.645  0.00  0.00    +0.107 C 
ATOM     40  N   UNL A   1     -28.075   2.089  25.003  0.00  0.00    -0.208 NA
ATOM     41  C   UNL A   1     -27.543   0.849  25.079  0.00  0.00    +0.253 C 
ATOM     42  C   UNL A   1     -26.354   0.576  25.777  0.00  0.00    +0.193 C 
ATOM     43  F   UNL A   1     -25.860  -0.681  25.795  0.00  0.00    -0.199 F 
BRANCH  41  44
ATOM     44  O   UNL A   1     -28.193  -0.208  24.477  0.00  0.00    -0.456 OA
BRANCH  44  45
ATOM     45  C   UNL A   1     -29.460   0.005  23.866  0.00  0.00    +0.243 C 
BRANCH  45  46
ATOM     46  C   UNL A   1     -30.065  -1.377  23.573  0.00  0.00    +0.229 C 
ATOM     47  O   UNL A   1     -30.729  -1.878  24.721  0.00  0.00    -0.216 OA
ENDBRANCH  45  46
ENDBRANCH  44  45
ENDBRANCH  41  44
ENDBRANCH  34  38
ENDBRANCH  33  34
ENDBRANCH   1  33
TORSDOF 14
