MODEL 749
MODEL 1
REMARK VINA RESULT:    -8.333      0.000      0.000
REMARK INTER + INTRA:         -12.741
REMARK INTER:                 -11.255
REMARK INTRA:                  -1.486
REMARK UNBOUND:                -1.486
REMARK  Name = No_749-gen_results/8p0m/2024-11-27-11-27-31/
REMARK  6 active torsions:
REMARK  status: ('A' for Active; 'I' for Inactive)
REMARK    1  A    between atoms: C_3  and  O_12
REMARK    2  A    between atoms: C_4  and  C_7
REMARK    3  A    between atoms: O_12  and  C_13
REMARK    4  A    between atoms: C_13  and  C_15
REMARK    5  A    between atoms: C_23  and  C_24
REMARK    6  A    between atoms: C_31  and  C_33
REMARK                            x       y       z     vdW  Elec       q    Type
REMARK                         _______ _______ _______ _____ _____    ______ ____
ROOT
ATOM      1  C   UNL A   1     -23.453   1.627  27.762  0.00  0.00    +0.069 A 
ATOM      2  C   UNL A   1     -22.304   1.857  27.078  0.00  0.00    +0.006 A 
ATOM      3  C   UNL A   1     -21.195   1.180  27.452  0.00  0.00    +0.000 A 
ATOM      4  C   UNL A   1     -21.120   0.447  28.588  0.00  0.00    +0.003 A 
ATOM      5  C   UNL A   1     -22.307   0.217  29.287  0.00  0.00    +0.038 A 
ATOM      6  C   UNL A   1     -23.453   0.736  28.879  0.00  0.00    +0.148 A 
ATOM      7  O   UNL A   1     -24.059  -0.658  28.444  0.00  0.00    -0.449 OA
ATOM      8  C   UNL A   1     -22.299  -1.264  29.794  0.00  0.00    +0.045 A 
ATOM      9  C   UNL A   1     -23.570  -1.708  29.156  0.00  0.00    +0.199 A 
ENDROOT
BRANCH   9  10
ATOM     10  C   UNL A   1     -24.142  -2.998  29.174  0.00  0.00    +0.284 C 
ATOM     11  O   UNL A   1     -23.703  -3.805  28.383  0.00  0.00    -0.267 OA
ATOM     12  N   UNL A   1     -25.445  -3.119  29.667  0.00  0.00    -0.274 N 
ATOM     13  C   UNL A   1     -26.145  -4.410  29.527  0.00  0.00    +0.094 C 
ATOM     14  C   UNL A   1     -26.045  -2.200  30.571  0.00  0.00    +0.094 C 
ATOM     15  C   UNL A   1     -27.467  -2.055  30.385  0.00  0.00    +0.031 C 
ATOM     16  C   UNL A   1     -28.210  -3.302  30.445  0.00  0.00    +0.083 C 
ATOM     17  C   UNL A   1     -27.553  -4.455  30.482  0.00  0.00    +0.031 C 
BRANCH  16  18
ATOM     18  C   UNL A   1     -29.641  -3.331  30.601  0.00  0.00    +0.260 C 
ATOM     19  O   UNL A   1     -30.426  -3.005  29.877  0.00  0.00    -0.272 OA
ATOM     20  N   UNL A   1     -29.989  -3.357  31.968  0.00  0.00    -0.088 NA
ENDBRANCH  16  18
ENDBRANCH   9  10
BRANCH   1  21
ATOM     21  C   UNL A   1     -24.603   2.104  27.320  0.00  0.00    +0.142 C 
ATOM     22  C   UNL A   1     -25.520   2.553  28.230  0.00  0.00    +0.040 C 
BRANCH  21  23
ATOM     23  O   UNL A   1     -24.964   2.328  25.965  0.00  0.00    -0.471 OA
BRANCH  23  26
ATOM     24  C   UNL A   1     -27.141   3.331  25.585  0.00  0.00    +0.020 C 
ATOM     25  C   UNL A   1     -28.168   3.124  25.476  0.00  0.00    +0.002 C 
ATOM     26  C   UNL A   1     -26.227   2.179  25.528  0.00  0.00    +0.233 C 
ATOM     27  C   UNL A   1     -26.716   0.881  25.201  0.00  0.00    +0.314 C 
ATOM     28  C   UNL A   1     -28.073   0.776  25.026  0.00  0.00    +0.215 C 
ATOM     29  C   UNL A   1     -28.869   1.863  25.115  0.00  0.00    +0.040 C 
ATOM     30  F   UNL A   1     -26.496   0.844  24.156  0.00  0.00    -0.219 F 
ATOM     31  O   UNL A   1     -28.481  -0.132  26.016  0.00  0.00    -0.288 OA
BRANCH  27  32
ATOM     32  C   UNL A   1     -25.834  -0.255  25.123  0.00  0.00    +0.435 C 
ATOM     33  F   UNL A   1     -25.532  -0.641  26.143  0.00  0.00    -0.167 F 
ATOM     34  F   UNL A   1     -24.655   0.125  24.484  0.00  0.00    -0.167 F 
ATOM     35  F   UNL A   1     -26.281  -1.246  24.301  0.00  0.00    -0.167 F 
ENDBRANCH  27  32
ENDBRANCH  23  26
ENDBRANCH  21  23
ENDBRANCH   1  21
TORSDOF 6
ENDMDL
ENDMDL
