REMARK  Name = outputs/IAG933/test6/raw/output_75_IAG933_linker_design_.xyz
REMARK  12 active torsions:
REMARK  status: ('A' for Active; 'I' for Inactive)
REMARK    1  A    between atoms: C_1  and  C_2
REMARK    2  A    between atoms: C_1  and  C_8
REMARK    3  A    between atoms: C_1  and  C_29
REMARK    4  A    between atoms: C_13  and  C_42
REMARK    5  A    between atoms: C_14  and  C_15
REMARK    6  A    between atoms: C_21  and  O_22
REMARK    7  A    between atoms: O_22  and  C_23
REMARK    8  A    between atoms: C_23  and  C_24
REMARK    9  A    between atoms: C_28  and  C_29
REMARK   10  A    between atoms: C_31  and  C_33
REMARK   11  A    between atoms: C_31  and  C_37
REMARK   12  A    between atoms: C_34  and  C_40
REMARK                            x       y       z     vdW  Elec       q    Type
REMARK                         _______ _______ _______ _____ _____    ______ ____
ROOT
ATOM      1  C   UNL A   1     -24.356   0.633  28.352  0.00  0.00    +0.158 C 
ATOM      2  N   UNL A   1     -23.052   0.470  28.945  0.00  0.00    -0.155 N 
ATOM      3  O   UNL A   1     -20.886   2.154  27.183  0.00  0.00    -0.285 OA
ATOM      4  C   UNL A   1     -22.052   0.659  28.257  0.00  0.00    +0.098 C 
ATOM      5  C   UNL A   1     -23.181   1.665  26.581  0.00  0.00    +0.117 C 
ATOM      6  C   UNL A   1     -22.064   1.545  27.274  0.00  0.00    +0.213 C 
ATOM      7  C   UNL A   1     -24.371   1.332  27.099  0.00  0.00    +0.013 C 
ATOM      8  F   UNL A   1     -22.684   0.243  30.239  0.00  0.00    -0.108 F 
ENDROOT
BRANCH   7   9
ATOM      9  C   UNL A   1     -25.688   1.614  26.461  0.00  0.00    +0.036 C 
ATOM     10  C   UNL A   1     -26.250   2.920  26.395  0.00  0.00    +0.076 C 
ATOM     11  C   UNL A   1     -27.438   3.091  25.645  0.00  0.00    +0.107 C 
ATOM     12  N   UNL A   1     -28.075   2.089  25.003  0.00  0.00    -0.208 NA
ATOM     13  C   UNL A   1     -27.543   0.849  25.079  0.00  0.00    +0.253 C 
ATOM     14  C   UNL A   1     -26.354   0.576  25.777  0.00  0.00    +0.193 C 
ATOM     15  F   UNL A   1     -25.860  -0.681  25.795  0.00  0.00    -0.199 F 
BRANCH  10  16
ATOM     16  C   UNL A   1     -25.642   4.093  27.123  0.00  0.00    +0.266 C 
ATOM     17  N   UNL A   1     -25.614   5.252  26.449  0.00  0.00    -0.200 NA
ATOM     18  C   UNL A   1     -25.026   6.479  26.963  0.00  0.00    +0.139 C 
ATOM     19  O   UNL A   1     -25.143   3.966  28.243  0.00  0.00    -0.268 OA
ENDBRANCH  10  16
BRANCH  13  20
ATOM     20  O   UNL A   1     -28.193  -0.208  24.477  0.00  0.00    -0.456 OA
BRANCH  20  21
ATOM     21  C   UNL A   1     -29.460   0.005  23.866  0.00  0.00    +0.243 C 
BRANCH  21  22
ATOM     22  C   UNL A   1     -30.065  -1.377  23.573  0.00  0.00    +0.229 C 
ATOM     23  O   UNL A   1     -30.729  -1.878  24.721  0.00  0.00    -0.216 OA
ENDBRANCH  21  22
ENDBRANCH  20  21
ENDBRANCH  13  20
ENDBRANCH   7   9
BRANCH   5  26
ATOM     24  O   UNL A   1     -23.941   1.454  24.520  0.00  0.00    -0.240 OA
ATOM     25  O   UNL A   1     -22.162   2.644  24.693  0.00  0.00    -0.240 OA
ATOM     26  C   UNL A   1     -23.057   2.036  25.203  0.00  0.00    +0.391 C 
ENDBRANCH   5  26
BRANCH   1  27
ATOM     27  C   UNL A   1     -25.273   0.006  29.153  0.00  0.00    +0.182 C 
ATOM     28  O   UNL A   1     -26.504   0.037  28.720  0.00  0.00    -0.221 OA
BRANCH  27  29
ATOM     29  C   UNL A   1     -24.855  -1.012  30.143  0.00  0.00    +0.071 C 
BRANCH  29  30
ATOM     30  C   UNL A   1     -24.973  -2.505  29.788  0.00  0.00    -0.019 C 
ATOM     31  C   UNL A   1     -23.906  -3.173  29.146  0.00  0.00    -0.004 C 
ATOM     32  C   UNL A   1     -23.989  -4.549  28.853  0.00  0.00    -0.000 C 
ATOM     33  C   UNL A   1     -25.137  -5.280  29.205  0.00  0.00    -0.000 C 
ATOM     34  C   UNL A   1     -26.232  -4.611  29.784  0.00  0.00    -0.000 C 
ATOM     35  C   UNL A   1     -26.155  -3.232  30.065  0.00  0.00    -0.004 C 
ENDBRANCH  29  30
BRANCH  29  36
ATOM     36  C   UNL A   1     -25.387  -0.679  31.571  0.00  0.00    +0.079 C 
ATOM     37  C   UNL A   1     -25.189   0.773  32.028  0.00  0.00    +0.019 C 
ATOM     38  C   UNL A   1     -25.336   0.684  33.544  0.00  0.00    +0.020 C 
ATOM     39  C   UNL A   1     -24.829  -0.715  33.905  0.00  0.00    +0.089 C 
ATOM     40  N   UNL A   1     -24.758  -1.481  32.646  0.00  0.00    -0.219 NA
ENDBRANCH  29  36
ENDBRANCH  27  29
ENDBRANCH   1  27
BRANCH   4  41
ATOM     41  C   UNL A   1     -20.787  -0.109  28.614  0.00  0.00    +0.085 C 
BRANCH  41  42
ATOM     42  C   UNL A   1     -19.859  -0.131  28.185  0.00  0.00    +0.199 C 
ATOM     43  F   UNL A   1     -19.237   1.349  28.293  0.00  0.00    -0.234 F 
ENDBRANCH  41  42
ENDBRANCH   4  41
TORSDOF 12
