REMARK  Name = outputs/IAG933/test6/raw/output_750_IAG933_linker_design_.xyz
REMARK  10 active torsions:
REMARK  status: ('A' for Active; 'I' for Inactive)
REMARK    1  A    between atoms: C_1  and  C_2
REMARK    2  A    between atoms: C_1  and  C_8
REMARK    3  A    between atoms: C_1  and  C_32
REMARK    4  A    between atoms: C_13  and  C_37
REMARK    5  A    between atoms: C_14  and  C_15
REMARK    6  A    between atoms: C_21  and  O_22
REMARK    7  A    between atoms: O_22  and  C_23
REMARK    8  A    between atoms: C_23  and  C_24
REMARK    9  A    between atoms: N_28  and  C_36
REMARK   10  A    between atoms: N_28  and  C_47
REMARK                            x       y       z     vdW  Elec       q    Type
REMARK                         _______ _______ _______ _____ _____    ______ ____
ROOT
ATOM      1 CL   UNL A   1     -23.049   1.910  25.169  0.00  0.00    -0.080 Cl
ATOM      2  C   UNL A   1     -24.322   0.034  29.179  0.00  0.00    +0.000 C 
ATOM      3  C   UNL A   1     -23.507   1.423  26.792  0.00  0.00    +0.086 C 
ATOM      4  C   UNL A   1     -25.173   0.984  28.527  0.00  0.00    +0.063 C 
ATOM      5  C   UNL A   1     -24.808   1.381  27.211  0.00  0.00    +0.030 C 
ATOM      6  F   UNL A   1     -21.301   1.475  27.333  0.00  0.00    -0.203 F 
ATOM      7  C   UNL A   1     -22.898   0.137  28.707  0.00  0.00    +0.028 C 
ATOM      8  C   UNL A   1     -22.545   0.996  27.629  0.00  0.00    +0.150 C 
ENDROOT
BRANCH   5   9
ATOM      9  C   UNL A   1     -25.688   1.614  26.461  0.00  0.00    +0.040 C 
ATOM     10  C   UNL A   1     -26.250   2.920  26.395  0.00  0.00    +0.077 C 
ATOM     11  C   UNL A   1     -27.438   3.091  25.645  0.00  0.00    +0.107 C 
ATOM     12  N   UNL A   1     -28.075   2.089  25.003  0.00  0.00    -0.208 NA
ATOM     13  C   UNL A   1     -27.543   0.849  25.079  0.00  0.00    +0.253 C 
ATOM     14  C   UNL A   1     -26.354   0.576  25.777  0.00  0.00    +0.193 C 
ATOM     15  F   UNL A   1     -25.860  -0.681  25.795  0.00  0.00    -0.199 F 
BRANCH  10  16
ATOM     16  C   UNL A   1     -25.642   4.093  27.123  0.00  0.00    +0.266 C 
ATOM     17  N   UNL A   1     -25.614   5.252  26.449  0.00  0.00    -0.200 NA
ATOM     18  C   UNL A   1     -25.026   6.479  26.963  0.00  0.00    +0.139 C 
ATOM     19  O   UNL A   1     -25.143   3.966  28.243  0.00  0.00    -0.268 OA
ENDBRANCH  10  16
BRANCH  13  20
ATOM     20  O   UNL A   1     -28.193  -0.208  24.477  0.00  0.00    -0.456 OA
BRANCH  20  21
ATOM     21  C   UNL A   1     -29.460   0.005  23.866  0.00  0.00    +0.243 C 
BRANCH  21  22
ATOM     22  C   UNL A   1     -30.065  -1.377  23.573  0.00  0.00    +0.229 C 
ATOM     23  O   UNL A   1     -30.729  -1.878  24.721  0.00  0.00    -0.216 OA
ENDBRANCH  21  22
ENDBRANCH  20  21
ENDBRANCH  13  20
ENDBRANCH   5   9
BRANCH   2  24
ATOM     24  C   UNL A   1     -24.855  -1.012  30.143  0.00  0.00    +0.062 C 
BRANCH  24  25
ATOM     25  C   UNL A   1     -24.973  -2.505  29.788  0.00  0.00    -0.017 C 
ATOM     26  C   UNL A   1     -23.906  -3.173  29.146  0.00  0.00    -0.004 C 
ATOM     27  C   UNL A   1     -23.989  -4.549  28.853  0.00  0.00    -0.000 C 
ATOM     28  C   UNL A   1     -25.137  -5.280  29.205  0.00  0.00    -0.000 C 
ATOM     29  C   UNL A   1     -26.232  -4.611  29.784  0.00  0.00    -0.000 C 
ATOM     30  C   UNL A   1     -26.155  -3.232  30.065  0.00  0.00    -0.004 C 
ENDBRANCH  24  25
BRANCH  24  31
ATOM     31  C   UNL A   1     -25.387  -0.679  31.571  0.00  0.00    +0.081 C 
ATOM     32  C   UNL A   1     -25.189   0.773  32.028  0.00  0.00    +0.019 C 
ATOM     33  C   UNL A   1     -25.336   0.684  33.544  0.00  0.00    +0.020 C 
ATOM     34  C   UNL A   1     -24.829  -0.715  33.905  0.00  0.00    +0.089 C 
ATOM     35  N   UNL A   1     -24.758  -1.481  32.646  0.00  0.00    -0.219 NA
ENDBRANCH  24  31
ENDBRANCH   2  24
BRANCH   4  36
ATOM     36  N   UNL A   1     -26.166   1.555  29.265  0.00  0.00    -0.235 NA
BRANCH  36  47
ATOM     37  C   UNL A   1     -29.700   3.957  30.594  0.00  0.00    +0.205 C 
ATOM     38  O   UNL A   1     -31.769  -0.846  27.967  0.00  0.00    -0.286 OA
ATOM     39  C   UNL A   1     -30.764   1.156  28.619  0.00  0.00    +0.079 C 
ATOM     40  O   UNL A   1     -30.140   3.160  29.540  0.00  0.00    -0.476 OA
ATOM     41  C   UNL A   1     -30.626  -0.202  28.346  0.00  0.00    +0.199 C 
ATOM     42  C   UNL A   1     -29.446  -0.917  28.570  0.00  0.00    +0.042 C 
ATOM     43  C   UNL A   1     -28.545   1.121  29.471  0.00  0.00    +0.032 C 
ATOM     44  C   UNL A   1     -28.593   3.350  31.452  0.00  0.00    +0.049 C 
ATOM     45  C   UNL A   1     -27.378   3.103  30.595  0.00  0.00    +0.030 C 
ATOM     46  C   UNL A   1     -29.767   1.814  29.241  0.00  0.00    +0.139 C 
ATOM     47  C   UNL A   1     -27.318   1.816  29.889  0.00  0.00    +0.118 C 
ATOM     48  C   UNL A   1     -28.432  -0.247  29.237  0.00  0.00    +0.004 C 
ENDBRANCH  36  47
ENDBRANCH   4  36
TORSDOF 10
