REMARK  Name = outputs/IAG933/test6/raw/output_7502_IAG933_linker_design_.xyz
REMARK  13 active torsions:
REMARK  status: ('A' for Active; 'I' for Inactive)
REMARK    1  A    between atoms: C_1  and  C_2
REMARK    2  A    between atoms: C_1  and  C_8
REMARK    3  A    between atoms: C_1  and  C_46
REMARK    4  A    between atoms: C_13  and  C_36
REMARK    5  A    between atoms: C_14  and  C_15
REMARK    6  A    between atoms: C_21  and  O_22
REMARK    7  A    between atoms: O_22  and  C_23
REMARK    8  A    between atoms: C_23  and  C_24
REMARK    9  A    between atoms: C_29  and  C_43
REMARK   10  A    between atoms: C_31  and  C_35
REMARK   11  A    between atoms: N_32  and  C_33
REMARK   12  A    between atoms: N_44  and  C_46
REMARK   13  A    between atoms: C_45  and  C_46
REMARK                            x       y       z     vdW  Elec       q    Type
REMARK                         _______ _______ _______ _____ _____    ______ ____
ROOT
ATOM      1  C   UNL A   1     -25.430  -0.090  29.014  0.00  0.00    +0.128 C 
ENDROOT
BRANCH   1   7
ATOM      2  C   UNL A   1     -23.005   0.668  29.180  0.00  0.00    +0.073 C 
ATOM      3  C   UNL A   1     -22.369   2.434  27.343  0.00  0.00    +0.003 C 
ATOM      4  C   UNL A   1     -24.458   1.312  27.146  0.00  0.00    +0.083 C 
ATOM      5  C   UNL A   1     -21.067   1.563  27.307  0.00  0.00    +0.002 C 
ATOM      6  C   UNL A   1     -21.905   1.310  28.346  0.00  0.00    +0.016 C 
ATOM      7  N   UNL A   1     -24.333   0.738  28.471  0.00  0.00    -0.261 NA
ATOM      8  C   UNL A   1     -23.438   1.815  26.257  0.00  0.00    +0.021 C 
BRANCH   4   9
ATOM      9  C   UNL A   1     -25.688   1.614  26.461  0.00  0.00    +0.030 C 
ATOM     10  C   UNL A   1     -26.250   2.920  26.395  0.00  0.00    +0.074 C 
ATOM     11  C   UNL A   1     -27.438   3.091  25.645  0.00  0.00    +0.106 C 
ATOM     12  N   UNL A   1     -28.075   2.089  25.003  0.00  0.00    -0.208 NA
ATOM     13  C   UNL A   1     -27.543   0.849  25.079  0.00  0.00    +0.253 C 
ATOM     14  C   UNL A   1     -26.354   0.576  25.777  0.00  0.00    +0.190 C 
ATOM     15  F   UNL A   1     -25.860  -0.681  25.795  0.00  0.00    -0.200 F 
BRANCH  10  16
ATOM     16  C   UNL A   1     -25.642   4.093  27.123  0.00  0.00    +0.266 C 
ATOM     17  N   UNL A   1     -25.614   5.252  26.449  0.00  0.00    -0.200 NA
ATOM     18  C   UNL A   1     -25.026   6.479  26.963  0.00  0.00    +0.139 C 
ATOM     19  O   UNL A   1     -25.143   3.966  28.243  0.00  0.00    -0.268 OA
ENDBRANCH  10  16
BRANCH  13  20
ATOM     20  O   UNL A   1     -28.193  -0.208  24.477  0.00  0.00    -0.456 OA
BRANCH  20  21
ATOM     21  C   UNL A   1     -29.460   0.005  23.866  0.00  0.00    +0.243 C 
BRANCH  21  22
ATOM     22  C   UNL A   1     -30.065  -1.377  23.573  0.00  0.00    +0.229 C 
ATOM     23  O   UNL A   1     -30.729  -1.878  24.721  0.00  0.00    -0.216 OA
ENDBRANCH  21  22
ENDBRANCH  20  21
ENDBRANCH  13  20
ENDBRANCH   4   9
ENDBRANCH   1   7
BRANCH   1  25
ATOM     24  C   UNL A   1     -28.110   0.121  28.773  0.00  0.00    -0.061 C 
ATOM     25  C   UNL A   1     -26.721  -0.037  28.813  0.00  0.00    -0.070 C 
BRANCH  24  27
ATOM     26  C   UNL A   1     -29.850   1.651  29.276  0.00  0.00    +0.070 C 
ATOM     27  C   UNL A   1     -29.393   0.335  28.867  0.00  0.00    +0.065 C 
BRANCH  26  29
ATOM     28  C   UNL A   1     -28.476   5.171  30.046  0.00  0.00    +0.082 C 
ATOM     29  N   UNL A   1     -28.964   2.780  29.921  0.00  0.00    -0.304 N 
ATOM     30  C   UNL A   1     -28.578   4.056  29.117  0.00  0.00    +0.096 C 
ATOM     31  C   UNL A   1     -29.609   3.282  31.130  0.00  0.00    +0.121 C 
ATOM     32  C   UNL A   1     -28.707   4.566  31.473  0.00  0.00    +0.149 C 
ATOM     33  C   UNL A   1     -28.843   5.769  32.443  0.00  0.00    +0.035 C 
ATOM     34  O   UNL A   1     -27.452   3.950  31.960  0.00  0.00    -0.224 OA
BRANCH  28  36
ATOM     35  O   UNL A   1     -29.399   6.656  28.218  0.00  0.00    -0.220 OA
ATOM     36  C   UNL A   1     -29.433   6.364  29.655  0.00  0.00    +0.186 C 
ENDBRANCH  28  36
ENDBRANCH  26  29
ENDBRANCH  24  27
ENDBRANCH   1  25
BRANCH   1  37
ATOM     37  C   UNL A   1     -24.855  -1.012  30.143  0.00  0.00    +0.065 C 
BRANCH  37  38
ATOM     38  C   UNL A   1     -24.973  -2.505  29.788  0.00  0.00    -0.019 C 
ATOM     39  C   UNL A   1     -23.906  -3.173  29.146  0.00  0.00    -0.004 C 
ATOM     40  C   UNL A   1     -23.989  -4.549  28.853  0.00  0.00    -0.000 C 
ATOM     41  C   UNL A   1     -25.137  -5.280  29.205  0.00  0.00    -0.000 C 
ATOM     42  C   UNL A   1     -26.232  -4.611  29.784  0.00  0.00    -0.000 C 
ATOM     43  C   UNL A   1     -26.155  -3.232  30.065  0.00  0.00    -0.004 C 
ENDBRANCH  37  38
BRANCH  37  44
ATOM     44  C   UNL A   1     -25.387  -0.679  31.571  0.00  0.00    +0.079 C 
ATOM     45  C   UNL A   1     -25.189   0.773  32.028  0.00  0.00    +0.019 C 
ATOM     46  C   UNL A   1     -25.336   0.684  33.544  0.00  0.00    +0.020 C 
ATOM     47  C   UNL A   1     -24.829  -0.715  33.905  0.00  0.00    +0.089 C 
ATOM     48  N   UNL A   1     -24.758  -1.481  32.646  0.00  0.00    -0.219 NA
ENDBRANCH  37  44
ENDBRANCH   1  37
TORSDOF 13
