REMARK  Name = outputs/IAG933/test6/raw/output_7509_IAG933_linker_design_.xyz
REMARK  15 active torsions:
REMARK  status: ('A' for Active; 'I' for Inactive)
REMARK    1  A    between atoms: C_1  and  C_2
REMARK    2  A    between atoms: C_1  and  C_8
REMARK    3  A    between atoms: C_1  and  C_40
REMARK    4  A    between atoms: C_13  and  C_32
REMARK    5  A    between atoms: C_14  and  C_15
REMARK    6  A    between atoms: C_21  and  O_22
REMARK    7  A    between atoms: O_22  and  C_23
REMARK    8  A    between atoms: C_23  and  C_24
REMARK    9  A    between atoms: C_28  and  C_31
REMARK   10  A    between atoms: C_31  and  C_32
REMARK   11  A    between atoms: C_31  and  C_40
REMARK   12  A    between atoms: C_32  and  C_39
REMARK   13  A    between atoms: C_37  and  C_39
REMARK   14  A    between atoms: C_38  and  C_41
REMARK   15  A    between atoms: C_38  and  C_42
REMARK                            x       y       z     vdW  Elec       q    Type
REMARK                         _______ _______ _______ _____ _____    ______ ____
ROOT
ATOM      1  C   UNL A   1     -25.586   1.191  28.996  0.00  0.00    +0.081 C 
ENDROOT
BRANCH   1   2
ATOM      2  C   UNL A   1     -26.796   1.861  29.800  0.00  0.00    +0.247 C 
ATOM      3  N   UNL A   1     -26.834   3.170  30.159  0.00  0.00    -0.145 NA
ATOM      4  O   UNL A   1     -27.747   1.131  30.151  0.00  0.00    -0.273 OA
ATOM      5  C   UNL A   1     -27.713   3.568  31.287  0.00  0.00    +0.247 C 
ATOM      6  O   UNL A   1     -28.866   4.059  31.016  0.00  0.00    -0.273 OA
BRANCH   5   8
ATOM      7  C   UNL A   1     -27.974   2.522  33.517  0.00  0.00    +0.010 C 
ATOM      8  C   UNL A   1     -27.247   3.429  32.567  0.00  0.00    +0.079 C 
BRANCH   8  10
ATOM      9  C   UNL A   1     -26.128   4.006  34.339  0.00  0.00    +0.001 C 
ATOM     10  C   UNL A   1     -25.931   4.017  33.116  0.00  0.00    +0.009 C 
ENDBRANCH   8  10
ENDBRANCH   5   8
ENDBRANCH   1   2
BRANCH   1  11
ATOM     11  C   UNL A   1     -24.826   1.277  27.568  0.00  0.00    +0.034 C 
BRANCH  11  12
ATOM     12  C   UNL A   1     -25.688   1.614  26.461  0.00  0.00    +0.072 C 
ATOM     13  C   UNL A   1     -26.250   2.920  26.395  0.00  0.00    +0.055 C 
ATOM     14  C   UNL A   1     -27.438   3.091  25.645  0.00  0.00    +0.102 C 
ATOM     15  N   UNL A   1     -28.075   2.089  25.003  0.00  0.00    -0.212 NA
ATOM     16  C   UNL A   1     -27.543   0.849  25.079  0.00  0.00    +0.234 C 
ATOM     17  C   UNL A   1     -26.354   0.576  25.777  0.00  0.00    +0.240 C 
ATOM     18  F   UNL A   1     -25.860  -0.681  25.795  0.00  0.00    -0.227 F 
BRANCH  13  19
ATOM     19  C   UNL A   1     -25.642   4.093  27.123  0.00  0.00    +0.262 C 
ATOM     20  N   UNL A   1     -25.614   5.252  26.449  0.00  0.00    -0.200 NA
ATOM     21  C   UNL A   1     -25.026   6.479  26.963  0.00  0.00    +0.139 C 
ATOM     22  O   UNL A   1     -25.143   3.966  28.243  0.00  0.00    -0.269 OA
ENDBRANCH  13  19
BRANCH  16  23
ATOM     23  O   UNL A   1     -28.193  -0.208  24.477  0.00  0.00    -0.459 OA
BRANCH  23  24
ATOM     24  C   UNL A   1     -29.460   0.005  23.866  0.00  0.00    +0.242 C 
BRANCH  24  25
ATOM     25  C   UNL A   1     -30.065  -1.377  23.573  0.00  0.00    +0.229 C 
ATOM     26  O   UNL A   1     -30.729  -1.878  24.721  0.00  0.00    -0.216 OA
ENDBRANCH  24  25
ENDBRANCH  23  24
ENDBRANCH  16  23
ENDBRANCH  11  12
BRANCH  11  27
ATOM     27  C   UNL A   1     -23.439   1.121  27.058  0.00  0.00    +0.111 C 
ATOM     28 CL   UNL A   1     -22.901   1.988  25.634  0.00  0.00    -0.112 Cl
BRANCH  27  31
ATOM     29  C   UNL A   1     -21.146   1.256  27.950  0.00  0.00    +0.037 C 
ATOM     30  O   UNL A   1     -22.965   1.835  29.408  0.00  0.00    -0.222 OA
ATOM     31  C   UNL A   1     -22.636   0.924  28.268  0.00  0.00    +0.167 C 
ENDBRANCH  27  31
ENDBRANCH  11  27
ENDBRANCH   1  11
BRANCH   1  32
ATOM     32  C   UNL A   1     -25.829  -0.384  29.112  0.00  0.00    +0.015 C 
BRANCH  32  33
ATOM     33  C   UNL A   1     -24.855  -1.012  30.143  0.00  0.00    +0.039 C 
BRANCH  33  34
ATOM     34  C   UNL A   1     -24.973  -2.505  29.788  0.00  0.00    -0.021 C 
ATOM     35  C   UNL A   1     -23.906  -3.173  29.146  0.00  0.00    -0.004 C 
ATOM     36  C   UNL A   1     -23.989  -4.549  28.853  0.00  0.00    -0.000 C 
ATOM     37  C   UNL A   1     -25.137  -5.280  29.205  0.00  0.00    -0.000 C 
ATOM     38  C   UNL A   1     -26.232  -4.611  29.784  0.00  0.00    -0.000 C 
ATOM     39  C   UNL A   1     -26.155  -3.232  30.065  0.00  0.00    -0.004 C 
ENDBRANCH  33  34
BRANCH  33  40
ATOM     40  C   UNL A   1     -25.387  -0.679  31.571  0.00  0.00    +0.077 C 
ATOM     41  C   UNL A   1     -25.189   0.773  32.028  0.00  0.00    +0.019 C 
ATOM     42  C   UNL A   1     -25.336   0.684  33.544  0.00  0.00    +0.020 C 
ATOM     43  C   UNL A   1     -24.829  -0.715  33.905  0.00  0.00    +0.089 C 
ATOM     44  N   UNL A   1     -24.758  -1.481  32.646  0.00  0.00    -0.219 NA
ENDBRANCH  33  40
ENDBRANCH  32  33
ENDBRANCH   1  32
TORSDOF 15
