MODEL 750
MODEL 1
REMARK VINA RESULT:    -8.362      0.000      0.000
REMARK INTER + INTRA:         -11.460
REMARK INTER:                 -10.317
REMARK INTRA:                  -1.143
REMARK UNBOUND:                -1.143
REMARK  Name = No_750-gen_results/8p0m/2024-11-27-11-27-31/
REMARK  4 active torsions:
REMARK  status: ('A' for Active; 'I' for Inactive)
REMARK    1  A    between atoms: C_3  and  C_4
REMARK    2  A    between atoms: C_4  and  C_5
REMARK    3  A    between atoms: C_4  and  C_9
REMARK    4  A    between atoms: C_18  and  C_20
REMARK                            x       y       z     vdW  Elec       q    Type
REMARK                         _______ _______ _______ _____ _____    ______ ____
ROOT
ATOM      1  C   UNL A   1     -23.921  -1.504  29.572  0.00  0.00    +0.067 C 
ENDROOT
BRANCH   1   4
ATOM      2  C   UNL A   1     -24.183  -4.981  28.565  0.00  0.00    -0.000 A 
ATOM      3  C   UNL A   1     -23.798  -3.850  28.755  0.00  0.00    -0.004 A 
ATOM      4  C   UNL A   1     -24.430  -2.880  29.353  0.00  0.00    -0.014 A 
ATOM      5  C   UNL A   1     -25.498  -5.375  29.107  0.00  0.00    -0.000 A 
ATOM      6  C   UNL A   1     -26.262  -4.434  29.704  0.00  0.00    -0.000 A 
ATOM      7  C   UNL A   1     -25.743  -3.088  29.906  0.00  0.00    -0.004 A 
ENDBRANCH   1   4
BRANCH   1   8
ATOM      8  C   UNL A   1     -23.941  -0.468  28.629  0.00  0.00    -0.014 A 
ATOM      9  C   UNL A   1     -22.800   0.547  28.722  0.00  0.00    -0.004 A 
ATOM     10  C   UNL A   1     -24.751  -0.315  27.470  0.00  0.00    -0.004 A 
ATOM     11  C   UNL A   1     -24.587   0.633  26.517  0.00  0.00    +0.004 A 
ATOM     12  C   UNL A   1     -23.513   1.551  26.629  0.00  0.00    +0.055 A 
ATOM     13  C   UNL A   1     -22.693   1.517  27.721  0.00  0.00    +0.004 A 
BRANCH  12  14
ATOM     14  C   UNL A   1     -23.338   2.644  25.646  0.00  0.00    +0.265 C 
ATOM     15  N   UNL A   1     -24.015   3.719  25.673  0.00  0.00    -0.200 NA
ATOM     16  O   UNL A   1     -22.421   2.537  24.742  0.00  0.00    -0.268 OA
ATOM     17  C   UNL A   1     -25.013   4.028  26.621  0.00  0.00    +0.139 C 
ENDBRANCH  12  14
ENDBRANCH   1   8
BRANCH   1  18
ATOM     18  C   UNL A   1     -24.363  -0.891  30.876  0.00  0.00    -0.014 A 
ATOM     19  C   UNL A   1     -25.371   0.130  30.799  0.00  0.00    -0.004 A 
ATOM     20  C   UNL A   1     -25.845   0.456  32.158  0.00  0.00    -0.000 A 
ATOM     21  C   UNL A   1     -23.818  -1.136  32.121  0.00  0.00    -0.004 A 
ATOM     22  C   UNL A   1     -24.206  -0.584  33.333  0.00  0.00    -0.000 A 
ATOM     23  C   UNL A   1     -25.333   0.271  33.288  0.00  0.00    -0.000 A 
ENDBRANCH   1  18
TORSDOF 4
ENDMDL
ENDMDL
