REMARK  Name = outputs/IAG933/test6/raw/output_751_IAG933_linker_design_.xyz
REMARK  15 active torsions:
REMARK  status: ('A' for Active; 'I' for Inactive)
REMARK    1  A    between atoms: C_1  and  C_2
REMARK    2  A    between atoms: C_1  and  C_8
REMARK    3  A    between atoms: C_1  and  N_34
REMARK    4  A    between atoms: C_13  and  C_32
REMARK    5  A    between atoms: C_14  and  C_15
REMARK    6  A    between atoms: C_21  and  O_22
REMARK    7  A    between atoms: O_22  and  C_23
REMARK    8  A    between atoms: C_23  and  C_24
REMARK    9  A    between atoms: C_28  and  C_32
REMARK   10  A    between atoms: C_30  and  C_33
REMARK   11  A    between atoms: C_30  and  C_40
REMARK   12  A    between atoms: C_32  and  C_36
REMARK   13  A    between atoms: C_33  and  C_39
REMARK   14  A    between atoms: N_34  and  C_36
REMARK   15  A    between atoms: N_37  and  C_39
REMARK                            x       y       z     vdW  Elec       q    Type
REMARK                         _______ _______ _______ _____ _____    ______ ____
ROOT
ATOM      1  O   UNL A   1     -27.400  -0.714  28.312  0.00  0.00    -0.275 OA
ATOM      2  N   UNL A   1     -25.363  -0.063  29.113  0.00  0.00    -0.276 N 
ATOM      3  C   UNL A   1     -26.754   0.108  28.978  0.00  0.00    +0.226 C 
ENDROOT
BRANCH   2   4
ATOM      4  C   UNL A   1     -24.855  -1.012  30.143  0.00  0.00    +0.114 C 
BRANCH   4   5
ATOM      5  C   UNL A   1     -24.973  -2.505  29.788  0.00  0.00    -0.003 C 
ATOM      6  C   UNL A   1     -23.906  -3.173  29.146  0.00  0.00    -0.003 C 
ATOM      7  C   UNL A   1     -23.989  -4.549  28.853  0.00  0.00    -0.000 C 
ATOM      8  C   UNL A   1     -25.137  -5.280  29.205  0.00  0.00    -0.000 C 
ATOM      9  C   UNL A   1     -26.232  -4.611  29.784  0.00  0.00    -0.000 C 
ATOM     10  C   UNL A   1     -26.155  -3.232  30.065  0.00  0.00    -0.003 C 
ENDBRANCH   4   5
BRANCH   4  11
ATOM     11  C   UNL A   1     -25.387  -0.679  31.571  0.00  0.00    +0.095 C 
ATOM     12  C   UNL A   1     -25.189   0.773  32.028  0.00  0.00    +0.021 C 
ATOM     13  C   UNL A   1     -25.336   0.684  33.544  0.00  0.00    +0.020 C 
ATOM     14  C   UNL A   1     -24.829  -0.715  33.905  0.00  0.00    +0.089 C 
ATOM     15  N   UNL A   1     -24.758  -1.481  32.646  0.00  0.00    -0.217 NA
ENDBRANCH   4  11
ENDBRANCH   2   4
BRANCH   3  16
ATOM     16  C   UNL A   1     -27.485   1.252  29.663  0.00  0.00    +0.087 C 
BRANCH  16  17
ATOM     17  C   UNL A   1     -28.718   0.446  30.020  0.00  0.00    +0.027 C 
BRANCH  17  18
ATOM     18  C   UNL A   1     -29.009   0.444  31.457  0.00  0.00    +0.073 C 
BRANCH  18  20
ATOM     19  C   UNL A   1     -31.534   2.053  32.751  0.00  0.00    +0.019 C 
ATOM     20  N   UNL A   1     -30.542   0.387  31.487  0.00  0.00    -0.273 NA
ATOM     21  C   UNL A   1     -31.028   1.420  30.565  0.00  0.00    +0.072 C 
ATOM     22  C   UNL A   1     -31.132   0.641  32.794  0.00  0.00    +0.072 C 
ATOM     23  C   UNL A   1     -32.149   2.085  31.366  0.00  0.00    +0.019 C 
ENDBRANCH  18  20
ENDBRANCH  17  18
ENDBRANCH  16  17
ENDBRANCH   3  16
BRANCH   2  24
ATOM     24  C   UNL A   1     -24.453   0.297  28.036  0.00  0.00    +0.098 C 
BRANCH  24  25
ATOM     25  C   UNL A   1     -24.371   1.307  27.111  0.00  0.00    +0.045 C 
BRANCH  25  26
ATOM     26  C   UNL A   1     -25.688   1.614  26.461  0.00  0.00    +0.017 C 
ATOM     27  C   UNL A   1     -26.250   2.920  26.395  0.00  0.00    +0.073 C 
ATOM     28  C   UNL A   1     -27.438   3.091  25.645  0.00  0.00    +0.106 C 
ATOM     29  N   UNL A   1     -28.075   2.089  25.003  0.00  0.00    -0.208 NA
ATOM     30  C   UNL A   1     -27.543   0.849  25.079  0.00  0.00    +0.253 C 
ATOM     31  C   UNL A   1     -26.354   0.576  25.777  0.00  0.00    +0.189 C 
ATOM     32  F   UNL A   1     -25.860  -0.681  25.795  0.00  0.00    -0.200 F 
BRANCH  27  33
ATOM     33  C   UNL A   1     -25.642   4.093  27.123  0.00  0.00    +0.266 C 
ATOM     34  N   UNL A   1     -25.614   5.252  26.449  0.00  0.00    -0.200 NA
ATOM     35  C   UNL A   1     -25.026   6.479  26.963  0.00  0.00    +0.139 C 
ATOM     36  O   UNL A   1     -25.143   3.966  28.243  0.00  0.00    -0.268 OA
ENDBRANCH  27  33
BRANCH  30  37
ATOM     37  O   UNL A   1     -28.193  -0.208  24.477  0.00  0.00    -0.456 OA
BRANCH  37  38
ATOM     38  C   UNL A   1     -29.460   0.005  23.866  0.00  0.00    +0.243 C 
BRANCH  38  39
ATOM     39  C   UNL A   1     -30.065  -1.377  23.573  0.00  0.00    +0.229 C 
ATOM     40  O   UNL A   1     -30.729  -1.878  24.721  0.00  0.00    -0.216 OA
ENDBRANCH  38  39
ENDBRANCH  37  38
ENDBRANCH  30  37
ENDBRANCH  25  26
BRANCH  25  41
ATOM     41  C   UNL A   1     -23.087   1.780  26.690  0.00  0.00    +0.006 C 
ATOM     42  C   UNL A   1     -21.832   1.833  27.613  0.00  0.00    +0.000 C 
ATOM     43  C   UNL A   1     -22.868   2.234  25.280  0.00  0.00    +0.000 C 
ENDBRANCH  25  41
ENDBRANCH  24  25
ENDBRANCH   2  24
TORSDOF 15
