REMARK  Name = outputs/IAG933/test6/raw/output_7517_IAG933_linker_design_.xyz
REMARK  10 active torsions:
REMARK  status: ('A' for Active; 'I' for Inactive)
REMARK    1  A    between atoms: C_1  and  C_2
REMARK    2  A    between atoms: C_1  and  C_8
REMARK    3  A    between atoms: C_1  and  C_38
REMARK    4  A    between atoms: C_13  and  C_37
REMARK    5  A    between atoms: C_14  and  C_15
REMARK    6  A    between atoms: C_21  and  O_22
REMARK    7  A    between atoms: O_22  and  C_23
REMARK    8  A    between atoms: C_23  and  C_24
REMARK    9  A    between atoms: C_30  and  C_38
REMARK   10  A    between atoms: N_36  and  C_38
REMARK                            x       y       z     vdW  Elec       q    Type
REMARK                         _______ _______ _______ _____ _____    ______ ____
ROOT
ATOM      1  F   UNL A   1     -23.156   1.797  25.036  0.00  0.00    -0.202 F 
ATOM      2  C   UNL A   1     -24.128   0.513  28.299  0.00  0.00    +0.027 A 
ATOM      3  F   UNL A   1     -20.966   2.530  26.553  0.00  0.00    -0.202 F 
ATOM      4  C   UNL A   1     -21.886   1.678  26.963  0.00  0.00    +0.166 A 
ATOM      5  C   UNL A   1     -22.756   0.116  28.623  0.00  0.00    +0.136 A 
ATOM      6  C   UNL A   1     -24.364   1.254  27.068  0.00  0.00    +0.032 A 
ATOM      7  C   UNL A   1     -20.298   0.287  28.385  0.00  0.00    +0.036 C 
ATOM      8  C   UNL A   1     -23.192   1.630  26.338  0.00  0.00    +0.167 A 
ATOM      9  C   UNL A   1     -21.626   0.728  27.988  0.00  0.00    +0.035 A 
ATOM     10  F   UNL A   1     -22.437  -0.815  29.536  0.00  0.00    -0.205 F 
ENDROOT
BRANCH   6  11
ATOM     11  C   UNL A   1     -25.688   1.614  26.461  0.00  0.00    +0.040 C 
ATOM     12  C   UNL A   1     -26.250   2.920  26.395  0.00  0.00    +0.077 C 
ATOM     13  C   UNL A   1     -27.438   3.091  25.645  0.00  0.00    +0.107 C 
ATOM     14  N   UNL A   1     -28.075   2.089  25.003  0.00  0.00    -0.208 NA
ATOM     15  C   UNL A   1     -27.543   0.849  25.079  0.00  0.00    +0.253 C 
ATOM     16  C   UNL A   1     -26.354   0.576  25.777  0.00  0.00    +0.193 C 
ATOM     17  F   UNL A   1     -25.860  -0.681  25.795  0.00  0.00    -0.199 F 
BRANCH  12  18
ATOM     18  C   UNL A   1     -25.642   4.093  27.123  0.00  0.00    +0.266 C 
ATOM     19  N   UNL A   1     -25.614   5.252  26.449  0.00  0.00    -0.200 NA
ATOM     20  C   UNL A   1     -25.026   6.479  26.963  0.00  0.00    +0.139 C 
ATOM     21  O   UNL A   1     -25.143   3.966  28.243  0.00  0.00    -0.268 OA
ENDBRANCH  12  18
BRANCH  15  22
ATOM     22  O   UNL A   1     -28.193  -0.208  24.477  0.00  0.00    -0.456 OA
BRANCH  22  23
ATOM     23  C   UNL A   1     -29.460   0.005  23.866  0.00  0.00    +0.243 C 
BRANCH  23  24
ATOM     24  C   UNL A   1     -30.065  -1.377  23.573  0.00  0.00    +0.229 C 
ATOM     25  O   UNL A   1     -30.729  -1.878  24.721  0.00  0.00    -0.216 OA
ENDBRANCH  23  24
ENDBRANCH  22  23
ENDBRANCH  15  22
ENDBRANCH   6  11
BRANCH   2  26
ATOM     26  C   UNL A   1     -25.211   0.384  29.066  0.00  0.00    +0.125 C 
BRANCH  26  30
ATOM     27  O   UNL A   1     -27.595  -0.662  28.480  0.00  0.00    -0.273 OA
ATOM     28  C   UNL A   1     -28.659   1.047  29.920  0.00  0.00    +0.096 C 
ATOM     29  C   UNL A   1     -27.453   0.395  29.084  0.00  0.00    +0.242 C 
ATOM     30  N   UNL A   1     -26.277   1.073  29.173  0.00  0.00    -0.202 NA
ENDBRANCH  26  30
BRANCH  26  31
ATOM     31  C   UNL A   1     -24.855  -1.012  30.143  0.00  0.00    +0.062 C 
BRANCH  31  32
ATOM     32  C   UNL A   1     -24.973  -2.505  29.788  0.00  0.00    -0.019 C 
ATOM     33  C   UNL A   1     -23.906  -3.173  29.146  0.00  0.00    -0.004 C 
ATOM     34  C   UNL A   1     -23.989  -4.549  28.853  0.00  0.00    -0.000 C 
ATOM     35  C   UNL A   1     -25.137  -5.280  29.205  0.00  0.00    -0.000 C 
ATOM     36  C   UNL A   1     -26.232  -4.611  29.784  0.00  0.00    -0.000 C 
ATOM     37  C   UNL A   1     -26.155  -3.232  30.065  0.00  0.00    -0.004 C 
ENDBRANCH  31  32
BRANCH  31  38
ATOM     38  C   UNL A   1     -25.387  -0.679  31.571  0.00  0.00    +0.079 C 
ATOM     39  C   UNL A   1     -25.189   0.773  32.028  0.00  0.00    +0.019 C 
ATOM     40  C   UNL A   1     -25.336   0.684  33.544  0.00  0.00    +0.020 C 
ATOM     41  C   UNL A   1     -24.829  -0.715  33.905  0.00  0.00    +0.089 C 
ATOM     42  N   UNL A   1     -24.758  -1.481  32.646  0.00  0.00    -0.219 NA
ENDBRANCH  31  38
ENDBRANCH  26  31
ENDBRANCH   2  26
TORSDOF 10
