REMARK  Name = outputs/IAG933/test6/raw/output_7519_IAG933_linker_design_.xyz
REMARK  10 active torsions:
REMARK  status: ('A' for Active; 'I' for Inactive)
REMARK    1  A    between atoms: C_1  and  C_2
REMARK    2  A    between atoms: C_1  and  C_8
REMARK    3  A    between atoms: C_1  and  N_40
REMARK    4  A    between atoms: C_13  and  C_35
REMARK    5  A    between atoms: C_14  and  C_15
REMARK    6  A    between atoms: C_21  and  O_22
REMARK    7  A    between atoms: O_22  and  C_23
REMARK    8  A    between atoms: C_23  and  C_24
REMARK    9  A    between atoms: N_29  and  C_38
REMARK   10  A    between atoms: N_40  and  C_43
REMARK                            x       y       z     vdW  Elec       q    Type
REMARK                         _______ _______ _______ _____ _____    ______ ____
ROOT
ATOM      1  N   UNL A   1     -27.446   1.435  28.872  0.00  0.00    -0.190 NA
ATOM      2  O   UNL A   1     -27.588  -0.741  29.101  0.00  0.00    -0.250 OA
ATOM      3  N   UNL A   1     -25.397  -0.016  29.108  0.00  0.00    -0.238 N 
ATOM      4  C   UNL A   1     -26.824   0.216  29.017  0.00  0.00    +0.327 C 
ENDROOT
BRANCH   3  11
ATOM      5  F   UNL A   1     -20.954   1.446  27.660  0.00  0.00    -0.228 F 
ATOM      6  C   UNL A   1     -23.103   1.718  26.767  0.00  0.00    -0.006 C 
ATOM      7  C   UNL A   1     -24.416   1.287  27.145  0.00  0.00    +0.011 C 
ATOM      8  C   UNL A   1     -22.964   0.486  28.655  0.00  0.00    +0.028 C 
ATOM      9  C   UNL A   1     -22.402   2.524  25.616  0.00  0.00    +0.029 C 
ATOM     10  C   UNL A   1     -22.277   1.226  27.719  0.00  0.00    +0.203 C 
ATOM     11  C   UNL A   1     -24.349   0.531  28.315  0.00  0.00    +0.054 C 
BRANCH   7  12
ATOM     12  C   UNL A   1     -25.688   1.614  26.461  0.00  0.00    +0.039 C 
ATOM     13  C   UNL A   1     -26.250   2.920  26.395  0.00  0.00    +0.077 C 
ATOM     14  C   UNL A   1     -27.438   3.091  25.645  0.00  0.00    +0.107 C 
ATOM     15  N   UNL A   1     -28.075   2.089  25.003  0.00  0.00    -0.208 NA
ATOM     16  C   UNL A   1     -27.543   0.849  25.079  0.00  0.00    +0.253 C 
ATOM     17  C   UNL A   1     -26.354   0.576  25.777  0.00  0.00    +0.193 C 
ATOM     18  F   UNL A   1     -25.860  -0.681  25.795  0.00  0.00    -0.199 F 
BRANCH  13  19
ATOM     19  C   UNL A   1     -25.642   4.093  27.123  0.00  0.00    +0.266 C 
ATOM     20  N   UNL A   1     -25.614   5.252  26.449  0.00  0.00    -0.200 NA
ATOM     21  C   UNL A   1     -25.026   6.479  26.963  0.00  0.00    +0.139 C 
ATOM     22  O   UNL A   1     -25.143   3.966  28.243  0.00  0.00    -0.268 OA
ENDBRANCH  13  19
BRANCH  16  23
ATOM     23  O   UNL A   1     -28.193  -0.208  24.477  0.00  0.00    -0.456 OA
BRANCH  23  24
ATOM     24  C   UNL A   1     -29.460   0.005  23.866  0.00  0.00    +0.243 C 
BRANCH  24  25
ATOM     25  C   UNL A   1     -30.065  -1.377  23.573  0.00  0.00    +0.229 C 
ATOM     26  O   UNL A   1     -30.729  -1.878  24.721  0.00  0.00    -0.216 OA
ENDBRANCH  24  25
ENDBRANCH  23  24
ENDBRANCH  16  23
ENDBRANCH   7  12
ENDBRANCH   3  11
BRANCH   1  30
ATOM     27  C   UNL A   1     -28.400   4.293  30.265  0.00  0.00    +0.000 C 
ATOM     28  C   UNL A   1     -28.896   1.879  30.803  0.00  0.00    +0.022 C 
ATOM     29  C   UNL A   1     -29.455   3.861  29.188  0.00  0.00    +0.002 C 
ATOM     30  C   UNL A   1     -28.817   1.622  29.291  0.00  0.00    +0.097 C 
ATOM     31  C   UNL A   1     -28.721   3.266  31.368  0.00  0.00    +0.002 C 
ATOM     32  C   UNL A   1     -29.338   2.731  28.367  0.00  0.00    +0.022 C 
ENDBRANCH   1  30
BRANCH   3  33
ATOM     33  C   UNL A   1     -24.855  -1.012  30.143  0.00  0.00    +0.119 C 
BRANCH  33  34
ATOM     34  C   UNL A   1     -24.973  -2.505  29.788  0.00  0.00    -0.003 C 
ATOM     35  C   UNL A   1     -23.906  -3.173  29.146  0.00  0.00    -0.003 C 
ATOM     36  C   UNL A   1     -23.989  -4.549  28.853  0.00  0.00    -0.000 C 
ATOM     37  C   UNL A   1     -25.137  -5.280  29.205  0.00  0.00    -0.000 C 
ATOM     38  C   UNL A   1     -26.232  -4.611  29.784  0.00  0.00    -0.000 C 
ATOM     39  C   UNL A   1     -26.155  -3.232  30.065  0.00  0.00    -0.003 C 
ENDBRANCH  33  34
BRANCH  33  40
ATOM     40  C   UNL A   1     -25.387  -0.679  31.571  0.00  0.00    +0.096 C 
ATOM     41  C   UNL A   1     -25.189   0.773  32.028  0.00  0.00    +0.021 C 
ATOM     42  C   UNL A   1     -25.336   0.684  33.544  0.00  0.00    +0.020 C 
ATOM     43  C   UNL A   1     -24.829  -0.715  33.905  0.00  0.00    +0.089 C 
ATOM     44  N   UNL A   1     -24.758  -1.481  32.646  0.00  0.00    -0.217 NA
ENDBRANCH  33  40
ENDBRANCH   3  33
TORSDOF 10
