REMARK  Name = outputs/IAG933/test6/raw/output_752_IAG933_linker_design_.xyz
REMARK  12 active torsions:
REMARK  status: ('A' for Active; 'I' for Inactive)
REMARK    1  A    between atoms: C_1  and  C_2
REMARK    2  A    between atoms: C_1  and  C_8
REMARK    3  A    between atoms: C_1  and  C_39
REMARK    4  A    between atoms: C_13  and  C_30
REMARK    5  A    between atoms: C_14  and  C_15
REMARK    6  A    between atoms: C_21  and  O_22
REMARK    7  A    between atoms: O_22  and  C_23
REMARK    8  A    between atoms: C_23  and  C_24
REMARK    9  A    between atoms: C_30  and  C_36
REMARK   10  A    between atoms: N_32  and  C_43
REMARK   11  A    between atoms: C_36  and  C_39
REMARK   12  A    between atoms: C_38  and  C_39
REMARK                            x       y       z     vdW  Elec       q    Type
REMARK                         _______ _______ _______ _____ _____    ______ ____
ROOT
ATOM      1  C   UNL A   1     -25.157  -0.131  29.019  0.00  0.00    +0.009 C 
ENDROOT
BRANCH   1   3
ATOM      2  C   UNL A   1     -27.032   1.865  29.592  0.00  0.00    +0.050 C 
ATOM      3  C   UNL A   1     -26.482   0.589  29.014  0.00  0.00    +0.047 C 
ATOM      4  O   UNL A   1     -28.347  -0.673  28.977  0.00  0.00    -0.209 OA
ATOM      5  C   UNL A   1     -27.992   0.706  29.266  0.00  0.00    +0.174 C 
BRANCH   5   8
ATOM      6  C   UNL A   1     -31.301   0.124  29.217  0.00  0.00    +0.018 C 
ATOM      7  C   UNL A   1     -30.808   2.132  27.526  0.00  0.00    +0.035 C 
ATOM      8  N   UNL A   1     -29.187   1.423  29.296  0.00  0.00    -0.253 NA
ATOM      9  N   UNL A   1     -30.692   4.488  26.776  0.00  0.00    -0.133 NA
ATOM     10  C   UNL A   1     -30.008   3.436  27.558  0.00  0.00    +0.095 C 
ATOM     11  C   UNL A   1     -29.505   2.726  30.009  0.00  0.00    +0.076 C 
ATOM     12  C   UNL A   1     -30.273   0.997  28.431  0.00  0.00    +0.061 C 
ATOM     13  C   UNL A   1     -29.693   3.878  28.981  0.00  0.00    +0.036 C 
ENDBRANCH   5   8
ENDBRANCH   1   3
BRANCH   1  15
ATOM     14  C   UNL A   1     -22.645   0.229  29.225  0.00  0.00    +0.000 C 
ATOM     15  C   UNL A   1     -24.017   0.838  28.678  0.00  0.00    +0.005 C 
BRANCH  15  16
ATOM     16  C   UNL A   1     -24.385   1.212  27.177  0.00  0.00    +0.025 C 
ATOM     17  C   UNL A   1     -23.089   1.854  26.492  0.00  0.00    +0.005 C 
BRANCH  16  18
ATOM     18  C   UNL A   1     -25.688   1.614  26.461  0.00  0.00    +0.016 C 
ATOM     19  C   UNL A   1     -26.250   2.920  26.395  0.00  0.00    +0.073 C 
ATOM     20  C   UNL A   1     -27.438   3.091  25.645  0.00  0.00    +0.106 C 
ATOM     21  N   UNL A   1     -28.075   2.089  25.003  0.00  0.00    -0.208 NA
ATOM     22  C   UNL A   1     -27.543   0.849  25.079  0.00  0.00    +0.253 C 
ATOM     23  C   UNL A   1     -26.354   0.576  25.777  0.00  0.00    +0.189 C 
ATOM     24  F   UNL A   1     -25.860  -0.681  25.795  0.00  0.00    -0.200 F 
BRANCH  19  25
ATOM     25  C   UNL A   1     -25.642   4.093  27.123  0.00  0.00    +0.266 C 
ATOM     26  N   UNL A   1     -25.614   5.252  26.449  0.00  0.00    -0.200 NA
ATOM     27  C   UNL A   1     -25.026   6.479  26.963  0.00  0.00    +0.139 C 
ATOM     28  O   UNL A   1     -25.143   3.966  28.243  0.00  0.00    -0.268 OA
ENDBRANCH  19  25
BRANCH  22  29
ATOM     29  O   UNL A   1     -28.193  -0.208  24.477  0.00  0.00    -0.456 OA
BRANCH  29  30
ATOM     30  C   UNL A   1     -29.460   0.005  23.866  0.00  0.00    +0.243 C 
BRANCH  30  31
ATOM     31  C   UNL A   1     -30.065  -1.377  23.573  0.00  0.00    +0.229 C 
ATOM     32  O   UNL A   1     -30.729  -1.878  24.721  0.00  0.00    -0.216 OA
ENDBRANCH  30  31
ENDBRANCH  29  30
ENDBRANCH  22  29
ENDBRANCH  16  18
ENDBRANCH  15  16
ENDBRANCH   1  15
BRANCH   1  33
ATOM     33  C   UNL A   1     -24.855  -1.012  30.143  0.00  0.00    +0.038 C 
BRANCH  33  34
ATOM     34  C   UNL A   1     -24.973  -2.505  29.788  0.00  0.00    -0.021 C 
ATOM     35  C   UNL A   1     -23.906  -3.173  29.146  0.00  0.00    -0.004 C 
ATOM     36  C   UNL A   1     -23.989  -4.549  28.853  0.00  0.00    -0.000 C 
ATOM     37  C   UNL A   1     -25.137  -5.280  29.205  0.00  0.00    -0.000 C 
ATOM     38  C   UNL A   1     -26.232  -4.611  29.784  0.00  0.00    -0.000 C 
ATOM     39  C   UNL A   1     -26.155  -3.232  30.065  0.00  0.00    -0.004 C 
ENDBRANCH  33  34
BRANCH  33  40
ATOM     40  C   UNL A   1     -25.387  -0.679  31.571  0.00  0.00    +0.077 C 
ATOM     41  C   UNL A   1     -25.189   0.773  32.028  0.00  0.00    +0.019 C 
ATOM     42  C   UNL A   1     -25.336   0.684  33.544  0.00  0.00    +0.020 C 
ATOM     43  C   UNL A   1     -24.829  -0.715  33.905  0.00  0.00    +0.089 C 
ATOM     44  N   UNL A   1     -24.758  -1.481  32.646  0.00  0.00    -0.219 NA
ENDBRANCH  33  40
ENDBRANCH   1  33
TORSDOF 12
