REMARK  Name = outputs/IAG933/test6/raw/output_7526_IAG933_linker_design_.xyz
REMARK  12 active torsions:
REMARK  status: ('A' for Active; 'I' for Inactive)
REMARK    1  A    between atoms: C_1  and  C_2
REMARK    2  A    between atoms: C_1  and  C_8
REMARK    3  A    between atoms: C_1  and  N_39
REMARK    4  A    between atoms: C_13  and  C_33
REMARK    5  A    between atoms: C_14  and  C_15
REMARK    6  A    between atoms: C_21  and  O_22
REMARK    7  A    between atoms: O_22  and  C_23
REMARK    8  A    between atoms: C_23  and  C_24
REMARK    9  A    between atoms: C_31  and  C_36
REMARK   10  A    between atoms: C_32  and  C_40
REMARK   11  A    between atoms: C_36  and  N_39
REMARK   12  A    between atoms: C_38  and  N_39
REMARK                            x       y       z     vdW  Elec       q    Type
REMARK                         _______ _______ _______ _____ _____    ______ ____
ROOT
ATOM      1  C   UNL A   1     -22.709   0.850  28.682  0.00  0.00    -0.006 C 
ATOM      2  C   UNL A   1     -24.414   1.344  27.095  0.00  0.00    +0.005 C 
ATOM      3  C   UNL A   1     -22.062   1.458  27.482  0.00  0.00    +0.003 C 
ATOM      4  C   UNL A   1     -24.144   0.747  28.294  0.00  0.00    +0.104 C 
ATOM      5  C   UNL A   1     -23.063   1.747  26.531  0.00  0.00    +0.077 C 
ENDROOT
BRANCH   2   6
ATOM      6  C   UNL A   1     -25.688   1.614  26.461  0.00  0.00    +0.036 C 
ATOM      7  C   UNL A   1     -26.250   2.920  26.395  0.00  0.00    +0.076 C 
ATOM      8  C   UNL A   1     -27.438   3.091  25.645  0.00  0.00    +0.107 C 
ATOM      9  N   UNL A   1     -28.075   2.089  25.003  0.00  0.00    -0.208 NA
ATOM     10  C   UNL A   1     -27.543   0.849  25.079  0.00  0.00    +0.253 C 
ATOM     11  C   UNL A   1     -26.354   0.576  25.777  0.00  0.00    +0.193 C 
ATOM     12  F   UNL A   1     -25.860  -0.681  25.795  0.00  0.00    -0.199 F 
BRANCH   7  13
ATOM     13  C   UNL A   1     -25.642   4.093  27.123  0.00  0.00    +0.266 C 
ATOM     14  N   UNL A   1     -25.614   5.252  26.449  0.00  0.00    -0.200 NA
ATOM     15  C   UNL A   1     -25.026   6.479  26.963  0.00  0.00    +0.139 C 
ATOM     16  O   UNL A   1     -25.143   3.966  28.243  0.00  0.00    -0.268 OA
ENDBRANCH   7  13
BRANCH  10  17
ATOM     17  O   UNL A   1     -28.193  -0.208  24.477  0.00  0.00    -0.456 OA
BRANCH  17  18
ATOM     18  C   UNL A   1     -29.460   0.005  23.866  0.00  0.00    +0.243 C 
BRANCH  18  19
ATOM     19  C   UNL A   1     -30.065  -1.377  23.573  0.00  0.00    +0.229 C 
ATOM     20  O   UNL A   1     -30.729  -1.878  24.721  0.00  0.00    -0.216 OA
ENDBRANCH  18  19
ENDBRANCH  17  18
ENDBRANCH  10  17
ENDBRANCH   2   6
BRANCH   5  22
ATOM     21  O   UNL A   1     -23.150   3.185  24.663  0.00  0.00    -0.241 OA
ATOM     22  C   UNL A   1     -23.115   2.021  25.116  0.00  0.00    +0.388 C 
ATOM     23  O   UNL A   1     -23.330   1.032  24.317  0.00  0.00    -0.241 OA
ENDBRANCH   5  22
BRANCH   4  24
ATOM     24  N   UNL A   1     -24.971   0.053  29.113  0.00  0.00    -0.255 NA
BRANCH  24  25
ATOM     25  C   UNL A   1     -24.855  -1.012  30.143  0.00  0.00    +0.097 C 
BRANCH  25  26
ATOM     26  C   UNL A   1     -24.973  -2.505  29.788  0.00  0.00    -0.006 C 
ATOM     27  C   UNL A   1     -23.906  -3.173  29.146  0.00  0.00    -0.003 C 
ATOM     28  C   UNL A   1     -23.989  -4.549  28.853  0.00  0.00    -0.000 C 
ATOM     29  C   UNL A   1     -25.137  -5.280  29.205  0.00  0.00    -0.000 C 
ATOM     30  C   UNL A   1     -26.232  -4.611  29.784  0.00  0.00    -0.000 C 
ATOM     31  C   UNL A   1     -26.155  -3.232  30.065  0.00  0.00    -0.003 C 
ENDBRANCH  25  26
BRANCH  25  32
ATOM     32  C   UNL A   1     -25.387  -0.679  31.571  0.00  0.00    +0.092 C 
ATOM     33  C   UNL A   1     -25.189   0.773  32.028  0.00  0.00    +0.021 C 
ATOM     34  C   UNL A   1     -25.336   0.684  33.544  0.00  0.00    +0.020 C 
ATOM     35  C   UNL A   1     -24.829  -0.715  33.905  0.00  0.00    +0.089 C 
ATOM     36  N   UNL A   1     -24.758  -1.481  32.646  0.00  0.00    -0.218 NA
ENDBRANCH  25  32
ENDBRANCH  24  25
BRANCH  24  37
ATOM     37  C   UNL A   1     -26.253   0.612  28.607  0.00  0.00    +0.163 C 
BRANCH  37  39
ATOM     38  O   UNL A   1     -27.650   0.031  29.154  0.00  0.00    -0.270 OA
ATOM     39  C   UNL A   1     -27.360   1.050  29.405  0.00  0.00    +0.277 C 
ATOM     40  N   UNL A   1     -27.876   2.195  29.836  0.00  0.00    -0.087 NA
ENDBRANCH  37  39
ENDBRANCH  24  37
ENDBRANCH   4  24
TORSDOF 12
