REMARK  Name = outputs/IAG933/test6/raw/output_7528_IAG933_linker_design_.xyz
REMARK  14 active torsions:
REMARK  status: ('A' for Active; 'I' for Inactive)
REMARK    1  A    between atoms: C_1  and  C_2
REMARK    2  A    between atoms: C_1  and  C_8
REMARK    3  A    between atoms: C_9  and  C_57
REMARK    4  A    between atoms: C_13  and  C_31
REMARK    5  A    between atoms: C_14  and  C_15
REMARK    6  A    between atoms: C_21  and  O_22
REMARK    7  A    between atoms: O_22  and  C_23
REMARK    8  A    between atoms: C_23  and  C_24
REMARK    9  A    between atoms: C_28  and  C_49
REMARK   10  A    between atoms: C_31  and  C_42
REMARK   11  A    between atoms: C_31  and  C_59
REMARK   12  A    between atoms: C_35  and  O_39
REMARK   13  A    between atoms: C_40  and  C_51
REMARK   14  A    between atoms: C_42  and  C_49
REMARK                            x       y       z     vdW  Elec       q    Type
REMARK                         _______ _______ _______ _____ _____    ______ ____
ROOT
ATOM      1  C   UNL A   1     -25.010   2.728  30.279  0.00  0.00    +0.003 C 
ATOM      2  N   UNL A   1     -28.189   5.006  31.043  0.00  0.00    -0.209 NA
ATOM      3  C   UNL A   1     -27.354   5.855  30.389  0.00  0.00    +0.176 C 
ATOM      4  C   UNL A   1     -25.990   5.371  30.426  0.00  0.00    +0.140 C 
ATOM      5  C   UNL A   1     -26.573   8.685  31.777  0.00  0.00    +0.240 C 
ATOM      6  C   UNL A   1     -26.288   7.747  32.904  0.00  0.00    +0.057 C 
ATOM      7  O   UNL A   1     -25.153   6.538  30.332  0.00  0.00    -0.354 OA
ATOM      8  C   UNL A   1     -27.859   3.595  31.189  0.00  0.00    +0.073 C 
ATOM      9  N   UNL A   1     -27.635   8.306  30.659  0.00  0.00    -0.184 N 
ATOM     10  C   UNL A   1     -27.674   7.053  29.852  0.00  0.00    +0.253 C 
ATOM     11  O   UNL A   1     -27.889   7.295  28.506  0.00  0.00    -0.273 OA
ATOM     12  O   UNL A   1     -29.730   8.788  29.739  0.00  0.00    -0.248 OA
ATOM     13  C   UNL A   1     -24.342   6.900  31.487  0.00  0.00    +0.142 C 
ATOM     14  C   UNL A   1     -28.777   9.168  30.419  0.00  0.00    +0.350 C 
ATOM     15  C   UNL A   1     -25.630   4.085  30.622  0.00  0.00    +0.030 C 
ATOM     16  C   UNL A   1     -26.433   3.340  31.706  0.00  0.00    +0.018 C 
ATOM     17  N   UNL A   1     -28.891  10.582  30.957  0.00  0.00    -0.069 NA
ATOM     18  C   UNL A   1     -26.011   1.921  31.432  0.00  0.00    +0.003 C 
ATOM     19  C   UNL A   1     -24.720   7.663  32.808  0.00  0.00    +0.036 C 
ENDROOT
BRANCH   8  24
ATOM     20  C   UNL A   1     -28.779   0.219  30.635  0.00  0.00    +0.000 C 
ATOM     21  C   UNL A   1     -30.094   2.864  30.391  0.00  0.00    +0.001 C 
ATOM     22  C   UNL A   1     -30.865   1.563  30.263  0.00  0.00    +0.000 C 
ATOM     23  C   UNL A   1     -30.271   0.273  30.787  0.00  0.00    +0.000 C 
ATOM     24  C   UNL A   1     -28.514   2.800  30.203  0.00  0.00    +0.016 C 
ATOM     25  C   UNL A   1     -28.101   1.408  29.811  0.00  0.00    +0.001 C 
ENDBRANCH   8  24
BRANCH  18  27
ATOM     26  C   UNL A   1     -25.387  -0.679  31.571  0.00  0.00    +0.077 C 
ATOM     27  C   UNL A   1     -25.189   0.773  32.028  0.00  0.00    +0.018 C 
ATOM     28  C   UNL A   1     -25.336   0.684  33.544  0.00  0.00    +0.020 C 
ATOM     29  C   UNL A   1     -24.829  -0.715  33.905  0.00  0.00    +0.089 C 
ATOM     30  N   UNL A   1     -24.758  -1.481  32.646  0.00  0.00    -0.219 NA
BRANCH  26  31
ATOM     31  C   UNL A   1     -24.855  -1.012  30.143  0.00  0.00    +0.044 C 
BRANCH  31  32
ATOM     32  C   UNL A   1     -24.973  -2.505  29.788  0.00  0.00    -0.021 C 
ATOM     33  C   UNL A   1     -23.906  -3.173  29.146  0.00  0.00    -0.004 C 
ATOM     34  C   UNL A   1     -23.989  -4.549  28.853  0.00  0.00    -0.000 C 
ATOM     35  C   UNL A   1     -25.137  -5.280  29.205  0.00  0.00    -0.000 C 
ATOM     36  C   UNL A   1     -26.232  -4.611  29.784  0.00  0.00    -0.000 C 
ATOM     37  C   UNL A   1     -26.155  -3.232  30.065  0.00  0.00    -0.004 C 
ENDBRANCH  31  32
ENDBRANCH  26  31
ENDBRANCH  18  27
BRANCH   5  38
ATOM     38  O   UNL A   1     -25.837   9.822  31.724  0.00  0.00    -0.170 OA
ATOM     39  O   UNL A   1     -25.804  10.531  32.894  0.00  0.00    -0.033 OA
ENDBRANCH   5  38
BRANCH   1  40
ATOM     40  C   UNL A   1     -24.046   2.056  29.477  0.00  0.00    +0.000 C 
BRANCH  40  41
ATOM     41  C   UNL A   1     -24.714   1.078  28.505  0.00  0.00    +0.004 C 
BRANCH  41  42
ATOM     42  C   UNL A   1     -24.187   1.292  27.105  0.00  0.00    +0.025 C 
BRANCH  42  43
ATOM     43  C   UNL A   1     -25.688   1.614  26.461  0.00  0.00    +0.016 C 
ATOM     44  C   UNL A   1     -26.250   2.920  26.395  0.00  0.00    +0.073 C 
ATOM     45  C   UNL A   1     -27.438   3.091  25.645  0.00  0.00    +0.106 C 
ATOM     46  N   UNL A   1     -28.075   2.089  25.003  0.00  0.00    -0.208 NA
ATOM     47  C   UNL A   1     -27.543   0.849  25.079  0.00  0.00    +0.253 C 
ATOM     48  C   UNL A   1     -26.354   0.576  25.777  0.00  0.00    +0.189 C 
ATOM     49  F   UNL A   1     -25.860  -0.681  25.795  0.00  0.00    -0.200 F 
BRANCH  44  50
ATOM     50  C   UNL A   1     -25.642   4.093  27.123  0.00  0.00    +0.266 C 
ATOM     51  N   UNL A   1     -25.614   5.252  26.449  0.00  0.00    -0.200 NA
ATOM     52  C   UNL A   1     -25.026   6.479  26.963  0.00  0.00    +0.139 C 
ATOM     53  O   UNL A   1     -25.143   3.966  28.243  0.00  0.00    -0.268 OA
ENDBRANCH  44  50
BRANCH  47  54
ATOM     54  O   UNL A   1     -28.193  -0.208  24.477  0.00  0.00    -0.456 OA
BRANCH  54  55
ATOM     55  C   UNL A   1     -29.460   0.005  23.866  0.00  0.00    +0.243 C 
BRANCH  55  56
ATOM     56  C   UNL A   1     -30.065  -1.377  23.573  0.00  0.00    +0.229 C 
ATOM     57  O   UNL A   1     -30.729  -1.878  24.721  0.00  0.00    -0.216 OA
ENDBRANCH  55  56
ENDBRANCH  54  55
ENDBRANCH  47  54
ENDBRANCH  42  43
BRANCH  42  59
ATOM     58  C   UNL A   1     -21.779   1.717  27.978  0.00  0.00    +0.000 C 
ATOM     59  C   UNL A   1     -22.888   1.840  26.990  0.00  0.00    +0.004 C 
ENDBRANCH  42  59
ENDBRANCH  41  42
ENDBRANCH  40  41
ENDBRANCH   1  40
TORSDOF 14
