MODEL 752
MODEL 1
REMARK VINA RESULT:    -7.115      0.000      0.000
REMARK INTER + INTRA:         -11.364
REMARK INTER:                 -10.027
REMARK INTRA:                  -1.337
REMARK UNBOUND:                -1.337
REMARK  Name = No_752-gen_results/8p0m/2024-11-27-11-27-31/
REMARK  7 active torsions:
REMARK  status: ('A' for Active; 'I' for Inactive)
REMARK    1  A    between atoms: C_3  and  C_7
REMARK    2  A    between atoms: C_6  and  O_13
REMARK    3  A    between atoms: O_13  and  C_14
REMARK    4  A    between atoms: C_14  and  C_15
REMARK    5  A    between atoms: C_15  and  C_16
REMARK    6  A    between atoms: C_17  and  C_18
REMARK    7  A    between atoms: C_19  and  C_20
REMARK                            x       y       z     vdW  Elec       q    Type
REMARK                         _______ _______ _______ _____ _____    ______ ____
ROOT
ATOM      1  C   UNL A   1     -25.410   2.579  25.923  0.00  0.00    +0.037 A 
ATOM      2  C   UNL A   1     -26.521   2.377  25.489  0.00  0.00    +0.003 A 
ATOM      3  C   UNL A   1     -26.923   1.164  24.932  0.00  0.00    +0.000 A 
ATOM      4  C   UNL A   1     -25.955   0.091  24.802  0.00  0.00    +0.003 A 
ATOM      5  C   UNL A   1     -24.682   0.373  25.296  0.00  0.00    +0.037 A 
ATOM      6  C   UNL A   1     -24.389   1.537  25.815  0.00  0.00    +0.139 A 
ENDROOT
BRANCH   3   7
ATOM      7  C   UNL A   1     -28.266   0.836  24.384  0.00  0.00    +0.000 A 
ATOM      8  C   UNL A   1     -28.585  -0.379  24.037  0.00  0.00    +0.000 A 
ATOM      9  C   UNL A   1     -29.858  -0.675  23.439  0.00  0.00    +0.000 A 
ATOM     10  C   UNL A   1     -30.742   0.285  23.077  0.00  0.00    +0.000 A 
ATOM     11  C   UNL A   1     -29.194   1.896  24.011  0.00  0.00    +0.000 A 
ATOM     12  C   UNL A   1     -30.424   1.591  23.363  0.00  0.00    +0.000 A 
ENDBRANCH   3   7
BRANCH   6  13
ATOM     13  O   UNL A   1     -23.105   1.772  26.245  0.00  0.00    -0.475 OA
BRANCH  13  14
ATOM     14  C   UNL A   1     -22.798   1.937  27.582  0.00  0.00    +0.210 C 
BRANCH  14  15
ATOM     15  C   UNL A   1     -21.841   0.898  28.009  0.00  0.00    +0.073 C 
BRANCH  15  16
ATOM     16  C   UNL A   1     -22.410   0.060  28.887  0.00  0.00    -0.022 C 
ATOM     17  C   UNL A   1     -23.029  -0.848  28.802  0.00  0.00    -0.002 C 
BRANCH  17  18
ATOM     18  C   UNL A   1     -23.419  -1.813  29.176  0.00  0.00    +0.030 C 
ATOM     19  C   UNL A   1     -23.896  -2.931  29.046  0.00  0.00    +0.184 C 
ATOM     20  F   UNL A   1     -24.489  -2.656  28.271  0.00  0.00    -0.203 F 
BRANCH  19  21
ATOM     21  C   UNL A   1     -24.247  -4.035  28.897  0.00  0.00    +0.368 C 
ATOM     22  F   UNL A   1     -23.704  -4.524  28.054  0.00  0.00    -0.191 F 
ATOM     23  F   UNL A   1     -25.620  -4.122  28.753  0.00  0.00    -0.191 F 
ENDBRANCH  19  21
ENDBRANCH  17  18
ENDBRANCH  15  16
ENDBRANCH  14  15
ENDBRANCH  13  14
ENDBRANCH   6  13
TORSDOF 7
ENDMDL
ENDMDL
