REMARK  Name = outputs/IAG933/test6/raw/output_753_IAG933_linker_design_.xyz
REMARK  9 active torsions:
REMARK  status: ('A' for Active; 'I' for Inactive)
REMARK    1  A    between atoms: C_1  and  C_2
REMARK    2  A    between atoms: C_1  and  C_8
REMARK    3  A    between atoms: C_1  and  N_35
REMARK    4  A    between atoms: C_13  and  N_42
REMARK    5  A    between atoms: C_14  and  C_15
REMARK    6  A    between atoms: C_21  and  O_22
REMARK    7  A    between atoms: O_22  and  C_23
REMARK    8  A    between atoms: C_23  and  C_24
REMARK    9  A    between atoms: C_28  and  C_30
REMARK                            x       y       z     vdW  Elec       q    Type
REMARK                         _______ _______ _______ _____ _____    ______ ____
ROOT
ATOM      1  C   UNL A   1     -25.218   1.001  28.950  0.00  0.00    +0.164 C 
ATOM      2  C   UNL A   1     -22.367   1.045  28.232  0.00  0.00    +0.244 C 
ATOM      3  O   UNL A   1     -20.982   1.335  27.867  0.00  0.00    -0.212 OA
ATOM      4  C   UNL A   1     -22.753  -0.034  29.392  0.00  0.00    +0.117 C 
ATOM      5  N   UNL A   1     -24.234   0.154  29.530  0.00  0.00    -0.248 NA
ATOM      6  O   UNL A   1     -22.870   2.390  26.333  0.00  0.00    -0.272 OA
ATOM      7  C   UNL A   1     -23.329   1.900  27.424  0.00  0.00    +0.263 C 
ATOM      8  N   UNL A   1     -24.642   1.473  27.472  0.00  0.00    -0.238 N 
ENDROOT
BRANCH   1   9
ATOM      9  C   UNL A   1     -26.635   1.470  29.367  0.00  0.00    +0.004 C 
ATOM     10  C   UNL A   1     -29.571   2.588  31.270  0.00  0.00    +0.026 C 
ATOM     11  N   UNL A   1     -29.043   3.719  31.863  0.00  0.00    -0.301 N 
ATOM     12  C   UNL A   1     -31.246   2.169  33.043  0.00  0.00    +0.093 C 
ATOM     13  C   UNL A   1     -29.721   4.179  33.041  0.00  0.00    +0.157 C 
ATOM     14  C   UNL A   1     -30.573   1.753  31.850  0.00  0.00    -0.008 C 
ATOM     15  C   UNL A   1     -28.820   2.341  30.104  0.00  0.00    +0.064 C 
ATOM     16  C   UNL A   1     -27.572   2.650  30.294  0.00  0.00    -0.020 C 
ATOM     17  C   UNL A   1     -27.661   3.851  31.296  0.00  0.00    +0.114 C 
ATOM     18  C   UNL A   1     -30.635   3.274  33.721  0.00  0.00    +0.175 C 
ATOM     19  O   UNL A   1     -30.889   3.329  34.951  0.00  0.00    -0.294 OA
ENDBRANCH   1   9
BRANCH   8  20
ATOM     20  C   UNL A   1     -25.688   1.614  26.461  0.00  0.00    +0.093 C 
ATOM     21  C   UNL A   1     -26.250   2.920  26.395  0.00  0.00    +0.090 C 
ATOM     22  C   UNL A   1     -27.438   3.091  25.645  0.00  0.00    +0.108 C 
ATOM     23  N   UNL A   1     -28.075   2.089  25.003  0.00  0.00    -0.208 NA
ATOM     24  C   UNL A   1     -27.543   0.849  25.079  0.00  0.00    +0.255 C 
ATOM     25  C   UNL A   1     -26.354   0.576  25.777  0.00  0.00    +0.207 C 
ATOM     26  F   UNL A   1     -25.860  -0.681  25.795  0.00  0.00    -0.198 F 
BRANCH  21  27
ATOM     27  C   UNL A   1     -25.642   4.093  27.123  0.00  0.00    +0.268 C 
ATOM     28  N   UNL A   1     -25.614   5.252  26.449  0.00  0.00    -0.200 NA
ATOM     29  C   UNL A   1     -25.026   6.479  26.963  0.00  0.00    +0.139 C 
ATOM     30  O   UNL A   1     -25.143   3.966  28.243  0.00  0.00    -0.268 OA
ENDBRANCH  21  27
BRANCH  24  31
ATOM     31  O   UNL A   1     -28.193  -0.208  24.477  0.00  0.00    -0.456 OA
BRANCH  31  32
ATOM     32  C   UNL A   1     -29.460   0.005  23.866  0.00  0.00    +0.243 C 
BRANCH  32  33
ATOM     33  C   UNL A   1     -30.065  -1.377  23.573  0.00  0.00    +0.229 C 
ATOM     34  O   UNL A   1     -30.729  -1.878  24.721  0.00  0.00    -0.216 OA
ENDBRANCH  32  33
ENDBRANCH  31  32
ENDBRANCH  24  31
ENDBRANCH   8  20
BRANCH   5  35
ATOM     35  C   UNL A   1     -24.855  -1.012  30.143  0.00  0.00    +0.098 C 
BRANCH  35  36
ATOM     36  C   UNL A   1     -24.973  -2.505  29.788  0.00  0.00    -0.006 C 
ATOM     37  C   UNL A   1     -23.906  -3.173  29.146  0.00  0.00    -0.003 C 
ATOM     38  C   UNL A   1     -23.989  -4.549  28.853  0.00  0.00    -0.000 C 
ATOM     39  C   UNL A   1     -25.137  -5.280  29.205  0.00  0.00    -0.000 C 
ATOM     40  C   UNL A   1     -26.232  -4.611  29.784  0.00  0.00    -0.000 C 
ATOM     41  C   UNL A   1     -26.155  -3.232  30.065  0.00  0.00    -0.003 C 
ENDBRANCH  35  36
BRANCH  35  42
ATOM     42  C   UNL A   1     -25.387  -0.679  31.571  0.00  0.00    +0.092 C 
ATOM     43  C   UNL A   1     -25.189   0.773  32.028  0.00  0.00    +0.021 C 
ATOM     44  C   UNL A   1     -25.336   0.684  33.544  0.00  0.00    +0.020 C 
ATOM     45  C   UNL A   1     -24.829  -0.715  33.905  0.00  0.00    +0.089 C 
ATOM     46  N   UNL A   1     -24.758  -1.481  32.646  0.00  0.00    -0.218 NA
ENDBRANCH  35  42
ENDBRANCH   5  35
TORSDOF 9
