REMARK  Name = outputs/IAG933/test6/raw/output_7530_IAG933_linker_design_.xyz
REMARK  11 active torsions:
REMARK  status: ('A' for Active; 'I' for Inactive)
REMARK    1  A    between atoms: C_1  and  C_2
REMARK    2  A    between atoms: C_1  and  C_8
REMARK    3  A    between atoms: C_1  and  C_34
REMARK    4  A    between atoms: C_9  and  C_40
REMARK    5  A    between atoms: C_13  and  C_28
REMARK    6  A    between atoms: C_14  and  C_15
REMARK    7  A    between atoms: C_21  and  O_22
REMARK    8  A    between atoms: O_22  and  C_23
REMARK    9  A    between atoms: C_23  and  C_24
REMARK   10  A    between atoms: C_37  and  C_38
REMARK   11  A    between atoms: C_37  and  C_40
REMARK                            x       y       z     vdW  Elec       q    Type
REMARK                         _______ _______ _______ _____ _____    ______ ____
ROOT
ATOM      1  C   UNL A   1     -24.529   1.347  27.148  0.00  0.00    +0.100 A 
ATOM      2  O   UNL A   1     -26.408  -0.295  28.491  0.00  0.00    -0.271 OA
ATOM      3  F   UNL A   1     -21.135   1.898  27.692  0.00  0.00    -0.199 F 
ATOM      4  C   UNL A   1     -23.296   1.782  26.673  0.00  0.00    +0.186 A 
ATOM      5  C   UNL A   1     -22.397   1.459  27.642  0.00  0.00    +0.202 A 
ATOM      6  N   UNL A   1     -24.394   0.705  28.306  0.00  0.00    -0.259 N 
ATOM      7  C   UNL A   1     -25.273  -0.141  28.944  0.00  0.00    +0.247 C 
ATOM      8  N   UNL A   1     -22.469   0.590  29.631  0.00  0.00    -0.106 NA
ATOM      9  C   UNL A   1     -23.057   0.763  28.641  0.00  0.00    +0.187 A 
ATOM     10  F   UNL A   1     -23.113   2.431  25.560  0.00  0.00    -0.200 F 
ENDROOT
BRANCH   1  11
ATOM     11  C   UNL A   1     -25.688   1.614  26.461  0.00  0.00    +0.057 C 
ATOM     12  C   UNL A   1     -26.250   2.920  26.395  0.00  0.00    +0.078 C 
ATOM     13  C   UNL A   1     -27.438   3.091  25.645  0.00  0.00    +0.107 C 
ATOM     14  N   UNL A   1     -28.075   2.089  25.003  0.00  0.00    -0.208 NA
ATOM     15  C   UNL A   1     -27.543   0.849  25.079  0.00  0.00    +0.253 C 
ATOM     16  C   UNL A   1     -26.354   0.576  25.777  0.00  0.00    +0.195 C 
ATOM     17  F   UNL A   1     -25.860  -0.681  25.795  0.00  0.00    -0.199 F 
BRANCH  12  18
ATOM     18  C   UNL A   1     -25.642   4.093  27.123  0.00  0.00    +0.267 C 
ATOM     19  N   UNL A   1     -25.614   5.252  26.449  0.00  0.00    -0.200 NA
ATOM     20  C   UNL A   1     -25.026   6.479  26.963  0.00  0.00    +0.139 C 
ATOM     21  O   UNL A   1     -25.143   3.966  28.243  0.00  0.00    -0.268 OA
ENDBRANCH  12  18
BRANCH  15  22
ATOM     22  O   UNL A   1     -28.193  -0.208  24.477  0.00  0.00    -0.456 OA
BRANCH  22  23
ATOM     23  C   UNL A   1     -29.460   0.005  23.866  0.00  0.00    +0.243 C 
BRANCH  23  24
ATOM     24  C   UNL A   1     -30.065  -1.377  23.573  0.00  0.00    +0.229 C 
ATOM     25  O   UNL A   1     -30.729  -1.878  24.721  0.00  0.00    -0.216 OA
ENDBRANCH  23  24
ENDBRANCH  22  23
ENDBRANCH  15  22
ENDBRANCH   1  11
BRANCH   7  26
ATOM     26  C   UNL A   1     -24.855  -1.012  30.143  0.00  0.00    +0.118 C 
BRANCH  26  27
ATOM     27  C   UNL A   1     -24.973  -2.505  29.788  0.00  0.00    -0.012 C 
ATOM     28  C   UNL A   1     -23.906  -3.173  29.146  0.00  0.00    -0.004 C 
ATOM     29  C   UNL A   1     -23.989  -4.549  28.853  0.00  0.00    -0.000 C 
ATOM     30  C   UNL A   1     -25.137  -5.280  29.205  0.00  0.00    -0.000 C 
ATOM     31  C   UNL A   1     -26.232  -4.611  29.784  0.00  0.00    -0.000 C 
ATOM     32  C   UNL A   1     -26.155  -3.232  30.065  0.00  0.00    -0.004 C 
ENDBRANCH  26  27
BRANCH  26  33
ATOM     33  C   UNL A   1     -25.387  -0.679  31.571  0.00  0.00    +0.086 C 
ATOM     34  C   UNL A   1     -25.189   0.773  32.028  0.00  0.00    +0.026 C 
ATOM     35  C   UNL A   1     -25.336   0.684  33.544  0.00  0.00    +0.021 C 
ATOM     36  C   UNL A   1     -24.829  -0.715  33.905  0.00  0.00    +0.089 C 
ATOM     37  N   UNL A   1     -24.758  -1.481  32.646  0.00  0.00    -0.219 NA
BRANCH  34  38
ATOM     38  C   UNL A   1     -25.316   1.974  31.038  0.00  0.00    +0.066 C 
BRANCH  38  39
ATOM     39  C   UNL A   1     -25.281   3.479  31.549  0.00  0.00    +0.151 C 
ATOM     40  O   UNL A   1     -25.515   4.499  31.031  0.00  0.00    -0.296 OA
BRANCH  39  42
ATOM     41  C   UNL A   1     -24.561   5.179  33.219  0.00  0.00    +0.008 C 
ATOM     42  C   UNL A   1     -24.923   3.739  32.965  0.00  0.00    +0.065 C 
ENDBRANCH  39  42
ENDBRANCH  38  39
ENDBRANCH  34  38
ENDBRANCH  26  33
ENDBRANCH   7  26
TORSDOF 11
