REMARK  Name = outputs/IAG933/test6/raw/output_7541_IAG933_linker_design_.xyz
REMARK  13 active torsions:
REMARK  status: ('A' for Active; 'I' for Inactive)
REMARK    1  A    between atoms: C_1  and  C_2
REMARK    2  A    between atoms: C_1  and  C_8
REMARK    3  A    between atoms: C_1  and  C_34
REMARK    4  A    between atoms: C_14  and  C_15
REMARK    5  A    between atoms: C_21  and  O_22
REMARK    6  A    between atoms: O_22  and  C_23
REMARK    7  A    between atoms: C_23  and  C_24
REMARK    8  A    between atoms: N_28  and  C_39
REMARK    9  A    between atoms: C_31  and  C_35
REMARK   10  A    between atoms: C_32  and  C_34
REMARK   11  A    between atoms: C_32  and  C_44
REMARK   12  A    between atoms: C_34  and  N_43
REMARK   13  A    between atoms: C_42  and  C_44
REMARK                            x       y       z     vdW  Elec       q    Type
REMARK                         _______ _______ _______ _____ _____    ______ ____
ROOT
ATOM      1  C   UNL A   1     -24.966  -0.095  29.015  0.00  0.00    +0.106 C 
ENDROOT
BRANCH   1   4
ATOM      2  C   UNL A   1     -27.397   0.611  29.133  0.00  0.00    +0.266 C 
ATOM      3  O   UNL A   1     -28.007  -0.453  29.199  0.00  0.00    -0.268 OA
ATOM      4  N   UNL A   1     -26.107   0.835  29.151  0.00  0.00    -0.203 NA
BRANCH   2   5
ATOM      5  C   UNL A   1     -28.183   1.850  29.131  0.00  0.00    +0.075 C 
ATOM      6  C   UNL A   1     -29.398   2.375  29.361  0.00  0.00    +0.067 C 
BRANCH   6   7
ATOM      7  N   UNL A   1     -30.315   3.539  29.107  0.00  0.00    -0.289 N 
ATOM      8  C   UNL A   1     -28.808   5.283  29.597  0.00  0.00    +0.127 C 
ATOM      9  C   UNL A   1     -30.061   4.378  27.794  0.00  0.00    +0.198 C 
ATOM     10  C   UNL A   1     -30.083   4.567  30.223  0.00  0.00    +0.112 C 
ATOM     11  O   UNL A   1     -29.329   6.740  27.669  0.00  0.00    -0.116 OA
ATOM     12  N   UNL A   1     -29.469   5.698  28.330  0.00  0.00    -0.111 NA
ENDBRANCH   6   7
ENDBRANCH   2   5
ENDBRANCH   1   4
BRANCH   1  13
ATOM     13  C   UNL A   1     -24.855  -1.012  30.143  0.00  0.00    +0.059 C 
BRANCH  13  14
ATOM     14  C   UNL A   1     -24.973  -2.505  29.788  0.00  0.00    -0.019 C 
ATOM     15  C   UNL A   1     -23.906  -3.173  29.146  0.00  0.00    -0.004 C 
ATOM     16  C   UNL A   1     -23.989  -4.549  28.853  0.00  0.00    -0.000 C 
ATOM     17  C   UNL A   1     -25.137  -5.280  29.205  0.00  0.00    -0.000 C 
ATOM     18  C   UNL A   1     -26.232  -4.611  29.784  0.00  0.00    -0.000 C 
ATOM     19  C   UNL A   1     -26.155  -3.232  30.065  0.00  0.00    -0.004 C 
ENDBRANCH  13  14
BRANCH  13  20
ATOM     20  C   UNL A   1     -25.387  -0.679  31.571  0.00  0.00    +0.079 C 
ATOM     21  C   UNL A   1     -25.189   0.773  32.028  0.00  0.00    +0.019 C 
ATOM     22  C   UNL A   1     -25.336   0.684  33.544  0.00  0.00    +0.020 C 
ATOM     23  C   UNL A   1     -24.829  -0.715  33.905  0.00  0.00    +0.089 C 
ATOM     24  N   UNL A   1     -24.758  -1.481  32.646  0.00  0.00    -0.219 NA
ENDBRANCH  13  20
ENDBRANCH   1  13
BRANCH   1  25
ATOM     25  C   UNL A   1     -23.450   0.404  28.799  0.00  0.00    +0.062 C 
BRANCH  25  34
ATOM     26  C   UNL A   1     -25.688   1.614  26.461  0.00  0.00    +0.059 C 
ATOM     27  C   UNL A   1     -26.250   2.920  26.395  0.00  0.00    +0.080 C 
ATOM     28  C   UNL A   1     -27.438   3.091  25.645  0.00  0.00    +0.107 C 
ATOM     29  N   UNL A   1     -28.075   2.089  25.003  0.00  0.00    -0.211 NA
ATOM     30  C   UNL A   1     -27.543   0.849  25.079  0.00  0.00    +0.239 C 
ATOM     31  C   UNL A   1     -26.354   0.576  25.777  0.00  0.00    +0.265 C 
ATOM     32  F   UNL A   1     -25.860  -0.681  25.795  0.00  0.00    -0.222 F 
ATOM     33  C   UNL A   1     -24.543   1.482  27.032  0.00  0.00    -0.101 C 
ATOM     34  C   UNL A   1     -23.445   1.218  27.778  0.00  0.00    +0.081 C 
BRANCH  27  35
ATOM     35  C   UNL A   1     -25.642   4.093  27.123  0.00  0.00    +0.267 C 
ATOM     36  N   UNL A   1     -25.614   5.252  26.449  0.00  0.00    -0.200 NA
ATOM     37  C   UNL A   1     -25.026   6.479  26.963  0.00  0.00    +0.139 C 
ATOM     38  O   UNL A   1     -25.143   3.966  28.243  0.00  0.00    -0.268 OA
ENDBRANCH  27  35
BRANCH  34  41
ATOM     39  F   UNL A   1     -21.149   1.412  27.632  0.00  0.00    -0.158 F 
ATOM     40  O   UNL A   1     -22.290   2.269  25.950  0.00  0.00    -0.254 OA
ATOM     41  C   UNL A   1     -22.336   1.689  27.078  0.00  0.00    +0.337 C 
ENDBRANCH  34  41
BRANCH  30  42
ATOM     42  O   UNL A   1     -28.193  -0.208  24.477  0.00  0.00    -0.458 OA
BRANCH  42  43
ATOM     43  C   UNL A   1     -29.460   0.005  23.866  0.00  0.00    +0.242 C 
BRANCH  43  44
ATOM     44  C   UNL A   1     -30.065  -1.377  23.573  0.00  0.00    +0.229 C 
ATOM     45  O   UNL A   1     -30.729  -1.878  24.721  0.00  0.00    -0.216 OA
ENDBRANCH  43  44
ENDBRANCH  42  43
ENDBRANCH  30  42
ENDBRANCH  25  34
ENDBRANCH   1  25
TORSDOF 13
