REMARK  Name = outputs/IAG933/test6/raw/output_7547_IAG933_linker_design_.xyz
REMARK  9 active torsions:
REMARK  status: ('A' for Active; 'I' for Inactive)
REMARK    1  A    between atoms: C_1  and  C_2
REMARK    2  A    between atoms: C_1  and  C_8
REMARK    3  A    between atoms: C_9  and  C_28
REMARK    4  A    between atoms: C_13  and  C_37
REMARK    5  A    between atoms: C_14  and  C_15
REMARK    6  A    between atoms: C_21  and  O_22
REMARK    7  A    between atoms: O_22  and  C_23
REMARK    8  A    between atoms: C_23  and  C_24
REMARK    9  A    between atoms: C_28  and  C_35
REMARK                            x       y       z     vdW  Elec       q    Type
REMARK                         _______ _______ _______ _____ _____    ______ ____
ROOT
ATOM      1  C   UNL A   1     -24.890   1.538  30.471  0.00  0.00    +0.137 C 
ATOM      2  O   UNL A   1     -21.616   2.204  25.370  0.00  0.00    -0.329 OA
ATOM      3  C   UNL A   1     -24.026   0.998  25.127  0.00  0.00    +0.149 C 
ATOM      4  C   UNL A   1     -23.220   0.907  28.916  0.00  0.00    +0.089 C 
ATOM      5  C   UNL A   1     -22.163   1.668  26.469  0.00  0.00    +0.122 C 
ATOM      6  C   UNL A   1     -21.895   0.321  28.568  0.00  0.00    +0.021 C 
ATOM      7  C   UNL A   1     -22.486   2.466  24.466  0.00  0.00    +0.294 C 
ATOM      8  C   UNL A   1     -23.403   1.122  26.508  0.00  0.00    +0.073 C 
ATOM      9  C   UNL A   1     -24.418   1.091  27.700  0.00  0.00    +0.087 C 
ATOM     10  N   UNL A   1     -23.440   1.498  30.123  0.00  0.00    -0.203 NA
ATOM     11  C   UNL A   1     -21.143   1.171  27.583  0.00  0.00    +0.031 C 
ATOM     12  O   UNL A   1     -23.695   1.893  24.278  0.00  0.00    -0.327 OA
ATOM     13  N   UNL A   1     -25.416   1.552  28.921  0.00  0.00    -0.204 NA
ENDROOT
BRANCH   9  14
ATOM     14  C   UNL A   1     -25.688   1.614  26.461  0.00  0.00    +0.086 C 
ATOM     15  C   UNL A   1     -26.250   2.920  26.395  0.00  0.00    +0.056 C 
ATOM     16  C   UNL A   1     -27.438   3.091  25.645  0.00  0.00    +0.102 C 
ATOM     17  N   UNL A   1     -28.075   2.089  25.003  0.00  0.00    -0.212 NA
ATOM     18  C   UNL A   1     -27.543   0.849  25.079  0.00  0.00    +0.234 C 
ATOM     19  C   UNL A   1     -26.354   0.576  25.777  0.00  0.00    +0.241 C 
ATOM     20  F   UNL A   1     -25.860  -0.681  25.795  0.00  0.00    -0.227 F 
BRANCH  15  21
ATOM     21  C   UNL A   1     -25.642   4.093  27.123  0.00  0.00    +0.263 C 
ATOM     22  N   UNL A   1     -25.614   5.252  26.449  0.00  0.00    -0.200 NA
ATOM     23  C   UNL A   1     -25.026   6.479  26.963  0.00  0.00    +0.139 C 
ATOM     24  O   UNL A   1     -25.143   3.966  28.243  0.00  0.00    -0.269 OA
ENDBRANCH  15  21
BRANCH  18  25
ATOM     25  O   UNL A   1     -28.193  -0.208  24.477  0.00  0.00    -0.459 OA
BRANCH  25  26
ATOM     26  C   UNL A   1     -29.460   0.005  23.866  0.00  0.00    +0.242 C 
BRANCH  26  27
ATOM     27  C   UNL A   1     -30.065  -1.377  23.573  0.00  0.00    +0.229 C 
ATOM     28  O   UNL A   1     -30.729  -1.878  24.721  0.00  0.00    -0.216 OA
ENDBRANCH  26  27
ENDBRANCH  25  26
ENDBRANCH  18  25
ENDBRANCH   9  14
BRANCH   1  30
ATOM     29  C   UNL A   1     -25.387  -0.679  31.571  0.00  0.00    +0.080 C 
ATOM     30  C   UNL A   1     -25.189   0.773  32.028  0.00  0.00    +0.049 C 
ATOM     31  C   UNL A   1     -25.336   0.684  33.544  0.00  0.00    +0.023 C 
ATOM     32  C   UNL A   1     -24.829  -0.715  33.905  0.00  0.00    +0.089 C 
ATOM     33  N   UNL A   1     -24.758  -1.481  32.646  0.00  0.00    -0.219 NA
BRANCH  29  34
ATOM     34  C   UNL A   1     -24.855  -1.012  30.143  0.00  0.00    +0.044 C 
BRANCH  34  35
ATOM     35  C   UNL A   1     -24.973  -2.505  29.788  0.00  0.00    -0.021 C 
ATOM     36  C   UNL A   1     -23.906  -3.173  29.146  0.00  0.00    -0.004 C 
ATOM     37  C   UNL A   1     -23.989  -4.549  28.853  0.00  0.00    -0.000 C 
ATOM     38  C   UNL A   1     -25.137  -5.280  29.205  0.00  0.00    -0.000 C 
ATOM     39  C   UNL A   1     -26.232  -4.611  29.784  0.00  0.00    -0.000 C 
ATOM     40  C   UNL A   1     -26.155  -3.232  30.065  0.00  0.00    -0.004 C 
ENDBRANCH  34  35
ENDBRANCH  29  34
ENDBRANCH   1  30
BRANCH   1  41
ATOM     41  C   UNL A   1     -25.482   2.849  31.087  0.00  0.00    +0.142 C 
ATOM     42  N   UNL A   1     -25.279   3.295  32.482  0.00  0.00    -0.128 NA
ENDBRANCH   1  41
TORSDOF 9
