REMARK  Name = outputs/IAG933/test6/raw/output_755_IAG933_linker_design_.xyz
REMARK  14 active torsions:
REMARK  status: ('A' for Active; 'I' for Inactive)
REMARK    1  A    between atoms: C_1  and  C_2
REMARK    2  A    between atoms: C_1  and  C_8
REMARK    3  A    between atoms: C_9  and  S_42
REMARK    4  A    between atoms: C_13  and  C_31
REMARK    5  A    between atoms: C_14  and  C_15
REMARK    6  A    between atoms: C_21  and  O_22
REMARK    7  A    between atoms: O_22  and  C_23
REMARK    8  A    between atoms: C_23  and  C_24
REMARK    9  A    between atoms: C_28  and  C_38
REMARK   10  A    between atoms: C_28  and  S_42
REMARK   11  A    between atoms: O_33  and  C_41
REMARK   12  A    between atoms: C_35  and  C_39
REMARK   13  A    between atoms: C_35  and  S_42
REMARK   14  A    between atoms: C_38  and  C_41
REMARK                            x       y       z     vdW  Elec       q    Type
REMARK                         _______ _______ _______ _____ _____    ______ ____
ROOT
ATOM      1  C   UNL A   1     -23.319   1.948  26.494  0.00  0.00    +0.040 C 
ATOM      2  C   UNL A   1     -24.556   1.281  27.216  0.00  0.00    +0.031 C 
ATOM      3  O   UNL A   1     -20.933   1.292  27.329  0.00  0.00    -0.220 OA
ATOM      4  F   UNL A   1     -22.563   0.397  29.723  0.00  0.00    -0.234 F 
ATOM      5  C   UNL A   1     -22.843   1.483  28.921  0.00  0.00    +0.192 C 
ATOM      6  C   UNL A   1     -24.416   1.814  28.664  0.00  0.00    +0.051 C 
ATOM      7  C   UNL A   1     -22.272   1.665  27.619  0.00  0.00    +0.185 C 
ENDROOT
BRANCH   2   8
ATOM      8  C   UNL A   1     -25.688   1.614  26.461  0.00  0.00    +0.016 C 
ATOM      9  C   UNL A   1     -26.250   2.920  26.395  0.00  0.00    +0.073 C 
ATOM     10  C   UNL A   1     -27.438   3.091  25.645  0.00  0.00    +0.106 C 
ATOM     11  N   UNL A   1     -28.075   2.089  25.003  0.00  0.00    -0.208 NA
ATOM     12  C   UNL A   1     -27.543   0.849  25.079  0.00  0.00    +0.253 C 
ATOM     13  C   UNL A   1     -26.354   0.576  25.777  0.00  0.00    +0.189 C 
ATOM     14  F   UNL A   1     -25.860  -0.681  25.795  0.00  0.00    -0.200 F 
BRANCH   9  15
ATOM     15  C   UNL A   1     -25.642   4.093  27.123  0.00  0.00    +0.266 C 
ATOM     16  N   UNL A   1     -25.614   5.252  26.449  0.00  0.00    -0.200 NA
ATOM     17  C   UNL A   1     -25.026   6.479  26.963  0.00  0.00    +0.139 C 
ATOM     18  O   UNL A   1     -25.143   3.966  28.243  0.00  0.00    -0.268 OA
ENDBRANCH   9  15
BRANCH  12  19
ATOM     19  O   UNL A   1     -28.193  -0.208  24.477  0.00  0.00    -0.456 OA
BRANCH  19  20
ATOM     20  C   UNL A   1     -29.460   0.005  23.866  0.00  0.00    +0.243 C 
BRANCH  20  21
ATOM     21  C   UNL A   1     -30.065  -1.377  23.573  0.00  0.00    +0.229 C 
ATOM     22  O   UNL A   1     -30.729  -1.878  24.721  0.00  0.00    -0.216 OA
ENDBRANCH  20  21
ENDBRANCH  19  20
ENDBRANCH  12  19
ENDBRANCH   2   8
BRANCH   6  23
ATOM     23  C   UNL A   1     -24.588   2.557  30.040  0.00  0.00    +0.071 C 
BRANCH  23  25
ATOM     24  O   UNL A   1     -26.973   1.254  29.877  0.00  0.00    -0.171 OA
ATOM     25  S   UNL A   1     -25.895   1.871  30.923  0.00  0.00    -0.071 S 
BRANCH  25  27
ATOM     26  C   UNL A   1     -25.387  -0.679  31.571  0.00  0.00    +0.088 C 
ATOM     27  C   UNL A   1     -25.189   0.773  32.028  0.00  0.00    +0.075 C 
ATOM     28  C   UNL A   1     -25.336   0.684  33.544  0.00  0.00    +0.032 C 
ATOM     29  C   UNL A   1     -24.829  -0.715  33.905  0.00  0.00    +0.090 C 
ATOM     30  N   UNL A   1     -24.758  -1.481  32.646  0.00  0.00    -0.218 NA
BRANCH  26  31
ATOM     31  C   UNL A   1     -24.855  -1.012  30.143  0.00  0.00    +0.045 C 
BRANCH  31  32
ATOM     32  C   UNL A   1     -24.973  -2.505  29.788  0.00  0.00    -0.021 C 
ATOM     33  C   UNL A   1     -23.906  -3.173  29.146  0.00  0.00    -0.004 C 
ATOM     34  C   UNL A   1     -23.989  -4.549  28.853  0.00  0.00    -0.000 C 
ATOM     35  C   UNL A   1     -25.137  -5.280  29.205  0.00  0.00    -0.000 C 
ATOM     36  C   UNL A   1     -26.232  -4.611  29.784  0.00  0.00    -0.000 C 
ATOM     37  C   UNL A   1     -26.155  -3.232  30.065  0.00  0.00    -0.004 C 
ENDBRANCH  31  32
ENDBRANCH  26  31
ENDBRANCH  25  27
BRANCH  25  38
ATOM     38  C   UNL A   1     -26.658   3.121  31.773  0.00  0.00    +0.070 C 
BRANCH  38  39
ATOM     39  C   UNL A   1     -25.811   3.764  32.838  0.00  0.00    +0.044 C 
BRANCH  39  40
ATOM     40  C   UNL A   1     -26.543   4.914  33.410  0.00  0.00    +0.143 C 
BRANCH  40  42
ATOM     41  C   UNL A   1     -28.875   5.262  33.983  0.00  0.00    +0.174 C 
ATOM     42  O   UNL A   1     -27.907   4.424  33.347  0.00  0.00    -0.351 OA
ENDBRANCH  40  42
ENDBRANCH  39  40
ENDBRANCH  38  39
ENDBRANCH  25  38
ENDBRANCH  23  25
ENDBRANCH   6  23
TORSDOF 14
