REMARK  Name = outputs/IAG933/test6/raw/output_7554_IAG933_linker_design_.xyz
REMARK  12 active torsions:
REMARK  status: ('A' for Active; 'I' for Inactive)
REMARK    1  A    between atoms: C_1  and  C_2
REMARK    2  A    between atoms: C_1  and  C_8
REMARK    3  A    between atoms: C_1  and  C_34
REMARK    4  A    between atoms: C_13  and  C_40
REMARK    5  A    between atoms: C_14  and  C_15
REMARK    6  A    between atoms: C_21  and  O_22
REMARK    7  A    between atoms: O_22  and  C_23
REMARK    8  A    between atoms: C_23  and  C_24
REMARK    9  A    between atoms: C_30  and  C_34
REMARK   10  A    between atoms: C_31  and  C_36
REMARK   11  A    between atoms: C_32  and  C_36
REMARK   12  A    between atoms: C_34  and  C_38
REMARK                            x       y       z     vdW  Elec       q    Type
REMARK                         _______ _______ _______ _____ _____    ______ ____
ROOT
ATOM      1  C   UNL A   1     -25.451  -0.101  29.093  0.00  0.00    +0.040 C 
ENDROOT
BRANCH   1   3
ATOM      2  O   UNL A   1     -20.969   1.540  28.021  0.00  0.00    -0.261 OA
ATOM      3  C   UNL A   1     -24.343   0.618  28.277  0.00  0.00    +0.044 C 
ATOM      4  S   UNL A   1     -22.930   1.842  26.379  0.00  0.00    -0.046 S 
ATOM      5  C   UNL A   1     -24.361   1.315  27.005  0.00  0.00    +0.114 C 
ATOM      6  C   UNL A   1     -22.261   1.314  27.857  0.00  0.00    +0.296 C 
ATOM      7  N   UNL A   1     -23.110   0.707  28.727  0.00  0.00    -0.177 NA
BRANCH   5   8
ATOM      8  C   UNL A   1     -25.688   1.614  26.461  0.00  0.00    +0.031 C 
ATOM      9  C   UNL A   1     -26.250   2.920  26.395  0.00  0.00    +0.074 C 
ATOM     10  C   UNL A   1     -27.438   3.091  25.645  0.00  0.00    +0.106 C 
ATOM     11  N   UNL A   1     -28.075   2.089  25.003  0.00  0.00    -0.208 NA
ATOM     12  C   UNL A   1     -27.543   0.849  25.079  0.00  0.00    +0.253 C 
ATOM     13  C   UNL A   1     -26.354   0.576  25.777  0.00  0.00    +0.190 C 
ATOM     14  F   UNL A   1     -25.860  -0.681  25.795  0.00  0.00    -0.200 F 
BRANCH   9  15
ATOM     15  C   UNL A   1     -25.642   4.093  27.123  0.00  0.00    +0.266 C 
ATOM     16  N   UNL A   1     -25.614   5.252  26.449  0.00  0.00    -0.200 NA
ATOM     17  C   UNL A   1     -25.026   6.479  26.963  0.00  0.00    +0.139 C 
ATOM     18  O   UNL A   1     -25.143   3.966  28.243  0.00  0.00    -0.268 OA
ENDBRANCH   9  15
BRANCH  12  19
ATOM     19  O   UNL A   1     -28.193  -0.208  24.477  0.00  0.00    -0.456 OA
BRANCH  19  20
ATOM     20  C   UNL A   1     -29.460   0.005  23.866  0.00  0.00    +0.243 C 
BRANCH  20  21
ATOM     21  C   UNL A   1     -30.065  -1.377  23.573  0.00  0.00    +0.229 C 
ATOM     22  O   UNL A   1     -30.729  -1.878  24.721  0.00  0.00    -0.216 OA
ENDBRANCH  20  21
ENDBRANCH  19  20
ENDBRANCH  12  19
ENDBRANCH   5   8
ENDBRANCH   1   3
BRANCH   1  24
ATOM     23  C   UNL A   1     -28.224   0.544  28.002  0.00  0.00    +0.005 C 
ATOM     24  C   UNL A   1     -26.986  -0.071  29.056  0.00  0.00    +0.006 C 
ATOM     25  C   UNL A   1     -28.439   0.105  29.285  0.00  0.00    +0.001 C 
BRANCH  23  26
ATOM     26  C   UNL A   1     -29.487   1.609  28.007  0.00  0.00    +0.026 C 
BRANCH  26  28
ATOM     27  C   UNL A   1     -28.340   3.350  29.446  0.00  0.00    -0.004 C 
ATOM     28  C   UNL A   1     -29.446   2.967  28.713  0.00  0.00    -0.022 C 
ATOM     29  C   UNL A   1     -30.489   3.873  28.507  0.00  0.00    -0.004 C 
ATOM     30  C   UNL A   1     -30.276   5.186  28.844  0.00  0.00    -0.000 C 
ATOM     31  C   UNL A   1     -28.079   4.699  29.693  0.00  0.00    -0.000 C 
ATOM     32  C   UNL A   1     -29.058   5.639  29.362  0.00  0.00    -0.000 C 
ENDBRANCH  26  28
ENDBRANCH  23  26
ENDBRANCH   1  24
BRANCH   1  33
ATOM     33  C   UNL A   1     -24.855  -1.012  30.143  0.00  0.00    +0.043 C 
BRANCH  33  34
ATOM     34  C   UNL A   1     -24.973  -2.505  29.788  0.00  0.00    -0.021 C 
ATOM     35  C   UNL A   1     -23.906  -3.173  29.146  0.00  0.00    -0.004 C 
ATOM     36  C   UNL A   1     -23.989  -4.549  28.853  0.00  0.00    -0.000 C 
ATOM     37  C   UNL A   1     -25.137  -5.280  29.205  0.00  0.00    -0.000 C 
ATOM     38  C   UNL A   1     -26.232  -4.611  29.784  0.00  0.00    -0.000 C 
ATOM     39  C   UNL A   1     -26.155  -3.232  30.065  0.00  0.00    -0.004 C 
ENDBRANCH  33  34
BRANCH  33  40
ATOM     40  C   UNL A   1     -25.387  -0.679  31.571  0.00  0.00    +0.077 C 
ATOM     41  C   UNL A   1     -25.189   0.773  32.028  0.00  0.00    +0.019 C 
ATOM     42  C   UNL A   1     -25.336   0.684  33.544  0.00  0.00    +0.020 C 
ATOM     43  C   UNL A   1     -24.829  -0.715  33.905  0.00  0.00    +0.089 C 
ATOM     44  N   UNL A   1     -24.758  -1.481  32.646  0.00  0.00    -0.219 NA
ENDBRANCH  33  40
ENDBRANCH   1  33
TORSDOF 12
