REMARK  Name = outputs/IAG933/test6/raw/output_7557_IAG933_linker_design_.xyz
REMARK  12 active torsions:
REMARK  status: ('A' for Active; 'I' for Inactive)
REMARK    1  A    between atoms: C_1  and  C_2
REMARK    2  A    between atoms: C_1  and  C_8
REMARK    3  A    between atoms: C_1  and  C_30
REMARK    4  A    between atoms: C_13  and  C_43
REMARK    5  A    between atoms: C_14  and  C_15
REMARK    6  A    between atoms: C_21  and  O_22
REMARK    7  A    between atoms: O_22  and  C_23
REMARK    8  A    between atoms: C_23  and  C_24
REMARK    9  A    between atoms: C_30  and  C_31
REMARK   10  A    between atoms: C_30  and  C_38
REMARK   11  A    between atoms: C_31  and  C_42
REMARK   12  A    between atoms: C_40  and  C_42
REMARK                            x       y       z     vdW  Elec       q    Type
REMARK                         _______ _______ _______ _____ _____    ______ ____
ROOT
ATOM      1  C   UNL A   1     -22.227   0.224  29.047  0.00  0.00    +0.272 C 
ATOM      2  C   UNL A   1     -21.318   0.703  27.997  0.00  0.00    +0.229 C 
ATOM      3  O   UNL A   1     -21.837  -0.621  29.919  0.00  0.00    -0.271 OA
ATOM      4  N   UNL A   1     -23.419   0.821  29.200  0.00  0.00    -0.205 NA
ATOM      5  C   UNL A   1     -21.753   1.621  26.960  0.00  0.00    +0.043 C 
ATOM      6  C   UNL A   1     -24.432   0.373  28.269  0.00  0.00    +0.100 C 
ATOM      7  C   UNL A   1     -23.120   1.803  26.470  0.00  0.00    +0.009 C 
ATOM      8  O   UNL A   1     -20.115   0.278  28.199  0.00  0.00    -0.213 OA
ATOM      9  C   UNL A   1     -24.438   1.419  27.143  0.00  0.00    +0.045 C 
ENDROOT
BRANCH   9  10
ATOM     10  C   UNL A   1     -25.688   1.614  26.461  0.00  0.00    +0.017 C 
ATOM     11  C   UNL A   1     -26.250   2.920  26.395  0.00  0.00    +0.073 C 
ATOM     12  C   UNL A   1     -27.438   3.091  25.645  0.00  0.00    +0.106 C 
ATOM     13  N   UNL A   1     -28.075   2.089  25.003  0.00  0.00    -0.208 NA
ATOM     14  C   UNL A   1     -27.543   0.849  25.079  0.00  0.00    +0.253 C 
ATOM     15  C   UNL A   1     -26.354   0.576  25.777  0.00  0.00    +0.189 C 
ATOM     16  F   UNL A   1     -25.860  -0.681  25.795  0.00  0.00    -0.200 F 
BRANCH  11  17
ATOM     17  C   UNL A   1     -25.642   4.093  27.123  0.00  0.00    +0.266 C 
ATOM     18  N   UNL A   1     -25.614   5.252  26.449  0.00  0.00    -0.200 NA
ATOM     19  C   UNL A   1     -25.026   6.479  26.963  0.00  0.00    +0.139 C 
ATOM     20  O   UNL A   1     -25.143   3.966  28.243  0.00  0.00    -0.268 OA
ENDBRANCH  11  17
BRANCH  14  21
ATOM     21  O   UNL A   1     -28.193  -0.208  24.477  0.00  0.00    -0.456 OA
BRANCH  21  22
ATOM     22  C   UNL A   1     -29.460   0.005  23.866  0.00  0.00    +0.243 C 
BRANCH  22  23
ATOM     23  C   UNL A   1     -30.065  -1.377  23.573  0.00  0.00    +0.229 C 
ATOM     24  O   UNL A   1     -30.729  -1.878  24.721  0.00  0.00    -0.216 OA
ENDBRANCH  22  23
ENDBRANCH  21  22
ENDBRANCH  14  21
ENDBRANCH   9  10
BRANCH   6  25
ATOM     25  C   UNL A   1     -25.670  -0.143  29.104  0.00  0.00    +0.033 C 
BRANCH  25  26
ATOM     26  C   UNL A   1     -24.855  -1.012  30.143  0.00  0.00    +0.040 C 
BRANCH  26  27
ATOM     27  C   UNL A   1     -24.973  -2.505  29.788  0.00  0.00    -0.021 C 
ATOM     28  C   UNL A   1     -23.906  -3.173  29.146  0.00  0.00    -0.004 C 
ATOM     29  C   UNL A   1     -23.989  -4.549  28.853  0.00  0.00    -0.000 C 
ATOM     30  C   UNL A   1     -25.137  -5.280  29.205  0.00  0.00    -0.000 C 
ATOM     31  C   UNL A   1     -26.232  -4.611  29.784  0.00  0.00    -0.000 C 
ATOM     32  C   UNL A   1     -26.155  -3.232  30.065  0.00  0.00    -0.004 C 
ENDBRANCH  26  27
BRANCH  26  33
ATOM     33  C   UNL A   1     -25.387  -0.679  31.571  0.00  0.00    +0.077 C 
ATOM     34  C   UNL A   1     -25.189   0.773  32.028  0.00  0.00    +0.019 C 
ATOM     35  C   UNL A   1     -25.336   0.684  33.544  0.00  0.00    +0.020 C 
ATOM     36  C   UNL A   1     -24.829  -0.715  33.905  0.00  0.00    +0.089 C 
ATOM     37  N   UNL A   1     -24.758  -1.481  32.646  0.00  0.00    -0.219 NA
ENDBRANCH  26  33
ENDBRANCH  25  26
BRANCH  25  38
ATOM     38  C   UNL A   1     -27.197  -0.161  28.572  0.00  0.00    +0.067 C 
BRANCH  38  40
ATOM     39  O   UNL A   1     -28.643   1.390  29.765  0.00  0.00    -0.296 OA
ATOM     40  C   UNL A   1     -28.365   0.371  29.226  0.00  0.00    +0.150 C 
BRANCH  40  43
ATOM     41  C   UNL A   1     -30.557   0.631  28.016  0.00  0.00    +0.008 C 
ATOM     42  C   UNL A   1     -30.869   0.198  29.221  0.00  0.00    +0.008 C 
ATOM     43  C   UNL A   1     -29.703  -0.527  28.730  0.00  0.00    +0.058 C 
ENDBRANCH  40  43
ENDBRANCH  38  40
ENDBRANCH  25  38
ENDBRANCH   6  25
TORSDOF 12
