MODEL 755
MODEL 1
REMARK VINA RESULT:    -7.079      0.000      0.000
REMARK INTER + INTRA:          -8.269
REMARK INTER:                  -7.907
REMARK INTRA:                  -0.362
REMARK UNBOUND:                -0.362
REMARK  Name = No_755-gen_results/8p0m/2024-11-27-11-27-31/
REMARK  2 active torsions:
REMARK  status: ('A' for Active; 'I' for Inactive)
REMARK    1  A    between atoms: C_3  and  C_4
REMARK    2  A    between atoms: C_12  and  C_14
REMARK                            x       y       z     vdW  Elec       q    Type
REMARK                         _______ _______ _______ _____ _____    ______ ____
ROOT
ATOM      1  C   UNL A   1     -24.611  -2.460  28.728  0.00  0.00    +0.000 A 
ATOM      2  C   UNL A   1     -23.934  -3.722  28.596  0.00  0.00    +0.000 A 
ATOM      3  C   UNL A   1     -24.577  -4.900  28.958  0.00  0.00    +0.000 A 
ATOM      4  C   UNL A   1     -25.813  -4.938  29.569  0.00  0.00    +0.002 A 
ATOM      5  C   UNL A   1     -25.888  -2.553  29.436  0.00  0.00    +0.002 A 
ATOM      6  C   UNL A   1     -26.462  -3.761  29.762  0.00  0.00    +0.021 A 
ENDROOT
BRANCH   1   9
ATOM      7  C   UNL A   1     -23.649   0.920  27.706  0.00  0.00    +0.030 A 
ATOM      8  C   UNL A   1     -24.238  -0.135  27.697  0.00  0.00    +0.002 A 
ATOM      9  C   UNL A   1     -23.964  -1.119  28.640  0.00  0.00    +0.000 A 
ATOM     10  C   UNL A   1     -22.361   0.959  27.882  0.00  0.00    +0.140 A 
ATOM     11  C   UNL A   1     -21.777   0.051  28.867  0.00  0.00    +0.030 A 
ATOM     12  C   UNL A   1     -22.542  -1.141  29.098  0.00  0.00    +0.002 A 
ATOM     13  F   UNL A   1     -21.621   2.083  27.765  0.00  0.00    -0.204 F 
ENDBRANCH   1   9
BRANCH   6  14
ATOM     14  C   UNL A   1     -27.784  -3.741  30.408  0.00  0.00    +0.122 C 
ATOM     15  N   UNL A   1     -28.796  -3.208  30.339  0.00  0.00    -0.146 NA
ENDBRANCH   6  14
TORSDOF 2
ENDMDL
ENDMDL
