REMARK  Name = outputs/IAG933/test6/raw/output_7567_IAG933_linker_design_.xyz
REMARK  11 active torsions:
REMARK  status: ('A' for Active; 'I' for Inactive)
REMARK    1  A    between atoms: C_1  and  C_2
REMARK    2  A    between atoms: C_1  and  C_8
REMARK    3  A    between atoms: C_1  and  N_39
REMARK    4  A    between atoms: C_13  and  N_43
REMARK    5  A    between atoms: C_14  and  C_15
REMARK    6  A    between atoms: C_21  and  O_22
REMARK    7  A    between atoms: O_22  and  C_23
REMARK    8  A    between atoms: C_23  and  C_24
REMARK    9  A    between atoms: C_32  and  C_38
REMARK   10  A    between atoms: N_39  and  C_44
REMARK   11  A    between atoms: N_39  and  C_45
REMARK                            x       y       z     vdW  Elec       q    Type
REMARK                         _______ _______ _______ _____ _____    ______ ____
ROOT
ATOM      1  N   UNL A   1     -25.642  -0.316  29.055  0.00  0.00    -0.170 N 
ENDROOT
BRANCH   1   8
ATOM      2  C   UNL A   1     -22.131   0.764  28.562  0.00  0.00    +0.036 C 
ATOM      3  C   UNL A   1     -22.139   1.499  27.400  0.00  0.00    +0.161 C 
ATOM      4  C   UNL A   1     -23.314   1.603  26.613  0.00  0.00    +0.214 C 
ATOM      5  F   UNL A   1     -20.954   2.077  27.061  0.00  0.00    -0.205 F 
ATOM      6  C   UNL A   1     -23.308   0.181  29.004  0.00  0.00    +0.086 C 
ATOM      7  N   UNL A   1     -24.497   1.196  27.175  0.00  0.00    -0.170 N 
ATOM      8  C   UNL A   1     -24.560   0.344  28.370  0.00  0.00    +0.280 C 
ATOM      9  C   UNL A   1     -23.172   2.080  25.195  0.00  0.00    +0.059 C 
BRANCH   7  10
ATOM     10  C   UNL A   1     -25.688   1.614  26.461  0.00  0.00    +0.177 C 
ATOM     11  C   UNL A   1     -26.250   2.920  26.395  0.00  0.00    +0.114 C 
ATOM     12  C   UNL A   1     -27.438   3.091  25.645  0.00  0.00    +0.110 C 
ATOM     13  N   UNL A   1     -28.075   2.089  25.003  0.00  0.00    -0.208 NA
ATOM     14  C   UNL A   1     -27.543   0.849  25.079  0.00  0.00    +0.257 C 
ATOM     15  C   UNL A   1     -26.354   0.576  25.777  0.00  0.00    +0.230 C 
ATOM     16  F   UNL A   1     -25.860  -0.681  25.795  0.00  0.00    -0.196 F 
BRANCH  11  17
ATOM     17  C   UNL A   1     -25.642   4.093  27.123  0.00  0.00    +0.270 C 
ATOM     18  N   UNL A   1     -25.614   5.252  26.449  0.00  0.00    -0.200 NA
ATOM     19  C   UNL A   1     -25.026   6.479  26.963  0.00  0.00    +0.139 C 
ATOM     20  O   UNL A   1     -25.143   3.966  28.243  0.00  0.00    -0.268 OA
ENDBRANCH  11  17
BRANCH  14  21
ATOM     21  O   UNL A   1     -28.193  -0.208  24.477  0.00  0.00    -0.456 OA
BRANCH  21  22
ATOM     22  C   UNL A   1     -29.460   0.005  23.866  0.00  0.00    +0.243 C 
BRANCH  22  23
ATOM     23  C   UNL A   1     -30.065  -1.377  23.573  0.00  0.00    +0.229 C 
ATOM     24  O   UNL A   1     -30.729  -1.878  24.721  0.00  0.00    -0.216 OA
ENDBRANCH  22  23
ENDBRANCH  21  22
ENDBRANCH  14  21
ENDBRANCH   7  10
ENDBRANCH   1   8
BRANCH   1  31
ATOM     25  C   UNL A   1     -26.741   1.903  29.410  0.00  0.00    +0.048 C 
ATOM     26  C   UNL A   1     -29.113   0.748  30.514  0.00  0.00    +0.046 C 
ATOM     27  C   UNL A   1     -27.605   2.797  30.200  0.00  0.00    +0.060 C 
ATOM     28  C   UNL A   1     -28.819   2.148  30.715  0.00  0.00    +0.008 C 
ATOM     29  O   UNL A   1     -28.718  -1.103  29.100  0.00  0.00    -0.283 OA
ATOM     30  C   UNL A   1     -28.199  -0.045  29.631  0.00  0.00    +0.232 C 
ATOM     31  C   UNL A   1     -26.820   0.515  29.320  0.00  0.00    +0.178 C 
BRANCH  27  34
ATOM     32  N   UNL A   1     -25.956   4.371  31.043  0.00  0.00    -0.084 NA
ATOM     33  O   UNL A   1     -27.910   5.122  30.324  0.00  0.00    -0.267 OA
ATOM     34  C   UNL A   1     -27.167   4.176  30.519  0.00  0.00    +0.284 C 
ENDBRANCH  27  34
ENDBRANCH   1  31
BRANCH   1  35
ATOM     35  C   UNL A   1     -24.855  -1.012  30.143  0.00  0.00    +0.203 C 
BRANCH  35  36
ATOM     36  C   UNL A   1     -24.973  -2.505  29.788  0.00  0.00    +0.022 C 
ATOM     37  C   UNL A   1     -23.906  -3.173  29.146  0.00  0.00    -0.000 C 
ATOM     38  C   UNL A   1     -23.989  -4.549  28.853  0.00  0.00    -0.000 C 
ATOM     39  C   UNL A   1     -25.137  -5.280  29.205  0.00  0.00    -0.000 C 
ATOM     40  C   UNL A   1     -26.232  -4.611  29.784  0.00  0.00    -0.000 C 
ATOM     41  C   UNL A   1     -26.155  -3.232  30.065  0.00  0.00    -0.000 C 
ENDBRANCH  35  36
BRANCH  35  42
ATOM     42  C   UNL A   1     -25.387  -0.679  31.571  0.00  0.00    +0.120 C 
ATOM     43  C   UNL A   1     -25.189   0.773  32.028  0.00  0.00    +0.023 C 
ATOM     44  C   UNL A   1     -25.336   0.684  33.544  0.00  0.00    +0.020 C 
ATOM     45  C   UNL A   1     -24.829  -0.715  33.905  0.00  0.00    +0.089 C 
ATOM     46  N   UNL A   1     -24.758  -1.481  32.646  0.00  0.00    -0.215 NA
ENDBRANCH  35  42
ENDBRANCH   1  35
TORSDOF 11
