REMARK  Name = outputs/IAG933/test6/raw/output_7569_IAG933_linker_design_.xyz
REMARK  9 active torsions:
REMARK  status: ('A' for Active; 'I' for Inactive)
REMARK    1  A    between atoms: C_1  and  C_2
REMARK    2  A    between atoms: C_1  and  C_8
REMARK    3  A    between atoms: C_1  and  N_29
REMARK    4  A    between atoms: C_21  and  O_22
REMARK    5  A    between atoms: O_22  and  C_23
REMARK    6  A    between atoms: C_23  and  C_24
REMARK    7  A    between atoms: C_28  and  S_40
REMARK    8  A    between atoms: C_32  and  C_34
REMARK    9  A    between atoms: C_36  and  N_38
REMARK                            x       y       z     vdW  Elec       q    Type
REMARK                         _______ _______ _______ _____ _____    ______ ____
ROOT
ATOM      1  C   UNL A   1     -25.688   1.614  26.461  0.00  0.00    +0.022 C 
ATOM      2  C   UNL A   1     -26.250   2.920  26.395  0.00  0.00    +0.071 C 
ATOM      3  C   UNL A   1     -25.642   4.093  27.123  0.00  0.00    +0.222 C 
ATOM      4  N   UNL A   1     -25.614   5.252  26.449  0.00  0.00    -0.236 NA
ATOM      5  C   UNL A   1     -25.026   6.479  26.963  0.00  0.00    +0.155 C 
ATOM      6  O   UNL A   1     -25.143   3.966  28.243  0.00  0.00    -0.463 OA
ATOM      7  C   UNL A   1     -27.438   3.091  25.645  0.00  0.00    +0.106 C 
ATOM      8  N   UNL A   1     -28.075   2.089  25.003  0.00  0.00    -0.208 NA
ATOM      9  C   UNL A   1     -27.543   0.849  25.079  0.00  0.00    +0.253 C 
ATOM     10  C   UNL A   1     -26.354   0.576  25.777  0.00  0.00    +0.189 C 
ATOM     11  F   UNL A   1     -25.860  -0.681  25.795  0.00  0.00    -0.200 F 
ATOM     12  C   UNL A   1     -26.220   2.003  28.952  0.00  0.00    +0.114 C 
ATOM     13  N   UNL A   1     -25.371  -0.013  29.134  0.00  0.00    -0.252 NA
ATOM     14  C   UNL A   1     -24.485   1.475  27.347  0.00  0.00    +0.092 C 
ATOM     15  C   UNL A   1     -24.861   2.319  28.733  0.00  0.00    +0.186 C 
ATOM     16  C   UNL A   1     -24.117   0.344  28.149  0.00  0.00    +0.164 C 
ATOM     17  C   UNL A   1     -26.652   0.510  28.583  0.00  0.00    +0.089 C 
ENDROOT
BRANCH  16  21
ATOM     18  C   UNL A   1     -21.725   0.851  28.359  0.00  0.00    +0.360 C 
ATOM     19  N   UNL A   1     -20.625  -0.209  28.635  0.00  0.00    -0.068 NA
ATOM     20  O   UNL A   1     -21.088   1.459  27.416  0.00  0.00    -0.247 OA
ATOM     21  N   UNL A   1     -22.975   0.741  28.936  0.00  0.00    -0.170 NA
ENDBRANCH  16  21
BRANCH  12  23
ATOM     22  C   UNL A   1     -28.829   2.604  28.599  0.00  0.00    +0.080 C 
ATOM     23  S   UNL A   1     -27.449   2.950  29.813  0.00  0.00    -0.066 S 
ATOM     24  O   UNL A   1     -26.482   4.148  30.249  0.00  0.00    -0.171 OA
ATOM     25  C   UNL A   1     -28.547   3.495  31.100  0.00  0.00    +0.080 C 
ENDBRANCH  12  23
BRANCH  14  27
ATOM     26  C   UNL A   1     -22.213   2.202  25.610  0.00  0.00    +0.001 C 
ATOM     27  C   UNL A   1     -23.288   1.922  26.627  0.00  0.00    +0.010 C 
ATOM     28  C   UNL A   1     -23.512   1.905  24.951  0.00  0.00    +0.001 C 
ENDBRANCH  14  27
BRANCH  13  29
ATOM     29  C   UNL A   1     -24.855  -1.012  30.143  0.00  0.00    +0.098 C 
BRANCH  29  30
ATOM     30  C   UNL A   1     -24.973  -2.505  29.788  0.00  0.00    -0.006 C 
ATOM     31  C   UNL A   1     -23.906  -3.173  29.146  0.00  0.00    -0.003 C 
ATOM     32  C   UNL A   1     -23.989  -4.549  28.853  0.00  0.00    -0.000 C 
ATOM     33  C   UNL A   1     -25.137  -5.280  29.205  0.00  0.00    -0.000 C 
ATOM     34  C   UNL A   1     -26.232  -4.611  29.784  0.00  0.00    -0.000 C 
ATOM     35  C   UNL A   1     -26.155  -3.232  30.065  0.00  0.00    -0.003 C 
ENDBRANCH  29  30
BRANCH  29  36
ATOM     36  C   UNL A   1     -25.387  -0.679  31.571  0.00  0.00    +0.092 C 
ATOM     37  C   UNL A   1     -25.189   0.773  32.028  0.00  0.00    +0.021 C 
ATOM     38  C   UNL A   1     -25.336   0.684  33.544  0.00  0.00    +0.020 C 
ATOM     39  C   UNL A   1     -24.829  -0.715  33.905  0.00  0.00    +0.089 C 
ATOM     40  N   UNL A   1     -24.758  -1.481  32.646  0.00  0.00    -0.218 NA
ENDBRANCH  29  36
ENDBRANCH  13  29
BRANCH   9  41
ATOM     41  O   UNL A   1     -28.193  -0.208  24.477  0.00  0.00    -0.456 OA
BRANCH  41  42
ATOM     42  C   UNL A   1     -29.460   0.005  23.866  0.00  0.00    +0.243 C 
BRANCH  42  43
ATOM     43  C   UNL A   1     -30.065  -1.377  23.573  0.00  0.00    +0.229 C 
ATOM     44  O   UNL A   1     -30.729  -1.878  24.721  0.00  0.00    -0.216 OA
ENDBRANCH  42  43
ENDBRANCH  41  42
ENDBRANCH   9  41
TORSDOF 9
