MODEL 756
MODEL 1
REMARK VINA RESULT:    -6.784      0.000      0.000
REMARK INTER + INTRA:          -9.250
REMARK INTER:                  -8.767
REMARK INTRA:                  -0.483
REMARK UNBOUND:                -0.483
REMARK  Name = No_756-gen_results/8p0m/2024-11-27-11-27-31/
REMARK  5 active torsions:
REMARK  status: ('A' for Active; 'I' for Inactive)
REMARK    1  A    between atoms: C_6  and  O_7
REMARK    2  A    between atoms: O_7  and  C_16
REMARK    3  A    between atoms: C_16  and  C_17
REMARK    4  A    between atoms: C_17  and  O_18
REMARK    5  A    between atoms: O_18  and  P_21
REMARK                            x       y       z     vdW  Elec       q    Type
REMARK                         _______ _______ _______ _____ _____    ______ ____
ROOT
ATOM      1  C   UNL A   1     -29.117 -11.964  27.316  0.00  0.00    +0.037 A 
ATOM      2  C   UNL A   1     -29.224 -11.446  28.404  0.00  0.00    -0.001 A 
ATOM      3  C   UNL A   1     -30.285 -10.596  28.693  0.00  0.00    -0.015 A 
ATOM      4  C   UNL A   1     -31.267 -10.269  27.691  0.00  0.00    -0.001 A 
ATOM      5  C   UNL A   1     -31.053 -10.892  26.455  0.00  0.00    +0.037 A 
ATOM      6  C   UNL A   1     -30.024 -11.675  26.227  0.00  0.00    +0.141 A 
ATOM      7  C   UNL A   1     -30.534  -9.902  30.010  0.00  0.00    +0.083 C 
ATOM      8  C   UNL A   1     -29.934 -10.322  31.110  0.00  0.00    +0.120 C 
ATOM      9  C   UNL A   1     -29.268 -10.959  31.530  0.00  0.00    +0.033 C 
ATOM     10  C   UNL A   1     -28.654 -11.988  30.668  0.00  0.00    +0.003 C 
ATOM     11  C   UNL A   1     -28.672 -12.024  29.354  0.00  0.00    -0.000 C 
ATOM     12  O   UNL A   1     -30.562  -9.334  32.187  0.00  0.00    -0.479 OA
ATOM     13  C   UNL A   1     -31.021  -8.124  31.807  0.00  0.00    +0.206 C 
ATOM     14  C   UNL A   1     -31.325  -8.703  29.962  0.00  0.00    +0.059 C 
ENDROOT
BRANCH   6  15
ATOM     15  O   UNL A   1     -29.869 -12.211  24.986  0.00  0.00    -0.447 OA
BRANCH  15  16
ATOM     16  C   UNL A   1     -30.749 -13.108  24.518  0.00  0.00    +0.381 C 
ATOM     17  O   UNL A   1     -30.163 -14.452  24.878  0.00  0.00    -0.168 OA
BRANCH  16  18
ATOM     18  C   UNL A   1     -30.929 -12.984  23.219  0.00  0.00    +0.360 C 
ATOM     19  F   UNL A   1     -32.040 -12.292  22.905  0.00  0.00    -0.196 F 
BRANCH  18  20
ATOM     20  O   UNL A   1     -30.036 -12.757  22.484  0.00  0.00    -0.234 OA
BRANCH  20  21
ATOM     21  P   UNL A   1     -29.975 -12.570  20.842  0.00  0.00    +0.535 P 
ATOM     22  O   UNL A   1     -28.676 -13.372  20.282  0.00  0.00    -0.115 OA
ATOM     23  O   UNL A   1     -31.190 -13.178  20.235  0.00  0.00    -0.222 OA
ATOM     24  O   UNL A   1     -29.829 -11.126  20.558  0.00  0.00    -0.115 OA
ENDBRANCH  20  21
ENDBRANCH  18  20
ENDBRANCH  16  18
ENDBRANCH  15  16
ENDBRANCH   6  15
TORSDOF 5
ENDMDL
ENDMDL
