REMARK  Name = outputs/IAG933/test6/raw/output_7574_IAG933_linker_design_.xyz
REMARK  11 active torsions:
REMARK  status: ('A' for Active; 'I' for Inactive)
REMARK    1  A    between atoms: C_1  and  C_2
REMARK    2  A    between atoms: C_1  and  C_8
REMARK    3  A    between atoms: C_1  and  N_40
REMARK    4  A    between atoms: C_13  and  N_35
REMARK    5  A    between atoms: C_14  and  C_15
REMARK    6  A    between atoms: C_21  and  O_22
REMARK    7  A    between atoms: O_22  and  C_23
REMARK    8  A    between atoms: C_23  and  C_24
REMARK    9  A    between atoms: C_28  and  C_33
REMARK   10  A    between atoms: C_28  and  C_38
REMARK   11  A    between atoms: C_33  and  C_41
REMARK                            x       y       z     vdW  Elec       q    Type
REMARK                         _______ _______ _______ _____ _____    ______ ____
ROOT
ATOM      1  O   UNL A   1     -21.413   1.944  26.135  0.00  0.00    -0.298 OA
ATOM      2  C   UNL A   1     -22.577   1.087  27.878  0.00  0.00    +0.135 C 
ATOM      3  O   UNL A   1     -22.298  -0.006  29.821  0.00  0.00    -0.275 OA
ATOM      4  C   UNL A   1     -23.066   0.398  29.073  0.00  0.00    +0.231 C 
ATOM      5  C   UNL A   1     -21.284   1.514  27.434  0.00  0.00    +0.169 C 
ATOM      6  N   UNL A   1     -24.853   1.234  27.610  0.00  0.00    -0.243 NA
ATOM      7  C   UNL A   1     -23.655   1.302  27.140  0.00  0.00    +0.146 C 
ATOM      8  C   UNL A   1     -25.710   1.024  28.886  0.00  0.00    +0.138 C 
ATOM      9  S   UNL A   1     -22.934   1.759  25.483  0.00  0.00    +0.020 S 
ATOM     10  N   UNL A   1     -24.654   0.176  29.317  0.00  0.00    -0.264 N 
ENDROOT
BRANCH   6  11
ATOM     11  C   UNL A   1     -25.688   1.614  26.461  0.00  0.00    +0.130 C 
ATOM     12  C   UNL A   1     -26.250   2.920  26.395  0.00  0.00    +0.070 C 
ATOM     13  C   UNL A   1     -27.438   3.091  25.645  0.00  0.00    +0.103 C 
ATOM     14  N   UNL A   1     -28.075   2.089  25.003  0.00  0.00    -0.212 NA
ATOM     15  C   UNL A   1     -27.543   0.849  25.079  0.00  0.00    +0.235 C 
ATOM     16  C   UNL A   1     -26.354   0.576  25.777  0.00  0.00    +0.255 C 
ATOM     17  F   UNL A   1     -25.860  -0.681  25.795  0.00  0.00    -0.225 F 
BRANCH  12  18
ATOM     18  C   UNL A   1     -25.642   4.093  27.123  0.00  0.00    +0.264 C 
ATOM     19  N   UNL A   1     -25.614   5.252  26.449  0.00  0.00    -0.200 NA
ATOM     20  C   UNL A   1     -25.026   6.479  26.963  0.00  0.00    +0.139 C 
ATOM     21  O   UNL A   1     -25.143   3.966  28.243  0.00  0.00    -0.269 OA
ENDBRANCH  12  18
BRANCH  15  22
ATOM     22  O   UNL A   1     -28.193  -0.208  24.477  0.00  0.00    -0.459 OA
BRANCH  22  23
ATOM     23  C   UNL A   1     -29.460   0.005  23.866  0.00  0.00    +0.242 C 
BRANCH  23  24
ATOM     24  C   UNL A   1     -30.065  -1.377  23.573  0.00  0.00    +0.229 C 
ATOM     25  O   UNL A   1     -30.729  -1.878  24.721  0.00  0.00    -0.216 OA
ENDBRANCH  23  24
ENDBRANCH  22  23
ENDBRANCH  15  22
ENDBRANCH   6  11
BRANCH  10  26
ATOM     26  C   UNL A   1     -24.855  -1.012  30.143  0.00  0.00    +0.115 C 
BRANCH  26  27
ATOM     27  C   UNL A   1     -24.973  -2.505  29.788  0.00  0.00    -0.003 C 
ATOM     28  C   UNL A   1     -23.906  -3.173  29.146  0.00  0.00    -0.003 C 
ATOM     29  C   UNL A   1     -23.989  -4.549  28.853  0.00  0.00    -0.000 C 
ATOM     30  C   UNL A   1     -25.137  -5.280  29.205  0.00  0.00    -0.000 C 
ATOM     31  C   UNL A   1     -26.232  -4.611  29.784  0.00  0.00    -0.000 C 
ATOM     32  C   UNL A   1     -26.155  -3.232  30.065  0.00  0.00    -0.003 C 
ENDBRANCH  26  27
BRANCH  26  33
ATOM     33  C   UNL A   1     -25.387  -0.679  31.571  0.00  0.00    +0.095 C 
ATOM     34  C   UNL A   1     -25.189   0.773  32.028  0.00  0.00    +0.021 C 
ATOM     35  C   UNL A   1     -25.336   0.684  33.544  0.00  0.00    +0.020 C 
ATOM     36  C   UNL A   1     -24.829  -0.715  33.905  0.00  0.00    +0.089 C 
ATOM     37  N   UNL A   1     -24.758  -1.481  32.646  0.00  0.00    -0.217 NA
ENDBRANCH  26  33
ENDBRANCH  10  26
BRANCH   8  38
ATOM     38  C   UNL A   1     -27.259   0.340  29.053  0.00  0.00    +0.040 C 
BRANCH  38  39
ATOM     39  C   UNL A   1     -28.321   1.363  29.398  0.00  0.00    +0.039 C 
BRANCH  39  41
ATOM     40  O   UNL A   1     -29.515  -0.290  28.111  0.00  0.00    -0.220 OA
ATOM     41  C   UNL A   1     -29.645   0.994  28.766  0.00  0.00    +0.182 C 
ENDBRANCH  39  41
ENDBRANCH  38  39
ENDBRANCH   8  38
TORSDOF 11
