REMARK  Name = outputs/IAG933/test6/raw/output_7576_IAG933_linker_design_.xyz
REMARK  16 active torsions:
REMARK  status: ('A' for Active; 'I' for Inactive)
REMARK    1  A    between atoms: C_1  and  C_2
REMARK    2  A    between atoms: C_1  and  C_8
REMARK    3  A    between atoms: C_9  and  C_43
REMARK    4  A    between atoms: C_13  and  C_33
REMARK    5  A    between atoms: C_14  and  C_15
REMARK    6  A    between atoms: C_21  and  O_22
REMARK    7  A    between atoms: O_22  and  C_23
REMARK    8  A    between atoms: C_23  and  C_24
REMARK    9  A    between atoms: N_28  and  C_33
REMARK   10  A    between atoms: O_29  and  C_31
REMARK   11  A    between atoms: O_29  and  C_33
REMARK   12  A    between atoms: C_30  and  C_31
REMARK   13  A    between atoms: N_34  and  C_38
REMARK   14  A    between atoms: C_35  and  O_45
REMARK   15  A    between atoms: C_39  and  C_43
REMARK   16  A    between atoms: C_43  and  O_45
REMARK                            x       y       z     vdW  Elec       q    Type
REMARK                         _______ _______ _______ _____ _____    ______ ____
ROOT
ATOM      1  N   UNL A   1     -24.962   1.547  28.860  0.00  0.00    -0.170 NA
ATOM      2  O   UNL A   1     -27.264   1.449  29.718  0.00  0.00    -0.269 OA
ATOM      3  C   UNL A   1     -26.068   1.667  29.964  0.00  0.00    +0.284 C 
ENDROOT
BRANCH   1   4
ATOM      4  C   UNL A   1     -24.476   1.263  27.304  0.00  0.00    +0.238 C 
BRANCH   4   5
ATOM      5  C   UNL A   1     -25.688   1.614  26.461  0.00  0.00    +0.064 C 
ATOM      6  C   UNL A   1     -26.250   2.920  26.395  0.00  0.00    +0.077 C 
ATOM      7  C   UNL A   1     -27.438   3.091  25.645  0.00  0.00    +0.106 C 
ATOM      8  N   UNL A   1     -28.075   2.089  25.003  0.00  0.00    -0.208 NA
ATOM      9  C   UNL A   1     -27.543   0.849  25.079  0.00  0.00    +0.253 C 
ATOM     10  C   UNL A   1     -26.354   0.576  25.777  0.00  0.00    +0.193 C 
ATOM     11  F   UNL A   1     -25.860  -0.681  25.795  0.00  0.00    -0.199 F 
BRANCH   6  12
ATOM     12  C   UNL A   1     -25.642   4.093  27.123  0.00  0.00    +0.266 C 
ATOM     13  N   UNL A   1     -25.614   5.252  26.449  0.00  0.00    -0.200 NA
ATOM     14  C   UNL A   1     -25.026   6.479  26.963  0.00  0.00    +0.139 C 
ATOM     15  O   UNL A   1     -25.143   3.966  28.243  0.00  0.00    -0.268 OA
ENDBRANCH   6  12
BRANCH   9  16
ATOM     16  O   UNL A   1     -28.193  -0.208  24.477  0.00  0.00    -0.456 OA
BRANCH  16  17
ATOM     17  C   UNL A   1     -29.460   0.005  23.866  0.00  0.00    +0.243 C 
BRANCH  17  18
ATOM     18  C   UNL A   1     -30.065  -1.377  23.573  0.00  0.00    +0.229 C 
ATOM     19  O   UNL A   1     -30.729  -1.878  24.721  0.00  0.00    -0.216 OA
ENDBRANCH  17  18
ENDBRANCH  16  17
ENDBRANCH   9  16
ENDBRANCH   4   5
BRANCH   4  20
ATOM     20  O   UNL A   1     -23.487   2.189  26.891  0.00  0.00    -0.331 OA
BRANCH  20  21
ATOM     21  C   UNL A   1     -22.243   1.952  26.264  0.00  0.00    +0.165 C 
BRANCH  21  22
ATOM     22  C   UNL A   1     -21.124   1.887  27.354  0.00  0.00    +0.141 C 
ATOM     23  N   UNL A   1     -21.682   1.157  28.529  0.00  0.00    -0.129 NA
ENDBRANCH  21  22
ENDBRANCH  20  21
ENDBRANCH   4  20
ENDBRANCH   1   4
BRANCH   3  24
ATOM     24  C   UNL A   1     -25.678   1.941  31.487  0.00  0.00    +0.244 C 
BRANCH  24  26
ATOM     25  C   UNL A   1     -25.387  -0.679  31.571  0.00  0.00    +0.081 C 
ATOM     26  C   UNL A   1     -25.189   0.773  32.028  0.00  0.00    +0.067 C 
ATOM     27  C   UNL A   1     -25.336   0.684  33.544  0.00  0.00    +0.024 C 
ATOM     28  C   UNL A   1     -24.829  -0.715  33.905  0.00  0.00    +0.089 C 
ATOM     29  N   UNL A   1     -24.758  -1.481  32.646  0.00  0.00    -0.219 NA
BRANCH  25  30
ATOM     30  C   UNL A   1     -24.855  -1.012  30.143  0.00  0.00    +0.044 C 
BRANCH  30  31
ATOM     31  C   UNL A   1     -24.973  -2.505  29.788  0.00  0.00    -0.021 C 
ATOM     32  C   UNL A   1     -23.906  -3.173  29.146  0.00  0.00    -0.004 C 
ATOM     33  C   UNL A   1     -23.989  -4.549  28.853  0.00  0.00    -0.000 C 
ATOM     34  C   UNL A   1     -25.137  -5.280  29.205  0.00  0.00    -0.000 C 
ATOM     35  C   UNL A   1     -26.232  -4.611  29.784  0.00  0.00    -0.000 C 
ATOM     36  C   UNL A   1     -26.155  -3.232  30.065  0.00  0.00    -0.004 C 
ENDBRANCH  30  31
ENDBRANCH  25  30
ENDBRANCH  24  26
BRANCH  24  37
ATOM     37  O   UNL A   1     -24.867   3.150  31.658  0.00  0.00    -0.470 OA
BRANCH  37  39
ATOM     38  C   UNL A   1     -24.222   6.014  33.927  0.00  0.00    +0.027 C 
ATOM     39  C   UNL A   1     -25.149   4.217  32.547  0.00  0.00    +0.139 C 
ATOM     40  C   UNL A   1     -25.430   6.114  34.648  0.00  0.00    +0.143 C 
ATOM     41  C   UNL A   1     -24.090   5.072  32.898  0.00  0.00    +0.039 C 
ATOM     42  C   UNL A   1     -26.419   4.470  33.113  0.00  0.00    +0.039 C 
ATOM     43  C   UNL A   1     -26.541   5.414  34.162  0.00  0.00    +0.027 C 
BRANCH  40  44
ATOM     44  N   UNL A   1     -25.521   6.827  35.923  0.00  0.00    +0.058 N 
ATOM     45  O   UNL A   1     -24.719   6.619  36.809  0.00  0.00    -0.126 OA
ATOM     46  O   UNL A   1     -26.399   7.694  36.175  0.00  0.00    -0.126 OA
ENDBRANCH  40  44
ENDBRANCH  37  39
ENDBRANCH  24  37
ENDBRANCH   3  24
TORSDOF 16
