REMARK  Name = outputs/IAG933/test6/raw/output_7578_IAG933_linker_design_.xyz
REMARK  9 active torsions:
REMARK  status: ('A' for Active; 'I' for Inactive)
REMARK    1  A    between atoms: C_1  and  C_2
REMARK    2  A    between atoms: C_13  and  C_37
REMARK    3  A    between atoms: C_14  and  C_15
REMARK    4  A    between atoms: C_21  and  O_22
REMARK    5  A    between atoms: O_22  and  C_23
REMARK    6  A    between atoms: C_23  and  C_24
REMARK    7  A    between atoms: C_28  and  C_33
REMARK    8  A    between atoms: C_33  and  C_36
REMARK    9  A    between atoms: C_36  and  C_40
REMARK                            x       y       z     vdW  Elec       q    Type
REMARK                         _______ _______ _______ _____ _____    ______ ____
ROOT
ATOM      1  C   UNL A   1     -24.855  -1.012  30.143  0.00  0.00    +0.182 C 
ATOM      2  C   UNL A   1     -25.387  -0.679  31.571  0.00  0.00    +0.107 C 
ATOM      3  C   UNL A   1     -25.189   0.773  32.028  0.00  0.00    +0.022 C 
ATOM      4  C   UNL A   1     -25.336   0.684  33.544  0.00  0.00    +0.020 C 
ATOM      5  C   UNL A   1     -24.829  -0.715  33.905  0.00  0.00    +0.089 C 
ATOM      6  N   UNL A   1     -24.758  -1.481  32.646  0.00  0.00    -0.217 NA
ATOM      7  C   UNL A   1     -24.638   1.723  30.924  0.00  0.00    +0.029 C 
ATOM      8  O   UNL A   1     -25.439  -0.281  29.047  0.00  0.00    -0.254 OA
ATOM      9  N   UNL A   1     -24.768   0.855  28.618  0.00  0.00    -0.235 N 
ATOM     10 CL   UNL A   1     -22.631   2.073  25.295  0.00  0.00    -0.078 Cl
ATOM     11  C   UNL A   1     -22.203   1.511  27.949  0.00  0.00    +0.150 C 
ATOM     12  C   UNL A   1     -24.014   1.327  29.569  0.00  0.00    +0.134 C 
ATOM     13  C   UNL A   1     -24.554   1.326  27.362  0.00  0.00    +0.098 C 
ATOM     14  C   UNL A   1     -22.608   1.338  29.325  0.00  0.00    +0.029 C 
ATOM     15  C   UNL A   1     -23.183   1.619  26.956  0.00  0.00    +0.102 C 
ATOM     16  F   UNL A   1     -20.902   1.657  27.610  0.00  0.00    -0.203 F 
ENDROOT
BRANCH  13  17
ATOM     17  C   UNL A   1     -25.688   1.614  26.461  0.00  0.00    +0.057 C 
ATOM     18  C   UNL A   1     -26.250   2.920  26.395  0.00  0.00    +0.078 C 
ATOM     19  C   UNL A   1     -27.438   3.091  25.645  0.00  0.00    +0.107 C 
ATOM     20  N   UNL A   1     -28.075   2.089  25.003  0.00  0.00    -0.208 NA
ATOM     21  C   UNL A   1     -27.543   0.849  25.079  0.00  0.00    +0.253 C 
ATOM     22  C   UNL A   1     -26.354   0.576  25.777  0.00  0.00    +0.195 C 
ATOM     23  F   UNL A   1     -25.860  -0.681  25.795  0.00  0.00    -0.199 F 
BRANCH  18  24
ATOM     24  C   UNL A   1     -25.642   4.093  27.123  0.00  0.00    +0.267 C 
ATOM     25  N   UNL A   1     -25.614   5.252  26.449  0.00  0.00    -0.200 NA
ATOM     26  C   UNL A   1     -25.026   6.479  26.963  0.00  0.00    +0.139 C 
ATOM     27  O   UNL A   1     -25.143   3.966  28.243  0.00  0.00    -0.268 OA
ENDBRANCH  18  24
BRANCH  21  28
ATOM     28  O   UNL A   1     -28.193  -0.208  24.477  0.00  0.00    -0.456 OA
BRANCH  28  29
ATOM     29  C   UNL A   1     -29.460   0.005  23.866  0.00  0.00    +0.243 C 
BRANCH  29  30
ATOM     30  C   UNL A   1     -30.065  -1.377  23.573  0.00  0.00    +0.229 C 
ATOM     31  O   UNL A   1     -30.729  -1.878  24.721  0.00  0.00    -0.216 OA
ENDBRANCH  29  30
ENDBRANCH  28  29
ENDBRANCH  21  28
ENDBRANCH  13  17
BRANCH   1  32
ATOM     32  C   UNL A   1     -24.973  -2.505  29.788  0.00  0.00    +0.009 C 
ATOM     33  C   UNL A   1     -23.906  -3.173  29.146  0.00  0.00    -0.002 C 
ATOM     34  C   UNL A   1     -23.989  -4.549  28.853  0.00  0.00    -0.000 C 
ATOM     35  C   UNL A   1     -25.137  -5.280  29.205  0.00  0.00    -0.000 C 
ATOM     36  C   UNL A   1     -26.232  -4.611  29.784  0.00  0.00    -0.000 C 
ATOM     37  C   UNL A   1     -26.155  -3.232  30.065  0.00  0.00    -0.002 C 
ENDBRANCH   1  32
BRANCH   7  38
ATOM     38  C   UNL A   1     -24.272   3.014  31.671  0.00  0.00    +0.012 C 
BRANCH  38  39
ATOM     39  C   UNL A   1     -25.296   4.103  31.473  0.00  0.00    +0.089 C 
BRANCH  39  42
ATOM     40  N   UNL A   1     -25.246   5.601  33.490  0.00  0.00    -0.088 NA
ATOM     41  O   UNL A   1     -23.731   5.900  31.809  0.00  0.00    -0.272 OA
ATOM     42  C   UNL A   1     -24.689   5.267  32.249  0.00  0.00    +0.261 C 
ENDBRANCH  39  42
ENDBRANCH  38  39
ENDBRANCH   7  38
TORSDOF 9
