MODEL 757
MODEL 1
REMARK VINA RESULT:    -6.052      0.000      0.000
REMARK INTER + INTRA:          -7.047
REMARK INTER:                  -6.760
REMARK INTRA:                  -0.288
REMARK UNBOUND:                -0.288
REMARK  Name = No_757-gen_results/8p0m/2024-11-27-11-27-31/
REMARK  2 active torsions:
REMARK  status: ('A' for Active; 'I' for Inactive)
REMARK    1  A    between atoms: C_2  and  O_7
REMARK    2  A    between atoms: O_7  and  C_8
REMARK                            x       y       z     vdW  Elec       q    Type
REMARK                         _______ _______ _______ _____ _____    ______ ____
ROOT
ATOM      1  O   UNL A   1     -24.790  -1.248  29.665  0.00  0.00    -0.454 OA
ENDROOT
BRANCH   1   3
ATOM      2  C   UNL A   1     -23.467   0.156  28.698  0.00  0.00    +0.037 A 
ATOM      3  C   UNL A   1     -24.333  -0.425  28.549  0.00  0.00    +0.145 A 
ATOM      4  C   UNL A   1     -23.023   0.981  27.563  0.00  0.00    +0.003 A 
ATOM      5  C   UNL A   1     -23.820   1.082  26.385  0.00  0.00    +0.000 A 
ATOM      6  C   UNL A   1     -25.356  -0.459  27.468  0.00  0.00    +0.037 A 
ATOM      7  C   UNL A   1     -24.975   0.287  26.393  0.00  0.00    +0.003 A 
ENDBRANCH   1   3
BRANCH   1   8
ATOM      8  C   UNL A   1     -24.804  -2.523  29.472  0.00  0.00    +0.145 A 
ATOM      9  C   UNL A   1     -23.931  -3.239  28.888  0.00  0.00    +0.037 A 
ATOM     10  C   UNL A   1     -23.979  -4.615  28.571  0.00  0.00    +0.003 A 
ATOM     11  C   UNL A   1     -25.144  -5.270  29.021  0.00  0.00    +0.000 A 
ATOM     12  C   UNL A   1     -26.042  -3.265  29.835  0.00  0.00    +0.037 A 
ATOM     13  C   UNL A   1     -26.148  -4.575  29.660  0.00  0.00    +0.003 A 
ENDBRANCH   1   8
TORSDOF 2
ENDMDL
ENDMDL
