REMARK  Name = outputs/IAG933/test6/raw/output_758_IAG933_linker_design_.xyz
REMARK  15 active torsions:
REMARK  status: ('A' for Active; 'I' for Inactive)
REMARK    1  A    between atoms: C_1  and  C_2
REMARK    2  A    between atoms: C_1  and  C_8
REMARK    3  A    between atoms: C_1  and  N_45
REMARK    4  A    between atoms: C_13  and  C_36
REMARK    5  A    between atoms: C_14  and  C_15
REMARK    6  A    between atoms: C_21  and  O_22
REMARK    7  A    between atoms: O_22  and  C_23
REMARK    8  A    between atoms: C_23  and  C_24
REMARK    9  A    between atoms: C_28  and  N_37
REMARK   10  A    between atoms: C_30  and  C_40
REMARK   11  A    between atoms: C_33  and  C_38
REMARK   12  A    between atoms: N_37  and  C_41
REMARK   13  A    between atoms: C_38  and  C_41
REMARK   14  A    between atoms: O_39  and  C_43
REMARK   15  A    between atoms: C_40  and  C_43
REMARK                            x       y       z     vdW  Elec       q    Type
REMARK                         _______ _______ _______ _____ _____    ______ ____
ROOT
ATOM      1  C   UNL A   1     -25.192   0.767  28.585  0.00  0.00    +0.171 C 
ATOM      2  C   UNL A   1     -21.022   1.277  27.517  0.00  0.00    +0.032 C 
ATOM      3  C   UNL A   1     -22.892   0.195  28.971  0.00  0.00    +0.058 C 
ATOM      4  C   UNL A   1     -23.499   1.584  27.065  0.00  0.00    -0.004 C 
ATOM      5  C   UNL A   1     -24.763   1.362  27.366  0.00  0.00    +0.011 C 
ATOM      6  N   UNL A   1     -24.244  -0.007  29.293  0.00  0.00    -0.288 N 
ATOM      7  C   UNL A   1     -22.458   1.042  27.845  0.00  0.00    -0.007 C 
ENDROOT
BRANCH   5   8
ATOM      8  C   UNL A   1     -25.688   1.614  26.461  0.00  0.00    +0.020 C 
ATOM      9  C   UNL A   1     -26.250   2.920  26.395  0.00  0.00    +0.056 C 
ATOM     10  C   UNL A   1     -27.438   3.091  25.645  0.00  0.00    +0.159 C 
ATOM     11  N   UNL A   1     -28.075   2.089  25.003  0.00  0.00    -0.234 NA
ATOM     12  C   UNL A   1     -27.543   0.849  25.079  0.00  0.00    +0.234 C 
ATOM     13  C   UNL A   1     -26.354   0.576  25.777  0.00  0.00    +0.258 C 
ATOM     14  F   UNL A   1     -25.860  -0.681  25.795  0.00  0.00    -0.222 F 
BRANCH   9  15
ATOM     15  C   UNL A   1     -25.642   4.093  27.123  0.00  0.00    +0.263 C 
ATOM     16  N   UNL A   1     -25.614   5.252  26.449  0.00  0.00    -0.200 NA
ATOM     17  C   UNL A   1     -25.026   6.479  26.963  0.00  0.00    +0.139 C 
ATOM     18  O   UNL A   1     -25.143   3.966  28.243  0.00  0.00    -0.269 OA
ENDBRANCH   9  15
BRANCH  12  19
ATOM     19  O   UNL A   1     -28.193  -0.208  24.477  0.00  0.00    -0.459 OA
BRANCH  19  20
ATOM     20  C   UNL A   1     -29.460   0.005  23.866  0.00  0.00    +0.242 C 
BRANCH  20  21
ATOM     21  C   UNL A   1     -30.065  -1.377  23.573  0.00  0.00    +0.229 C 
ATOM     22  O   UNL A   1     -30.729  -1.878  24.721  0.00  0.00    -0.216 OA
ENDBRANCH  20  21
ENDBRANCH  19  20
ENDBRANCH  12  19
ENDBRANCH   5   8
BRANCH   6  23
ATOM     23  C   UNL A   1     -24.855  -1.012  30.143  0.00  0.00    +0.113 C 
BRANCH  23  24
ATOM     24  C   UNL A   1     -24.973  -2.505  29.788  0.00  0.00    -0.003 C 
ATOM     25  C   UNL A   1     -23.906  -3.173  29.146  0.00  0.00    -0.003 C 
ATOM     26  C   UNL A   1     -23.989  -4.549  28.853  0.00  0.00    -0.000 C 
ATOM     27  C   UNL A   1     -25.137  -5.280  29.205  0.00  0.00    -0.000 C 
ATOM     28  C   UNL A   1     -26.232  -4.611  29.784  0.00  0.00    -0.000 C 
ATOM     29  C   UNL A   1     -26.155  -3.232  30.065  0.00  0.00    -0.003 C 
ENDBRANCH  23  24
BRANCH  23  30
ATOM     30  C   UNL A   1     -25.387  -0.679  31.571  0.00  0.00    +0.095 C 
ATOM     31  C   UNL A   1     -25.189   0.773  32.028  0.00  0.00    +0.021 C 
ATOM     32  C   UNL A   1     -25.336   0.684  33.544  0.00  0.00    +0.020 C 
ATOM     33  C   UNL A   1     -24.829  -0.715  33.905  0.00  0.00    +0.089 C 
ATOM     34  N   UNL A   1     -24.758  -1.481  32.646  0.00  0.00    -0.217 NA
ENDBRANCH  23  30
ENDBRANCH   6  23
BRANCH   1  35
ATOM     35  N   UNL A   1     -26.648   0.929  29.093  0.00  0.00    -0.193 NA
BRANCH  35  36
ATOM     36  C   UNL A   1     -27.886  -0.280  29.412  0.00  0.00    +0.128 C 
BRANCH  36  37
ATOM     37  C   UNL A   1     -29.174   0.241  28.804  0.00  0.00    +0.194 C 
ATOM     38  O   UNL A   1     -29.635   1.184  29.723  0.00  0.00    -0.217 OA
BRANCH  37  40
ATOM     39  C   UNL A   1     -31.637  -0.998  28.762  0.00  0.00    +0.181 C 
ATOM     40  C   UNL A   1     -30.335  -0.540  28.260  0.00  0.00    +0.045 C 
ATOM     41  O   UNL A   1     -32.231  -1.885  27.994  0.00  0.00    -0.291 OA
BRANCH  39  42
ATOM     42  C   UNL A   1     -32.095  -0.630  30.019  0.00  0.00    +0.155 C 
BRANCH  42  44
ATOM     43  N   UNL A   1     -34.025   0.308  31.085  0.00  0.00    -0.112 NA
ATOM     44  C   UNL A   1     -33.427  -0.191  30.015  0.00  0.00    +0.228 C 
BRANCH  44  46
ATOM     45  C   UNL A   1     -35.552   0.142  28.806  0.00  0.00    +0.254 C 
ATOM     46  O   UNL A   1     -34.208  -0.302  28.971  0.00  0.00    -0.458 OA
ENDBRANCH  44  46
ENDBRANCH  42  44
ENDBRANCH  39  42
ENDBRANCH  37  40
ENDBRANCH  36  37
ENDBRANCH  35  36
ENDBRANCH   1  35
TORSDOF 15
