REMARK  Name = outputs/IAG933/test6/raw/output_7584_IAG933_linker_design_.xyz
REMARK  8 active torsions:
REMARK  status: ('A' for Active; 'I' for Inactive)
REMARK    1  A    between atoms: C_1  and  C_2
REMARK    2  A    between atoms: C_13  and  C_43
REMARK    3  A    between atoms: C_14  and  C_15
REMARK    4  A    between atoms: C_21  and  O_22
REMARK    5  A    between atoms: O_22  and  C_23
REMARK    6  A    between atoms: C_23  and  C_24
REMARK    7  A    between atoms: C_29  and  N_30
REMARK    8  A    between atoms: C_33  and  C_42
REMARK                            x       y       z     vdW  Elec       q    Type
REMARK                         _______ _______ _______ _____ _____    ______ ____
ROOT
ATOM      1  C   UNL A   1     -23.145   1.357  28.087  0.00  0.00    +0.132 C 
ATOM      2  N   UNL A   1     -21.985   1.629  24.854  0.00  0.00    -0.040 NA
ATOM      3  O   UNL A   1     -23.337   1.504  24.614  0.00  0.00    -0.355 OA
ATOM      4  C   UNL A   1     -23.358   1.514  26.844  0.00  0.00    +0.085 A 
ATOM      5  C   UNL A   1     -21.830   1.373  28.573  0.00  0.00    +0.228 C 
ATOM      6  C   UNL A   1     -21.989   1.646  26.304  0.00  0.00    +0.261 A 
ATOM      7  O   UNL A   1     -21.032   1.749  27.390  0.00  0.00    -0.457 OA
ATOM      8  C   UNL A   1     -24.108   1.539  26.073  0.00  0.00    +0.162 A 
ENDROOT
BRANCH   1  15
ATOM      9  C   UNL A   1     -24.855  -1.012  30.143  0.00  0.00    +0.054 C 
ATOM     10  C   UNL A   1     -25.387  -0.679  31.571  0.00  0.00    +0.080 C 
ATOM     11  C   UNL A   1     -25.189   0.773  32.028  0.00  0.00    +0.035 C 
ATOM     12  C   UNL A   1     -25.336   0.684  33.544  0.00  0.00    +0.022 C 
ATOM     13  C   UNL A   1     -24.829  -0.715  33.905  0.00  0.00    +0.089 C 
ATOM     14  N   UNL A   1     -24.758  -1.481  32.646  0.00  0.00    -0.219 NA
ATOM     15  N   UNL A   1     -24.255   1.222  29.177  0.00  0.00    -0.266 NA
ATOM     16  C   UNL A   1     -24.532   1.445  30.740  0.00  0.00    +0.089 C 
ATOM     17  C   UNL A   1     -24.713  -0.164  28.917  0.00  0.00    +0.078 C 
BRANCH  16  22
ATOM     18  C   UNL A   1     -26.343   5.351  31.027  0.00  0.00    +0.296 C 
ATOM     19  C   UNL A   1     -27.752   3.505  30.068  0.00  0.00    +0.296 C 
ATOM     20  C   UNL A   1     -25.103   3.457  32.193  0.00  0.00    +0.176 C 
ATOM     21  O   UNL A   1     -25.805   4.779  32.308  0.00  0.00    -0.324 OA
ATOM     22  C   UNL A   1     -25.202   2.824  30.765  0.00  0.00    +0.162 C 
ATOM     23  O   UNL A   1     -26.513   2.713  30.225  0.00  0.00    -0.325 OA
ATOM     24  O   UNL A   1     -27.673   4.742  30.800  0.00  0.00    -0.298 OA
ENDBRANCH  16  22
BRANCH   9  25
ATOM     25  C   UNL A   1     -24.973  -2.505  29.788  0.00  0.00    -0.020 C 
ATOM     26  C   UNL A   1     -23.906  -3.173  29.146  0.00  0.00    -0.004 C 
ATOM     27  C   UNL A   1     -23.989  -4.549  28.853  0.00  0.00    -0.000 C 
ATOM     28  C   UNL A   1     -25.137  -5.280  29.205  0.00  0.00    -0.000 C 
ATOM     29  C   UNL A   1     -26.232  -4.611  29.784  0.00  0.00    -0.000 C 
ATOM     30  C   UNL A   1     -26.155  -3.232  30.065  0.00  0.00    -0.004 C 
ENDBRANCH   9  25
ENDBRANCH   1  15
BRANCH   8  31
ATOM     31  C   UNL A   1     -25.688   1.614  26.461  0.00  0.00    +0.130 C 
ATOM     32  C   UNL A   1     -26.250   2.920  26.395  0.00  0.00    +0.062 C 
ATOM     33  C   UNL A   1     -27.438   3.091  25.645  0.00  0.00    +0.103 C 
ATOM     34  N   UNL A   1     -28.075   2.089  25.003  0.00  0.00    -0.212 NA
ATOM     35  C   UNL A   1     -27.543   0.849  25.079  0.00  0.00    +0.234 C 
ATOM     36  C   UNL A   1     -26.354   0.576  25.777  0.00  0.00    +0.247 C 
ATOM     37  F   UNL A   1     -25.860  -0.681  25.795  0.00  0.00    -0.226 F 
BRANCH  32  38
ATOM     38  C   UNL A   1     -25.642   4.093  27.123  0.00  0.00    +0.263 C 
ATOM     39  N   UNL A   1     -25.614   5.252  26.449  0.00  0.00    -0.200 NA
ATOM     40  C   UNL A   1     -25.026   6.479  26.963  0.00  0.00    +0.139 C 
ATOM     41  O   UNL A   1     -25.143   3.966  28.243  0.00  0.00    -0.269 OA
ENDBRANCH  32  38
BRANCH  35  42
ATOM     42  O   UNL A   1     -28.193  -0.208  24.477  0.00  0.00    -0.459 OA
BRANCH  42  43
ATOM     43  C   UNL A   1     -29.460   0.005  23.866  0.00  0.00    +0.242 C 
BRANCH  43  44
ATOM     44  C   UNL A   1     -30.065  -1.377  23.573  0.00  0.00    +0.229 C 
ATOM     45  O   UNL A   1     -30.729  -1.878  24.721  0.00  0.00    -0.216 OA
ENDBRANCH  43  44
ENDBRANCH  42  43
ENDBRANCH  35  42
ENDBRANCH   8  31
TORSDOF 8
