REMARK  Name = outputs/IAG933/test6/raw/output_7588_IAG933_linker_design_.xyz
REMARK  14 active torsions:
REMARK  status: ('A' for Active; 'I' for Inactive)
REMARK    1  A    between atoms: C_1  and  C_2
REMARK    2  A    between atoms: C_1  and  C_8
REMARK    3  A    between atoms: C_1  and  C_31
REMARK    4  A    between atoms: C_13  and  N_30
REMARK    5  A    between atoms: C_14  and  C_15
REMARK    6  A    between atoms: C_21  and  O_22
REMARK    7  A    between atoms: O_22  and  C_23
REMARK    8  A    between atoms: C_23  and  C_24
REMARK    9  A    between atoms: N_30  and  C_31
REMARK   10  A    between atoms: N_30  and  C_35
REMARK   11  A    between atoms: C_31  and  N_36
REMARK   12  A    between atoms: C_34  and  C_35
REMARK   13  A    between atoms: C_37  and  C_38
REMARK   14  A    between atoms: C_37  and  C_41
REMARK                            x       y       z     vdW  Elec       q    Type
REMARK                         _______ _______ _______ _____ _____    ______ ____
ROOT
ATOM      1  C   UNL A   1     -25.253  -0.012  28.920  0.00  0.00    +0.160 C 
ENDROOT
BRANCH   1   2
ATOM      2  N   UNL A   1     -26.315   1.030  29.298  0.00  0.00    -0.190 NA
ATOM      3  C   UNL A   1     -27.645   0.554  29.168  0.00  0.00    +0.247 C 
ATOM      4  O   UNL A   1     -27.962  -0.546  28.748  0.00  0.00    -0.273 OA
BRANCH   3   5
ATOM      5  C   UNL A   1     -28.715   1.414  29.753  0.00  0.00    +0.113 C 
BRANCH   5   9
ATOM      6  C   UNL A   1     -30.070   1.953  32.000  0.00  0.00    -0.004 C 
ATOM      7  C   UNL A   1     -30.006   0.372  33.845  0.00  0.00    -0.000 C 
ATOM      8  C   UNL A   1     -30.469   1.592  33.291  0.00  0.00    -0.000 C 
ATOM      9  C   UNL A   1     -29.316   1.066  31.174  0.00  0.00    -0.013 C 
ATOM     10  C   UNL A   1     -28.961  -0.204  31.667  0.00  0.00    -0.004 C 
ATOM     11  C   UNL A   1     -29.252  -0.515  33.037  0.00  0.00    -0.000 C 
ENDBRANCH   5   9
ENDBRANCH   3   5
ENDBRANCH   1   2
BRANCH   1  12
ATOM     12  C   UNL A   1     -24.855  -1.012  30.143  0.00  0.00    +0.074 C 
BRANCH  12  13
ATOM     13  C   UNL A   1     -24.973  -2.505  29.788  0.00  0.00    -0.018 C 
ATOM     14  C   UNL A   1     -23.906  -3.173  29.146  0.00  0.00    -0.004 C 
ATOM     15  C   UNL A   1     -23.989  -4.549  28.853  0.00  0.00    -0.000 C 
ATOM     16  C   UNL A   1     -25.137  -5.280  29.205  0.00  0.00    -0.000 C 
ATOM     17  C   UNL A   1     -26.232  -4.611  29.784  0.00  0.00    -0.000 C 
ATOM     18  C   UNL A   1     -26.155  -3.232  30.065  0.00  0.00    -0.004 C 
ENDBRANCH  12  13
BRANCH  12  19
ATOM     19  C   UNL A   1     -25.387  -0.679  31.571  0.00  0.00    +0.080 C 
ATOM     20  C   UNL A   1     -25.189   0.773  32.028  0.00  0.00    +0.019 C 
ATOM     21  C   UNL A   1     -25.336   0.684  33.544  0.00  0.00    +0.020 C 
ATOM     22  C   UNL A   1     -24.829  -0.715  33.905  0.00  0.00    +0.089 C 
ATOM     23  N   UNL A   1     -24.758  -1.481  32.646  0.00  0.00    -0.219 NA
ENDBRANCH  12  19
ENDBRANCH   1  12
BRANCH   1  24
ATOM     24  N   UNL A   1     -24.765   1.012  27.516  0.00  0.00    -0.251 NA
BRANCH  24  25
ATOM     25  C   UNL A   1     -25.688   1.614  26.461  0.00  0.00    +0.130 C 
ATOM     26  C   UNL A   1     -26.250   2.920  26.395  0.00  0.00    +0.070 C 
ATOM     27  C   UNL A   1     -27.438   3.091  25.645  0.00  0.00    +0.103 C 
ATOM     28  N   UNL A   1     -28.075   2.089  25.003  0.00  0.00    -0.212 NA
ATOM     29  C   UNL A   1     -27.543   0.849  25.079  0.00  0.00    +0.235 C 
ATOM     30  C   UNL A   1     -26.354   0.576  25.777  0.00  0.00    +0.255 C 
ATOM     31  F   UNL A   1     -25.860  -0.681  25.795  0.00  0.00    -0.225 F 
BRANCH  26  32
ATOM     32  C   UNL A   1     -25.642   4.093  27.123  0.00  0.00    +0.264 C 
ATOM     33  N   UNL A   1     -25.614   5.252  26.449  0.00  0.00    -0.200 NA
ATOM     34  C   UNL A   1     -25.026   6.479  26.963  0.00  0.00    +0.139 C 
ATOM     35  O   UNL A   1     -25.143   3.966  28.243  0.00  0.00    -0.269 OA
ENDBRANCH  26  32
BRANCH  29  36
ATOM     36  O   UNL A   1     -28.193  -0.208  24.477  0.00  0.00    -0.459 OA
BRANCH  36  37
ATOM     37  C   UNL A   1     -29.460   0.005  23.866  0.00  0.00    +0.242 C 
BRANCH  37  38
ATOM     38  C   UNL A   1     -30.065  -1.377  23.573  0.00  0.00    +0.229 C 
ATOM     39  O   UNL A   1     -30.729  -1.878  24.721  0.00  0.00    -0.216 OA
ENDBRANCH  37  38
ENDBRANCH  36  37
ENDBRANCH  29  36
ENDBRANCH  24  25
BRANCH  24  40
ATOM     40  C   UNL A   1     -23.386   0.816  27.426  0.00  0.00    +0.074 C 
BRANCH  40  43
ATOM     41  C   UNL A   1     -21.293   1.839  27.454  0.00  0.00    +0.001 C 
ATOM     42  C   UNL A   1     -22.803   2.482  25.464  0.00  0.00    +0.001 C 
ATOM     43  C   UNL A   1     -22.713   2.118  26.955  0.00  0.00    +0.016 C 
ENDBRANCH  40  43
ENDBRANCH  24  40
ENDBRANCH   1  24
TORSDOF 14
