MODEL 758
MODEL 1
REMARK VINA RESULT:    -5.858      0.000      0.000
REMARK INTER + INTRA:          -6.244
REMARK INTER:                  -6.200
REMARK INTRA:                  -0.044
REMARK UNBOUND:                -0.044
REMARK  Name = No_758-gen_results/8p0m/2024-11-27-11-27-31/
REMARK  1 active torsions:
REMARK  status: ('A' for Active; 'I' for Inactive)
REMARK    1  A    between atoms: C_9  and  C_11
REMARK                            x       y       z     vdW  Elec       q    Type
REMARK                         _______ _______ _______ _____ _____    ______ ____
ROOT
ATOM      1  C   UNL A   1     -30.701  -9.774  29.421  0.00  0.00    +0.000 A 
ATOM      2  C   UNL A   1     -30.655 -10.170  28.445  0.00  0.00    +0.000 A 
ATOM      3  C   UNL A   1     -29.967 -10.565  30.409  0.00  0.00    +0.000 A 
ATOM      4  C   UNL A   1     -29.278 -11.446  30.112  0.00  0.00    +0.000 A 
ATOM      5  C   UNL A   1     -29.910 -11.250  27.828  0.00  0.00    +0.000 A 
ATOM      6  C   UNL A   1     -29.172 -11.959  28.815  0.00  0.00    +0.000 A 
ATOM      7  C   UNL A   1     -29.876 -10.199  31.916  0.00  0.00    +0.000 A 
ATOM      8  C   UNL A   1     -28.952 -10.451  32.631  0.00  0.00    +0.002 A 
ATOM      9  C   UNL A   1     -28.052 -11.562  32.230  0.00  0.00    +0.021 A 
ATOM     10  C   UNL A   1     -28.132 -12.005  30.920  0.00  0.00    +0.002 A 
ENDROOT
BRANCH   9  11
ATOM     11  C   UNL A   1     -27.073 -12.035  33.248  0.00  0.00    +0.122 C 
ATOM     12  N   UNL A   1     -27.527 -12.370  34.483  0.00  0.00    -0.146 NA
ENDBRANCH   9  11
TORSDOF 1
ENDMDL
ENDMDL
