REMARK  Name = outputs/IAG933/test6/raw/output_7591_IAG933_linker_design_.xyz
REMARK  12 active torsions:
REMARK  status: ('A' for Active; 'I' for Inactive)
REMARK    1  A    between atoms: C_1  and  C_2
REMARK    2  A    between atoms: C_1  and  C_8
REMARK    3  A    between atoms: C_1  and  N_33
REMARK    4  A    between atoms: C_13  and  C_36
REMARK    5  A    between atoms: C_14  and  C_15
REMARK    6  A    between atoms: C_21  and  O_22
REMARK    7  A    between atoms: O_22  and  C_23
REMARK    8  A    between atoms: C_23  and  C_24
REMARK    9  A    between atoms: C_29  and  C_30
REMARK   10  A    between atoms: C_29  and  C_39
REMARK   11  A    between atoms: N_32  and  C_35
REMARK   12  A    between atoms: N_33  and  C_37
REMARK                            x       y       z     vdW  Elec       q    Type
REMARK                         _______ _______ _______ _____ _____    ______ ____
ROOT
ATOM      1  C   UNL A   1     -23.989   0.885  28.116  0.00  0.00    +0.255 C 
ATOM      2  C   UNL A   1     -24.580   0.974  27.412  0.00  0.00    +0.123 C 
ATOM      3  C   UNL A   1     -25.011   0.822  28.422  0.00  0.00    +0.215 C 
ENDROOT
BRANCH   2   4
ATOM      4  C   UNL A   1     -25.688   1.614  26.461  0.00  0.00    +0.024 C 
ATOM      5  C   UNL A   1     -26.250   2.920  26.395  0.00  0.00    +0.073 C 
ATOM      6  C   UNL A   1     -27.438   3.091  25.645  0.00  0.00    +0.106 C 
ATOM      7  N   UNL A   1     -28.075   2.089  25.003  0.00  0.00    -0.208 NA
ATOM      8  C   UNL A   1     -27.543   0.849  25.079  0.00  0.00    +0.253 C 
ATOM      9  C   UNL A   1     -26.354   0.576  25.777  0.00  0.00    +0.189 C 
ATOM     10  F   UNL A   1     -25.860  -0.681  25.795  0.00  0.00    -0.200 F 
BRANCH   5  11
ATOM     11  C   UNL A   1     -25.642   4.093  27.123  0.00  0.00    +0.266 C 
ATOM     12  N   UNL A   1     -25.614   5.252  26.449  0.00  0.00    -0.200 NA
ATOM     13  C   UNL A   1     -25.026   6.479  26.963  0.00  0.00    +0.139 C 
ATOM     14  O   UNL A   1     -25.143   3.966  28.243  0.00  0.00    -0.268 OA
ENDBRANCH   5  11
BRANCH   8  15
ATOM     15  O   UNL A   1     -28.193  -0.208  24.477  0.00  0.00    -0.456 OA
BRANCH  15  16
ATOM     16  C   UNL A   1     -29.460   0.005  23.866  0.00  0.00    +0.243 C 
BRANCH  16  17
ATOM     17  C   UNL A   1     -30.065  -1.377  23.573  0.00  0.00    +0.229 C 
ATOM     18  O   UNL A   1     -30.729  -1.878  24.721  0.00  0.00    -0.216 OA
ENDBRANCH  16  17
ENDBRANCH  15  16
ENDBRANCH   8  15
ENDBRANCH   2   4
BRANCH   3  20
ATOM     19  C   UNL A   1     -29.268  -0.063  30.002  0.00  0.00    +0.282 C 
ATOM     20  N   UNL A   1     -25.684  -0.151  29.233  0.00  0.00    -0.189 N 
ATOM     21  C   UNL A   1     -28.391  -0.823  29.262  0.00  0.00    +0.174 C 
ATOM     22  O   UNL A   1     -28.741   1.185  30.299  0.00  0.00    -0.280 OA
ATOM     23  C   UNL A   1     -27.165   0.035  29.310  0.00  0.00    +0.350 C 
ATOM     24  N   UNL A   1     -27.523   1.216  29.770  0.00  0.00    +0.150 NA
BRANCH  20  25
ATOM     25  C   UNL A   1     -24.855  -1.012  30.143  0.00  0.00    +0.198 C 
BRANCH  25  26
ATOM     26  C   UNL A   1     -24.973  -2.505  29.788  0.00  0.00    +0.021 C 
ATOM     27  C   UNL A   1     -23.906  -3.173  29.146  0.00  0.00    -0.000 C 
ATOM     28  C   UNL A   1     -23.989  -4.549  28.853  0.00  0.00    -0.000 C 
ATOM     29  C   UNL A   1     -25.137  -5.280  29.205  0.00  0.00    -0.000 C 
ATOM     30  C   UNL A   1     -26.232  -4.611  29.784  0.00  0.00    -0.000 C 
ATOM     31  C   UNL A   1     -26.155  -3.232  30.065  0.00  0.00    -0.000 C 
ENDBRANCH  25  26
BRANCH  25  32
ATOM     32  C   UNL A   1     -25.387  -0.679  31.571  0.00  0.00    +0.120 C 
ATOM     33  C   UNL A   1     -25.189   0.773  32.028  0.00  0.00    +0.023 C 
ATOM     34  C   UNL A   1     -25.336   0.684  33.544  0.00  0.00    +0.020 C 
ATOM     35  C   UNL A   1     -24.829  -0.715  33.905  0.00  0.00    +0.089 C 
ATOM     36  N   UNL A   1     -24.758  -1.481  32.646  0.00  0.00    -0.215 NA
ENDBRANCH  25  32
ENDBRANCH  20  25
ENDBRANCH   3  20
BRANCH   1  37
ATOM     37  N   UNL A   1     -22.753   0.522  28.114  0.00  0.00    -0.031 NA
ATOM     38  N   UNL A   1     -20.739   1.417  28.164  0.00  0.00    +0.192 NA
ATOM     39  C   UNL A   1     -21.906   1.125  27.517  0.00  0.00    +0.390 C 
BRANCH  39  40
ATOM     40  C   UNL A   1     -21.886   1.511  26.069  0.00  0.00    +0.126 C 
BRANCH  40  41
ATOM     41  C   UNL A   1     -22.945   2.318  25.392  0.00  0.00    +0.013 C 
ATOM     42  C   UNL A   1     -23.433   1.165  24.419  0.00  0.00    +0.001 C 
ENDBRANCH  40  41
ENDBRANCH  39  40
ENDBRANCH   1  37
TORSDOF 12
