REMARK  Name = outputs/IAG933/test6/raw/output_7593_IAG933_linker_design_.xyz
REMARK  11 active torsions:
REMARK  status: ('A' for Active; 'I' for Inactive)
REMARK    1  A    between atoms: C_1  and  C_2
REMARK    2  A    between atoms: C_13  and  C_43
REMARK    3  A    between atoms: C_14  and  C_15
REMARK    4  A    between atoms: C_21  and  O_22
REMARK    5  A    between atoms: O_22  and  C_23
REMARK    6  A    between atoms: C_23  and  C_24
REMARK    7  A    between atoms: C_29  and  O_33
REMARK    8  A    between atoms: O_33  and  C_40
REMARK    9  A    between atoms: N_35  and  C_43
REMARK   10  A    between atoms: C_42  and  C_46
REMARK   11  A    between atoms: C_43  and  C_46
REMARK                            x       y       z     vdW  Elec       q    Type
REMARK                         _______ _______ _______ _____ _____    ______ ____
ROOT
ATOM      1  C   UNL A   1     -24.855  -1.012  30.143  0.00  0.00    +0.113 C 
ATOM      2  C   UNL A   1     -25.387  -0.679  31.571  0.00  0.00    +0.097 C 
ATOM      3  C   UNL A   1     -25.189   0.773  32.028  0.00  0.00    +0.045 C 
ATOM      4  C   UNL A   1     -25.336   0.684  33.544  0.00  0.00    +0.025 C 
ATOM      5  C   UNL A   1     -24.829  -0.715  33.905  0.00  0.00    +0.089 C 
ATOM      6  N   UNL A   1     -24.758  -1.481  32.646  0.00  0.00    -0.217 NA
ATOM      7  N   UNL A   1     -25.683   1.385  29.373  0.00  0.00    -0.220 NA
ATOM      8  C   UNL A   1     -27.513   3.883  32.170  0.00  0.00    +0.166 C 
ATOM      9  F   UNL A   1     -25.914   3.431  33.865  0.00  0.00    -0.201 F 
ATOM     10  C   UNL A   1     -27.727   3.988  30.810  0.00  0.00    +0.041 C 
ATOM     11  C   UNL A   1     -26.385   3.150  32.596  0.00  0.00    +0.171 C 
ATOM     12  C   UNL A   1     -26.078   2.305  30.380  0.00  0.00    +0.065 C 
ATOM     13  N   UNL A   1     -24.798  -0.271  28.843  0.00  0.00    -0.193 NA
ATOM     14  C   UNL A   1     -25.851   2.176  31.736  0.00  0.00    +0.024 C 
ATOM     15  C   UNL A   1     -27.063   3.183  29.924  0.00  0.00    +0.019 C 
ATOM     16  C   UNL A   1     -24.384   1.096  28.768  0.00  0.00    +0.188 C 
ENDROOT
BRANCH   1  17
ATOM     17  C   UNL A   1     -24.973  -2.505  29.788  0.00  0.00    -0.005 C 
ATOM     18  C   UNL A   1     -23.906  -3.173  29.146  0.00  0.00    -0.003 C 
ATOM     19  C   UNL A   1     -23.989  -4.549  28.853  0.00  0.00    -0.000 C 
ATOM     20  C   UNL A   1     -25.137  -5.280  29.205  0.00  0.00    -0.000 C 
ATOM     21  C   UNL A   1     -26.232  -4.611  29.784  0.00  0.00    -0.000 C 
ATOM     22  C   UNL A   1     -26.155  -3.232  30.065  0.00  0.00    -0.003 C 
ENDBRANCH   1  17
BRANCH  16  24
ATOM     23  O   UNL A   1     -22.211  -0.035  29.169  0.00  0.00    -0.217 OA
ATOM     24  C   UNL A   1     -22.895   1.188  29.297  0.00  0.00    +0.220 C 
ENDBRANCH  16  24
BRANCH   8  25
ATOM     25  O   UNL A   1     -28.536   4.388  32.986  0.00  0.00    -0.473 OA
BRANCH  25  26
ATOM     26  C   UNL A   1     -28.784   5.083  34.173  0.00  0.00    +0.206 C 
ATOM     27  C   UNL A   1     -30.297   5.041  34.314  0.00  0.00    +0.051 C 
ENDBRANCH  25  26
ENDBRANCH   8  25
BRANCH  16  28
ATOM     28  C   UNL A   1     -24.420   1.288  27.196  0.00  0.00    +0.159 C 
BRANCH  28  29
ATOM     29  C   UNL A   1     -25.688   1.614  26.461  0.00  0.00    +0.039 C 
ATOM     30  C   UNL A   1     -26.250   2.920  26.395  0.00  0.00    +0.074 C 
ATOM     31  C   UNL A   1     -27.438   3.091  25.645  0.00  0.00    +0.106 C 
ATOM     32  N   UNL A   1     -28.075   2.089  25.003  0.00  0.00    -0.208 NA
ATOM     33  C   UNL A   1     -27.543   0.849  25.079  0.00  0.00    +0.253 C 
ATOM     34  C   UNL A   1     -26.354   0.576  25.777  0.00  0.00    +0.191 C 
ATOM     35  F   UNL A   1     -25.860  -0.681  25.795  0.00  0.00    -0.200 F 
BRANCH  30  36
ATOM     36  C   UNL A   1     -25.642   4.093  27.123  0.00  0.00    +0.266 C 
ATOM     37  N   UNL A   1     -25.614   5.252  26.449  0.00  0.00    -0.200 NA
ATOM     38  C   UNL A   1     -25.026   6.479  26.963  0.00  0.00    +0.139 C 
ATOM     39  O   UNL A   1     -25.143   3.966  28.243  0.00  0.00    -0.268 OA
ENDBRANCH  30  36
BRANCH  33  40
ATOM     40  O   UNL A   1     -28.193  -0.208  24.477  0.00  0.00    -0.456 OA
BRANCH  40  41
ATOM     41  C   UNL A   1     -29.460   0.005  23.866  0.00  0.00    +0.243 C 
BRANCH  41  42
ATOM     42  C   UNL A   1     -30.065  -1.377  23.573  0.00  0.00    +0.229 C 
ATOM     43  O   UNL A   1     -30.729  -1.878  24.721  0.00  0.00    -0.216 OA
ENDBRANCH  41  42
ENDBRANCH  40  41
ENDBRANCH  33  40
ENDBRANCH  28  29
BRANCH  28  46
ATOM     44  O   UNL A   1     -21.007   1.525  27.294  0.00  0.00    -0.221 OA
ATOM     45  O   UNL A   1     -21.733   2.362  25.411  0.00  0.00    -0.221 OA
ATOM     46  N   UNL A   1     -23.509   2.115  26.662  0.00  0.00    -0.160 NA
ATOM     47  C   UNL A   1     -22.003   1.994  26.529  0.00  0.00    +0.463 C 
ENDBRANCH  28  46
ENDBRANCH  16  28
TORSDOF 11
