REMARK  Name = outputs/IAG933/test6/raw/output_7599_IAG933_linker_design_.xyz
REMARK  13 active torsions:
REMARK  status: ('A' for Active; 'I' for Inactive)
REMARK    1  A    between atoms: C_1  and  C_2
REMARK    2  A    between atoms: C_1  and  C_8
REMARK    3  A    between atoms: C_1  and  C_29
REMARK    4  A    between atoms: C_13  and  C_35
REMARK    5  A    between atoms: C_14  and  C_15
REMARK    6  A    between atoms: C_21  and  O_22
REMARK    7  A    between atoms: O_22  and  C_23
REMARK    8  A    between atoms: C_23  and  C_24
REMARK    9  A    between atoms: C_29  and  C_33
REMARK   10  A    between atoms: C_29  and  N_43
REMARK   11  A    between atoms: C_31  and  C_32
REMARK   12  A    between atoms: C_32  and  C_37
REMARK   13  A    between atoms: C_32  and  C_39
REMARK                            x       y       z     vdW  Elec       q    Type
REMARK                         _______ _______ _______ _____ _____    ______ ____
ROOT
ATOM      1  C   UNL A   1     -25.294   0.024  29.147  0.00  0.00    +0.127 C 
ENDROOT
BRANCH   1   6
ATOM      2  C   UNL A   1     -23.166   1.986  26.529  0.00  0.00    +0.055 C 
ATOM      3  C   UNL A   1     -24.378   1.427  27.119  0.00  0.00    +0.064 C 
ATOM      4  C   UNL A   1     -22.748   0.396  28.812  0.00  0.00    +0.284 C 
ATOM      5  S   UNL A   1     -21.772   1.464  27.607  0.00  0.00    -0.028 S 
ATOM      6  N   UNL A   1     -24.113   0.648  28.218  0.00  0.00    -0.245 N 
ATOM      7  O   UNL A   1     -22.349  -0.201  29.696  0.00  0.00    -0.262 OA
BRANCH   3   8
ATOM      8  C   UNL A   1     -25.688   1.614  26.461  0.00  0.00    +0.052 C 
ATOM      9  C   UNL A   1     -26.250   2.920  26.395  0.00  0.00    +0.078 C 
ATOM     10  C   UNL A   1     -27.438   3.091  25.645  0.00  0.00    +0.107 C 
ATOM     11  N   UNL A   1     -28.075   2.089  25.003  0.00  0.00    -0.208 NA
ATOM     12  C   UNL A   1     -27.543   0.849  25.079  0.00  0.00    +0.253 C 
ATOM     13  C   UNL A   1     -26.354   0.576  25.777  0.00  0.00    +0.194 C 
ATOM     14  F   UNL A   1     -25.860  -0.681  25.795  0.00  0.00    -0.199 F 
BRANCH   9  15
ATOM     15  C   UNL A   1     -25.642   4.093  27.123  0.00  0.00    +0.267 C 
ATOM     16  N   UNL A   1     -25.614   5.252  26.449  0.00  0.00    -0.200 NA
ATOM     17  C   UNL A   1     -25.026   6.479  26.963  0.00  0.00    +0.139 C 
ATOM     18  O   UNL A   1     -25.143   3.966  28.243  0.00  0.00    -0.268 OA
ENDBRANCH   9  15
BRANCH  12  19
ATOM     19  O   UNL A   1     -28.193  -0.208  24.477  0.00  0.00    -0.456 OA
BRANCH  19  20
ATOM     20  C   UNL A   1     -29.460   0.005  23.866  0.00  0.00    +0.243 C 
BRANCH  20  21
ATOM     21  C   UNL A   1     -30.065  -1.377  23.573  0.00  0.00    +0.229 C 
ATOM     22  O   UNL A   1     -30.729  -1.878  24.721  0.00  0.00    -0.216 OA
ENDBRANCH  20  21
ENDBRANCH  19  20
ENDBRANCH  12  19
ENDBRANCH   3   8
ENDBRANCH   1   6
BRANCH   1  25
ATOM     23  N   UNL A   1     -27.029   1.793  29.687  0.00  0.00    -0.162 NA
ATOM     24  C   UNL A   1     -27.968  -0.307  29.438  0.00  0.00    +0.032 C 
ATOM     25  C   UNL A   1     -26.755   0.463  29.437  0.00  0.00    +0.098 C 
ATOM     26  N   UNL A   1     -28.444   1.862  29.933  0.00  0.00    -0.122 NA
ATOM     27  C   UNL A   1     -29.009   0.646  29.677  0.00  0.00    +0.073 C 
BRANCH  27  28
ATOM     28  C   UNL A   1     -30.574   0.447  29.579  0.00  0.00    +0.072 C 
BRANCH  28  29
ATOM     29  C   UNL A   1     -31.729   1.172  28.658  0.00  0.00    +0.008 C 
ATOM     30  C   UNL A   1     -31.258   1.540  27.215  0.00  0.00    +0.001 C 
ATOM     31  C   UNL A   1     -33.038   0.308  28.561  0.00  0.00    +0.001 C 
ENDBRANCH  28  29
BRANCH  28  33
ATOM     32  O   UNL A   1     -30.703  -1.451  27.962  0.00  0.00    -0.220 OA
ATOM     33  C   UNL A   1     -30.834  -1.091  29.303  0.00  0.00    +0.188 C 
ENDBRANCH  28  33
ENDBRANCH  27  28
ENDBRANCH   1  25
BRANCH   1  34
ATOM     34  C   UNL A   1     -24.855  -1.012  30.143  0.00  0.00    +0.063 C 
BRANCH  34  35
ATOM     35  C   UNL A   1     -24.973  -2.505  29.788  0.00  0.00    -0.019 C 
ATOM     36  C   UNL A   1     -23.906  -3.173  29.146  0.00  0.00    -0.004 C 
ATOM     37  C   UNL A   1     -23.989  -4.549  28.853  0.00  0.00    -0.000 C 
ATOM     38  C   UNL A   1     -25.137  -5.280  29.205  0.00  0.00    -0.000 C 
ATOM     39  C   UNL A   1     -26.232  -4.611  29.784  0.00  0.00    -0.000 C 
ATOM     40  C   UNL A   1     -26.155  -3.232  30.065  0.00  0.00    -0.004 C 
ENDBRANCH  34  35
BRANCH  34  41
ATOM     41  C   UNL A   1     -25.387  -0.679  31.571  0.00  0.00    +0.079 C 
ATOM     42  C   UNL A   1     -25.189   0.773  32.028  0.00  0.00    +0.019 C 
ATOM     43  C   UNL A   1     -25.336   0.684  33.544  0.00  0.00    +0.020 C 
ATOM     44  C   UNL A   1     -24.829  -0.715  33.905  0.00  0.00    +0.089 C 
ATOM     45  N   UNL A   1     -24.758  -1.481  32.646  0.00  0.00    -0.219 NA
ENDBRANCH  34  41
ENDBRANCH   1  34
TORSDOF 13
