MODEL 759
MODEL 1
REMARK VINA RESULT:    -4.386      0.000      0.000
REMARK INTER + INTRA:          -5.423
REMARK INTER:                  -5.155
REMARK INTRA:                  -0.268
REMARK UNBOUND:                -0.268
REMARK  Name = No_759-gen_results/8p0m/2024-11-27-11-27-31/
REMARK  3 active torsions:
REMARK  status: ('A' for Active; 'I' for Inactive)
REMARK    1  A    between atoms: C_1  and  C_2
REMARK    2  A    between atoms: C_3  and  C_4
REMARK    3  A    between atoms: C_4  and  C_6
REMARK                            x       y       z     vdW  Elec       q    Type
REMARK                         _______ _______ _______ _____ _____    ______ ____
ROOT
ATOM      1  C   UNL A   1     -10.098  -9.569  18.844  0.00  0.00    -0.005 C 
ATOM      2  C   UNL A   1      -9.260  -9.108  19.958  0.00  0.00    -0.026 C 
ENDROOT
BRANCH   1   3
ATOM      3  C   UNL A   1      -9.669 -10.361  18.296  0.00  0.00    -0.000 C 
ATOM      4  C   UNL A   1      -9.230 -10.492  16.928  0.00  0.00    -0.000 C 
ENDBRANCH   1   3
BRANCH   2   5
ATOM      5  C   UNL A   1      -8.159  -9.755  20.342  0.00  0.00    +0.026 C 
BRANCH   5   6
ATOM      6  C   UNL A   1      -7.007  -9.081  20.243  0.00  0.00    +0.005 C 
ATOM      7  C   UNL A   1      -6.953  -7.867  19.417  0.00  0.00    +0.000 C 
ENDBRANCH   5   6
ENDBRANCH   2   5
TORSDOF 3
ENDMDL
ENDMDL
