MODEL 75
MODEL 1
REMARK VINA RESULT:    -8.973      0.000      0.000
REMARK INTER + INTRA:         -13.924
REMARK INTER:                 -12.645
REMARK INTRA:                  -1.280
REMARK UNBOUND:                -1.280
REMARK  Name = No_75-gen_results/8p0m/2024-11-27-11-27-31/
REMARK  7 active torsions:
REMARK  status: ('A' for Active; 'I' for Inactive)
REMARK    1  A    between atoms: C_9  and  C_12
REMARK    2  A    between atoms: C_11  and  C_17
REMARK    3  A    between atoms: C_17  and  O_19
REMARK    4  A    between atoms: O_19  and  C_20
REMARK    5  A    between atoms: C_20  and  C_21
REMARK    6  A    between atoms: C_24  and  C_27
REMARK    7  A    between atoms: C_31  and  C_33
REMARK                            x       y       z     vdW  Elec       q    Type
REMARK                         _______ _______ _______ _____ _____    ______ ____
ROOT
ATOM      1  C   UNL A   1     -26.419   0.444  26.836  0.00  0.00    +0.325 C 
ATOM      2  O   UNL A   1     -27.100   0.836  27.716  0.00  0.00    -0.249 OA
ENDROOT
BRANCH   1  13
ATOM      3  C   UNL A   1     -21.605   1.288  27.785  0.00  0.00    +0.002 A 
ATOM      4  C   UNL A   1     -21.685   1.834  26.888  0.00  0.00    +0.000 A 
ATOM      5  C   UNL A   1     -22.870   0.700  28.226  0.00  0.00    +0.024 A 
ATOM      6  C   UNL A   1     -22.994  -0.196  29.398  0.00  0.00    +0.140 C 
ATOM      7  C   UNL A   1     -22.768   2.149  25.966  0.00  0.00    -0.000 A 
ATOM      8  C   UNL A   1     -23.981   1.622  26.355  0.00  0.00    -0.003 A 
ATOM      9  C   UNL A   1     -24.051   0.849  27.454  0.00  0.00    -0.006 A 
ATOM     10  C   UNL A   1     -23.545  -1.199  29.592  0.00  0.00    +0.033 C 
ATOM     11  C   UNL A   1     -24.222  -1.787  28.420  0.00  0.00    +0.070 C 
ATOM     12  C   UNL A   1     -24.991  -1.304  27.490  0.00  0.00    -0.007 C 
ATOM     13  C   UNL A   1     -25.053  -0.182  27.167  0.00  0.00    +0.143 C 
ATOM     14  F   UNL A   1     -22.366   0.355  30.468  0.00  0.00    -0.204 F 
BRANCH  11  15
ATOM     15  C   UNL A   1     -24.542  -3.329  28.835  0.00  0.00    +0.418 C 
ATOM     16  F   UNL A   1     -24.010  -4.274  28.225  0.00  0.00    -0.166 F 
ATOM     17  F   UNL A   1     -25.841  -3.491  28.931  0.00  0.00    -0.166 F 
ATOM     18  F   UNL A   1     -24.169  -3.440  30.286  0.00  0.00    -0.166 F 
ENDBRANCH  11  15
ENDBRANCH   1  13
BRANCH   1  19
ATOM     19  O   UNL A   1     -26.983   0.144  25.719  0.00  0.00    -0.443 OA
BRANCH  19  20
ATOM     20  C   UNL A   1     -27.147   1.055  24.831  0.00  0.00    +0.235 C 
BRANCH  20  21
ATOM     21  C   UNL A   1     -28.427   1.080  24.077  0.00  0.00    +0.021 A 
ATOM     22  C   UNL A   1     -28.726   2.010  23.708  0.00  0.00    -0.001 A 
ATOM     23  C   UNL A   1     -30.070   2.241  22.992  0.00  0.00    -0.000 A 
ATOM     24  C   UNL A   1     -30.859   1.064  22.878  0.00  0.00    -0.000 A 
ATOM     25  C   UNL A   1     -30.411  -0.130  23.361  0.00  0.00    -0.000 A 
ATOM     26  C   UNL A   1     -29.138  -0.211  23.996  0.00  0.00    -0.001 A 
BRANCH  24  27
ATOM     27  C   UNL A   1     -32.189   1.164  22.182  0.00  0.00    +0.000 A 
ATOM     28  C   UNL A   1     -33.072   0.580  22.382  0.00  0.00    +0.000 A 
ATOM     29  C   UNL A   1     -34.375   0.694  21.655  0.00  0.00    +0.000 A 
ATOM     30  C   UNL A   1     -34.408   1.621  20.599  0.00  0.00    +0.002 A 
ATOM     31  C   UNL A   1     -33.274   2.349  20.332  0.00  0.00    +0.021 A 
ATOM     32  C   UNL A   1     -32.128   2.172  21.052  0.00  0.00    +0.002 A 
BRANCH  31  33
ATOM     33  C   UNL A   1     -33.264   3.330  19.221  0.00  0.00    +0.122 C 
ATOM     34  N   UNL A   1     -33.254   3.037  18.094  0.00  0.00    -0.146 NA
ENDBRANCH  31  33
ENDBRANCH  24  27
ENDBRANCH  20  21
ENDBRANCH  19  20
ENDBRANCH   1  19
TORSDOF 7
ENDMDL
ENDMDL
