REMARK  Name = No_76-gen_results/8p0m/2024-11-27-11-27-31/
REMARK  0 active torsions:
REMARK  status: ('A' for Active; 'I' for Inactive)
REMARK                            x       y       z     vdW  Elec       q    Type
REMARK                         _______ _______ _______ _____ _____    ______ ____
ROOT
ATOM      1  C   UNL A   1     -28.016  -0.814  28.878  0.00  0.00    +0.030 A 
ATOM      2  C   UNL A   1     -28.469  -0.785  29.829  0.00  0.00    +0.140 A 
ATOM      3  C   UNL A   1     -26.504  -0.778  28.877  0.00  0.00    +0.002 A 
ATOM      4  C   UNL A   1     -25.810  -0.853  30.103  0.00  0.00    +0.000 A 
ATOM      5  C   UNL A   1     -27.986  -0.842  31.066  0.00  0.00    +0.030 A 
ATOM      6  C   UNL A   1     -26.615  -0.843  31.230  0.00  0.00    +0.002 A 
ATOM      7  F   UNL A   1     -29.913  -0.835  29.762  0.00  0.00    -0.204 F 
ENDROOT
TORSDOF 0
