REMARK  Name = outputs/IAG933/test6/raw/output_7601_IAG933_linker_design_.xyz
REMARK  14 active torsions:
REMARK  status: ('A' for Active; 'I' for Inactive)
REMARK    1  A    between atoms: C_1  and  C_2
REMARK    2  A    between atoms: C_1  and  C_8
REMARK    3  A    between atoms: C_1  and  C_30
REMARK    4  A    between atoms: C_13  and  C_33
REMARK    5  A    between atoms: C_14  and  C_15
REMARK    6  A    between atoms: C_21  and  O_22
REMARK    7  A    between atoms: O_22  and  C_23
REMARK    8  A    between atoms: C_23  and  C_24
REMARK    9  A    between atoms: C_30  and  N_44
REMARK   10  A    between atoms: C_31  and  C_32
REMARK   11  A    between atoms: C_32  and  C_33
REMARK   12  A    between atoms: C_33  and  N_40
REMARK   13  A    between atoms: C_35  and  C_43
REMARK   14  A    between atoms: C_39  and  C_43
REMARK                            x       y       z     vdW  Elec       q    Type
REMARK                         _______ _______ _______ _____ _____    ______ ____
ROOT
ATOM      1  C   UNL A   1     -25.532  -0.166  29.099  0.00  0.00    +0.052 C 
ATOM      2  C   UNL A   1     -24.550   0.406  28.399  0.00  0.00    +0.010 C 
ENDROOT
BRANCH   1   5
ATOM      3  C   UNL A   1     -28.170   0.306  29.229  0.00  0.00    +0.275 C 
ATOM      4  O   UNL A   1     -28.950  -0.502  28.587  0.00  0.00    -0.270 OA
ATOM      5  N   UNL A   1     -26.876  -0.229  29.292  0.00  0.00    -0.182 NA
BRANCH   3   8
ATOM      6  C   UNL A   1     -28.562   2.883  28.866  0.00  0.00    +0.045 C 
ATOM      7  O   UNL A   1     -28.276   1.738  31.128  0.00  0.00    -0.214 OA
ATOM      8  C   UNL A   1     -28.821   1.586  29.647  0.00  0.00    +0.224 C 
BRANCH   8   9
ATOM      9  C   UNL A   1     -30.454   1.469  29.679  0.00  0.00    +0.188 C 
ATOM     10  C   UNL A   1     -31.092   1.973  28.329  0.00  0.00    +0.039 C 
ATOM     11  O   UNL A   1     -30.851   2.137  30.889  0.00  0.00    -0.220 OA
ENDBRANCH   8   9
ENDBRANCH   3   8
ENDBRANCH   1   5
BRANCH   2  12
ATOM     12  C   UNL A   1     -23.249   0.018  28.903  0.00  0.00    +0.134 C 
ATOM     13  N   UNL A   1     -22.241   0.838  29.518  0.00  0.00    -0.127 NA
ENDBRANCH   2  12
BRANCH   1  14
ATOM     14  C   UNL A   1     -24.855  -1.012  30.143  0.00  0.00    +0.076 C 
BRANCH  14  15
ATOM     15  C   UNL A   1     -24.973  -2.505  29.788  0.00  0.00    -0.016 C 
ATOM     16  C   UNL A   1     -23.906  -3.173  29.146  0.00  0.00    -0.004 C 
ATOM     17  C   UNL A   1     -23.989  -4.549  28.853  0.00  0.00    -0.000 C 
ATOM     18  C   UNL A   1     -25.137  -5.280  29.205  0.00  0.00    -0.000 C 
ATOM     19  C   UNL A   1     -26.232  -4.611  29.784  0.00  0.00    -0.000 C 
ATOM     20  C   UNL A   1     -26.155  -3.232  30.065  0.00  0.00    -0.004 C 
ENDBRANCH  14  15
BRANCH  14  21
ATOM     21  C   UNL A   1     -25.387  -0.679  31.571  0.00  0.00    +0.082 C 
ATOM     22  C   UNL A   1     -25.189   0.773  32.028  0.00  0.00    +0.020 C 
ATOM     23  C   UNL A   1     -25.336   0.684  33.544  0.00  0.00    +0.020 C 
ATOM     24  C   UNL A   1     -24.829  -0.715  33.905  0.00  0.00    +0.089 C 
ATOM     25  N   UNL A   1     -24.758  -1.481  32.646  0.00  0.00    -0.219 NA
ENDBRANCH  14  21
ENDBRANCH   1  14
BRANCH   2  26
ATOM     26  C   UNL A   1     -24.522   1.326  27.436  0.00  0.00    +0.143 C 
BRANCH  26  27
ATOM     27  C   UNL A   1     -25.688   1.614  26.461  0.00  0.00    +0.040 C 
ATOM     28  C   UNL A   1     -26.250   2.920  26.395  0.00  0.00    +0.074 C 
ATOM     29  C   UNL A   1     -27.438   3.091  25.645  0.00  0.00    +0.106 C 
ATOM     30  N   UNL A   1     -28.075   2.089  25.003  0.00  0.00    -0.208 NA
ATOM     31  C   UNL A   1     -27.543   0.849  25.079  0.00  0.00    +0.253 C 
ATOM     32  C   UNL A   1     -26.354   0.576  25.777  0.00  0.00    +0.191 C 
ATOM     33  F   UNL A   1     -25.860  -0.681  25.795  0.00  0.00    -0.200 F 
BRANCH  28  34
ATOM     34  C   UNL A   1     -25.642   4.093  27.123  0.00  0.00    +0.266 C 
ATOM     35  N   UNL A   1     -25.614   5.252  26.449  0.00  0.00    -0.200 NA
ATOM     36  C   UNL A   1     -25.026   6.479  26.963  0.00  0.00    +0.139 C 
ATOM     37  O   UNL A   1     -25.143   3.966  28.243  0.00  0.00    -0.268 OA
ENDBRANCH  28  34
BRANCH  31  38
ATOM     38  O   UNL A   1     -28.193  -0.208  24.477  0.00  0.00    -0.456 OA
BRANCH  38  39
ATOM     39  C   UNL A   1     -29.460   0.005  23.866  0.00  0.00    +0.243 C 
BRANCH  39  40
ATOM     40  C   UNL A   1     -30.065  -1.377  23.573  0.00  0.00    +0.229 C 
ATOM     41  O   UNL A   1     -30.729  -1.878  24.721  0.00  0.00    -0.216 OA
ENDBRANCH  39  40
ENDBRANCH  38  39
ENDBRANCH  31  38
ENDBRANCH  26  27
BRANCH  26  44
ATOM     42  O   UNL A   1     -23.140   1.963  25.026  0.00  0.00    -0.234 OA
ATOM     43  F   UNL A   1     -21.380   2.011  26.459  0.00  0.00    -0.142 F 
ATOM     44  N   UNL A   1     -23.366   2.108  27.418  0.00  0.00    -0.169 NA
ATOM     45  C   UNL A   1     -22.623   2.132  26.191  0.00  0.00    +0.410 C 
ENDBRANCH  26  44
ENDBRANCH   2  26
TORSDOF 14
