REMARK  Name = outputs/IAG933/test6/raw/output_7607_IAG933_linker_design_.xyz
REMARK  12 active torsions:
REMARK  status: ('A' for Active; 'I' for Inactive)
REMARK    1  A    between atoms: C_1  and  C_2
REMARK    2  A    between atoms: C_1  and  C_8
REMARK    3  A    between atoms: C_9  and  C_39
REMARK    4  A    between atoms: C_13  and  C_34
REMARK    5  A    between atoms: C_14  and  C_15
REMARK    6  A    between atoms: C_21  and  O_22
REMARK    7  A    between atoms: O_22  and  C_23
REMARK    8  A    between atoms: C_23  and  C_24
REMARK    9  A    between atoms: C_28  and  O_40
REMARK   10  A    between atoms: C_30  and  O_40
REMARK   11  A    between atoms: C_31  and  N_42
REMARK   12  A    between atoms: C_31  and  C_43
REMARK                            x       y       z     vdW  Elec       q    Type
REMARK                         _______ _______ _______ _____ _____    ______ ____
ROOT
ATOM      1  C   UNL A   1     -23.949   2.220  30.575  0.00  0.00    +0.168 C 
ATOM      2  C   UNL A   1     -25.069   2.239  31.709  0.00  0.00    +0.047 C 
ATOM      3  C   UNL A   1     -24.613   3.530  31.562  0.00  0.00    +0.063 C 
ENDROOT
BRANCH   2   5
ATOM      4  C   UNL A   1     -25.387  -0.679  31.571  0.00  0.00    +0.077 C 
ATOM      5  C   UNL A   1     -25.189   0.773  32.028  0.00  0.00    +0.021 C 
ATOM      6  C   UNL A   1     -25.336   0.684  33.544  0.00  0.00    +0.020 C 
ATOM      7  C   UNL A   1     -24.829  -0.715  33.905  0.00  0.00    +0.089 C 
ATOM      8  N   UNL A   1     -24.758  -1.481  32.646  0.00  0.00    -0.219 NA
BRANCH   4   9
ATOM      9  C   UNL A   1     -24.855  -1.012  30.143  0.00  0.00    +0.044 C 
BRANCH   9  10
ATOM     10  C   UNL A   1     -24.973  -2.505  29.788  0.00  0.00    -0.021 C 
ATOM     11  C   UNL A   1     -23.906  -3.173  29.146  0.00  0.00    -0.004 C 
ATOM     12  C   UNL A   1     -23.989  -4.549  28.853  0.00  0.00    -0.000 C 
ATOM     13  C   UNL A   1     -25.137  -5.280  29.205  0.00  0.00    -0.000 C 
ATOM     14  C   UNL A   1     -26.232  -4.611  29.784  0.00  0.00    -0.000 C 
ATOM     15  C   UNL A   1     -26.155  -3.232  30.065  0.00  0.00    -0.004 C 
ENDBRANCH   9  10
ENDBRANCH   4   9
ENDBRANCH   2   5
BRANCH   3  16
ATOM     16  C   UNL A   1     -25.234   4.550  32.661  0.00  0.00    +0.094 C 
BRANCH  16  22
ATOM     17  C   UNL A   1     -22.971   5.575  33.120  0.00  0.00    +0.057 C 
ATOM     18  C   UNL A   1     -25.376   7.561  33.617  0.00  0.00    +0.021 C 
ATOM     19  C   UNL A   1     -24.645   6.892  32.545  0.00  0.00    +0.073 C 
ATOM     20  C   UNL A   1     -22.508   7.666  31.949  0.00  0.00    +0.029 C 
ATOM     21  C   UNL A   1     -23.938   7.994  31.679  0.00  0.00    +0.024 C 
ATOM     22  N   UNL A   1     -24.268   5.660  32.803  0.00  0.00    -0.308 N 
ATOM     23  C   UNL A   1     -22.079   6.562  32.687  0.00  0.00    -0.010 C 
ENDBRANCH  16  22
ENDBRANCH   3  16
BRANCH   1  24
ATOM     24  O   UNL A   1     -24.383   1.725  29.205  0.00  0.00    -0.479 OA
BRANCH  24  25
ATOM     25  C   UNL A   1     -23.609   1.679  28.017  0.00  0.00    +0.138 C 
ATOM     26  C   UNL A   1     -24.226   1.625  26.716  0.00  0.00    +0.038 C 
ATOM     27  C   UNL A   1     -23.434   1.786  25.519  0.00  0.00    +0.098 C 
ATOM     28  N   UNL A   1     -22.059   1.789  25.577  0.00  0.00    -0.242 NA
ATOM     29  C   UNL A   1     -22.171   1.764  28.055  0.00  0.00    +0.057 C 
ATOM     30  C   UNL A   1     -21.456   1.789  26.825  0.00  0.00    +0.102 C 
BRANCH  26  31
ATOM     31  C   UNL A   1     -25.688   1.614  26.461  0.00  0.00    +0.097 C 
ATOM     32  C   UNL A   1     -26.250   2.920  26.395  0.00  0.00    +0.059 C 
ATOM     33  C   UNL A   1     -27.438   3.091  25.645  0.00  0.00    +0.102 C 
ATOM     34  N   UNL A   1     -28.075   2.089  25.003  0.00  0.00    -0.212 NA
ATOM     35  C   UNL A   1     -27.543   0.849  25.079  0.00  0.00    +0.234 C 
ATOM     36  C   UNL A   1     -26.354   0.576  25.777  0.00  0.00    +0.244 C 
ATOM     37  F   UNL A   1     -25.860  -0.681  25.795  0.00  0.00    -0.227 F 
BRANCH  32  38
ATOM     38  C   UNL A   1     -25.642   4.093  27.123  0.00  0.00    +0.263 C 
ATOM     39  N   UNL A   1     -25.614   5.252  26.449  0.00  0.00    -0.200 NA
ATOM     40  C   UNL A   1     -25.026   6.479  26.963  0.00  0.00    +0.139 C 
ATOM     41  O   UNL A   1     -25.143   3.966  28.243  0.00  0.00    -0.269 OA
ENDBRANCH  32  38
BRANCH  35  42
ATOM     42  O   UNL A   1     -28.193  -0.208  24.477  0.00  0.00    -0.459 OA
BRANCH  42  43
ATOM     43  C   UNL A   1     -29.460   0.005  23.866  0.00  0.00    +0.242 C 
BRANCH  43  44
ATOM     44  C   UNL A   1     -30.065  -1.377  23.573  0.00  0.00    +0.229 C 
ATOM     45  O   UNL A   1     -30.729  -1.878  24.721  0.00  0.00    -0.216 OA
ENDBRANCH  43  44
ENDBRANCH  42  43
ENDBRANCH  35  42
ENDBRANCH  26  31
ENDBRANCH  24  25
ENDBRANCH   1  24
TORSDOF 12
