MODEL 760
MODEL 1
REMARK VINA RESULT:    -6.448      0.000      0.000
REMARK INTER + INTRA:          -7.662
REMARK INTER:                  -7.202
REMARK INTRA:                  -0.460
REMARK UNBOUND:                -0.460
REMARK  Name = No_760-gen_results/8p0m/2024-11-27-11-27-31/
REMARK  2 active torsions:
REMARK  status: ('A' for Active; 'I' for Inactive)
REMARK    1  A    between atoms: C_3  and  C_7
REMARK    2  A    between atoms: N_8  and  C_11
REMARK                            x       y       z     vdW  Elec       q    Type
REMARK                         _______ _______ _______ _____ _____    ______ ____
ROOT
ATOM      1  C   UNL A   1     -24.818  -1.097  28.724  0.00  0.00    +0.253 C 
ATOM      2  N   UNL A   1     -24.604  -0.326  29.528  0.00  0.00    -0.253 N 
ATOM      3  O   UNL A   1     -24.955  -0.674  27.442  0.00  0.00    -0.270 OA
ATOM      4  C   UNL A   1     -24.559   1.155  29.340  0.00  0.00    +0.120 C 
ENDROOT
BRANCH   1   7
ATOM      5  C   UNL A   1     -26.174  -3.087  29.602  0.00  0.00    +0.004 A 
ATOM      6  C   UNL A   1     -26.236  -4.132  29.719  0.00  0.00    +0.000 A 
ATOM      7  C   UNL A   1     -25.024  -2.561  28.974  0.00  0.00    +0.054 A 
ATOM      8  C   UNL A   1     -23.997  -3.372  28.533  0.00  0.00    +0.004 A 
ATOM      9  C   UNL A   1     -24.163  -4.734  28.720  0.00  0.00    +0.000 A 
ATOM     10  C   UNL A   1     -25.319  -5.205  29.305  0.00  0.00    +0.000 A 
ENDBRANCH   1   7
BRANCH   2  11
ATOM     11  C   UNL A   1     -24.428  -0.596  30.993  0.00  0.00    +0.054 A 
ATOM     12  C   UNL A   1     -23.217  -0.989  31.251  0.00  0.00    +0.015 A 
ATOM     13  C   UNL A   1     -25.369  -0.313  31.904  0.00  0.00    +0.015 A 
ATOM     14  C   UNL A   1     -25.171  -0.601  33.221  0.00  0.00    +0.001 A 
ATOM     15  C   UNL A   1     -22.874  -1.299  32.662  0.00  0.00    +0.001 A 
ATOM     16  C   UNL A   1     -23.858  -1.097  33.614  0.00  0.00    +0.000 A 
ENDBRANCH   2  11
TORSDOF 2
ENDMDL
ENDMDL
