REMARK  Name = outputs/IAG933/test6/raw/output_7612_IAG933_linker_design_.xyz
REMARK  15 active torsions:
REMARK  status: ('A' for Active; 'I' for Inactive)
REMARK    1  A    between atoms: C_1  and  C_2
REMARK    2  A    between atoms: C_1  and  C_8
REMARK    3  A    between atoms: C_1  and  C_49
REMARK    4  A    between atoms: C_13  and  C_38
REMARK    5  A    between atoms: C_14  and  C_15
REMARK    6  A    between atoms: C_21  and  O_22
REMARK    7  A    between atoms: O_22  and  C_23
REMARK    8  A    between atoms: C_23  and  C_24
REMARK    9  A    between atoms: O_30  and  C_37
REMARK   10  A    between atoms: C_32  and  C_47
REMARK   11  A    between atoms: C_36  and  C_46
REMARK   12  A    between atoms: N_39  and  C_44
REMARK   13  A    between atoms: N_39  and  C_46
REMARK   14  A    between atoms: C_40  and  C_48
REMARK   15  A    between atoms: C_46  and  C_48
REMARK                            x       y       z     vdW  Elec       q    Type
REMARK                         _______ _______ _______ _____ _____    ______ ____
ROOT
ATOM      1  N   UNL A   1     -22.141   0.072  29.729  0.00  0.00    -0.133 NA
ATOM      2  C   UNL A   1     -23.245   0.434  28.980  0.00  0.00    +0.073 C 
ATOM      3  C   UNL A   1     -24.855   1.387  27.511  0.00  0.00    -0.002 C 
ATOM      4  C   UNL A   1     -25.422   1.098  28.791  0.00  0.00    +0.045 C 
ATOM      5  C   UNL A   1     -23.355   1.207  27.739  0.00  0.00    +0.054 C 
ATOM      6  C   UNL A   1     -24.548   0.129  29.404  0.00  0.00    +0.082 C 
ENDROOT
BRANCH   3   7
ATOM      7  C   UNL A   1     -25.688   1.614  26.461  0.00  0.00    +0.093 C 
ATOM      8  C   UNL A   1     -26.250   2.920  26.395  0.00  0.00    +0.059 C 
ATOM      9  C   UNL A   1     -27.438   3.091  25.645  0.00  0.00    +0.102 C 
ATOM     10  N   UNL A   1     -28.075   2.089  25.003  0.00  0.00    -0.212 NA
ATOM     11  C   UNL A   1     -27.543   0.849  25.079  0.00  0.00    +0.234 C 
ATOM     12  C   UNL A   1     -26.354   0.576  25.777  0.00  0.00    +0.244 C 
ATOM     13  F   UNL A   1     -25.860  -0.681  25.795  0.00  0.00    -0.227 F 
BRANCH   8  14
ATOM     14  C   UNL A   1     -25.642   4.093  27.123  0.00  0.00    +0.263 C 
ATOM     15  N   UNL A   1     -25.614   5.252  26.449  0.00  0.00    -0.200 NA
ATOM     16  C   UNL A   1     -25.026   6.479  26.963  0.00  0.00    +0.139 C 
ATOM     17  O   UNL A   1     -25.143   3.966  28.243  0.00  0.00    -0.269 OA
ENDBRANCH   8  14
BRANCH  11  18
ATOM     18  O   UNL A   1     -28.193  -0.208  24.477  0.00  0.00    -0.459 OA
BRANCH  18  19
ATOM     19  C   UNL A   1     -29.460   0.005  23.866  0.00  0.00    +0.242 C 
BRANCH  19  20
ATOM     20  C   UNL A   1     -30.065  -1.377  23.573  0.00  0.00    +0.229 C 
ATOM     21  O   UNL A   1     -30.729  -1.878  24.721  0.00  0.00    -0.216 OA
ENDBRANCH  19  20
ENDBRANCH  18  19
ENDBRANCH  11  18
ENDBRANCH   3   7
BRANCH   5  22
ATOM     22  C   UNL A   1     -22.230   1.595  27.105  0.00  0.00    +0.342 C 
ATOM     23  F   UNL A   1     -21.903   1.987  25.885  0.00  0.00    -0.193 F 
ATOM     24  F   UNL A   1     -20.949   1.479  27.706  0.00  0.00    -0.193 F 
ENDBRANCH   5  22
BRANCH   6  25
ATOM     25  C   UNL A   1     -24.855  -1.012  30.143  0.00  0.00    +0.049 C 
BRANCH  25  26
ATOM     26  C   UNL A   1     -24.973  -2.505  29.788  0.00  0.00    -0.020 C 
ATOM     27  C   UNL A   1     -23.906  -3.173  29.146  0.00  0.00    -0.004 C 
ATOM     28  C   UNL A   1     -23.989  -4.549  28.853  0.00  0.00    -0.000 C 
ATOM     29  C   UNL A   1     -25.137  -5.280  29.205  0.00  0.00    -0.000 C 
ATOM     30  C   UNL A   1     -26.232  -4.611  29.784  0.00  0.00    -0.000 C 
ATOM     31  C   UNL A   1     -26.155  -3.232  30.065  0.00  0.00    -0.004 C 
ENDBRANCH  25  26
BRANCH  25  32
ATOM     32  C   UNL A   1     -25.387  -0.679  31.571  0.00  0.00    +0.077 C 
ATOM     33  C   UNL A   1     -25.189   0.773  32.028  0.00  0.00    +0.019 C 
ATOM     34  C   UNL A   1     -25.336   0.684  33.544  0.00  0.00    +0.020 C 
ATOM     35  C   UNL A   1     -24.829  -0.715  33.905  0.00  0.00    +0.089 C 
ATOM     36  N   UNL A   1     -24.758  -1.481  32.646  0.00  0.00    -0.219 NA
ENDBRANCH  25  32
ENDBRANCH   6  25
BRANCH   4  37
ATOM     37  N   UNL A   1     -26.401   1.686  29.454  0.00  0.00    -0.236 NA
BRANCH  37  38
ATOM     38  C   UNL A   1     -27.014   3.011  29.617  0.00  0.00    +0.151 C 
BRANCH  38  41
ATOM     39  C   UNL A   1     -25.682   5.262  30.357  0.00  0.00    +0.005 C 
ATOM     40  C   UNL A   1     -26.171   4.867  32.836  0.00  0.00    +0.030 C 
ATOM     41  C   UNL A   1     -26.665   4.158  30.640  0.00  0.00    +0.054 C 
ATOM     42  C   UNL A   1     -27.445   4.463  32.039  0.00  0.00    +0.117 C 
ATOM     43  C   UNL A   1     -25.172   5.480  31.775  0.00  0.00    +0.003 C 
BRANCH  42  44
ATOM     44  O   UNL A   1     -28.562   4.043  32.975  0.00  0.00    -0.353 OA
ATOM     45  C   UNL A   1     -29.904   4.313  33.434  0.00  0.00    +0.174 C 
ENDBRANCH  42  44
ENDBRANCH  38  41
BRANCH  38  47
ATOM     46  O   UNL A   1     -28.733   1.587  28.933  0.00  0.00    -0.294 OA
ATOM     47  C   UNL A   1     -28.447   2.669  29.533  0.00  0.00    +0.170 C 
BRANCH  47  48
ATOM     48  C   UNL A   1     -29.348   3.375  30.036  0.00  0.00    +0.059 C 
ATOM     49  C   UNL A   1     -29.837   4.561  30.772  0.00  0.00    +0.008 C 
ATOM     50  C   UNL A   1     -30.658   3.170  29.538  0.00  0.00    +0.008 C 
ENDBRANCH  47  48
ENDBRANCH  38  47
ENDBRANCH  37  38
ENDBRANCH   4  37
TORSDOF 15
