REMARK  Name = outputs/IAG933/test6/raw/output_7614_IAG933_linker_design_.xyz
REMARK  9 active torsions:
REMARK  status: ('A' for Active; 'I' for Inactive)
REMARK    1  A    between atoms: C_1  and  C_2
REMARK    2  A    between atoms: C_1  and  C_8
REMARK    3  A    between atoms: C_1  and  C_39
REMARK    4  A    between atoms: C_13  and  C_35
REMARK    5  A    between atoms: C_14  and  C_15
REMARK    6  A    between atoms: C_21  and  O_22
REMARK    7  A    between atoms: O_22  and  C_23
REMARK    8  A    between atoms: C_23  and  C_24
REMARK    9  A    between atoms: C_39  and  N_41
REMARK                            x       y       z     vdW  Elec       q    Type
REMARK                         _______ _______ _______ _____ _____    ______ ____
ROOT
ATOM      1  F   UNL A   1     -21.364   2.560  25.565  0.00  0.00    -0.226 F 
ATOM      2  C   UNL A   1     -22.125   1.652  26.610  0.00  0.00    +0.263 C 
ATOM      3  C   UNL A   1     -21.176   1.338  27.637  0.00  0.00    +0.309 C 
ATOM      4  O   UNL A   1     -23.311   2.484  25.253  0.00  0.00    -0.292 OA
ATOM      5  C   UNL A   1     -23.266   1.834  26.266  0.00  0.00    +0.201 C 
ATOM      6  C   UNL A   1     -24.365   0.425  28.047  0.00  0.00    +0.326 C 
ATOM      7  F   UNL A   1     -20.133   1.977  27.875  0.00  0.00    -0.220 F 
ATOM      8  C   UNL A   1     -24.357   1.268  26.940  0.00  0.00    +0.187 C 
ATOM      9  N   UNL A   1     -20.805  -0.546  28.858  0.00  0.00    +0.192 NA
ATOM     10  O   UNL A   1     -25.453  -0.270  28.308  0.00  0.00    -0.246 OA
ATOM     11  C   UNL A   1     -21.740   0.250  28.505  0.00  0.00    +0.396 C 
ATOM     12  N   UNL A   1     -23.145   0.083  28.733  0.00  0.00    -0.113 N 
ENDROOT
BRANCH   8  13
ATOM     13  C   UNL A   1     -25.688   1.614  26.461  0.00  0.00    +0.034 C 
ATOM     14  C   UNL A   1     -26.250   2.920  26.395  0.00  0.00    +0.073 C 
ATOM     15  C   UNL A   1     -27.438   3.091  25.645  0.00  0.00    +0.106 C 
ATOM     16  N   UNL A   1     -28.075   2.089  25.003  0.00  0.00    -0.208 NA
ATOM     17  C   UNL A   1     -27.543   0.849  25.079  0.00  0.00    +0.253 C 
ATOM     18  C   UNL A   1     -26.354   0.576  25.777  0.00  0.00    +0.190 C 
ATOM     19  F   UNL A   1     -25.860  -0.681  25.795  0.00  0.00    -0.200 F 
BRANCH  14  20
ATOM     20  C   UNL A   1     -25.642   4.093  27.123  0.00  0.00    +0.266 C 
ATOM     21  N   UNL A   1     -25.614   5.252  26.449  0.00  0.00    -0.200 NA
ATOM     22  C   UNL A   1     -25.026   6.479  26.963  0.00  0.00    +0.139 C 
ATOM     23  O   UNL A   1     -25.143   3.966  28.243  0.00  0.00    -0.268 OA
ENDBRANCH  14  20
BRANCH  17  24
ATOM     24  O   UNL A   1     -28.193  -0.208  24.477  0.00  0.00    -0.456 OA
BRANCH  24  25
ATOM     25  C   UNL A   1     -29.460   0.005  23.866  0.00  0.00    +0.243 C 
BRANCH  25  26
ATOM     26  C   UNL A   1     -30.065  -1.377  23.573  0.00  0.00    +0.229 C 
ATOM     27  O   UNL A   1     -30.729  -1.878  24.721  0.00  0.00    -0.216 OA
ENDBRANCH  25  26
ENDBRANCH  24  25
ENDBRANCH  17  24
ENDBRANCH   8  13
BRANCH  12  29
ATOM     28  O   UNL A   1     -22.668  -0.023  30.887  0.00  0.00    -0.171 OA
ATOM     29  C   UNL A   1     -23.332  -0.568  29.906  0.00  0.00    +0.324 C 
BRANCH  29  30
ATOM     30  C   UNL A   1     -24.855  -1.012  30.143  0.00  0.00    +0.114 C 
BRANCH  30  31
ATOM     31  C   UNL A   1     -24.973  -2.505  29.788  0.00  0.00    -0.015 C 
ATOM     32  C   UNL A   1     -23.906  -3.173  29.146  0.00  0.00    -0.004 C 
ATOM     33  C   UNL A   1     -23.989  -4.549  28.853  0.00  0.00    -0.000 C 
ATOM     34  C   UNL A   1     -25.137  -5.280  29.205  0.00  0.00    -0.000 C 
ATOM     35  C   UNL A   1     -26.232  -4.611  29.784  0.00  0.00    -0.000 C 
ATOM     36  C   UNL A   1     -26.155  -3.232  30.065  0.00  0.00    -0.004 C 
ENDBRANCH  30  31
BRANCH  30  37
ATOM     37  C   UNL A   1     -25.387  -0.679  31.571  0.00  0.00    +0.083 C 
ATOM     38  C   UNL A   1     -25.189   0.773  32.028  0.00  0.00    +0.019 C 
ATOM     39  C   UNL A   1     -25.336   0.684  33.544  0.00  0.00    +0.020 C 
ATOM     40  C   UNL A   1     -24.829  -0.715  33.905  0.00  0.00    +0.089 C 
ATOM     41  N   UNL A   1     -24.758  -1.481  32.646  0.00  0.00    -0.219 NA
ENDBRANCH  30  37
ENDBRANCH  29  30
ENDBRANCH  12  29
TORSDOF 9
