REMARK  Name = outputs/IAG933/test6/raw/output_7616_IAG933_linker_design_.xyz
REMARK  12 active torsions:
REMARK  status: ('A' for Active; 'I' for Inactive)
REMARK    1  A    between atoms: C_1  and  C_2
REMARK    2  A    between atoms: C_1  and  C_8
REMARK    3  A    between atoms: C_1  and  N_28
REMARK    4  A    between atoms: C_13  and  C_35
REMARK    5  A    between atoms: C_14  and  C_15
REMARK    6  A    between atoms: C_21  and  O_22
REMARK    7  A    between atoms: O_22  and  C_23
REMARK    8  A    between atoms: C_23  and  C_24
REMARK    9  A    between atoms: N_28  and  N_36
REMARK   10  A    between atoms: N_28  and  C_45
REMARK   11  A    between atoms: C_31  and  C_39
REMARK   12  A    between atoms: O_34  and  C_46
REMARK                            x       y       z     vdW  Elec       q    Type
REMARK                         _______ _______ _______ _____ _____    ______ ____
ROOT
ATOM      1  N   UNL A   1     -25.274  -0.072  29.020  0.00  0.00    -0.081 N 
ENDROOT
BRANCH   1   8
ATOM      2  O   UNL A   1     -21.921   1.772  27.174  0.00  0.00    -0.420 OA
ATOM      3 CL   UNL A   1     -22.854   2.138  24.827  0.00  0.00    -0.063 Cl
ATOM      4  C   UNL A   1     -24.300   1.294  27.038  0.00  0.00    +0.120 C 
ATOM      5  C   UNL A   1     -23.034   1.707  26.431  0.00  0.00    +0.279 C 
ATOM      6  N   UNL A   1     -22.944   0.535  28.947  0.00  0.00    +0.007 NA
ATOM      7  C   UNL A   1     -21.843   1.215  28.361  0.00  0.00    +0.422 C 
ATOM      8  C   UNL A   1     -24.193   0.617  28.353  0.00  0.00    +0.351 C 
BRANCH   4   9
ATOM      9  C   UNL A   1     -25.688   1.614  26.461  0.00  0.00    +0.046 C 
ATOM     10  C   UNL A   1     -26.250   2.920  26.395  0.00  0.00    +0.077 C 
ATOM     11  C   UNL A   1     -27.438   3.091  25.645  0.00  0.00    +0.107 C 
ATOM     12  N   UNL A   1     -28.075   2.089  25.003  0.00  0.00    -0.208 NA
ATOM     13  C   UNL A   1     -27.543   0.849  25.079  0.00  0.00    +0.253 C 
ATOM     14  C   UNL A   1     -26.354   0.576  25.777  0.00  0.00    +0.193 C 
ATOM     15  F   UNL A   1     -25.860  -0.681  25.795  0.00  0.00    -0.199 F 
BRANCH  10  16
ATOM     16  C   UNL A   1     -25.642   4.093  27.123  0.00  0.00    +0.266 C 
ATOM     17  N   UNL A   1     -25.614   5.252  26.449  0.00  0.00    -0.200 NA
ATOM     18  C   UNL A   1     -25.026   6.479  26.963  0.00  0.00    +0.139 C 
ATOM     19  O   UNL A   1     -25.143   3.966  28.243  0.00  0.00    -0.268 OA
ENDBRANCH  10  16
BRANCH  13  20
ATOM     20  O   UNL A   1     -28.193  -0.208  24.477  0.00  0.00    -0.456 OA
BRANCH  20  21
ATOM     21  C   UNL A   1     -29.460   0.005  23.866  0.00  0.00    +0.243 C 
BRANCH  21  22
ATOM     22  C   UNL A   1     -30.065  -1.377  23.573  0.00  0.00    +0.229 C 
ATOM     23  O   UNL A   1     -30.729  -1.878  24.721  0.00  0.00    -0.216 OA
ENDBRANCH  21  22
ENDBRANCH  20  21
ENDBRANCH  13  20
ENDBRANCH   4   9
ENDBRANCH   1   8
BRANCH   1  24
ATOM     24  N   UNL A   1     -26.470   0.742  28.689  0.00  0.00    -0.019 NA
ATOM     25  C   UNL A   1     -27.720   0.855  29.316  0.00  0.00    +0.281 C 
ATOM     26  O   UNL A   1     -28.052   1.061  30.641  0.00  0.00    -0.270 OA
BRANCH  25  28
ATOM     27  C   UNL A   1     -32.630   1.560  28.042  0.00  0.00    +0.003 C 
ATOM     28  C   UNL A   1     -29.029   0.833  28.474  0.00  0.00    +0.084 C 
ATOM     29  C   UNL A   1     -31.122   1.113  28.103  0.00  0.00    +0.028 C 
ATOM     30  C   UNL A   1     -29.992   1.784  28.589  0.00  0.00    +0.012 C 
ATOM     31  C   UNL A   1     -29.380  -0.197  27.709  0.00  0.00    +0.039 C 
ATOM     32  C   UNL A   1     -30.641  -0.197  27.872  0.00  0.00    +0.116 C 
BRANCH  32  33
ATOM     33  O   UNL A   1     -31.504  -1.286  27.954  0.00  0.00    -0.354 OA
ATOM     34  C   UNL A   1     -32.820  -1.181  28.539  0.00  0.00    +0.174 C 
ENDBRANCH  32  33
ENDBRANCH  25  28
ENDBRANCH   1  24
BRANCH   1  35
ATOM     35  C   UNL A   1     -24.855  -1.012  30.143  0.00  0.00    +0.223 C 
BRANCH  35  36
ATOM     36  C   UNL A   1     -24.973  -2.505  29.788  0.00  0.00    +0.023 C 
ATOM     37  C   UNL A   1     -23.906  -3.173  29.146  0.00  0.00    -0.000 C 
ATOM     38  C   UNL A   1     -23.989  -4.549  28.853  0.00  0.00    -0.000 C 
ATOM     39  C   UNL A   1     -25.137  -5.280  29.205  0.00  0.00    -0.000 C 
ATOM     40  C   UNL A   1     -26.232  -4.611  29.784  0.00  0.00    -0.000 C 
ATOM     41  C   UNL A   1     -26.155  -3.232  30.065  0.00  0.00    -0.000 C 
ENDBRANCH  35  36
BRANCH  35  42
ATOM     42  C   UNL A   1     -25.387  -0.679  31.571  0.00  0.00    +0.122 C 
ATOM     43  C   UNL A   1     -25.189   0.773  32.028  0.00  0.00    +0.023 C 
ATOM     44  C   UNL A   1     -25.336   0.684  33.544  0.00  0.00    +0.020 C 
ATOM     45  C   UNL A   1     -24.829  -0.715  33.905  0.00  0.00    +0.089 C 
ATOM     46  N   UNL A   1     -24.758  -1.481  32.646  0.00  0.00    -0.215 NA
ENDBRANCH  35  42
ENDBRANCH   1  35
TORSDOF 12
