MODEL 761
MODEL 1
REMARK VINA RESULT:    -6.632      0.000      0.000
REMARK INTER + INTRA:          -7.831
REMARK INTER:                  -7.408
REMARK INTRA:                  -0.424
REMARK UNBOUND:                -0.424
REMARK  Name = No_761-gen_results/8p0m/2024-11-27-11-27-31/
REMARK  2 active torsions:
REMARK  status: ('A' for Active; 'I' for Inactive)
REMARK    1  A    between atoms: C_3  and  C_4
REMARK    2  A    between atoms: C_6  and  C_13
REMARK                            x       y       z     vdW  Elec       q    Type
REMARK                         _______ _______ _______ _____ _____    ______ ____
ROOT
ATOM      1  C   UNL A   1     -29.162 -10.406  32.633  0.00  0.00    +0.007 A 
ATOM      2  C   UNL A   1     -29.558 -10.247  31.502  0.00  0.00    +0.000 A 
ATOM      3  C   UNL A   1     -29.508 -11.279  30.572  0.00  0.00    +0.000 A 
ATOM      4  C   UNL A   1     -28.041 -11.026  32.863  0.00  0.00    +0.080 A 
ATOM      5  C   UNL A   1     -27.732 -12.202  32.054  0.00  0.00    +0.007 A 
ATOM      6  C   UNL A   1     -28.358 -12.213  30.762  0.00  0.00    +0.000 A 
ENDROOT
BRANCH   3   7
ATOM      7  C   UNL A   1     -29.953 -11.206  29.150  0.00  0.00    +0.000 A 
ATOM      8  C   UNL A   1     -30.745 -10.149  28.579  0.00  0.00    +0.000 A 
ATOM      9  C   UNL A   1     -30.877 -10.045  27.205  0.00  0.00    +0.000 A 
ATOM     10  C   UNL A   1     -30.192 -10.822  26.295  0.00  0.00    +0.000 A 
ATOM     11  C   UNL A   1     -29.200 -11.966  28.142  0.00  0.00    +0.000 A 
ATOM     12  C   UNL A   1     -29.386 -11.798  26.795  0.00  0.00    +0.000 A 
ENDBRANCH   3   7
BRANCH   4  13
ATOM     13  C   UNL A   1     -27.371 -11.128  34.217  0.00  0.00    +0.388 C 
ATOM     14  O   UNL A   1     -26.957 -10.320  34.906  0.00  0.00    -0.241 OA
ATOM     15  O   UNL A   1     -27.254 -12.402  34.616  0.00  0.00    -0.241 OA
ENDBRANCH   4  13
TORSDOF 2
ENDMDL
ENDMDL
