REMARK  Name = outputs/IAG933/test6/raw/output_762_IAG933_linker_design_.xyz
REMARK  9 active torsions:
REMARK  status: ('A' for Active; 'I' for Inactive)
REMARK    1  A    between atoms: C_1  and  C_2
REMARK    2  A    between atoms: C_1  and  C_8
REMARK    3  A    between atoms: C_1  and  N_33
REMARK    4  A    between atoms: C_13  and  N_29
REMARK    5  A    between atoms: C_14  and  C_15
REMARK    6  A    between atoms: C_21  and  O_22
REMARK    7  A    between atoms: O_22  and  C_23
REMARK    8  A    between atoms: C_23  and  C_24
REMARK    9  A    between atoms: N_33  and  C_40
REMARK                            x       y       z     vdW  Elec       q    Type
REMARK                         _______ _______ _______ _____ _____    ______ ____
ROOT
ATOM      1  C   UNL A   1     -22.378   1.307  27.220  0.00  0.00    +0.249 C 
ATOM      2  N   UNL A   1     -24.482   1.320  26.999  0.00  0.00    -0.122 N 
ATOM      3  C   UNL A   1     -23.334   1.784  26.264  0.00  0.00    +0.422 C 
ATOM      4  F   UNL A   1     -23.050   1.274  25.067  0.00  0.00    -0.160 F 
ATOM      5  O   UNL A   1     -21.003   0.980  27.304  0.00  0.00    -0.314 OA
ATOM      6  C   UNL A   1     -21.027   0.287  28.533  0.00  0.00    +0.307 C 
ATOM      7  O   UNL A   1     -23.376   3.151  26.028  0.00  0.00    -0.143 OA
ATOM      8  F   UNL A   1     -22.428  -0.306  30.367  0.00  0.00    -0.227 F 
ATOM      9  C   UNL A   1     -22.988   0.721  28.307  0.00  0.00    +0.109 C 
ATOM     10  C   UNL A   1     -22.036   0.232  29.190  0.00  0.00    +0.248 C 
ATOM     11  O   UNL A   1     -20.727  -0.631  28.624  0.00  0.00    -0.186 OA
ATOM     12  C   UNL A   1     -24.331   0.654  28.170  0.00  0.00    +0.314 C 
ENDROOT
BRANCH   2  13
ATOM     13  C   UNL A   1     -25.688   1.614  26.461  0.00  0.00    +0.181 C 
ATOM     14  C   UNL A   1     -26.250   2.920  26.395  0.00  0.00    +0.114 C 
ATOM     15  C   UNL A   1     -27.438   3.091  25.645  0.00  0.00    +0.110 C 
ATOM     16  N   UNL A   1     -28.075   2.089  25.003  0.00  0.00    -0.208 NA
ATOM     17  C   UNL A   1     -27.543   0.849  25.079  0.00  0.00    +0.257 C 
ATOM     18  C   UNL A   1     -26.354   0.576  25.777  0.00  0.00    +0.230 C 
ATOM     19  F   UNL A   1     -25.860  -0.681  25.795  0.00  0.00    -0.196 F 
BRANCH  14  20
ATOM     20  C   UNL A   1     -25.642   4.093  27.123  0.00  0.00    +0.270 C 
ATOM     21  N   UNL A   1     -25.614   5.252  26.449  0.00  0.00    -0.200 NA
ATOM     22  C   UNL A   1     -25.026   6.479  26.963  0.00  0.00    +0.139 C 
ATOM     23  O   UNL A   1     -25.143   3.966  28.243  0.00  0.00    -0.268 OA
ENDBRANCH  14  20
BRANCH  17  24
ATOM     24  O   UNL A   1     -28.193  -0.208  24.477  0.00  0.00    -0.456 OA
BRANCH  24  25
ATOM     25  C   UNL A   1     -29.460   0.005  23.866  0.00  0.00    +0.243 C 
BRANCH  25  26
ATOM     26  C   UNL A   1     -30.065  -1.377  23.573  0.00  0.00    +0.229 C 
ATOM     27  O   UNL A   1     -30.729  -1.878  24.721  0.00  0.00    -0.216 OA
ENDBRANCH  25  26
ENDBRANCH  24  25
ENDBRANCH  17  24
ENDBRANCH   2  13
BRANCH  12  28
ATOM     28  N   UNL A   1     -25.244  -0.076  29.039  0.00  0.00    -0.035 NA
BRANCH  28  29
ATOM     29  C   UNL A   1     -24.855  -1.012  30.143  0.00  0.00    +0.243 C 
BRANCH  29  30
ATOM     30  C   UNL A   1     -24.973  -2.505  29.788  0.00  0.00    +0.025 C 
ATOM     31  C   UNL A   1     -23.906  -3.173  29.146  0.00  0.00    -0.000 C 
ATOM     32  C   UNL A   1     -23.989  -4.549  28.853  0.00  0.00    -0.000 C 
ATOM     33  C   UNL A   1     -25.137  -5.280  29.205  0.00  0.00    -0.000 C 
ATOM     34  C   UNL A   1     -26.232  -4.611  29.784  0.00  0.00    -0.000 C 
ATOM     35  C   UNL A   1     -26.155  -3.232  30.065  0.00  0.00    -0.000 C 
ENDBRANCH  29  30
BRANCH  29  36
ATOM     36  C   UNL A   1     -25.387  -0.679  31.571  0.00  0.00    +0.124 C 
ATOM     37  C   UNL A   1     -25.189   0.773  32.028  0.00  0.00    +0.024 C 
ATOM     38  C   UNL A   1     -25.336   0.684  33.544  0.00  0.00    +0.020 C 
ATOM     39  C   UNL A   1     -24.829  -0.715  33.905  0.00  0.00    +0.089 C 
ATOM     40  N   UNL A   1     -24.758  -1.481  32.646  0.00  0.00    -0.215 NA
ENDBRANCH  29  36
ENDBRANCH  28  29
ENDBRANCH  12  28
TORSDOF 9
