REMARK  Name = outputs/IAG933/test6/raw/output_7620_IAG933_linker_design_.xyz
REMARK  10 active torsions:
REMARK  status: ('A' for Active; 'I' for Inactive)
REMARK    1  A    between atoms: C_1  and  C_2
REMARK    2  A    between atoms: C_1  and  C_8
REMARK    3  A    between atoms: C_1  and  N_28
REMARK    4  A    between atoms: C_14  and  C_15
REMARK    5  A    between atoms: C_21  and  O_22
REMARK    6  A    between atoms: O_22  and  C_23
REMARK    7  A    between atoms: C_23  and  C_24
REMARK    8  A    between atoms: N_28  and  C_30
REMARK    9  A    between atoms: N_28  and  C_34
REMARK   10  A    between atoms: C_38  and  O_40
REMARK                            x       y       z     vdW  Elec       q    Type
REMARK                         _______ _______ _______ _____ _____    ______ ____
ROOT
ATOM      1  C   UNL A   1     -25.688   1.614  26.461  0.00  0.00    +0.059 C 
ATOM      2  C   UNL A   1     -26.250   2.920  26.395  0.00  0.00    +0.080 C 
ATOM      3  C   UNL A   1     -27.438   3.091  25.645  0.00  0.00    +0.107 C 
ATOM      4  N   UNL A   1     -28.075   2.089  25.003  0.00  0.00    -0.211 NA
ATOM      5  C   UNL A   1     -27.543   0.849  25.079  0.00  0.00    +0.239 C 
ATOM      6  C   UNL A   1     -26.354   0.576  25.777  0.00  0.00    +0.265 C 
ATOM      7  F   UNL A   1     -25.860  -0.681  25.795  0.00  0.00    -0.222 F 
ATOM      8  C   UNL A   1     -21.666  -0.059  29.444  0.00  0.00    +0.043 C 
ATOM      9  C   UNL A   1     -22.898   0.367  29.233  0.00  0.00    -0.086 C 
ATOM     10  F   UNL A   1     -21.130   2.488  25.579  0.00  0.00    -0.159 F 
ATOM     11  C   UNL A   1     -23.836   0.604  28.649  0.00  0.00    +0.093 C 
ATOM     12  C   UNL A   1     -22.149   1.641  27.347  0.00  0.00    +0.076 C 
ATOM     13  C   UNL A   1     -24.538   1.415  27.238  0.00  0.00    -0.101 C 
ATOM     14  C   UNL A   1     -22.147   2.232  26.197  0.00  0.00    +0.327 C 
ATOM     15  C   UNL A   1     -20.626   0.423  28.657  0.00  0.00    +0.009 C 
ATOM     16  C   UNL A   1     -20.891   1.377  27.683  0.00  0.00    +0.007 C 
ATOM     17  C   UNL A   1     -23.414   1.247  27.799  0.00  0.00    +0.060 C 
ENDROOT
BRANCH   2  18
ATOM     18  C   UNL A   1     -25.642   4.093  27.123  0.00  0.00    +0.267 C 
ATOM     19  N   UNL A   1     -25.614   5.252  26.449  0.00  0.00    -0.200 NA
ATOM     20  C   UNL A   1     -25.026   6.479  26.963  0.00  0.00    +0.139 C 
ATOM     21  O   UNL A   1     -25.143   3.966  28.243  0.00  0.00    -0.268 OA
ENDBRANCH   2  18
BRANCH  14  23
ATOM     22  F   UNL A   1     -22.934   2.523  24.116  0.00  0.00    +0.016 F 
ATOM     23  O   UNL A   1     -23.223   2.528  25.420  0.00  0.00    -0.262 OA
ENDBRANCH  14  23
BRANCH   5  24
ATOM     24  O   UNL A   1     -28.193  -0.208  24.477  0.00  0.00    -0.458 OA
BRANCH  24  25
ATOM     25  C   UNL A   1     -29.460   0.005  23.866  0.00  0.00    +0.242 C 
BRANCH  25  26
ATOM     26  C   UNL A   1     -30.065  -1.377  23.573  0.00  0.00    +0.229 C 
ATOM     27  O   UNL A   1     -30.729  -1.878  24.721  0.00  0.00    -0.216 OA
ENDBRANCH  25  26
ENDBRANCH  24  25
ENDBRANCH   5  24
BRANCH  11  28
ATOM     28  N   UNL A   1     -24.959  -0.019  29.105  0.00  0.00    -0.270 N 
BRANCH  28  29
ATOM     29  C   UNL A   1     -25.880  -0.375  28.359  0.00  0.00    +0.279 C 
ATOM     30  O   UNL A   1     -27.168  -0.587  28.549  0.00  0.00    -0.196 OA
ENDBRANCH  28  29
BRANCH  28  31
ATOM     31  C   UNL A   1     -24.855  -1.012  30.143  0.00  0.00    +0.114 C 
BRANCH  31  32
ATOM     32  C   UNL A   1     -24.973  -2.505  29.788  0.00  0.00    -0.003 C 
ATOM     33  C   UNL A   1     -23.906  -3.173  29.146  0.00  0.00    -0.003 C 
ATOM     34  C   UNL A   1     -23.989  -4.549  28.853  0.00  0.00    -0.000 C 
ATOM     35  C   UNL A   1     -25.137  -5.280  29.205  0.00  0.00    -0.000 C 
ATOM     36  C   UNL A   1     -26.232  -4.611  29.784  0.00  0.00    -0.000 C 
ATOM     37  C   UNL A   1     -26.155  -3.232  30.065  0.00  0.00    -0.003 C 
ENDBRANCH  31  32
BRANCH  31  38
ATOM     38  C   UNL A   1     -25.387  -0.679  31.571  0.00  0.00    +0.095 C 
ATOM     39  C   UNL A   1     -25.189   0.773  32.028  0.00  0.00    +0.021 C 
ATOM     40  C   UNL A   1     -25.336   0.684  33.544  0.00  0.00    +0.020 C 
ATOM     41  C   UNL A   1     -24.829  -0.715  33.905  0.00  0.00    +0.089 C 
ATOM     42  N   UNL A   1     -24.758  -1.481  32.646  0.00  0.00    -0.217 NA
ENDBRANCH  31  38
ENDBRANCH  28  31
ENDBRANCH  11  28
TORSDOF 10
