REMARK  Name = outputs/IAG933/test6/raw/output_7621_IAG933_linker_design_.xyz
REMARK  12 active torsions:
REMARK  status: ('A' for Active; 'I' for Inactive)
REMARK    1  A    between atoms: C_1  and  C_2
REMARK    2  A    between atoms: C_1  and  C_8
REMARK    3  A    between atoms: C_1  and  O_29
REMARK    4  A    between atoms: C_13  and  C_28
REMARK    5  A    between atoms: C_14  and  C_15
REMARK    6  A    between atoms: C_21  and  O_22
REMARK    7  A    between atoms: O_22  and  C_23
REMARK    8  A    between atoms: C_23  and  C_24
REMARK    9  A    between atoms: O_29  and  C_35
REMARK   10  A    between atoms: O_31  and  C_34
REMARK   11  A    between atoms: O_31  and  N_42
REMARK   12  A    between atoms: C_32  and  C_40
REMARK                            x       y       z     vdW  Elec       q    Type
REMARK                         _______ _______ _______ _____ _____    ______ ____
ROOT
ATOM      1  C   UNL A   1     -24.143   1.258  26.626  0.00  0.00    +0.124 C 
ATOM      2  C   UNL A   1     -21.972   1.710  27.661  0.00  0.00    +0.235 C 
ATOM      3  O   UNL A   1     -21.804   1.925  26.270  0.00  0.00    -0.335 OA
ATOM      4  C   UNL A   1     -23.052   1.676  25.571  0.00  0.00    +0.163 C 
ATOM      5  N   UNL A   1     -23.365   1.362  27.948  0.00  0.00    -0.136 NA
ENDROOT
BRANCH   1   6
ATOM      6  C   UNL A   1     -25.688   1.614  26.461  0.00  0.00    +0.090 C 
ATOM      7  C   UNL A   1     -26.250   2.920  26.395  0.00  0.00    +0.056 C 
ATOM      8  C   UNL A   1     -27.438   3.091  25.645  0.00  0.00    +0.102 C 
ATOM      9  N   UNL A   1     -28.075   2.089  25.003  0.00  0.00    -0.212 NA
ATOM     10  C   UNL A   1     -27.543   0.849  25.079  0.00  0.00    +0.234 C 
ATOM     11  C   UNL A   1     -26.354   0.576  25.777  0.00  0.00    +0.241 C 
ATOM     12  F   UNL A   1     -25.860  -0.681  25.795  0.00  0.00    -0.227 F 
BRANCH   7  13
ATOM     13  C   UNL A   1     -25.642   4.093  27.123  0.00  0.00    +0.263 C 
ATOM     14  N   UNL A   1     -25.614   5.252  26.449  0.00  0.00    -0.200 NA
ATOM     15  C   UNL A   1     -25.026   6.479  26.963  0.00  0.00    +0.139 C 
ATOM     16  O   UNL A   1     -25.143   3.966  28.243  0.00  0.00    -0.269 OA
ENDBRANCH   7  13
BRANCH  10  17
ATOM     17  O   UNL A   1     -28.193  -0.208  24.477  0.00  0.00    -0.459 OA
BRANCH  17  18
ATOM     18  C   UNL A   1     -29.460   0.005  23.866  0.00  0.00    +0.242 C 
BRANCH  18  19
ATOM     19  C   UNL A   1     -30.065  -1.377  23.573  0.00  0.00    +0.229 C 
ATOM     20  O   UNL A   1     -30.729  -1.878  24.721  0.00  0.00    -0.216 OA
ENDBRANCH  18  19
ENDBRANCH  17  18
ENDBRANCH  10  17
ENDBRANCH   1   6
BRANCH   2  22
ATOM     21  F   UNL A   1     -22.061   0.077  29.409  0.00  0.00    -0.230 F 
ATOM     22  C   UNL A   1     -21.174   0.560  28.220  0.00  0.00    +0.242 C 
ENDBRANCH   2  22
BRANCH   5  23
ATOM     23  O   UNL A   1     -23.838   2.086  29.082  0.00  0.00    -0.280 OA
BRANCH  23  25
ATOM     24  C   UNL A   1     -27.597   2.984  30.378  0.00  0.00    +0.003 C 
ATOM     25  C   UNL A   1     -25.320   2.061  29.399  0.00  0.00    +0.165 C 
ATOM     26  C   UNL A   1     -26.166   1.072  29.113  0.00  0.00    +0.145 C 
ATOM     27  C   UNL A   1     -27.585   0.642  28.841  0.00  0.00    +0.032 C 
ATOM     28  C   UNL A   1     -28.256   1.646  29.833  0.00  0.00    +0.003 C 
ATOM     29  C   UNL A   1     -26.181   3.244  30.376  0.00  0.00    +0.034 C 
BRANCH  26  30
ATOM     30  O   UNL A   1     -25.481  -0.331  29.059  0.00  0.00    -0.350 OA
BRANCH  30  31
ATOM     31  C   UNL A   1     -24.855  -1.012  30.143  0.00  0.00    +0.153 C 
BRANCH  31  32
ATOM     32  C   UNL A   1     -24.973  -2.505  29.788  0.00  0.00    +0.006 C 
ATOM     33  C   UNL A   1     -23.906  -3.173  29.146  0.00  0.00    -0.002 C 
ATOM     34  C   UNL A   1     -23.989  -4.549  28.853  0.00  0.00    -0.000 C 
ATOM     35  C   UNL A   1     -25.137  -5.280  29.205  0.00  0.00    -0.000 C 
ATOM     36  C   UNL A   1     -26.232  -4.611  29.784  0.00  0.00    -0.000 C 
ATOM     37  C   UNL A   1     -26.155  -3.232  30.065  0.00  0.00    -0.002 C 
ENDBRANCH  31  32
BRANCH  31  38
ATOM     38  C   UNL A   1     -25.387  -0.679  31.571  0.00  0.00    +0.104 C 
ATOM     39  C   UNL A   1     -25.189   0.773  32.028  0.00  0.00    +0.022 C 
ATOM     40  C   UNL A   1     -25.336   0.684  33.544  0.00  0.00    +0.020 C 
ATOM     41  C   UNL A   1     -24.829  -0.715  33.905  0.00  0.00    +0.089 C 
ATOM     42  N   UNL A   1     -24.758  -1.481  32.646  0.00  0.00    -0.217 NA
ENDBRANCH  31  38
ENDBRANCH  30  31
ENDBRANCH  26  30
ENDBRANCH  23  25
ENDBRANCH   5  23
TORSDOF 12
