REMARK  Name = outputs/IAG933/test6/raw/output_7622_IAG933_linker_design_.xyz
REMARK  16 active torsions:
REMARK  status: ('A' for Active; 'I' for Inactive)
REMARK    1  A    between atoms: C_1  and  C_2
REMARK    2  A    between atoms: C_1  and  C_8
REMARK    3  A    between atoms: C_1  and  O_29
REMARK    4  A    between atoms: C_13  and  N_36
REMARK    5  A    between atoms: C_14  and  C_15
REMARK    6  A    between atoms: C_21  and  O_22
REMARK    7  A    between atoms: O_22  and  C_23
REMARK    8  A    between atoms: C_23  and  C_24
REMARK    9  A    between atoms: C_28  and  O_32
REMARK   10  A    between atoms: O_29  and  C_39
REMARK   11  A    between atoms: C_31  and  N_36
REMARK   12  A    between atoms: C_31  and  C_39
REMARK   13  A    between atoms: O_32  and  O_37
REMARK   14  A    between atoms: C_33  and  O_37
REMARK   15  A    between atoms: C_34  and  C_38
REMARK   16  A    between atoms: C_35  and  C_39
REMARK                            x       y       z     vdW  Elec       q    Type
REMARK                         _______ _______ _______ _____ _____    ______ ____
ROOT
ATOM      1  C   UNL A   1     -23.805   1.261  27.693  0.00  0.00    +0.135 C 
ATOM      2  C   UNL A   1     -22.803   1.395  26.781  0.00  0.00    +0.223 C 
ATOM      3  F   UNL A   1     -21.423   1.456  27.092  0.00  0.00    -0.197 F 
ENDROOT
BRANCH   2   4
ATOM      4  C   UNL A   1     -22.961   1.470  25.366  0.00  0.00    +0.362 C 
ATOM      5  O   UNL A   1     -23.735   0.894  24.655  0.00  0.00    -0.252 OA
ATOM      6  F   UNL A   1     -22.061   2.163  24.730  0.00  0.00    -0.156 F 
ENDBRANCH   2   4
BRANCH   1   8
ATOM      7  N   UNL A   1     -22.423   0.418  29.646  0.00  0.00    -0.085 NA
ATOM      8  C   UNL A   1     -23.756   1.219  29.164  0.00  0.00    +0.262 C 
BRANCH   8  10
ATOM      9  C   UNL A   1     -24.130   3.218  31.291  0.00  0.00    +0.110 C 
ATOM     10  C   UNL A   1     -24.128   2.404  30.061  0.00  0.00    -0.008 C 
BRANCH   9  11
ATOM     11  O   UNL A   1     -24.220   3.939  32.452  0.00  0.00    -0.090 OA
BRANCH  11  12
ATOM     12  O   UNL A   1     -25.369   4.428  33.115  0.00  0.00    -0.271 OA
BRANCH  12  13
ATOM     13  C   UNL A   1     -26.398   4.573  32.221  0.00  0.00    +0.454 C 
ATOM     14  O   UNL A   1     -26.209   4.878  31.001  0.00  0.00    -0.234 OA
ENDBRANCH  12  13
ENDBRANCH  11  12
ENDBRANCH   9  11
ENDBRANCH   8  10
BRANCH   8  15
ATOM     15  O   UNL A   1     -25.016   0.141  29.420  0.00  0.00    -0.325 OA
BRANCH  15  16
ATOM     16  C   UNL A   1     -24.855  -1.012  30.143  0.00  0.00    +0.156 C 
BRANCH  16  17
ATOM     17  C   UNL A   1     -24.973  -2.505  29.788  0.00  0.00    +0.006 C 
ATOM     18  C   UNL A   1     -23.906  -3.173  29.146  0.00  0.00    -0.002 C 
ATOM     19  C   UNL A   1     -23.989  -4.549  28.853  0.00  0.00    -0.000 C 
ATOM     20  C   UNL A   1     -25.137  -5.280  29.205  0.00  0.00    -0.000 C 
ATOM     21  C   UNL A   1     -26.232  -4.611  29.784  0.00  0.00    -0.000 C 
ATOM     22  C   UNL A   1     -26.155  -3.232  30.065  0.00  0.00    -0.002 C 
ENDBRANCH  16  17
BRANCH  16  23
ATOM     23  C   UNL A   1     -25.387  -0.679  31.571  0.00  0.00    +0.104 C 
ATOM     24  C   UNL A   1     -25.189   0.773  32.028  0.00  0.00    +0.022 C 
ATOM     25  C   UNL A   1     -25.336   0.684  33.544  0.00  0.00    +0.020 C 
ATOM     26  C   UNL A   1     -24.829  -0.715  33.905  0.00  0.00    +0.089 C 
ATOM     27  N   UNL A   1     -24.758  -1.481  32.646  0.00  0.00    -0.217 NA
ENDBRANCH  16  23
ENDBRANCH  15  16
ENDBRANCH   8  15
ENDBRANCH   1   8
BRANCH   1  28
ATOM     28  N   UNL A   1     -24.846   1.304  27.253  0.00  0.00    -0.207 NA
BRANCH  28  29
ATOM     29  C   UNL A   1     -25.688   1.614  26.461  0.00  0.00    +0.108 C 
ATOM     30  C   UNL A   1     -26.250   2.920  26.395  0.00  0.00    +0.092 C 
ATOM     31  C   UNL A   1     -27.438   3.091  25.645  0.00  0.00    +0.108 C 
ATOM     32  N   UNL A   1     -28.075   2.089  25.003  0.00  0.00    -0.208 NA
ATOM     33  C   UNL A   1     -27.543   0.849  25.079  0.00  0.00    +0.255 C 
ATOM     34  C   UNL A   1     -26.354   0.576  25.777  0.00  0.00    +0.208 C 
ATOM     35  F   UNL A   1     -25.860  -0.681  25.795  0.00  0.00    -0.198 F 
BRANCH  30  36
ATOM     36  C   UNL A   1     -25.642   4.093  27.123  0.00  0.00    +0.268 C 
ATOM     37  N   UNL A   1     -25.614   5.252  26.449  0.00  0.00    -0.200 NA
ATOM     38  C   UNL A   1     -25.026   6.479  26.963  0.00  0.00    +0.139 C 
ATOM     39  O   UNL A   1     -25.143   3.966  28.243  0.00  0.00    -0.268 OA
ENDBRANCH  30  36
BRANCH  33  40
ATOM     40  O   UNL A   1     -28.193  -0.208  24.477  0.00  0.00    -0.456 OA
BRANCH  40  41
ATOM     41  C   UNL A   1     -29.460   0.005  23.866  0.00  0.00    +0.243 C 
BRANCH  41  42
ATOM     42  C   UNL A   1     -30.065  -1.377  23.573  0.00  0.00    +0.229 C 
ATOM     43  O   UNL A   1     -30.729  -1.878  24.721  0.00  0.00    -0.216 OA
ENDBRANCH  41  42
ENDBRANCH  40  41
ENDBRANCH  33  40
ENDBRANCH  28  29
ENDBRANCH   1  28
TORSDOF 16
