REMARK  Name = outputs/IAG933/test6/raw/output_7627_IAG933_linker_design_.xyz
REMARK  12 active torsions:
REMARK  status: ('A' for Active; 'I' for Inactive)
REMARK    1  A    between atoms: C_1  and  C_2
REMARK    2  A    between atoms: C_1  and  C_8
REMARK    3  A    between atoms: C_1  and  C_39
REMARK    4  A    between atoms: C_14  and  C_15
REMARK    5  A    between atoms: C_21  and  O_22
REMARK    6  A    between atoms: O_22  and  C_23
REMARK    7  A    between atoms: C_23  and  C_24
REMARK    8  A    between atoms: C_30  and  C_39
REMARK    9  A    between atoms: O_31  and  C_36
REMARK   10  A    between atoms: O_31  and  C_42
REMARK   11  A    between atoms: C_32  and  N_40
REMARK   12  A    between atoms: N_37  and  C_39
REMARK                            x       y       z     vdW  Elec       q    Type
REMARK                         _______ _______ _______ _____ _____    ______ ____
ROOT
ATOM      1  C   UNL A   1     -22.699   1.983  26.612  0.00  0.00    +0.075 C 
ATOM      2 CL   UNL A   1     -23.014   3.011  25.235  0.00  0.00    -0.081 Cl
ATOM      3  C   UNL A   1     -23.601   0.583  28.451  0.00  0.00    +0.016 C 
ATOM      4  C   UNL A   1     -23.666   1.292  27.365  0.00  0.00    +0.089 C 
ATOM      5  C   UNL A   1     -21.425   1.839  27.047  0.00  0.00    +0.013 C 
ATOM      6  C   UNL A   1     -22.213   0.625  28.837  0.00  0.00    -0.001 C 
ATOM      7  C   UNL A   1     -21.218   1.192  28.218  0.00  0.00    +0.001 C 
ENDROOT
BRANCH   4  15
ATOM      8  C   UNL A   1     -25.688   1.614  26.461  0.00  0.00    +0.106 C 
ATOM      9  C   UNL A   1     -26.250   2.920  26.395  0.00  0.00    +0.091 C 
ATOM     10  C   UNL A   1     -27.438   3.091  25.645  0.00  0.00    +0.108 C 
ATOM     11  N   UNL A   1     -28.075   2.089  25.003  0.00  0.00    -0.211 NA
ATOM     12  C   UNL A   1     -27.543   0.849  25.079  0.00  0.00    +0.240 C 
ATOM     13  C   UNL A   1     -26.354   0.576  25.777  0.00  0.00    +0.276 C 
ATOM     14  F   UNL A   1     -25.860  -0.681  25.795  0.00  0.00    -0.221 F 
ATOM     15  N   UNL A   1     -24.683   1.182  26.877  0.00  0.00    -0.246 NA
BRANCH   9  16
ATOM     16  C   UNL A   1     -25.642   4.093  27.123  0.00  0.00    +0.268 C 
ATOM     17  N   UNL A   1     -25.614   5.252  26.449  0.00  0.00    -0.200 NA
ATOM     18  C   UNL A   1     -25.026   6.479  26.963  0.00  0.00    +0.139 C 
ATOM     19  O   UNL A   1     -25.143   3.966  28.243  0.00  0.00    -0.268 OA
ENDBRANCH   9  16
BRANCH  12  20
ATOM     20  O   UNL A   1     -28.193  -0.208  24.477  0.00  0.00    -0.458 OA
BRANCH  20  21
ATOM     21  C   UNL A   1     -29.460   0.005  23.866  0.00  0.00    +0.242 C 
BRANCH  21  22
ATOM     22  C   UNL A   1     -30.065  -1.377  23.573  0.00  0.00    +0.229 C 
ATOM     23  O   UNL A   1     -30.729  -1.878  24.721  0.00  0.00    -0.216 OA
ENDBRANCH  21  22
ENDBRANCH  20  21
ENDBRANCH  12  20
ENDBRANCH   4  15
BRANCH   3  24
ATOM     24  C   UNL A   1     -24.870  -0.057  28.975  0.00  0.00    +0.128 C 
BRANCH  24  25
ATOM     25  N   UNL A   1     -26.068   0.265  28.554  0.00  0.00    -0.166 NA
ATOM     26  O   UNL A   1     -28.084  -0.417  28.822  0.00  0.00    -0.225 OA
ATOM     27  C   UNL A   1     -27.291   0.452  28.948  0.00  0.00    +0.421 C 
BRANCH  27  28
ATOM     28  O   UNL A   1     -27.684   1.838  29.512  0.00  0.00    -0.433 OA
BRANCH  28  30
ATOM     29  C   UNL A   1     -29.826   1.570  30.092  0.00  0.00    +0.051 C 
ATOM     30  C   UNL A   1     -28.841   2.346  29.229  0.00  0.00    +0.210 C 
ENDBRANCH  28  30
ENDBRANCH  27  28
ENDBRANCH  24  25
BRANCH  24  31
ATOM     31  C   UNL A   1     -24.855  -1.012  30.143  0.00  0.00    +0.063 C 
BRANCH  31  32
ATOM     32  C   UNL A   1     -24.973  -2.505  29.788  0.00  0.00    -0.019 C 
ATOM     33  C   UNL A   1     -23.906  -3.173  29.146  0.00  0.00    -0.004 C 
ATOM     34  C   UNL A   1     -23.989  -4.549  28.853  0.00  0.00    -0.000 C 
ATOM     35  C   UNL A   1     -25.137  -5.280  29.205  0.00  0.00    -0.000 C 
ATOM     36  C   UNL A   1     -26.232  -4.611  29.784  0.00  0.00    -0.000 C 
ATOM     37  C   UNL A   1     -26.155  -3.232  30.065  0.00  0.00    -0.004 C 
ENDBRANCH  31  32
BRANCH  31  38
ATOM     38  C   UNL A   1     -25.387  -0.679  31.571  0.00  0.00    +0.079 C 
ATOM     39  C   UNL A   1     -25.189   0.773  32.028  0.00  0.00    +0.019 C 
ATOM     40  C   UNL A   1     -25.336   0.684  33.544  0.00  0.00    +0.020 C 
ATOM     41  C   UNL A   1     -24.829  -0.715  33.905  0.00  0.00    +0.089 C 
ATOM     42  N   UNL A   1     -24.758  -1.481  32.646  0.00  0.00    -0.219 NA
ENDBRANCH  31  38
ENDBRANCH  24  31
ENDBRANCH   3  24
TORSDOF 12
