MODEL 762
MODEL 1
REMARK VINA RESULT:    -6.601      0.000      0.000
REMARK INTER + INTRA:          -7.353
REMARK INTER:                  -6.987
REMARK INTRA:                  -0.366
REMARK UNBOUND:                -0.366
REMARK  Name = No_762-gen_results/8p0m/2024-11-27-11-27-31/
REMARK  1 active torsions:
REMARK  status: ('A' for Active; 'I' for Inactive)
REMARK    1  A    between atoms: C_4  and  C_7
REMARK                            x       y       z     vdW  Elec       q    Type
REMARK                         _______ _______ _______ _____ _____    ______ ____
ROOT
ATOM      1  C   UNL A   1     -26.618  -3.945  29.828  0.00  0.00    +0.000 A 
ATOM      2  C   UNL A   1     -26.175  -4.881  29.632  0.00  0.00    +0.000 A 
ATOM      3  C   UNL A   1     -25.787  -2.757  29.580  0.00  0.00    +0.000 A 
ATOM      4  C   UNL A   1     -24.504  -2.884  28.971  0.00  0.00    +0.000 A 
ATOM      5  C   UNL A   1     -24.084  -4.165  28.715  0.00  0.00    +0.000 A 
ATOM      6  C   UNL A   1     -24.879  -5.222  28.988  0.00  0.00    +0.000 A 
ENDROOT
BRANCH   4   7
ATOM      7  C   UNL A   1     -23.686  -1.715  28.706  0.00  0.00    +0.000 A 
ATOM      8  C   UNL A   1     -22.789  -1.436  29.217  0.00  0.00    +0.000 A 
ATOM      9  C   UNL A   1     -22.001  -0.149  29.111  0.00  0.00    +0.000 A 
ATOM     10  C   UNL A   1     -22.578   0.743  28.275  0.00  0.00    +0.000 A 
ATOM     11  C   UNL A   1     -23.789   0.511  27.598  0.00  0.00    +0.000 A 
ATOM     12  C   UNL A   1     -24.387  -0.627  27.998  0.00  0.00    +0.000 A 
ENDBRANCH   4   7
TORSDOF 1
ENDMDL
ENDMDL
