REMARK  Name = No_763-gen_results/8p0m/2024-11-27-11-27-31/
REMARK  10 active torsions:
REMARK  status: ('A' for Active; 'I' for Inactive)
REMARK    1  A    between atoms: C_3  and  C_7
REMARK    2  A    between atoms: C_6  and  C_12
REMARK    3  A    between atoms: C_12  and  O_14
REMARK    4  A    between atoms: O_14  and  C_15
REMARK    5  A    between atoms: C_15  and  C_16
REMARK    6  A    between atoms: C_19  and  C_22
REMARK    7  A    between atoms: C_22  and  P_24
REMARK    8  A    between atoms: P_24  and  O_27
REMARK    9  A    between atoms: O_27  and  C_28
REMARK   10  A    between atoms: C_29  and  C_30
REMARK                            x       y       z     vdW  Elec       q    Type
REMARK                         _______ _______ _______ _____ _____    ______ ____
ROOT
ATOM      1  C   UNL A   1     -29.254   4.023  33.656  0.00  0.00    +0.021 A 
ATOM      2  C   UNL A   1     -29.255   4.962  34.414  0.00  0.00    -0.001 A 
ATOM      3  C   UNL A   1     -30.222   6.124  34.278  0.00  0.00    +0.002 A 
ATOM      4  C   UNL A   1     -31.160   5.960  33.244  0.00  0.00    +0.027 A 
ATOM      5  C   UNL A   1     -31.096   4.840  32.431  0.00  0.00    +0.002 A 
ATOM      6  C   UNL A   1     -30.118   3.873  32.596  0.00  0.00    -0.001 A 
ENDROOT
BRANCH   4   7
ATOM      7  C   UNL A   1     -32.195   6.972  33.026  0.00  0.00    +0.183 C 
ATOM      8  N   UNL A   1     -33.044   6.971  32.415  0.00  0.00    -0.140 NA
BRANCH   7   9
ATOM      9  P   UNL A   1     -31.861   8.507  33.974  0.00  0.00    +0.397 P 
ATOM     10  O   UNL A   1     -30.891   8.557  34.824  0.00  0.00    -0.136 OA
ATOM     11  O   UNL A   1     -31.653   9.558  32.827  0.00  0.00    -0.136 OA
BRANCH   9  12
ATOM     12  O   UNL A   1     -33.258   8.786  34.538  0.00  0.00    -0.423 OA
BRANCH  12  13
ATOM     13  C   UNL A   1     -34.378   8.306  34.450  0.00  0.00    +0.180 C 
ATOM     14  C   UNL A   1     -35.453   9.146  34.546  0.00  0.00    +0.041 C 
BRANCH  14  15
ATOM     15  C   UNL A   1     -35.312  10.302  35.168  0.00  0.00    +0.003 A 
ATOM     16  C   UNL A   1     -36.435  11.296  35.295  0.00  0.00    +0.000 A 
ATOM     17  C   UNL A   1     -36.230  12.506  35.980  0.00  0.00    +0.000 A 
ATOM     18  C   UNL A   1     -34.956  12.815  36.498  0.00  0.00    +0.000 A 
ATOM     19  C   UNL A   1     -33.919  11.901  36.356  0.00  0.00    +0.000 A 
ATOM     20  C   UNL A   1     -34.126  10.718  35.711  0.00  0.00    +0.000 A 
ENDBRANCH  14  15
ENDBRANCH  12  13
ENDBRANCH   9  12
ENDBRANCH   7   9
ENDBRANCH   4   7
BRANCH   1  21
ATOM     21  C   UNL A   1     -28.243   3.035  33.767  0.00  0.00    +0.235 C 
BRANCH  21  22
ATOM     22  O   UNL A   1     -28.252   2.173  32.805  0.00  0.00    -0.440 OA
BRANCH  22  23
ATOM     23  C   UNL A   1     -27.297   2.194  31.858  0.00  0.00    +0.342 C 
ATOM     24  O   UNL A   1     -26.466   2.707  32.075  0.00  0.00    -0.245 OA
BRANCH  23  30
ATOM     25  C   UNL A   1     -28.016  -0.814  28.878  0.00  0.00    +0.015 A 
ATOM     26  C   UNL A   1     -28.469  -0.785  29.829  0.00  0.00    +0.058 A 
ATOM     27  C   UNL A   1     -27.087   0.290  28.638  0.00  0.00    +0.072 A 
ATOM     28  C   UNL A   1     -26.832   1.249  29.587  0.00  0.00    +0.010 A 
ATOM     29  C   UNL A   1     -28.391   0.080  31.006  0.00  0.00    +0.018 A 
ATOM     30  C   UNL A   1     -27.494   1.152  30.784  0.00  0.00    +0.076 A 
ATOM     31 CL   UNL A   1     -29.577  -2.198  30.264  0.00  0.00    -0.082 Cl
BRANCH  27  32
ATOM     32  C   UNL A   1     -26.311   0.392  27.364  0.00  0.00    +0.419 C 
ATOM     33  F   UNL A   1     -25.779   1.513  27.375  0.00  0.00    -0.166 F 
ATOM     34  F   UNL A   1     -25.376  -0.554  27.303  0.00  0.00    -0.166 F 
ATOM     35  F   UNL A   1     -27.117   0.277  26.287  0.00  0.00    -0.166 F 
ENDBRANCH  27  32
ENDBRANCH  23  30
ENDBRANCH  22  23
ENDBRANCH  21  22
ENDBRANCH   1  21
TORSDOF 10
