REMARK  Name = outputs/IAG933/test6/raw/output_7635_IAG933_linker_design_.xyz
REMARK  4 active torsions:
REMARK  status: ('A' for Active; 'I' for Inactive)
REMARK    1  A    between atoms: C_1  and  C_2
REMARK    2  A    between atoms: C_1  and  C_8
REMARK    3  A    between atoms: C_1  and  C_42
REMARK    4  A    between atoms: C_14  and  C_15
REMARK                            x       y       z     vdW  Elec       q    Type
REMARK                         _______ _______ _______ _____ _____    ______ ____
ROOT
ATOM      1  C   UNL A   1     -25.688   1.614  26.461  0.00  0.00    +0.092 C 
ATOM      2  C   UNL A   1     -26.250   2.920  26.395  0.00  0.00    +0.090 C 
ATOM      3  C   UNL A   1     -27.438   3.091  25.645  0.00  0.00    +0.108 C 
ATOM      4  N   UNL A   1     -28.075   2.089  25.003  0.00  0.00    -0.208 NA
ATOM      5  C   UNL A   1     -27.543   0.849  25.079  0.00  0.00    +0.255 C 
ATOM      6  O   UNL A   1     -28.193  -0.208  24.477  0.00  0.00    -0.456 OA
ATOM      7  C   UNL A   1     -29.460   0.005  23.866  0.00  0.00    +0.239 C 
ATOM      8  C   UNL A   1     -30.065  -1.377  23.573  0.00  0.00    +0.189 C 
ATOM      9  O   UNL A   1     -30.729  -1.878  24.721  0.00  0.00    -0.350 OA
ATOM     10  C   UNL A   1     -26.354   0.576  25.777  0.00  0.00    +0.207 C 
ATOM     11  F   UNL A   1     -25.860  -0.681  25.795  0.00  0.00    -0.198 F 
ATOM     12  C   UNL A   1     -30.900   0.472  26.785  0.00  0.00    +0.032 C 
ATOM     13  O   UNL A   1     -26.044   0.606  28.969  0.00  0.00    -0.354 OA
ATOM     14  O   UNL A   1     -30.121  -1.121  28.403  0.00  0.00    -0.359 OA
ATOM     15  N   UNL A   1     -24.392   1.282  26.954  0.00  0.00    -0.253 N 
ATOM     16  O   UNL A   1     -22.934   2.495  25.334  0.00  0.00    -0.272 OA
ATOM     17  F   UNL A   1     -20.883   2.007  27.355  0.00  0.00    -0.227 F 
ATOM     18  C   UNL A   1     -29.390   0.227  28.635  0.00  0.00    +0.118 C 
ATOM     19  C   UNL A   1     -23.969   0.536  28.046  0.00  0.00    +0.111 C 
ATOM     20  C   UNL A   1     -22.214   1.629  27.376  0.00  0.00    +0.238 C 
ATOM     21  C   UNL A   1     -31.978  -1.921  26.865  0.00  0.00    +0.062 C 
ATOM     22  C   UNL A   1     -30.143   1.311  27.851  0.00  0.00    +0.032 C 
ATOM     23  C   UNL A   1     -31.345  -0.726  27.617  0.00  0.00    +0.118 C 
ATOM     24  C   UNL A   1     -32.023  -1.758  25.317  0.00  0.00    +0.145 C 
ATOM     25  C   UNL A   1     -23.192   1.884  26.412  0.00  0.00    +0.262 C 
ATOM     26  C   UNL A   1     -24.929  -0.116  28.864  0.00  0.00    +0.139 C 
ATOM     27  C   UNL A   1     -22.720   0.891  28.443  0.00  0.00    +0.068 C 
ATOM     28  C   UNL A   1     -28.220   1.150  29.249  0.00  0.00    +0.062 C 
ATOM     29  C   UNL A   1     -27.278  -0.093  29.226  0.00  0.00    +0.145 C 
ENDROOT
BRANCH   2  30
ATOM     30  C   UNL A   1     -25.642   4.093  27.123  0.00  0.00    +0.268 C 
ATOM     31  N   UNL A   1     -25.614   5.252  26.449  0.00  0.00    -0.200 NA
ATOM     32  C   UNL A   1     -25.026   6.479  26.963  0.00  0.00    +0.139 C 
ATOM     33  O   UNL A   1     -25.143   3.966  28.243  0.00  0.00    -0.268 OA
ENDBRANCH   2  30
BRANCH  26  34
ATOM     34  C   UNL A   1     -24.855  -1.012  30.143  0.00  0.00    +0.067 C 
BRANCH  34  35
ATOM     35  C   UNL A   1     -24.973  -2.505  29.788  0.00  0.00    -0.019 C 
ATOM     36  C   UNL A   1     -23.906  -3.173  29.146  0.00  0.00    -0.004 C 
ATOM     37  C   UNL A   1     -23.989  -4.549  28.853  0.00  0.00    -0.000 C 
ATOM     38  C   UNL A   1     -25.137  -5.280  29.205  0.00  0.00    -0.000 C 
ATOM     39  C   UNL A   1     -26.232  -4.611  29.784  0.00  0.00    -0.000 C 
ATOM     40  C   UNL A   1     -26.155  -3.232  30.065  0.00  0.00    -0.004 C 
ENDBRANCH  34  35
BRANCH  34  41
ATOM     41  C   UNL A   1     -25.387  -0.679  31.571  0.00  0.00    +0.079 C 
ATOM     42  C   UNL A   1     -25.189   0.773  32.028  0.00  0.00    +0.019 C 
ATOM     43  C   UNL A   1     -25.336   0.684  33.544  0.00  0.00    +0.020 C 
ATOM     44  C   UNL A   1     -24.829  -0.715  33.905  0.00  0.00    +0.089 C 
ATOM     45  N   UNL A   1     -24.758  -1.481  32.646  0.00  0.00    -0.219 NA
ENDBRANCH  34  41
ENDBRANCH  26  34
TORSDOF 4
