MODEL 764
MODEL 1
REMARK VINA RESULT:    -4.636      0.000      0.000
REMARK INTER + INTRA:          -4.636
REMARK INTER:                  -4.636
REMARK INTRA:                   0.000
REMARK UNBOUND:                 0.000
REMARK  Name = No_764-gen_results/8p0m/2024-11-27-11-27-31/
REMARK  0 active torsions:
REMARK  status: ('A' for Active; 'I' for Inactive)
REMARK                            x       y       z     vdW  Elec       q    Type
REMARK                         _______ _______ _______ _____ _____    ______ ____
ROOT
ATOM      1  C   UNL A   1      -9.465  -9.167  20.291  0.00  0.00    +0.030 A 
ATOM      2  C   UNL A   1     -10.135  -9.181  19.478  0.00  0.00    +0.002 A 
ATOM      3  C   UNL A   1      -8.198  -9.857  20.016  0.00  0.00    +0.140 A 
ATOM      4  C   UNL A   1      -8.003 -10.583  18.915  0.00  0.00    +0.030 A 
ATOM      5  C   UNL A   1     -10.154  -9.897  18.226  0.00  0.00    +0.000 A 
ATOM      6  C   UNL A   1      -8.980 -10.552  18.000  0.00  0.00    +0.002 A 
ATOM      7  F   UNL A   1      -7.270  -9.788  21.026  0.00  0.00    -0.204 F 
ENDROOT
TORSDOF 0
ENDMDL
ENDMDL
