REMARK  Name = outputs/IAG933/test6/raw/output_765_IAG933_linker_design_.xyz
REMARK  17 active torsions:
REMARK  status: ('A' for Active; 'I' for Inactive)
REMARK    1  A    between atoms: C_1  and  C_2
REMARK    2  A    between atoms: C_1  and  C_8
REMARK    3  A    between atoms: C_1  and  C_44
REMARK    4  A    between atoms: C_13  and  C_40
REMARK    5  A    between atoms: C_14  and  C_15
REMARK    6  A    between atoms: C_21  and  O_22
REMARK    7  A    between atoms: O_22  and  C_23
REMARK    8  A    between atoms: C_23  and  C_24
REMARK    9  A    between atoms: C_29  and  C_37
REMARK   10  A    between atoms: C_29  and  C_43
REMARK   11  A    between atoms: C_33  and  C_44
REMARK   12  A    between atoms: C_33  and  C_46
REMARK   13  A    between atoms: O_34  and  C_43
REMARK   14  A    between atoms: O_34  and  C_44
REMARK   15  A    between atoms: C_37  and  C_39
REMARK   16  A    between atoms: C_37  and  C_42
REMARK   17  A    between atoms: C_39  and  C_45
REMARK                            x       y       z     vdW  Elec       q    Type
REMARK                         _______ _______ _______ _____ _____    ______ ____
ROOT
ATOM      1  C   UNL A   1     -24.865  -0.093  29.004  0.00  0.00    +0.204 C 
ENDROOT
BRANCH   1   3
ATOM      2  O   UNL A   1     -22.442  -0.028  29.342  0.00  0.00    -0.219 OA
ATOM      3  C   UNL A   1     -23.500   0.377  28.655  0.00  0.00    +0.192 C 
BRANCH   3   7
ATOM      4  C   UNL A   1     -21.402   1.714  27.669  0.00  0.00    +0.003 C 
ATOM      5  C   UNL A   1     -23.429   1.602  26.251  0.00  0.00    +0.007 C 
ATOM      6  C   UNL A   1     -24.554   1.438  27.182  0.00  0.00    +0.028 C 
ATOM      7  C   UNL A   1     -23.045   1.193  27.637  0.00  0.00    +0.036 C 
BRANCH   6   8
ATOM      8  C   UNL A   1     -25.688   1.614  26.461  0.00  0.00    +0.016 C 
ATOM      9  C   UNL A   1     -26.250   2.920  26.395  0.00  0.00    +0.073 C 
ATOM     10  C   UNL A   1     -27.438   3.091  25.645  0.00  0.00    +0.106 C 
ATOM     11  N   UNL A   1     -28.075   2.089  25.003  0.00  0.00    -0.208 NA
ATOM     12  C   UNL A   1     -27.543   0.849  25.079  0.00  0.00    +0.253 C 
ATOM     13  C   UNL A   1     -26.354   0.576  25.777  0.00  0.00    +0.189 C 
ATOM     14  F   UNL A   1     -25.860  -0.681  25.795  0.00  0.00    -0.200 F 
BRANCH   9  15
ATOM     15  C   UNL A   1     -25.642   4.093  27.123  0.00  0.00    +0.266 C 
ATOM     16  N   UNL A   1     -25.614   5.252  26.449  0.00  0.00    -0.200 NA
ATOM     17  C   UNL A   1     -25.026   6.479  26.963  0.00  0.00    +0.139 C 
ATOM     18  O   UNL A   1     -25.143   3.966  28.243  0.00  0.00    -0.268 OA
ENDBRANCH   9  15
BRANCH  12  19
ATOM     19  O   UNL A   1     -28.193  -0.208  24.477  0.00  0.00    -0.456 OA
BRANCH  19  20
ATOM     20  C   UNL A   1     -29.460   0.005  23.866  0.00  0.00    +0.243 C 
BRANCH  20  21
ATOM     21  C   UNL A   1     -30.065  -1.377  23.573  0.00  0.00    +0.229 C 
ATOM     22  O   UNL A   1     -30.729  -1.878  24.721  0.00  0.00    -0.216 OA
ENDBRANCH  20  21
ENDBRANCH  19  20
ENDBRANCH  12  19
ENDBRANCH   6   8
ENDBRANCH   3   7
ENDBRANCH   1   3
BRANCH   1  23
ATOM     23  C   UNL A   1     -24.855  -1.012  30.143  0.00  0.00    +0.081 C 
BRANCH  23  24
ATOM     24  C   UNL A   1     -24.973  -2.505  29.788  0.00  0.00    -0.018 C 
ATOM     25  C   UNL A   1     -23.906  -3.173  29.146  0.00  0.00    -0.004 C 
ATOM     26  C   UNL A   1     -23.989  -4.549  28.853  0.00  0.00    -0.000 C 
ATOM     27  C   UNL A   1     -25.137  -5.280  29.205  0.00  0.00    -0.000 C 
ATOM     28  C   UNL A   1     -26.232  -4.611  29.784  0.00  0.00    -0.000 C 
ATOM     29  C   UNL A   1     -26.155  -3.232  30.065  0.00  0.00    -0.004 C 
ENDBRANCH  23  24
BRANCH  23  30
ATOM     30  C   UNL A   1     -25.387  -0.679  31.571  0.00  0.00    +0.080 C 
ATOM     31  C   UNL A   1     -25.189   0.773  32.028  0.00  0.00    +0.019 C 
ATOM     32  C   UNL A   1     -25.336   0.684  33.544  0.00  0.00    +0.020 C 
ATOM     33  C   UNL A   1     -24.829  -0.715  33.905  0.00  0.00    +0.089 C 
ATOM     34  N   UNL A   1     -24.758  -1.481  32.646  0.00  0.00    -0.219 NA
ENDBRANCH  23  30
ENDBRANCH   1  23
BRANCH   1  35
ATOM     35  O   UNL A   1     -26.241  -0.309  28.453  0.00  0.00    -0.449 OA
BRANCH  35  37
ATOM     36  O   UNL A   1     -28.464  -0.515  28.667  0.00  0.00    -0.250 OA
ATOM     37  C   UNL A   1     -27.544   0.221  28.848  0.00  0.00    +0.317 C 
BRANCH  37  38
ATOM     38  C   UNL A   1     -27.654   1.584  29.460  0.00  0.00    +0.110 C 
BRANCH  38  39
ATOM     39  C   UNL A   1     -29.094   1.989  29.873  0.00  0.00    +0.022 C 
BRANCH  39  42
ATOM     40  C   UNL A   1     -31.124   3.556  29.755  0.00  0.00    +0.000 C 
ATOM     41  C   UNL A   1     -30.474   2.722  27.966  0.00  0.00    +0.000 C 
ATOM     42  C   UNL A   1     -29.812   3.053  29.296  0.00  0.00    +0.001 C 
ENDBRANCH  39  42
BRANCH  39  43
ATOM     43  C   UNL A   1     -29.359   1.599  31.271  0.00  0.00    +0.115 C 
BRANCH  43  46
ATOM     44  O   UNL A   1     -28.051   3.468  31.814  0.00  0.00    -0.246 OA
ATOM     45  O   UNL A   1     -29.038   2.425  33.427  0.00  0.00    -0.246 OA
ATOM     46  C   UNL A   1     -28.787   2.599  32.221  0.00  0.00    +0.365 C 
ENDBRANCH  43  46
ENDBRANCH  39  43
ENDBRANCH  38  39
ENDBRANCH  37  38
ENDBRANCH  35  37
ENDBRANCH   1  35
TORSDOF 17
