REMARK  Name = outputs/IAG933/test6/raw/output_7656_IAG933_linker_design_.xyz
REMARK  12 active torsions:
REMARK  status: ('A' for Active; 'I' for Inactive)
REMARK    1  A    between atoms: C_1  and  C_2
REMARK    2  A    between atoms: C_1  and  C_8
REMARK    3  A    between atoms: C_1  and  N_29
REMARK    4  A    between atoms: C_13  and  C_30
REMARK    5  A    between atoms: C_14  and  C_15
REMARK    6  A    between atoms: C_15  and  O_18
REMARK    7  A    between atoms: O_18  and  C_37
REMARK    8  A    between atoms: C_21  and  O_22
REMARK    9  A    between atoms: O_22  and  C_23
REMARK   10  A    between atoms: C_23  and  C_24
REMARK   11  A    between atoms: C_31  and  N_40
REMARK   12  A    between atoms: C_37  and  C_39
REMARK                            x       y       z     vdW  Elec       q    Type
REMARK                         _______ _______ _______ _____ _____    ______ ____
ROOT
ATOM      1  C   UNL A   1     -22.087   0.742  28.669  0.00  0.00    +0.124 C 
ATOM      2  N   UNL A   1     -23.448  -0.553  30.048  0.00  0.00    -0.029 NA
ATOM      3  C   UNL A   1     -24.436   1.261  27.172  0.00  0.00    +0.215 C 
ATOM      4  C   UNL A   1     -23.108   1.698  26.713  0.00  0.00    +0.172 C 
ATOM      5  C   UNL A   1     -22.039   1.475  27.497  0.00  0.00    +0.169 C 
ATOM      6  F   UNL A   1     -20.851   2.009  27.209  0.00  0.00    -0.202 F 
ATOM      7  C   UNL A   1     -23.385   0.233  28.988  0.00  0.00    +0.364 C 
ATOM      8  N   UNL A   1     -24.508   0.516  28.267  0.00  0.00    -0.035 NA
ENDROOT
BRANCH   3   9
ATOM      9  C   UNL A   1     -25.688   1.614  26.461  0.00  0.00    +0.083 C 
ATOM     10  C   UNL A   1     -26.250   2.920  26.395  0.00  0.00    +0.078 C 
ATOM     11  C   UNL A   1     -27.438   3.091  25.645  0.00  0.00    +0.107 C 
ATOM     12  N   UNL A   1     -28.075   2.089  25.003  0.00  0.00    -0.208 NA
ATOM     13  C   UNL A   1     -27.543   0.849  25.079  0.00  0.00    +0.253 C 
ATOM     14  C   UNL A   1     -26.354   0.576  25.777  0.00  0.00    +0.197 C 
ATOM     15  F   UNL A   1     -25.860  -0.681  25.795  0.00  0.00    -0.199 F 
BRANCH  10  16
ATOM     16  C   UNL A   1     -25.642   4.093  27.123  0.00  0.00    +0.222 C 
ATOM     17  N   UNL A   1     -25.614   5.252  26.449  0.00  0.00    -0.236 NA
ATOM     18  C   UNL A   1     -25.026   6.479  26.963  0.00  0.00    +0.155 C 
BRANCH  16  19
ATOM     19  O   UNL A   1     -25.143   3.966  28.243  0.00  0.00    -0.460 OA
BRANCH  19  20
ATOM     20  C   UNL A   1     -25.489   3.762  29.488  0.00  0.00    +0.207 C 
BRANCH  20  23
ATOM     21  C   UNL A   1     -27.653   3.461  30.446  0.00  0.00    +0.004 C 
ATOM     22  C   UNL A   1     -25.837   4.926  31.373  0.00  0.00    +0.004 C 
ATOM     23  C   UNL A   1     -26.195   3.622  30.713  0.00  0.00    +0.044 C 
ENDBRANCH  20  23
ENDBRANCH  19  20
ENDBRANCH  16  19
ENDBRANCH  10  16
BRANCH  13  24
ATOM     24  O   UNL A   1     -28.193  -0.208  24.477  0.00  0.00    -0.456 OA
BRANCH  24  25
ATOM     25  C   UNL A   1     -29.460   0.005  23.866  0.00  0.00    +0.243 C 
BRANCH  25  26
ATOM     26  C   UNL A   1     -30.065  -1.377  23.573  0.00  0.00    +0.229 C 
ATOM     27  O   UNL A   1     -30.729  -1.878  24.721  0.00  0.00    -0.216 OA
ENDBRANCH  25  26
ENDBRANCH  24  25
ENDBRANCH  13  24
ENDBRANCH   3   9
BRANCH   4  28
ATOM     28  N   UNL A   1     -22.999   2.268  25.500  0.00  0.00    -0.050 NA
ATOM     29  F   UNL A   1     -21.962   2.391  24.910  0.00  0.00    -0.086 F 
ENDBRANCH   4  28
BRANCH   2  30
ATOM     30  C   UNL A   1     -24.855  -1.012  30.143  0.00  0.00    +0.243 C 
BRANCH  30  31
ATOM     31  C   UNL A   1     -24.973  -2.505  29.788  0.00  0.00    +0.025 C 
ATOM     32  C   UNL A   1     -23.906  -3.173  29.146  0.00  0.00    -0.000 C 
ATOM     33  C   UNL A   1     -23.989  -4.549  28.853  0.00  0.00    -0.000 C 
ATOM     34  C   UNL A   1     -25.137  -5.280  29.205  0.00  0.00    -0.000 C 
ATOM     35  C   UNL A   1     -26.232  -4.611  29.784  0.00  0.00    -0.000 C 
ATOM     36  C   UNL A   1     -26.155  -3.232  30.065  0.00  0.00    -0.000 C 
ENDBRANCH  30  31
BRANCH  30  37
ATOM     37  C   UNL A   1     -25.387  -0.679  31.571  0.00  0.00    +0.124 C 
ATOM     38  C   UNL A   1     -25.189   0.773  32.028  0.00  0.00    +0.024 C 
ATOM     39  C   UNL A   1     -25.336   0.684  33.544  0.00  0.00    +0.020 C 
ATOM     40  C   UNL A   1     -24.829  -0.715  33.905  0.00  0.00    +0.089 C 
ATOM     41  N   UNL A   1     -24.758  -1.481  32.646  0.00  0.00    -0.215 NA
ENDBRANCH  30  37
ENDBRANCH   2  30
TORSDOF 12
