REMARK  Name = outputs/IAG933/test6/raw/output_7659_IAG933_linker_design_.xyz
REMARK  14 active torsions:
REMARK  status: ('A' for Active; 'I' for Inactive)
REMARK    1  A    between atoms: C_1  and  C_2
REMARK    2  A    between atoms: C_1  and  C_8
REMARK    3  A    between atoms: C_1  and  C_37
REMARK    4  A    between atoms: C_13  and  C_38
REMARK    5  A    between atoms: C_14  and  C_15
REMARK    6  A    between atoms: C_21  and  O_22
REMARK    7  A    between atoms: O_22  and  C_23
REMARK    8  A    between atoms: C_23  and  C_24
REMARK    9  A    between atoms: C_28  and  C_29
REMARK   10  A    between atoms: C_29  and  C_37
REMARK   11  A    between atoms: C_29  and  C_38
REMARK   12  A    between atoms: C_32  and  N_33
REMARK   13  A    between atoms: C_32  and  C_37
REMARK   14  A    between atoms: O_41  and  C_42
REMARK                            x       y       z     vdW  Elec       q    Type
REMARK                         _______ _______ _______ _____ _____    ______ ____
ROOT
ATOM      1  C   UNL A   1     -24.110   0.789  28.101  0.00  0.00    +0.032 C 
ENDROOT
BRANCH   1   2
ATOM      2  C   UNL A   1     -22.845   1.513  28.626  0.00  0.00    +0.145 C 
ATOM      3  C   UNL A   1     -21.704   1.540  27.562  0.00  0.00    +0.172 C 
ATOM      4  C   UNL A   1     -21.815  -0.416  29.479  0.00  0.00    +0.174 C 
ATOM      5  O   UNL A   1     -22.492   0.793  29.848  0.00  0.00    -0.351 OA
ATOM      6  C   UNL A   1     -20.566  -0.063  28.684  0.00  0.00    +0.174 C 
ATOM      7  O   UNL A   1     -20.409   1.028  27.879  0.00  0.00    -0.348 OA
ENDBRANCH   1   2
BRANCH   1   8
ATOM      8  C   UNL A   1     -25.215   0.168  29.192  0.00  0.00    +0.030 C 
BRANCH   8   9
ATOM      9  C   UNL A   1     -24.855  -1.012  30.143  0.00  0.00    +0.040 C 
BRANCH   9  10
ATOM     10  C   UNL A   1     -24.973  -2.505  29.788  0.00  0.00    -0.021 C 
ATOM     11  C   UNL A   1     -23.906  -3.173  29.146  0.00  0.00    -0.004 C 
ATOM     12  C   UNL A   1     -23.989  -4.549  28.853  0.00  0.00    -0.000 C 
ATOM     13  C   UNL A   1     -25.137  -5.280  29.205  0.00  0.00    -0.000 C 
ATOM     14  C   UNL A   1     -26.232  -4.611  29.784  0.00  0.00    -0.000 C 
ATOM     15  C   UNL A   1     -26.155  -3.232  30.065  0.00  0.00    -0.004 C 
ENDBRANCH   9  10
BRANCH   9  16
ATOM     16  C   UNL A   1     -25.387  -0.679  31.571  0.00  0.00    +0.077 C 
ATOM     17  C   UNL A   1     -25.189   0.773  32.028  0.00  0.00    +0.019 C 
ATOM     18  C   UNL A   1     -25.336   0.684  33.544  0.00  0.00    +0.020 C 
ATOM     19  C   UNL A   1     -24.829  -0.715  33.905  0.00  0.00    +0.089 C 
ATOM     20  N   UNL A   1     -24.758  -1.481  32.646  0.00  0.00    -0.219 NA
ENDBRANCH   9  16
ENDBRANCH   8   9
BRANCH   8  21
ATOM     21  C   UNL A   1     -26.596  -0.151  28.680  0.00  0.00    +0.119 C 
BRANCH  21  23
ATOM     22  O   UNL A   1     -28.956   0.023  27.688  0.00  0.00    -0.225 OA
ATOM     23  N   UNL A   1     -27.649   0.300  29.321  0.00  0.00    -0.169 NA
ATOM     24  C   UNL A   1     -28.686   0.714  28.615  0.00  0.00    +0.421 C 
BRANCH  24  26
ATOM     25  C   UNL A   1     -29.116   2.401  30.167  0.00  0.00    +0.257 C 
ATOM     26  O   UNL A   1     -29.300   1.862  28.882  0.00  0.00    -0.429 OA
ENDBRANCH  24  26
ENDBRANCH  21  23
ENDBRANCH   8  21
ENDBRANCH   1   8
BRANCH   1  27
ATOM     27  C   UNL A   1     -24.267   1.390  26.651  0.00  0.00    +0.010 C 
BRANCH  27  28
ATOM     28  C   UNL A   1     -25.688   1.614  26.461  0.00  0.00    +0.070 C 
ATOM     29  C   UNL A   1     -26.250   2.920  26.395  0.00  0.00    +0.055 C 
ATOM     30  C   UNL A   1     -27.438   3.091  25.645  0.00  0.00    +0.102 C 
ATOM     31  N   UNL A   1     -28.075   2.089  25.003  0.00  0.00    -0.212 NA
ATOM     32  C   UNL A   1     -27.543   0.849  25.079  0.00  0.00    +0.234 C 
ATOM     33  C   UNL A   1     -26.354   0.576  25.777  0.00  0.00    +0.240 C 
ATOM     34  F   UNL A   1     -25.860  -0.681  25.795  0.00  0.00    -0.227 F 
BRANCH  29  35
ATOM     35  C   UNL A   1     -25.642   4.093  27.123  0.00  0.00    +0.262 C 
ATOM     36  N   UNL A   1     -25.614   5.252  26.449  0.00  0.00    -0.200 NA
ATOM     37  C   UNL A   1     -25.026   6.479  26.963  0.00  0.00    +0.139 C 
ATOM     38  O   UNL A   1     -25.143   3.966  28.243  0.00  0.00    -0.269 OA
ENDBRANCH  29  35
BRANCH  32  39
ATOM     39  O   UNL A   1     -28.193  -0.208  24.477  0.00  0.00    -0.459 OA
BRANCH  39  40
ATOM     40  C   UNL A   1     -29.460   0.005  23.866  0.00  0.00    +0.242 C 
BRANCH  40  41
ATOM     41  C   UNL A   1     -30.065  -1.377  23.573  0.00  0.00    +0.229 C 
ATOM     42  O   UNL A   1     -30.729  -1.878  24.721  0.00  0.00    -0.216 OA
ENDBRANCH  40  41
ENDBRANCH  39  40
ENDBRANCH  32  39
ENDBRANCH  27  28
ENDBRANCH   1  27
TORSDOF 14
