MODEL 765
MODEL 1
REMARK VINA RESULT:    -5.403      0.000      0.000
REMARK INTER + INTRA:          -6.593
REMARK INTER:                  -6.350
REMARK INTRA:                  -0.243
REMARK UNBOUND:                -0.243
REMARK  Name = No_765-gen_results/8p0m/2024-11-27-11-27-31/
REMARK  3 active torsions:
REMARK  status: ('A' for Active; 'I' for Inactive)
REMARK    1  A    between atoms: C_2  and  O_7
REMARK    2  A    between atoms: O_7  and  C_8
REMARK    3  A    between atoms: C_9  and  C_10
REMARK                            x       y       z     vdW  Elec       q    Type
REMARK                         _______ _______ _______ _____ _____    ______ ____
ROOT
ATOM      1  C   UNL A   1     -24.135  -4.262  28.874  0.00  0.00    +0.037 A 
ATOM      2  C   UNL A   1     -24.204  -3.264  29.208  0.00  0.00    +0.145 A 
ATOM      3  C   UNL A   1     -25.291  -5.129  29.148  0.00  0.00    +0.003 A 
ATOM      4  C   UNL A   1     -26.486  -4.590  29.709  0.00  0.00    +0.000 A 
ATOM      5  C   UNL A   1     -25.327  -2.455  29.753  0.00  0.00    +0.037 A 
ATOM      6  C   UNL A   1     -26.415  -3.227  30.030  0.00  0.00    +0.003 A 
ENDROOT
BRANCH   2   7
ATOM      7  O   UNL A   1     -23.067  -2.387  28.942  0.00  0.00    -0.450 OA
BRANCH   7   8
ATOM      8  C   UNL A   1     -23.290  -1.092  28.657  0.00  0.00    +0.179 C 
ATOM      9  C   UNL A   1     -22.396  -0.291  28.875  0.00  0.00    +0.041 C 
BRANCH   9  10
ATOM     10  C   UNL A   1     -22.608   1.135  28.627  0.00  0.00    +0.003 C 
ATOM     11  C   UNL A   1     -22.210   1.832  27.484  0.00  0.00    +0.000 C 
ENDBRANCH   9  10
ENDBRANCH   7   8
ENDBRANCH   2   7
TORSDOF 3
ENDMDL
ENDMDL
