REMARK  Name = No_766-gen_results/8p0m/2024-11-27-11-27-31/
REMARK  2 active torsions:
REMARK  status: ('A' for Active; 'I' for Inactive)
REMARK    1  A    between atoms: C_5  and  C_11
REMARK    2  A    between atoms: C_16  and  C_17
REMARK                            x       y       z     vdW  Elec       q    Type
REMARK                         _______ _______ _______ _____ _____    ______ ____
ROOT
ATOM      1  C   UNL A   1     -28.016  -0.814  28.878  0.00  0.00    +0.000 C 
ATOM      2  C   UNL A   1     -27.064  -0.119  28.608  0.00  0.00    +0.000 C 
ATOM      3  C   UNL A   1     -26.876   1.133  28.913  0.00  0.00    +0.001 C 
ATOM      4  C   UNL A   1     -25.688   1.952  28.567  0.00  0.00    +0.011 C 
ATOM      5  C   UNL A   1     -24.639   1.283  27.875  0.00  0.00    +0.103 C 
ATOM      6  C   UNL A   1     -24.807  -0.051  27.604  0.00  0.00    +0.011 C 
ATOM      7  C   UNL A   1     -25.902  -0.767  27.951  0.00  0.00    +0.001 C 
ATOM      8  C   UNL A   1     -28.645  -0.528  30.243  0.00  0.00    +0.000 C 
ATOM      9  C   UNL A   1     -28.912   0.796  30.435  0.00  0.00    +0.000 C 
ATOM     10  C   UNL A   1     -27.644   1.629  30.203  0.00  0.00    +0.000 C 
ATOM     11  C   UNL A   1     -29.409   1.202  31.849  0.00  0.00    +0.000 C 
ATOM     12  C   UNL A   1     -29.595   1.254  29.252  0.00  0.00    +0.000 C 
ATOM     13  C   UNL A   1     -30.766   1.927  29.350  0.00  0.00    +0.000 C 
ATOM     14  C   UNL A   1     -30.590   1.872  31.917  0.00  0.00    +0.000 C 
ATOM     15  C   UNL A   1     -31.131   2.222  30.793  0.00  0.00    +0.000 C 
ENDROOT
BRANCH   5  16
ATOM     16  C   UNL A   1     -23.471   1.978  27.367  0.00  0.00    +0.364 C 
ATOM     17  O   UNL A   1     -23.418   2.754  26.519  0.00  0.00    -0.246 OA
ATOM     18  O   UNL A   1     -22.386   2.005  28.303  0.00  0.00    -0.246 OA
ENDBRANCH   5  16
BRANCH  13  19
ATOM     19  C   UNL A   1     -31.278   2.464  28.603  0.00  0.00    +0.000 C 
ATOM     20  C   UNL A   1     -32.528   3.124  28.641  0.00  0.00    +0.000 C 
ENDBRANCH  13  19
TORSDOF 2
