REMARK  Name = outputs/IAG933/test6/raw/output_7661_IAG933_linker_design_.xyz
REMARK  16 active torsions:
REMARK  status: ('A' for Active; 'I' for Inactive)
REMARK    1  A    between atoms: C_1  and  C_2
REMARK    2  A    between atoms: C_1  and  C_8
REMARK    3  A    between atoms: C_9  and  O_30
REMARK    4  A    between atoms: C_13  and  O_32
REMARK    5  A    between atoms: C_14  and  C_15
REMARK    6  A    between atoms: C_21  and  O_22
REMARK    7  A    between atoms: O_22  and  C_23
REMARK    8  A    between atoms: C_23  and  C_24
REMARK    9  A    between atoms: O_30  and  C_31
REMARK   10  A    between atoms: C_31  and  C_38
REMARK   11  A    between atoms: C_31  and  C_40
REMARK   12  A    between atoms: O_32  and  C_42
REMARK   13  A    between atoms: C_35  and  N_39
REMARK   14  A    between atoms: C_35  and  C_42
REMARK   15  A    between atoms: C_38  and  C_41
REMARK   16  A    between atoms: N_39  and  C_41
REMARK                            x       y       z     vdW  Elec       q    Type
REMARK                         _______ _______ _______ _____ _____    ______ ____
ROOT
ATOM      1  C   UNL A   1     -24.480   2.826  30.904  0.00  0.00    +0.050 C 
ENDROOT
BRANCH   1   2
ATOM      2  C   UNL A   1     -25.512   3.200  31.522  0.00  0.00    +0.131 C 
BRANCH   2   8
ATOM      3  C   UNL A   1     -24.898   5.312  32.641  0.00  0.00    +0.020 C 
ATOM      4  C   UNL A   1     -27.815   5.278  30.285  0.00  0.00    +0.090 C 
ATOM      5  C   UNL A   1     -25.992   6.822  31.163  0.00  0.00    +0.072 C 
ATOM      6  N   UNL A   1     -26.794   5.619  31.270  0.00  0.00    -0.271 NA
ATOM      7  C   UNL A   1     -25.217   6.780  32.479  0.00  0.00    +0.019 C 
ATOM      8  C   UNL A   1     -26.104   4.561  32.050  0.00  0.00    +0.085 C 
ENDBRANCH   2   8
BRANCH   2   9
ATOM      9  O   UNL A   1     -25.896   1.963  31.655  0.00  0.00    -0.356 OA
BRANCH   9  11
ATOM     10  C   UNL A   1     -25.387  -0.679  31.571  0.00  0.00    +0.104 C 
ATOM     11  C   UNL A   1     -25.189   0.773  32.028  0.00  0.00    +0.133 C 
ATOM     12  C   UNL A   1     -25.336   0.684  33.544  0.00  0.00    +0.050 C 
ATOM     13  C   UNL A   1     -24.829  -0.715  33.905  0.00  0.00    +0.091 C 
ATOM     14  N   UNL A   1     -24.758  -1.481  32.646  0.00  0.00    -0.217 NA
BRANCH  10  15
ATOM     15  C   UNL A   1     -24.855  -1.012  30.143  0.00  0.00    +0.046 C 
BRANCH  15  16
ATOM     16  C   UNL A   1     -24.973  -2.505  29.788  0.00  0.00    -0.021 C 
ATOM     17  C   UNL A   1     -23.906  -3.173  29.146  0.00  0.00    -0.004 C 
ATOM     18  C   UNL A   1     -23.989  -4.549  28.853  0.00  0.00    -0.000 C 
ATOM     19  C   UNL A   1     -25.137  -5.280  29.205  0.00  0.00    -0.000 C 
ATOM     20  C   UNL A   1     -26.232  -4.611  29.784  0.00  0.00    -0.000 C 
ATOM     21  C   UNL A   1     -26.155  -3.232  30.065  0.00  0.00    -0.004 C 
ENDBRANCH  15  16
ENDBRANCH  10  15
ENDBRANCH   9  11
ENDBRANCH   2   9
ENDBRANCH   1   2
BRANCH   1  22
ATOM     22  C   UNL A   1     -23.827   2.351  29.858  0.00  0.00    +0.091 C 
BRANCH  22  23
ATOM     23  N   UNL A   1     -23.224   1.842  28.691  0.00  0.00    -0.216 NA
BRANCH  23  25
ATOM     24  C   UNL A   1     -21.028   1.815  27.618  0.00  0.00    +0.023 C 
ATOM     25  C   UNL A   1     -22.461   1.355  27.908  0.00  0.00    +0.116 C 
BRANCH  25  26
ATOM     26  C   UNL A   1     -23.361   1.495  26.612  0.00  0.00    +0.223 C 
BRANCH  26  27
ATOM     27  O   UNL A   1     -24.529   1.372  27.039  0.00  0.00    -0.471 OA
BRANCH  27  28
ATOM     28  C   UNL A   1     -25.688   1.614  26.461  0.00  0.00    +0.176 C 
ATOM     29  C   UNL A   1     -26.250   2.920  26.395  0.00  0.00    +0.111 C 
ATOM     30  C   UNL A   1     -27.438   3.091  25.645  0.00  0.00    +0.110 C 
ATOM     31  N   UNL A   1     -28.075   2.089  25.003  0.00  0.00    -0.208 NA
ATOM     32  C   UNL A   1     -27.543   0.849  25.079  0.00  0.00    +0.256 C 
ATOM     33  C   UNL A   1     -26.354   0.576  25.777  0.00  0.00    +0.227 C 
ATOM     34  F   UNL A   1     -25.860  -0.681  25.795  0.00  0.00    -0.196 F 
BRANCH  29  35
ATOM     35  C   UNL A   1     -25.642   4.093  27.123  0.00  0.00    +0.269 C 
ATOM     36  N   UNL A   1     -25.614   5.252  26.449  0.00  0.00    -0.200 NA
ATOM     37  C   UNL A   1     -25.026   6.479  26.963  0.00  0.00    +0.139 C 
ATOM     38  O   UNL A   1     -25.143   3.966  28.243  0.00  0.00    -0.268 OA
ENDBRANCH  29  35
BRANCH  32  39
ATOM     39  O   UNL A   1     -28.193  -0.208  24.477  0.00  0.00    -0.456 OA
BRANCH  39  40
ATOM     40  C   UNL A   1     -29.460   0.005  23.866  0.00  0.00    +0.243 C 
BRANCH  40  41
ATOM     41  C   UNL A   1     -30.065  -1.377  23.573  0.00  0.00    +0.229 C 
ATOM     42  O   UNL A   1     -30.729  -1.878  24.721  0.00  0.00    -0.216 OA
ENDBRANCH  40  41
ENDBRANCH  39  40
ENDBRANCH  32  39
ENDBRANCH  27  28
ENDBRANCH  26  27
ENDBRANCH  25  26
ENDBRANCH  23  25
ENDBRANCH  22  23
ENDBRANCH   1  22
TORSDOF 16
