REMARK  Name = outputs/IAG933/test6/raw/output_7669_IAG933_linker_design_.xyz
REMARK  12 active torsions:
REMARK  status: ('A' for Active; 'I' for Inactive)
REMARK    1  A    between atoms: C_1  and  C_2
REMARK    2  A    between atoms: C_1  and  C_8
REMARK    3  A    between atoms: C_1  and  C_40
REMARK    4  A    between atoms: C_13  and  C_28
REMARK    5  A    between atoms: C_14  and  C_15
REMARK    6  A    between atoms: C_21  and  O_22
REMARK    7  A    between atoms: O_22  and  C_23
REMARK    8  A    between atoms: C_23  and  C_24
REMARK    9  A    between atoms: C_31  and  C_36
REMARK   10  A    between atoms: C_32  and  N_33
REMARK   11  A    between atoms: C_32  and  C_35
REMARK   12  A    between atoms: O_34  and  C_37
REMARK                            x       y       z     vdW  Elec       q    Type
REMARK                         _______ _______ _______ _____ _____    ______ ____
ROOT
ATOM      1  C   UNL A   1     -24.447   1.250  27.456  0.00  0.00    +0.159 C 
ATOM      2  O   UNL A   1     -20.881   1.010  28.127  0.00  0.00    -0.284 OA
ATOM      3  N   UNL A   1     -24.815   0.635  28.633  0.00  0.00    -0.298 N 
ATOM      4  C   UNL A   1     -22.872   1.391  27.260  0.00  0.00    +0.177 C 
ATOM      5  C   UNL A   1     -22.153   0.752  28.303  0.00  0.00    +0.228 C 
ATOM      6  C   UNL A   1     -24.129  -0.044  29.323  0.00  0.00    +0.034 C 
ATOM      7  C   UNL A   1     -22.650  -0.022  29.237  0.00  0.00    +0.055 C 
ENDROOT
BRANCH   1   8
ATOM      8  C   UNL A   1     -25.688   1.614  26.461  0.00  0.00    +0.041 C 
ATOM      9  C   UNL A   1     -26.250   2.920  26.395  0.00  0.00    +0.074 C 
ATOM     10  C   UNL A   1     -27.438   3.091  25.645  0.00  0.00    +0.106 C 
ATOM     11  N   UNL A   1     -28.075   2.089  25.003  0.00  0.00    -0.208 NA
ATOM     12  C   UNL A   1     -27.543   0.849  25.079  0.00  0.00    +0.253 C 
ATOM     13  C   UNL A   1     -26.354   0.576  25.777  0.00  0.00    +0.191 C 
ATOM     14  F   UNL A   1     -25.860  -0.681  25.795  0.00  0.00    -0.200 F 
BRANCH   9  15
ATOM     15  C   UNL A   1     -25.642   4.093  27.123  0.00  0.00    +0.266 C 
ATOM     16  N   UNL A   1     -25.614   5.252  26.449  0.00  0.00    -0.200 NA
ATOM     17  C   UNL A   1     -25.026   6.479  26.963  0.00  0.00    +0.139 C 
ATOM     18  O   UNL A   1     -25.143   3.966  28.243  0.00  0.00    -0.268 OA
ENDBRANCH   9  15
BRANCH  12  19
ATOM     19  O   UNL A   1     -28.193  -0.208  24.477  0.00  0.00    -0.456 OA
BRANCH  19  20
ATOM     20  C   UNL A   1     -29.460   0.005  23.866  0.00  0.00    +0.243 C 
BRANCH  20  21
ATOM     21  C   UNL A   1     -30.065  -1.377  23.573  0.00  0.00    +0.229 C 
ATOM     22  O   UNL A   1     -30.729  -1.878  24.721  0.00  0.00    -0.216 OA
ENDBRANCH  20  21
ENDBRANCH  19  20
ENDBRANCH  12  19
ENDBRANCH   1   8
BRANCH   4  24
ATOM     23  C   UNL A   1     -22.914   2.641  25.142  0.00  0.00    +0.252 C 
ATOM     24  O   UNL A   1     -22.270   1.956  26.205  0.00  0.00    -0.470 OA
ENDBRANCH   4  24
BRANCH   6  25
ATOM     25  C   UNL A   1     -24.855  -1.012  30.143  0.00  0.00    +0.074 C 
BRANCH  25  26
ATOM     26  C   UNL A   1     -24.973  -2.505  29.788  0.00  0.00    -0.016 C 
ATOM     27  C   UNL A   1     -23.906  -3.173  29.146  0.00  0.00    -0.004 C 
ATOM     28  C   UNL A   1     -23.989  -4.549  28.853  0.00  0.00    -0.000 C 
ATOM     29  C   UNL A   1     -25.137  -5.280  29.205  0.00  0.00    -0.000 C 
ATOM     30  C   UNL A   1     -26.232  -4.611  29.784  0.00  0.00    -0.000 C 
ATOM     31  C   UNL A   1     -26.155  -3.232  30.065  0.00  0.00    -0.004 C 
ENDBRANCH  25  26
BRANCH  25  32
ATOM     32  C   UNL A   1     -25.387  -0.679  31.571  0.00  0.00    +0.082 C 
ATOM     33  C   UNL A   1     -25.189   0.773  32.028  0.00  0.00    +0.020 C 
ATOM     34  C   UNL A   1     -25.336   0.684  33.544  0.00  0.00    +0.020 C 
ATOM     35  C   UNL A   1     -24.829  -0.715  33.905  0.00  0.00    +0.089 C 
ATOM     36  N   UNL A   1     -24.758  -1.481  32.646  0.00  0.00    -0.219 NA
ENDBRANCH  25  32
ENDBRANCH   6  25
BRANCH   3  37
ATOM     37  C   UNL A   1     -26.271   0.608  28.780  0.00  0.00    +0.118 C 
BRANCH  37  38
ATOM     38  C   UNL A   1     -27.385   0.261  28.920  0.00  0.00    +0.002 C 
ATOM     39  C   UNL A   1     -28.175  -0.884  29.429  0.00  0.00    +0.083 C 
BRANCH  39  40
ATOM     40  C   UNL A   1     -29.539  -1.008  29.145  0.00  0.00    +0.388 C 
ATOM     41  O   UNL A   1     -29.971  -0.607  28.074  0.00  0.00    -0.241 OA
ATOM     42  O   UNL A   1     -30.283  -1.663  29.990  0.00  0.00    -0.241 OA
ENDBRANCH  39  40
ENDBRANCH  37  38
ENDBRANCH   3  37
TORSDOF 12
