MODEL 766
MODEL 1
REMARK VINA RESULT:    -7.554      0.000      0.000
REMARK INTER + INTRA:          -8.649
REMARK INTER:                  -8.438
REMARK INTRA:                  -0.212
REMARK UNBOUND:                -0.212
REMARK  Name = No_766-gen_results/8p0m/2024-11-27-11-27-31/
REMARK  2 active torsions:
REMARK  status: ('A' for Active; 'I' for Inactive)
REMARK    1  A    between atoms: C_5  and  C_11
REMARK    2  A    between atoms: C_16  and  C_17
REMARK                            x       y       z     vdW  Elec       q    Type
REMARK                         _______ _______ _______ _____ _____    ______ ____
ROOT
ATOM      1  C   UNL A   1     -23.203  -0.639  30.263  0.00  0.00    +0.000 C 
ATOM      2  C   UNL A   1     -23.266  -0.040  29.215  0.00  0.00    +0.000 C 
ATOM      3  C   UNL A   1     -24.073  -0.258  28.216  0.00  0.00    +0.001 C 
ATOM      4  C   UNL A   1     -24.123   0.505  26.945  0.00  0.00    +0.011 C 
ATOM      5  C   UNL A   1     -23.230   1.609  26.835  0.00  0.00    +0.103 C 
ATOM      6  C   UNL A   1     -22.420   1.879  27.908  0.00  0.00    +0.011 C 
ATOM      7  C   UNL A   1     -22.416   1.166  29.058  0.00  0.00    +0.001 C 
ATOM      8  C   UNL A   1     -24.552  -1.122  30.801  0.00  0.00    +0.000 C 
ATOM      9  C   UNL A   1     -25.279  -1.803  29.869  0.00  0.00    +0.000 C 
ATOM     10  C   UNL A   1     -25.440  -0.954  28.601  0.00  0.00    +0.000 C 
ATOM     11  C   UNL A   1     -26.725  -2.199  30.277  0.00  0.00    +0.000 C 
ATOM     12  C   UNL A   1     -24.388  -2.768  29.276  0.00  0.00    +0.000 C 
ATOM     13  C   UNL A   1     -24.742  -4.073  29.194  0.00  0.00    +0.000 C 
ATOM     14  C   UNL A   1     -27.050  -3.516  30.189  0.00  0.00    +0.000 C 
ATOM     15  C   UNL A   1     -26.169  -4.303  29.656  0.00  0.00    +0.000 C 
ENDROOT
BRANCH   5  16
ATOM     16  C   UNL A   1     -23.081   2.373  25.611  0.00  0.00    +0.364 C 
ATOM     17  O   UNL A   1     -22.646   2.026  24.604  0.00  0.00    -0.246 OA
ATOM     18  O   UNL A   1     -23.951   3.511  25.553  0.00  0.00    -0.246 OA
ENDBRANCH   5  16
BRANCH  13  19
ATOM     19  C   UNL A   1     -24.283  -4.843  28.643  0.00  0.00    +0.000 C 
ATOM     20  C   UNL A   1     -24.617  -6.212  28.525  0.00  0.00    +0.000 C 
ENDBRANCH  13  19
TORSDOF 2
ENDMDL
ENDMDL
