REMARK  Name = outputs/IAG933/test6/raw/output_7674_IAG933_linker_design_.xyz
REMARK  11 active torsions:
REMARK  status: ('A' for Active; 'I' for Inactive)
REMARK    1  A    between atoms: C_1  and  C_2
REMARK    2  A    between atoms: C_1  and  C_8
REMARK    3  A    between atoms: C_1  and  C_33
REMARK    4  A    between atoms: C_13  and  C_28
REMARK    5  A    between atoms: C_14  and  C_15
REMARK    6  A    between atoms: C_21  and  O_22
REMARK    7  A    between atoms: O_22  and  C_23
REMARK    8  A    between atoms: C_23  and  C_24
REMARK    9  A    between atoms: N_29  and  C_33
REMARK   10  A    between atoms: C_33  and  N_36
REMARK   11  A    between atoms: C_37  and  C_38
REMARK                            x       y       z     vdW  Elec       q    Type
REMARK                         _______ _______ _______ _____ _____    ______ ____
ROOT
ATOM      1  C   UNL A   1     -25.347   0.052  29.078  0.00  0.00    +0.161 C 
ENDROOT
BRANCH   1   4
ATOM      2  C   UNL A   1     -24.511   1.324  27.163  0.00  0.00    +0.068 C 
ATOM      3  C   UNL A   1     -22.357   1.233  27.596  0.00  0.00    +0.167 C 
ATOM      4  N   UNL A   1     -24.334   0.648  28.413  0.00  0.00    -0.268 N 
ATOM      5  C   UNL A   1     -23.329   1.734  26.730  0.00  0.00    +0.100 C 
ATOM      6  C   UNL A   1     -22.972   0.582  28.639  0.00  0.00    +0.098 C 
ATOM      7 CL   UNL A   1     -22.919   2.460  25.283  0.00  0.00    -0.079 Cl
ATOM      8  F   UNL A   1     -21.046   1.582  27.383  0.00  0.00    -0.202 F 
BRANCH   2   9
ATOM      9  C   UNL A   1     -25.688   1.614  26.461  0.00  0.00    +0.053 C 
ATOM     10  C   UNL A   1     -26.250   2.920  26.395  0.00  0.00    +0.078 C 
ATOM     11  C   UNL A   1     -27.438   3.091  25.645  0.00  0.00    +0.107 C 
ATOM     12  N   UNL A   1     -28.075   2.089  25.003  0.00  0.00    -0.208 NA
ATOM     13  C   UNL A   1     -27.543   0.849  25.079  0.00  0.00    +0.253 C 
ATOM     14  C   UNL A   1     -26.354   0.576  25.777  0.00  0.00    +0.194 C 
ATOM     15  F   UNL A   1     -25.860  -0.681  25.795  0.00  0.00    -0.199 F 
BRANCH  10  16
ATOM     16  C   UNL A   1     -25.642   4.093  27.123  0.00  0.00    +0.267 C 
ATOM     17  N   UNL A   1     -25.614   5.252  26.449  0.00  0.00    -0.200 NA
ATOM     18  C   UNL A   1     -25.026   6.479  26.963  0.00  0.00    +0.139 C 
ATOM     19  O   UNL A   1     -25.143   3.966  28.243  0.00  0.00    -0.268 OA
ENDBRANCH  10  16
BRANCH  13  20
ATOM     20  O   UNL A   1     -28.193  -0.208  24.477  0.00  0.00    -0.456 OA
BRANCH  20  21
ATOM     21  C   UNL A   1     -29.460   0.005  23.866  0.00  0.00    +0.243 C 
BRANCH  21  22
ATOM     22  C   UNL A   1     -30.065  -1.377  23.573  0.00  0.00    +0.229 C 
ATOM     23  O   UNL A   1     -30.729  -1.878  24.721  0.00  0.00    -0.216 OA
ENDBRANCH  21  22
ENDBRANCH  20  21
ENDBRANCH  13  20
ENDBRANCH   2   9
ENDBRANCH   1   4
BRANCH   1  24
ATOM     24  N   UNL A   1     -26.712   0.463  28.859  0.00  0.00    -0.263 N 
ATOM     25  C   UNL A   1     -28.933   0.358  28.428  0.00  0.00    +0.100 C 
ATOM     26  O   UNL A   1     -27.868  -1.483  29.160  0.00  0.00    -0.275 OA
ATOM     27  C   UNL A   1     -27.773  -0.326  28.755  0.00  0.00    +0.228 C 
ATOM     28  C   UNL A   1     -27.149   1.871  29.261  0.00  0.00    +0.109 C 
ATOM     29  C   UNL A   1     -28.699   1.716  29.470  0.00  0.00    +0.106 C 
ATOM     30  S   UNL A   1     -30.456   2.205  28.920  0.00  0.00    -0.079 S 
BRANCH  29  31
ATOM     31  C   UNL A   1     -28.874   2.343  31.075  0.00  0.00    +0.195 C 
ATOM     32  O   UNL A   1     -29.621   3.555  31.265  0.00  0.00    -0.219 OA
ENDBRANCH  29  31
ENDBRANCH   1  24
BRANCH   1  33
ATOM     33  C   UNL A   1     -24.855  -1.012  30.143  0.00  0.00    +0.076 C 
BRANCH  33  34
ATOM     34  C   UNL A   1     -24.973  -2.505  29.788  0.00  0.00    -0.018 C 
ATOM     35  C   UNL A   1     -23.906  -3.173  29.146  0.00  0.00    -0.004 C 
ATOM     36  C   UNL A   1     -23.989  -4.549  28.853  0.00  0.00    -0.000 C 
ATOM     37  C   UNL A   1     -25.137  -5.280  29.205  0.00  0.00    -0.000 C 
ATOM     38  C   UNL A   1     -26.232  -4.611  29.784  0.00  0.00    -0.000 C 
ATOM     39  C   UNL A   1     -26.155  -3.232  30.065  0.00  0.00    -0.004 C 
ENDBRANCH  33  34
BRANCH  33  40
ATOM     40  C   UNL A   1     -25.387  -0.679  31.571  0.00  0.00    +0.080 C 
ATOM     41  C   UNL A   1     -25.189   0.773  32.028  0.00  0.00    +0.019 C 
ATOM     42  C   UNL A   1     -25.336   0.684  33.544  0.00  0.00    +0.020 C 
ATOM     43  C   UNL A   1     -24.829  -0.715  33.905  0.00  0.00    +0.089 C 
ATOM     44  N   UNL A   1     -24.758  -1.481  32.646  0.00  0.00    -0.219 NA
ENDBRANCH  33  40
ENDBRANCH   1  33
TORSDOF 11
