REMARK  Name = outputs/IAG933/test6/raw/output_7683_IAG933_linker_design_.xyz
REMARK  9 active torsions:
REMARK  status: ('A' for Active; 'I' for Inactive)
REMARK    1  A    between atoms: C_1  and  C_2
REMARK    2  A    between atoms: C_1  and  C_8
REMARK    3  A    between atoms: C_1  and  C_31
REMARK    4  A    between atoms: C_13  and  C_30
REMARK    5  A    between atoms: C_14  and  C_15
REMARK    6  A    between atoms: C_21  and  O_22
REMARK    7  A    between atoms: O_22  and  C_23
REMARK    8  A    between atoms: C_23  and  C_24
REMARK    9  A    between atoms: C_28  and  C_35
REMARK                            x       y       z     vdW  Elec       q    Type
REMARK                         _______ _______ _______ _____ _____    ______ ____
ROOT
ATOM      1  C   UNK A   1     -22.554   1.083  27.983  0.00  0.00    +0.311 C 
ATOM      2  N   UNK A   1     -23.010   0.255  29.052  0.00  0.00    -0.059 NA
ATOM      3  C   UNK A   1     -24.752   1.107  27.231  0.00  0.00    +0.224 C 
ATOM      4  C   UNK     1     -24.339  -0.124  29.110  0.00  0.00    +0.342 C 
ATOM      5  C   UNK A   1     -23.556   1.502  26.968  0.00  0.00    +0.265 C 
ATOM      6  O   UNK A   1     -23.239   2.171  25.886  0.00  0.00    -0.283 OA
ATOM      7  N   UNK     1     -25.171   0.263  28.109  0.00  0.00    -0.007 NA
ENDROOT
BRANCH   3   8
ATOM      8  C   UNK A   1     -25.688   1.614  26.461  0.00  0.00    +0.082 C 
ATOM      9  C   UNK A   1     -26.250   2.920  26.395  0.00  0.00    +0.080 C 
ATOM     10  C   UNK A   1     -27.438   3.091  25.645  0.00  0.00    +0.107 C 
ATOM     11  N   UNK A   1     -28.075   2.089  25.003  0.00  0.00    -0.208 NA
ATOM     12  C   UNK A   1     -27.543   0.849  25.079  0.00  0.00    +0.253 C 
ATOM     13  C   UNK A   1     -26.354   0.576  25.777  0.00  0.00    +0.197 C 
ATOM     14  F   UNK A   1     -25.860  -0.681  25.795  0.00  0.00    -0.199 F 
BRANCH   9  15
ATOM     15  C   UNK A   1     -25.642   4.093  27.123  0.00  0.00    +0.267 C 
ATOM     16  N   UNK A   1     -25.614   5.252  26.449  0.00  0.00    -0.200 NA
ATOM     17  C   UNK A   1     -25.026   6.479  26.963  0.00  0.00    +0.139 C 
ATOM     18  O   UNK A   1     -25.143   3.966  28.243  0.00  0.00    -0.268 OA
ENDBRANCH   9  15
BRANCH  12  19
ATOM     19  O   UNK A   1     -28.193  -0.208  24.477  0.00  0.00    -0.456 OA
BRANCH  19  20
ATOM     20  C   UNK A   1     -29.460   0.005  23.866  0.00  0.00    +0.243 C 
BRANCH  20  21
ATOM     21  C   UNK A   1     -30.065  -1.377  23.573  0.00  0.00    +0.229 C 
ATOM     22  O   UNK A   1     -30.729  -1.878  24.721  0.00  0.00    -0.216 OA
ENDBRANCH  20  21
ENDBRANCH  19  20
ENDBRANCH  12  19
ENDBRANCH   3   8
BRANCH   1  24
ATOM     23  O   UNK A   1     -20.010   1.595  28.349  0.00  0.00    -0.215 OA
ATOM     24  C   UNK A   1     -21.152   1.421  27.602  0.00  0.00    +0.243 C 
ENDBRANCH   1  24
BRANCH   4  25
ATOM     25  C   UNK     1     -24.855  -1.012  30.143  0.00  0.00    +0.148 C 
BRANCH  25  26
ATOM     26  C   UNK     1     -24.973  -2.505  29.788  0.00  0.00    -0.009 C 
ATOM     27  C   UNK     1     -23.906  -3.173  29.146  0.00  0.00    -0.004 C 
ATOM     28  C   UNK     1     -23.989  -4.549  28.853  0.00  0.00    -0.000 C 
ATOM     29  C   UNK     1     -25.137  -5.280  29.205  0.00  0.00    -0.000 C 
ATOM     30  C   UNK     1     -26.232  -4.611  29.784  0.00  0.00    -0.000 C 
ATOM     31  C   UNK     1     -26.155  -3.232  30.065  0.00  0.00    -0.004 C 
ENDBRANCH  25  26
BRANCH  25  32
ATOM     32  C   UNK     1     -25.387  -0.679  31.571  0.00  0.00    +0.088 C 
ATOM     33  C   UNK     1     -25.189   0.773  32.028  0.00  0.00    +0.020 C 
ATOM     34  C   UNK     1     -25.336   0.684  33.544  0.00  0.00    +0.020 C 
ATOM     35  C   UNK     1     -24.829  -0.715  33.905  0.00  0.00    +0.089 C 
ATOM     36  N   UNK     1     -24.758  -1.481  32.646  0.00  0.00    -0.218 NA
ENDBRANCH  25  32
ENDBRANCH   4  25
TORSDOF 9
