REMARK  Name = outputs/IAG933/test6/raw/output_7686_IAG933_linker_design_.xyz
REMARK  8 active torsions:
REMARK  status: ('A' for Active; 'I' for Inactive)
REMARK    1  A    between atoms: C_1  and  C_2
REMARK    2  A    between atoms: C_13  and  N_35
REMARK    3  A    between atoms: C_14  and  C_15
REMARK    4  A    between atoms: C_21  and  O_22
REMARK    5  A    between atoms: O_22  and  C_23
REMARK    6  A    between atoms: C_23  and  C_24
REMARK    7  A    between atoms: C_30  and  C_41
REMARK    8  A    between atoms: C_37  and  C_40
REMARK                            x       y       z     vdW  Elec       q    Type
REMARK                         _______ _______ _______ _____ _____    ______ ____
ROOT
ATOM      1  F   UNL A   1     -20.368   1.338  27.843  0.00  0.00    -0.206 F 
ATOM      2  C   UNL A   1     -22.616   1.157  28.513  0.00  0.00    +0.228 C 
ATOM      3  C   UNL A   1     -22.030   1.993  26.305  0.00  0.00    +0.023 C 
ATOM      4  C   UNL A   1     -23.525   2.048  25.993  0.00  0.00    +0.120 C 
ATOM      5  C   UNL A   1     -21.618   1.445  27.552  0.00  0.00    +0.149 C 
ATOM      6  N   UNL A   1     -24.498   1.474  26.994  0.00  0.00    -0.300 N 
ATOM      7  F   UNL A   1     -22.370   0.186  29.358  0.00  0.00    -0.228 F 
ATOM      8  C   UNL A   1     -23.987   1.848  28.487  0.00  0.00    +0.113 C 
ENDROOT
BRANCH   8  15
ATOM      9  C   UNL A   1     -24.855  -1.012  30.143  0.00  0.00    +0.038 C 
ATOM     10  C   UNL A   1     -25.387  -0.679  31.571  0.00  0.00    +0.077 C 
ATOM     11  C   UNL A   1     -25.189   0.773  32.028  0.00  0.00    +0.027 C 
ATOM     12  C   UNL A   1     -25.336   0.684  33.544  0.00  0.00    +0.021 C 
ATOM     13  C   UNL A   1     -24.829  -0.715  33.905  0.00  0.00    +0.089 C 
ATOM     14  N   UNL A   1     -24.758  -1.481  32.646  0.00  0.00    -0.219 NA
ATOM     15  C   UNL A   1     -24.992   1.277  29.483  0.00  0.00    +0.030 C 
ATOM     16  C   UNL A   1     -25.257  -0.154  29.003  0.00  0.00    +0.008 C 
ATOM     17  C   UNL A   1     -24.765   1.609  30.972  0.00  0.00    +0.083 C 
BRANCH   9  18
ATOM     18  C   UNL A   1     -24.973  -2.505  29.788  0.00  0.00    -0.021 C 
ATOM     19  C   UNL A   1     -23.906  -3.173  29.146  0.00  0.00    -0.004 C 
ATOM     20  C   UNL A   1     -23.989  -4.549  28.853  0.00  0.00    -0.000 C 
ATOM     21  C   UNL A   1     -25.137  -5.280  29.205  0.00  0.00    -0.000 C 
ATOM     22  C   UNL A   1     -26.232  -4.611  29.784  0.00  0.00    -0.000 C 
ATOM     23  C   UNL A   1     -26.155  -3.232  30.065  0.00  0.00    -0.004 C 
ENDBRANCH   9  18
BRANCH  17  26
ATOM     24  N   UNL A   1     -26.028   3.700  30.765  0.00  0.00    -0.088 NA
ATOM     25  O   UNL A   1     -24.332   3.741  32.184  0.00  0.00    -0.272 OA
ATOM     26  C   UNL A   1     -25.077   3.088  31.337  0.00  0.00    +0.260 C 
ENDBRANCH  17  26
ENDBRANCH   8  15
BRANCH   6  27
ATOM     27  C   UNL A   1     -25.688   1.614  26.461  0.00  0.00    +0.087 C 
ATOM     28  C   UNL A   1     -26.250   2.920  26.395  0.00  0.00    +0.090 C 
ATOM     29  C   UNL A   1     -27.438   3.091  25.645  0.00  0.00    +0.108 C 
ATOM     30  N   UNL A   1     -28.075   2.089  25.003  0.00  0.00    -0.208 NA
ATOM     31  C   UNL A   1     -27.543   0.849  25.079  0.00  0.00    +0.255 C 
ATOM     32  C   UNL A   1     -26.354   0.576  25.777  0.00  0.00    +0.206 C 
ATOM     33  F   UNL A   1     -25.860  -0.681  25.795  0.00  0.00    -0.198 F 
BRANCH  28  34
ATOM     34  C   UNL A   1     -25.642   4.093  27.123  0.00  0.00    +0.268 C 
ATOM     35  N   UNL A   1     -25.614   5.252  26.449  0.00  0.00    -0.200 NA
ATOM     36  C   UNL A   1     -25.026   6.479  26.963  0.00  0.00    +0.139 C 
ATOM     37  O   UNL A   1     -25.143   3.966  28.243  0.00  0.00    -0.268 OA
ENDBRANCH  28  34
BRANCH  31  38
ATOM     38  O   UNL A   1     -28.193  -0.208  24.477  0.00  0.00    -0.456 OA
BRANCH  38  39
ATOM     39  C   UNL A   1     -29.460   0.005  23.866  0.00  0.00    +0.243 C 
BRANCH  39  40
ATOM     40  C   UNL A   1     -30.065  -1.377  23.573  0.00  0.00    +0.229 C 
ATOM     41  O   UNL A   1     -30.729  -1.878  24.721  0.00  0.00    -0.216 OA
ENDBRANCH  39  40
ENDBRANCH  38  39
ENDBRANCH  31  38
ENDBRANCH   6  27
TORSDOF 8
