REMARK  Name = outputs/IAG933/test6/raw/output_7687_IAG933_linker_design_.xyz
REMARK  12 active torsions:
REMARK  status: ('A' for Active; 'I' for Inactive)
REMARK    1  A    between atoms: C_1  and  C_2
REMARK    2  A    between atoms: C_1  and  C_8
REMARK    3  A    between atoms: C_1  and  N_40
REMARK    4  A    between atoms: C_13  and  C_31
REMARK    5  A    between atoms: C_14  and  C_15
REMARK    6  A    between atoms: C_21  and  O_22
REMARK    7  A    between atoms: O_22  and  C_23
REMARK    8  A    between atoms: C_23  and  C_24
REMARK    9  A    between atoms: C_28  and  CA_34
REMARK   10  A    between atoms: C_30  and  N_44
REMARK   11  A    between atoms: CA_34  and  C_36
REMARK   12  A    between atoms: CA_34  and  N_44
REMARK                            x       y       z     vdW  Elec       q    Type
REMARK                         _______ _______ _______ _____ _____    ______ ____
ROOT
ATOM      1  C   UNL A   1     -23.322   1.480  27.049  0.00  0.00    +0.108 A 
ATOM      2  C   UNL A   1     -25.085   0.696  28.463  0.00  0.00    +0.159 C 
ATOM      3  C   UNL A   1     -24.616   1.204  27.301  0.00  0.00    +0.092 C 
ATOM      4  C   UNL A   1     -22.364   2.010  26.090  0.00  0.00    +0.387 A 
ATOM      5  C   UNL A   1     -22.776  -0.030  28.996  0.00  0.00    +0.289 C 
ATOM      6  O   UNL A   1     -21.160   1.695  26.402  0.00  0.00    -0.244 OA
ATOM      7  O   UNL A   1     -21.162   1.098  27.632  0.00  0.00    -0.279 OA
ATOM      8  C   UNL A   1     -22.426   0.752  28.105  0.00  0.00    +0.252 A 
ATOM      9  N   UNL A   1     -24.258  -0.086  29.153  0.00  0.00    -0.257 N 
ATOM     10  O   UNL A   1     -22.572   2.631  25.007  0.00  0.00    -0.241 OA
ATOM     11  O   UNL A   1     -21.664  -0.563  29.623  0.00  0.00    -0.266 OA
ENDROOT
BRANCH   3  12
ATOM     12  C   UNL A   1     -25.688   1.614  26.461  0.00  0.00    +0.023 C 
ATOM     13  C   UNL A   1     -26.250   2.920  26.395  0.00  0.00    +0.073 C 
ATOM     14  C   UNL A   1     -27.438   3.091  25.645  0.00  0.00    +0.106 C 
ATOM     15  N   UNL A   1     -28.075   2.089  25.003  0.00  0.00    -0.208 NA
ATOM     16  C   UNL A   1     -27.543   0.849  25.079  0.00  0.00    +0.253 C 
ATOM     17  C   UNL A   1     -26.354   0.576  25.777  0.00  0.00    +0.190 C 
ATOM     18  F   UNL A   1     -25.860  -0.681  25.795  0.00  0.00    -0.200 F 
BRANCH  13  19
ATOM     19  C   UNL A   1     -25.642   4.093  27.123  0.00  0.00    +0.266 C 
ATOM     20  N   UNL A   1     -25.614   5.252  26.449  0.00  0.00    -0.200 NA
ATOM     21  C   UNL A   1     -25.026   6.479  26.963  0.00  0.00    +0.139 C 
ATOM     22  O   UNL A   1     -25.143   3.966  28.243  0.00  0.00    -0.268 OA
ENDBRANCH  13  19
BRANCH  16  23
ATOM     23  O   UNL A   1     -28.193  -0.208  24.477  0.00  0.00    -0.456 OA
BRANCH  23  24
ATOM     24  C   UNL A   1     -29.460   0.005  23.866  0.00  0.00    +0.243 C 
BRANCH  24  25
ATOM     25  C   UNL A   1     -30.065  -1.377  23.573  0.00  0.00    +0.229 C 
ATOM     26  O   UNL A   1     -30.729  -1.878  24.721  0.00  0.00    -0.216 OA
ENDBRANCH  24  25
ENDBRANCH  23  24
ENDBRANCH  16  23
ENDBRANCH   3  12
BRANCH   9  27
ATOM     27  C   UNL A   1     -24.855  -1.012  30.143  0.00  0.00    +0.115 C 
BRANCH  27  28
ATOM     28  C   UNL A   1     -24.973  -2.505  29.788  0.00  0.00    -0.003 C 
ATOM     29  C   UNL A   1     -23.906  -3.173  29.146  0.00  0.00    -0.003 C 
ATOM     30  C   UNL A   1     -23.989  -4.549  28.853  0.00  0.00    -0.000 C 
ATOM     31  C   UNL A   1     -25.137  -5.280  29.205  0.00  0.00    -0.000 C 
ATOM     32  C   UNL A   1     -26.232  -4.611  29.784  0.00  0.00    -0.000 C 
ATOM     33  C   UNL A   1     -26.155  -3.232  30.065  0.00  0.00    -0.003 C 
ENDBRANCH  27  28
BRANCH  27  34
ATOM     34  C   UNL A   1     -25.387  -0.679  31.571  0.00  0.00    +0.095 C 
ATOM     35  C   UNL A   1     -25.189   0.773  32.028  0.00  0.00    +0.021 C 
ATOM     36  C   UNL A   1     -25.336   0.684  33.544  0.00  0.00    +0.020 C 
ATOM     37  C   UNL A   1     -24.829  -0.715  33.905  0.00  0.00    +0.089 C 
ATOM     38  N   UNL A   1     -24.758  -1.481  32.646  0.00  0.00    -0.217 NA
ENDBRANCH  27  34
ENDBRANCH   9  27
BRANCH   2  39
ATOM     39  N   UNL A   1     -26.270   1.026  29.094  0.00  0.00    -0.198 NA
BRANCH  39  40
ATOM     40  CA  UNL A   1     -27.466   0.901  29.008  0.00  0.00    +0.107 C 
BRANCH  40  41
ATOM     41  C   UNL A   1     -28.007  -0.399  28.722  0.00  0.00    +0.199 C 
ATOM     42  O   UNL A   1     -29.259  -0.156  28.224  0.00  0.00    -0.219 OA
ENDBRANCH  40  41
BRANCH  40  43
ATOM     43  C   UNL A   1     -28.238   1.988  29.417  0.00  0.00    +0.020 C 
ATOM     44  C   UNL A   1     -27.385   2.756  30.172  0.00  0.00    +0.002 C 
ENDBRANCH  40  43
ENDBRANCH  39  40
ENDBRANCH   2  39
TORSDOF 12
