REMARK  Name = outputs/IAG933/test6/raw/output_7689_IAG933_linker_design_.xyz
REMARK  11 active torsions:
REMARK  status: ('A' for Active; 'I' for Inactive)
REMARK    1  A    between atoms: C_1  and  C_2
REMARK    2  A    between atoms: C_1  and  C_8
REMARK    3  A    between atoms: C_1  and  N_42
REMARK    4  A    between atoms: C_13  and  C_30
REMARK    5  A    between atoms: C_14  and  C_15
REMARK    6  A    between atoms: C_21  and  O_22
REMARK    7  A    between atoms: O_22  and  C_23
REMARK    8  A    between atoms: C_23  and  C_24
REMARK    9  A    between atoms: C_31  and  C_32
REMARK   10  A    between atoms: O_34  and  C_43
REMARK   11  A    between atoms: C_39  and  C_43
REMARK                            x       y       z     vdW  Elec       q    Type
REMARK                         _______ _______ _______ _____ _____    ______ ____
ROOT
ATOM      1  C   UNL A   1     -23.291   0.268  29.619  0.00  0.00    +0.085 C 
ATOM      2  C   UNL A   1     -24.967   1.203  27.551  0.00  0.00    +0.057 C 
ATOM      3  C   UNL A   1     -25.495   0.728  28.655  0.00  0.00    +0.132 C 
ATOM      4  C   UNL A   1     -23.639   1.316  27.568  0.00  0.00    +0.057 C 
ATOM      5  N   UNL A   1     -21.543   1.916  27.005  0.00  0.00    -0.034 NA
ATOM      6  C   UNL A   1     -22.872   2.053  26.670  0.00  0.00    +0.408 C 
ATOM      7  C   UNL A   1     -22.782   0.836  28.566  0.00  0.00    +0.111 C 
ATOM      8  C   UNL A   1     -21.413   1.084  28.126  0.00  0.00    +0.214 C 
ATOM      9  N   UNL A   1     -23.353   2.830  25.632  0.00  0.00    +0.216 NA
ATOM     10  N   UNL A   1     -24.711  -0.045  29.285  0.00  0.00    -0.263 NA
ENDROOT
BRANCH   2  11
ATOM     11  C   UNL A   1     -25.688   1.614  26.461  0.00  0.00    +0.076 C 
ATOM     12  C   UNL A   1     -26.250   2.920  26.395  0.00  0.00    +0.055 C 
ATOM     13  C   UNL A   1     -27.438   3.091  25.645  0.00  0.00    +0.102 C 
ATOM     14  N   UNL A   1     -28.075   2.089  25.003  0.00  0.00    -0.212 NA
ATOM     15  C   UNL A   1     -27.543   0.849  25.079  0.00  0.00    +0.234 C 
ATOM     16  C   UNL A   1     -26.354   0.576  25.777  0.00  0.00    +0.240 C 
ATOM     17  F   UNL A   1     -25.860  -0.681  25.795  0.00  0.00    -0.227 F 
BRANCH  12  18
ATOM     18  C   UNL A   1     -25.642   4.093  27.123  0.00  0.00    +0.263 C 
ATOM     19  N   UNL A   1     -25.614   5.252  26.449  0.00  0.00    -0.200 NA
ATOM     20  C   UNL A   1     -25.026   6.479  26.963  0.00  0.00    +0.139 C 
ATOM     21  O   UNL A   1     -25.143   3.966  28.243  0.00  0.00    -0.269 OA
ENDBRANCH  12  18
BRANCH  15  22
ATOM     22  O   UNL A   1     -28.193  -0.208  24.477  0.00  0.00    -0.459 OA
BRANCH  22  23
ATOM     23  C   UNL A   1     -29.460   0.005  23.866  0.00  0.00    +0.242 C 
BRANCH  23  24
ATOM     24  C   UNL A   1     -30.065  -1.377  23.573  0.00  0.00    +0.229 C 
ATOM     25  O   UNL A   1     -30.729  -1.878  24.721  0.00  0.00    -0.216 OA
ENDBRANCH  23  24
ENDBRANCH  22  23
ENDBRANCH  15  22
ENDBRANCH   2  11
BRANCH   3  26
ATOM     26  C   UNL A   1     -26.892   0.714  28.875  0.00  0.00    +0.222 C 
ATOM     27  O   UNL A   1     -27.533  -0.334  28.790  0.00  0.00    -0.281 OA
ATOM     28  C   UNL A   1     -28.044   2.984  29.807  0.00  0.00    +0.050 C 
ATOM     29  C   UNL A   1     -27.690   1.896  29.340  0.00  0.00    -0.065 C 
BRANCH  28  30
ATOM     30  C   UNL A   1     -28.318   3.630  31.024  0.00  0.00    +0.177 C 
BRANCH  30  32
ATOM     31  C   UNL A   1     -26.127   4.765  31.264  0.00  0.00    +0.175 C 
ATOM     32  O   UNL A   1     -27.613   4.875  31.155  0.00  0.00    -0.346 OA
ENDBRANCH  30  32
ENDBRANCH  28  30
ENDBRANCH   3  26
BRANCH  10  33
ATOM     33  C   UNL A   1     -24.855  -1.012  30.143  0.00  0.00    +0.097 C 
BRANCH  33  34
ATOM     34  C   UNL A   1     -24.973  -2.505  29.788  0.00  0.00    -0.006 C 
ATOM     35  C   UNL A   1     -23.906  -3.173  29.146  0.00  0.00    -0.003 C 
ATOM     36  C   UNL A   1     -23.989  -4.549  28.853  0.00  0.00    -0.000 C 
ATOM     37  C   UNL A   1     -25.137  -5.280  29.205  0.00  0.00    -0.000 C 
ATOM     38  C   UNL A   1     -26.232  -4.611  29.784  0.00  0.00    -0.000 C 
ATOM     39  C   UNL A   1     -26.155  -3.232  30.065  0.00  0.00    -0.003 C 
ENDBRANCH  33  34
BRANCH  33  40
ATOM     40  C   UNL A   1     -25.387  -0.679  31.571  0.00  0.00    +0.092 C 
ATOM     41  C   UNL A   1     -25.189   0.773  32.028  0.00  0.00    +0.021 C 
ATOM     42  C   UNL A   1     -25.336   0.684  33.544  0.00  0.00    +0.020 C 
ATOM     43  C   UNL A   1     -24.829  -0.715  33.905  0.00  0.00    +0.089 C 
ATOM     44  N   UNL A   1     -24.758  -1.481  32.646  0.00  0.00    -0.218 NA
ENDBRANCH  33  40
ENDBRANCH  10  33
TORSDOF 11
