MODEL 768
MODEL 1
REMARK VINA RESULT:    -6.239      0.000      0.000
REMARK INTER + INTRA:          -8.328
REMARK INTER:                  -7.698
REMARK INTRA:                  -0.630
REMARK UNBOUND:                -0.630
REMARK  Name = No_768-gen_results/8p0m/2024-11-27-11-27-31/
REMARK  4 active torsions:
REMARK  status: ('A' for Active; 'I' for Inactive)
REMARK    1  A    between atoms: C_3  and  O_7
REMARK    2  A    between atoms: O_7  and  C_8
REMARK    3  A    between atoms: C_8  and  C_9
REMARK    4  A    between atoms: C_9  and  C_10
REMARK                            x       y       z     vdW  Elec       q    Type
REMARK                         _______ _______ _______ _____ _____    ______ ____
ROOT
ATOM      1  C   UNL A   1     -24.770  -0.982  31.218  0.00  0.00    +0.210 C 
ENDROOT
BRANCH   1   2
ATOM      2  O   UNL A   1     -25.515  -1.491  30.095  0.00  0.00    -0.475 OA
BRANCH   2   5
ATOM      3  C   UNL A   1     -26.340  -3.680  29.932  0.00  0.00    +0.037 A 
ATOM      4  C   UNL A   1     -26.226  -4.669  29.586  0.00  0.00    +0.003 A 
ATOM      5  C   UNL A   1     -25.269  -2.783  29.726  0.00  0.00    +0.139 A 
ATOM      6  C   UNL A   1     -24.098  -3.172  29.107  0.00  0.00    +0.037 A 
ATOM      7  C   UNL A   1     -25.099  -5.332  28.901  0.00  0.00    +0.000 A 
ATOM      8  C   UNL A   1     -24.051  -4.507  28.685  0.00  0.00    +0.003 A 
ENDBRANCH   2   5
ENDBRANCH   1   2
BRANCH   1   9
ATOM      9  C   UNL A   1     -24.349   0.389  30.957  0.00  0.00    +0.074 C 
BRANCH   9  10
ATOM     10  C   UNL A   1     -23.451   0.516  29.961  0.00  0.00    -0.018 A 
ATOM     11  C   UNL A   1     -22.199  -0.279  29.872  0.00  0.00    -0.004 A 
ATOM     12  C   UNL A   1     -21.283  -0.125  28.894  0.00  0.00    -0.000 A 
ATOM     13  C   UNL A   1     -21.495   0.818  27.841  0.00  0.00    -0.000 A 
ATOM     14  C   UNL A   1     -23.566   1.410  28.796  0.00  0.00    -0.004 A 
ATOM     15  C   UNL A   1     -22.638   1.545  27.818  0.00  0.00    -0.000 A 
ENDBRANCH   9  10
ENDBRANCH   1   9
TORSDOF 4
ENDMDL
ENDMDL
