REMARK  Name = outputs/IAG933/test6/raw/output_769_IAG933_linker_design_.xyz
REMARK  15 active torsions:
REMARK  status: ('A' for Active; 'I' for Inactive)
REMARK    1  A    between atoms: C_1  and  C_2
REMARK    2  A    between atoms: C_1  and  C_8
REMARK    3  A    between atoms: C_1  and  C_41
REMARK    4  A    between atoms: C_13  and  C_31
REMARK    5  A    between atoms: C_14  and  C_15
REMARK    6  A    between atoms: C_21  and  O_22
REMARK    7  A    between atoms: O_22  and  C_23
REMARK    8  A    between atoms: C_23  and  C_24
REMARK    9  A    between atoms: C_29  and  O_43
REMARK   10  A    between atoms: N_30  and  C_31
REMARK   11  A    between atoms: N_30  and  C_41
REMARK   12  A    between atoms: C_32  and  O_43
REMARK   13  A    between atoms: C_33  and  C_35
REMARK   14  A    between atoms: C_33  and  C_41
REMARK   15  A    between atoms: C_35  and  N_45
REMARK                            x       y       z     vdW  Elec       q    Type
REMARK                         _______ _______ _______ _____ _____    ______ ____
ROOT
ATOM      1  C   UNL A   1     -25.407  -0.052  29.146  0.00  0.00    +0.086 C 
ENDROOT
BRANCH   1   3
ATOM      2  O   UNL A   1     -23.292   1.694  30.286  0.00  0.00    -0.226 OA
ATOM      3  N   UNL A   1     -24.615   1.021  28.606  0.00  0.00    -0.243 N 
ATOM      4  C   UNL A   1     -23.463   1.121  29.162  0.00  0.00    +0.410 C 
BRANCH   3   5
ATOM      5  C   UNL A   1     -24.441   1.315  27.202  0.00  0.00    +0.126 C 
BRANCH   5   6
ATOM      6  C   UNL A   1     -25.688   1.614  26.461  0.00  0.00    +0.036 C 
ATOM      7  C   UNL A   1     -26.250   2.920  26.395  0.00  0.00    +0.074 C 
ATOM      8  C   UNL A   1     -27.438   3.091  25.645  0.00  0.00    +0.106 C 
ATOM      9  N   UNL A   1     -28.075   2.089  25.003  0.00  0.00    -0.208 NA
ATOM     10  C   UNL A   1     -27.543   0.849  25.079  0.00  0.00    +0.253 C 
ATOM     11  C   UNL A   1     -26.354   0.576  25.777  0.00  0.00    +0.191 C 
ATOM     12  F   UNL A   1     -25.860  -0.681  25.795  0.00  0.00    -0.200 F 
BRANCH   7  13
ATOM     13  C   UNL A   1     -25.642   4.093  27.123  0.00  0.00    +0.266 C 
ATOM     14  N   UNL A   1     -25.614   5.252  26.449  0.00  0.00    -0.200 NA
ATOM     15  C   UNL A   1     -25.026   6.479  26.963  0.00  0.00    +0.139 C 
ATOM     16  O   UNL A   1     -25.143   3.966  28.243  0.00  0.00    -0.268 OA
ENDBRANCH   7  13
BRANCH  10  17
ATOM     17  O   UNL A   1     -28.193  -0.208  24.477  0.00  0.00    -0.456 OA
BRANCH  17  18
ATOM     18  C   UNL A   1     -29.460   0.005  23.866  0.00  0.00    +0.243 C 
BRANCH  18  19
ATOM     19  C   UNL A   1     -30.065  -1.377  23.573  0.00  0.00    +0.229 C 
ATOM     20  O   UNL A   1     -30.729  -1.878  24.721  0.00  0.00    -0.216 OA
ENDBRANCH  18  19
ENDBRANCH  17  18
ENDBRANCH  10  17
ENDBRANCH   5   6
ENDBRANCH   3   5
BRANCH   4  21
ATOM     21  O   UNL A   1     -22.370   0.321  28.539  0.00  0.00    -0.407 OA
BRANCH  21  22
ATOM     22  C   UNL A   1     -21.195   1.173  28.143  0.00  0.00    +0.184 C 
ATOM     23  C   UNL A   1     -21.284   1.980  27.052  0.00  0.00    +0.044 C 
ENDBRANCH  21  22
ENDBRANCH   4  21
ENDBRANCH   1   3
BRANCH   1  24
ATOM     24  C   UNL A   1     -24.855  -1.012  30.143  0.00  0.00    +0.057 C 
BRANCH  24  25
ATOM     25  C   UNL A   1     -24.973  -2.505  29.788  0.00  0.00    -0.019 C 
ATOM     26  C   UNL A   1     -23.906  -3.173  29.146  0.00  0.00    -0.004 C 
ATOM     27  C   UNL A   1     -23.989  -4.549  28.853  0.00  0.00    -0.000 C 
ATOM     28  C   UNL A   1     -25.137  -5.280  29.205  0.00  0.00    -0.000 C 
ATOM     29  C   UNL A   1     -26.232  -4.611  29.784  0.00  0.00    -0.000 C 
ATOM     30  C   UNL A   1     -26.155  -3.232  30.065  0.00  0.00    -0.004 C 
ENDBRANCH  24  25
BRANCH  24  31
ATOM     31  C   UNL A   1     -25.387  -0.679  31.571  0.00  0.00    +0.078 C 
ATOM     32  C   UNL A   1     -25.189   0.773  32.028  0.00  0.00    +0.019 C 
ATOM     33  C   UNL A   1     -25.336   0.684  33.544  0.00  0.00    +0.020 C 
ATOM     34  C   UNL A   1     -24.829  -0.715  33.905  0.00  0.00    +0.089 C 
ATOM     35  N   UNL A   1     -24.758  -1.481  32.646  0.00  0.00    -0.219 NA
ENDBRANCH  24  31
ENDBRANCH   1  24
BRANCH   1  36
ATOM     36  C   UNL A   1     -26.857  -0.279  28.741  0.00  0.00    +0.042 C 
BRANCH  36  37
ATOM     37  C   UNL A   1     -28.120  -0.146  29.523  0.00  0.00    +0.100 C 
BRANCH  37  45
ATOM     38  C   UNL A   1     -28.882   3.641  28.979  0.00  0.00    +0.042 C 
ATOM     39  C   UNL A   1     -27.265   2.642  30.446  0.00  0.00    +0.011 C 
ATOM     40  C   UNL A   1     -30.232   3.624  29.751  0.00  0.00    +0.016 C 
ATOM     41  C   UNL A   1     -30.029   1.190  28.775  0.00  0.00    +0.229 C 
ATOM     42  C   UNL A   1     -28.236   2.385  29.583  0.00  0.00    +0.031 C 
ATOM     43  O   UNL A   1     -30.426   0.263  28.041  0.00  0.00    -0.275 OA
ATOM     44  C   UNL A   1     -30.921   2.323  29.275  0.00  0.00    +0.086 C 
ATOM     45  N   UNL A   1     -28.717   1.187  29.297  0.00  0.00    -0.262 N 
ENDBRANCH  37  45
ENDBRANCH  36  37
ENDBRANCH   1  36
TORSDOF 15
