REMARK  Name = outputs/IAG933/test6/raw/output_7693_IAG933_linker_design_.xyz
REMARK  6 active torsions:
REMARK  status: ('A' for Active; 'I' for Inactive)
REMARK    1  A    between atoms: C_1  and  C_2
REMARK    2  A    between atoms: C_13  and  C_32
REMARK    3  A    between atoms: C_14  and  C_15
REMARK    4  A    between atoms: C_21  and  O_22
REMARK    5  A    between atoms: O_22  and  C_23
REMARK    6  A    between atoms: C_23  and  C_24
REMARK                            x       y       z     vdW  Elec       q    Type
REMARK                         _______ _______ _______ _____ _____    ______ ____
ROOT
ATOM      1  C   UNL A   1     -24.855  -1.012  30.143  0.00  0.00    +0.204 C 
ATOM      2  C   UNL A   1     -25.387  -0.679  31.571  0.00  0.00    +0.117 C 
ATOM      3  C   UNL A   1     -25.189   0.773  32.028  0.00  0.00    +0.023 C 
ATOM      4  C   UNL A   1     -25.336   0.684  33.544  0.00  0.00    +0.020 C 
ATOM      5  C   UNL A   1     -24.829  -0.715  33.905  0.00  0.00    +0.089 C 
ATOM      6  N   UNL A   1     -24.758  -1.481  32.646  0.00  0.00    -0.215 NA
ATOM      7  C   UNL A   1     -21.796   1.015  28.380  0.00  0.00    +0.039 C 
ATOM      8  C   UNL A   1     -23.172   1.863  26.559  0.00  0.00    +0.059 C 
ATOM      9  C   UNL A   1     -24.587   2.710  31.124  0.00  0.00    +0.093 C 
ATOM     10  C   UNL A   1     -24.050   1.498  28.659  0.00  0.00    +0.100 C 
ATOM     11  C   UNL A   1     -24.304   1.626  27.220  0.00  0.00    +0.031 C 
ATOM     12  C   UNL A   1     -26.916   2.903  30.549  0.00  0.00    +0.002 C 
ATOM     13  N   UNL A   1     -24.527   2.410  29.659  0.00  0.00    -0.236 NA
ATOM     14  C   UNL A   1     -25.896   2.063  31.437  0.00  0.00    +0.021 C 
ATOM     15  C   UNL A   1     -24.979   3.461  32.361  0.00  0.00    +0.022 C 
ATOM     16  O   UNL A   1     -23.433  -0.349  29.964  0.00  0.00    -0.472 OA
ATOM     17  C   UNL A   1     -21.872   1.653  27.122  0.00  0.00    +0.015 C 
ATOM     18  C   UNL A   1     -23.088   0.738  29.038  0.00  0.00    +0.154 C 
ATOM     19  C   UNL A   1     -26.209   4.360  32.342  0.00  0.00    +0.002 C 
ATOM     20  C   UNL A   1     -26.601   4.366  30.872  0.00  0.00    +0.000 C 
ATOM     21 CL   UNL A   1     -23.295   2.568  24.877  0.00  0.00    -0.082 Cl
ENDROOT
BRANCH  11  22
ATOM     22  C   UNL A   1     -25.688   1.614  26.461  0.00  0.00    +0.040 C 
ATOM     23  C   UNL A   1     -26.250   2.920  26.395  0.00  0.00    +0.077 C 
ATOM     24  C   UNL A   1     -27.438   3.091  25.645  0.00  0.00    +0.107 C 
ATOM     25  N   UNL A   1     -28.075   2.089  25.003  0.00  0.00    -0.208 NA
ATOM     26  C   UNL A   1     -27.543   0.849  25.079  0.00  0.00    +0.253 C 
ATOM     27  C   UNL A   1     -26.354   0.576  25.777  0.00  0.00    +0.193 C 
ATOM     28  F   UNL A   1     -25.860  -0.681  25.795  0.00  0.00    -0.199 F 
BRANCH  23  29
ATOM     29  C   UNL A   1     -25.642   4.093  27.123  0.00  0.00    +0.266 C 
ATOM     30  N   UNL A   1     -25.614   5.252  26.449  0.00  0.00    -0.200 NA
ATOM     31  C   UNL A   1     -25.026   6.479  26.963  0.00  0.00    +0.139 C 
ATOM     32  O   UNL A   1     -25.143   3.966  28.243  0.00  0.00    -0.268 OA
ENDBRANCH  23  29
BRANCH  26  33
ATOM     33  O   UNL A   1     -28.193  -0.208  24.477  0.00  0.00    -0.456 OA
BRANCH  33  34
ATOM     34  C   UNL A   1     -29.460   0.005  23.866  0.00  0.00    +0.243 C 
BRANCH  34  35
ATOM     35  C   UNL A   1     -30.065  -1.377  23.573  0.00  0.00    +0.229 C 
ATOM     36  O   UNL A   1     -30.729  -1.878  24.721  0.00  0.00    -0.216 OA
ENDBRANCH  34  35
ENDBRANCH  33  34
ENDBRANCH  26  33
ENDBRANCH  11  22
BRANCH   1  37
ATOM     37  C   UNL A   1     -24.973  -2.505  29.788  0.00  0.00    +0.019 C 
ATOM     38  C   UNL A   1     -23.906  -3.173  29.146  0.00  0.00    -0.001 C 
ATOM     39  C   UNL A   1     -23.989  -4.549  28.853  0.00  0.00    -0.000 C 
ATOM     40  C   UNL A   1     -25.137  -5.280  29.205  0.00  0.00    -0.000 C 
ATOM     41  C   UNL A   1     -26.232  -4.611  29.784  0.00  0.00    -0.000 C 
ATOM     42  C   UNL A   1     -26.155  -3.232  30.065  0.00  0.00    -0.001 C 
ENDBRANCH   1  37
TORSDOF 6
