MODEL 769
MODEL 1
REMARK VINA RESULT:    -7.632      0.000      0.000
REMARK INTER + INTRA:          -9.134
REMARK INTER:                  -8.524
REMARK INTRA:                  -0.610
REMARK UNBOUND:                -0.610
REMARK  Name = No_769-gen_results/8p0m/2024-11-27-11-27-31/
REMARK  2 active torsions:
REMARK  status: ('A' for Active; 'I' for Inactive)
REMARK    1  A    between atoms: C_2  and  C_7
REMARK    2  A    between atoms: C_6  and  C_13
REMARK                            x       y       z     vdW  Elec       q    Type
REMARK                         _______ _______ _______ _____ _____    ______ ____
ROOT
ATOM      1  C   UNL A   1     -24.100  -0.298  27.908  0.00  0.00    +0.004 A 
ATOM      2  C   UNL A   1     -23.740  -1.166  28.670  0.00  0.00    -0.000 A 
ATOM      3  C   UNL A   1     -22.487  -1.119  29.271  0.00  0.00    -0.000 A 
ATOM      4  C   UNL A   1     -21.560  -0.058  28.970  0.00  0.00    -0.000 A 
ATOM      5  C   UNL A   1     -22.048   0.889  28.061  0.00  0.00    +0.004 A 
ATOM      6  C   UNL A   1     -23.235   0.790  27.507  0.00  0.00    +0.071 A 
ENDROOT
BRANCH   2   7
ATOM      7  C   UNL A   1     -24.552  -2.345  29.073  0.00  0.00    -0.000 A 
ATOM      8  C   UNL A   1     -25.675  -2.399  29.550  0.00  0.00    -0.000 A 
ATOM      9  C   UNL A   1     -26.438  -3.628  29.799  0.00  0.00    -0.000 A 
ATOM     10  C   UNL A   1     -25.798  -4.845  29.487  0.00  0.00    +0.000 A 
ATOM     11  C   UNL A   1     -23.962  -3.662  28.733  0.00  0.00    -0.000 A 
ATOM     12  C   UNL A   1     -24.578  -4.806  28.953  0.00  0.00    -0.000 A 
ENDBRANCH   2   7
BRANCH   6  13
ATOM     13  C   UNL A   1     -23.581   1.822  26.503  0.00  0.00    +0.419 C 
ATOM     14  F   UNL A   1     -24.070   1.528  25.626  0.00  0.00    -0.166 F 
ATOM     15  F   UNL A   1     -24.010   2.969  26.811  0.00  0.00    -0.166 F 
ATOM     16  F   UNL A   1     -22.279   2.202  25.979  0.00  0.00    -0.166 F 
ENDBRANCH   6  13
TORSDOF 2
ENDMDL
ENDMDL
