MODEL 76
MODEL 1
REMARK VINA RESULT:    -4.549      0.000      0.000
REMARK INTER + INTRA:          -4.549
REMARK INTER:                  -4.549
REMARK INTRA:                   0.000
REMARK UNBOUND:                 0.000
REMARK  Name = No_76-gen_results/8p0m/2024-11-27-11-27-31/
REMARK  0 active torsions:
REMARK  status: ('A' for Active; 'I' for Inactive)
REMARK                            x       y       z     vdW  Elec       q    Type
REMARK                         _______ _______ _______ _____ _____    ______ ____
ROOT
ATOM      1  C   UNL A   1     -10.197  -9.770  18.164  0.00  0.00    +0.030 A 
ATOM      2  C   UNL A   1      -9.299 -10.294  17.993  0.00  0.00    +0.140 A 
ATOM      3  C   UNL A   1     -10.324  -9.121  19.524  0.00  0.00    +0.002 A 
ATOM      4  C   UNL A   1      -9.217  -9.129  20.399  0.00  0.00    +0.000 A 
ATOM      5  C   UNL A   1      -8.173 -10.415  18.690  0.00  0.00    +0.030 A 
ATOM      6  C   UNL A   1      -8.123  -9.850  19.949  0.00  0.00    +0.002 A 
ATOM      7  F   UNL A   1      -9.235 -10.879  16.672  0.00  0.00    -0.204 F 
ENDROOT
TORSDOF 0
ENDMDL
ENDMDL
