REMARK  Name = No_770-gen_results/8p0m/2024-11-27-11-27-31/
REMARK  1 active torsions:
REMARK  status: ('A' for Active; 'I' for Inactive)
REMARK    1  A    between atoms: C_1  and  C_7
REMARK                            x       y       z     vdW  Elec       q    Type
REMARK                         _______ _______ _______ _____ _____    ______ ____
ROOT
ATOM      1  C   UNL A   1     -28.003  -1.660  30.127  0.00  0.00    +0.249 C 
ATOM      2  O   UNL A   1     -27.122  -2.502  30.244  0.00  0.00    -0.270 OA
ATOM      3  N   UNL A   1     -29.200  -1.874  30.809  0.00  0.00    -0.276 N 
ATOM      4  C   UNL A   1     -30.287  -1.013  30.802  0.00  0.00    +0.094 C 
ATOM      5  C   UNL A   1     -31.392  -1.594  31.390  0.00  0.00    +0.022 C 
ATOM      6  C   UNL A   1     -29.532  -3.182  31.264  0.00  0.00    +0.094 C 
ATOM      7  C   UNL A   1     -30.672  -3.534  31.798  0.00  0.00    +0.022 C 
ATOM      8  C   UNL A   1     -31.604  -2.713  31.960  0.00  0.00    +0.004 C 
ENDROOT
BRANCH   1   9
ATOM      9  C   UNL A   1     -28.016  -0.814  28.878  0.00  0.00    +0.054 A 
ATOM     10  C   UNL A   1     -27.064  -0.119  28.608  0.00  0.00    +0.004 A 
ATOM     11  C   UNL A   1     -27.001   0.691  27.491  0.00  0.00    +0.000 A 
ATOM     12  C   UNL A   1     -28.137   0.736  26.635  0.00  0.00    +0.000 A 
ATOM     13  C   UNL A   1     -29.236   0.076  27.069  0.00  0.00    +0.000 A 
ATOM     14  C   UNL A   1     -29.218  -0.643  28.175  0.00  0.00    +0.004 A 
ENDBRANCH   1   9
TORSDOF 1
