REMARK  Name = outputs/IAG933/test6/raw/output_7705_IAG933_linker_design_.xyz
REMARK  10 active torsions:
REMARK  status: ('A' for Active; 'I' for Inactive)
REMARK    1  A    between atoms: C_1  and  C_2
REMARK    2  A    between atoms: C_1  and  C_8
REMARK    3  A    between atoms: C_1  and  C_46
REMARK    4  A    between atoms: C_13  and  N_37
REMARK    5  A    between atoms: C_14  and  C_15
REMARK    6  A    between atoms: C_21  and  O_22
REMARK    7  A    between atoms: O_22  and  C_23
REMARK    8  A    between atoms: C_23  and  C_24
REMARK    9  A    between atoms: C_32  and  C_33
REMARK   10  A    between atoms: C_41  and  C_46
REMARK                            x       y       z     vdW  Elec       q    Type
REMARK                         _______ _______ _______ _____ _____    ______ ____
ROOT
ATOM      1  C   UNL A   1     -24.274   0.460  28.217  0.00  0.00    +0.037 C 
ATOM      2  N   UNL A   1     -24.501   1.326  27.171  0.00  0.00    -0.242 N 
ATOM      3  C   UNL A   1     -22.196   1.278  27.816  0.00  0.00    +0.072 C 
ATOM      4  C   UNL A   1     -22.869   0.313  28.402  0.00  0.00    +0.054 C 
ATOM      5  C   UNL A   1     -20.822   1.655  28.193  0.00  0.00    +0.014 C 
ATOM      6  S   UNL A   1     -23.104   2.250  26.698  0.00  0.00    -0.044 S 
ATOM      7  C   UNL A   1     -25.297  -0.135  29.142  0.00  0.00    -0.007 C 
ENDROOT
BRANCH   2   8
ATOM      8  C   UNL A   1     -25.688   1.614  26.461  0.00  0.00    +0.099 C 
ATOM      9  C   UNL A   1     -26.250   2.920  26.395  0.00  0.00    +0.091 C 
ATOM     10  C   UNL A   1     -27.438   3.091  25.645  0.00  0.00    +0.108 C 
ATOM     11  N   UNL A   1     -28.075   2.089  25.003  0.00  0.00    -0.208 NA
ATOM     12  C   UNL A   1     -27.543   0.849  25.079  0.00  0.00    +0.255 C 
ATOM     13  C   UNL A   1     -26.354   0.576  25.777  0.00  0.00    +0.207 C 
ATOM     14  F   UNL A   1     -25.860  -0.681  25.795  0.00  0.00    -0.198 F 
BRANCH   9  15
ATOM     15  C   UNL A   1     -25.642   4.093  27.123  0.00  0.00    +0.268 C 
ATOM     16  N   UNL A   1     -25.614   5.252  26.449  0.00  0.00    -0.200 NA
ATOM     17  C   UNL A   1     -25.026   6.479  26.963  0.00  0.00    +0.139 C 
ATOM     18  O   UNL A   1     -25.143   3.966  28.243  0.00  0.00    -0.268 OA
ENDBRANCH   9  15
BRANCH  12  19
ATOM     19  O   UNL A   1     -28.193  -0.208  24.477  0.00  0.00    -0.456 OA
BRANCH  19  20
ATOM     20  C   UNL A   1     -29.460   0.005  23.866  0.00  0.00    +0.243 C 
BRANCH  20  21
ATOM     21  C   UNL A   1     -30.065  -1.377  23.573  0.00  0.00    +0.229 C 
ATOM     22  O   UNL A   1     -30.729  -1.878  24.721  0.00  0.00    -0.216 OA
ENDBRANCH  20  21
ENDBRANCH  19  20
ENDBRANCH  12  19
ENDBRANCH   2   8
BRANCH   7  24
ATOM     23  C   UNL A   1     -27.742  -0.646  28.210  0.00  0.00    -0.027 C 
ATOM     24  C   UNL A   1     -26.713   0.021  29.090  0.00  0.00    -0.008 C 
BRANCH  23  29
ATOM     25  F   UNL A   1     -31.364  -1.591  30.913  0.00  0.00    -0.223 F 
ATOM     26  C   UNL A   1     -31.690  -0.891  29.803  0.00  0.00    +0.181 C 
ATOM     27  C   UNL A   1     -31.290  -1.613  28.562  0.00  0.00    +0.049 C 
ATOM     28  C   UNL A   1     -30.121  -1.142  27.616  0.00  0.00    +0.009 C 
ATOM     29  C   UNL A   1     -29.080  -0.135  28.151  0.00  0.00    +0.024 C 
ATOM     30  N   UNL A   1     -31.347   0.485  29.898  0.00  0.00    -0.248 NA
ATOM     31  C   UNL A   1     -32.315   1.272  30.694  0.00  0.00    +0.092 C 
ATOM     32  C   UNL A   1     -32.944  -0.966  29.384  0.00  0.00    +0.052 C 
ATOM     33  C   UNL A   1     -28.973   1.010  29.167  0.00  0.00    +0.022 C 
ATOM     34  C   UNL A   1     -30.014   0.915  30.291  0.00  0.00    +0.075 C 
ENDBRANCH  23  29
ENDBRANCH   7  24
BRANCH   7  35
ATOM     35  C   UNL A   1     -24.855  -1.012  30.143  0.00  0.00    +0.061 C 
BRANCH  35  36
ATOM     36  C   UNL A   1     -24.973  -2.505  29.788  0.00  0.00    -0.017 C 
ATOM     37  C   UNL A   1     -23.906  -3.173  29.146  0.00  0.00    -0.004 C 
ATOM     38  C   UNL A   1     -23.989  -4.549  28.853  0.00  0.00    -0.000 C 
ATOM     39  C   UNL A   1     -25.137  -5.280  29.205  0.00  0.00    -0.000 C 
ATOM     40  C   UNL A   1     -26.232  -4.611  29.784  0.00  0.00    -0.000 C 
ATOM     41  C   UNL A   1     -26.155  -3.232  30.065  0.00  0.00    -0.004 C 
ENDBRANCH  35  36
BRANCH  35  42
ATOM     42  C   UNL A   1     -25.387  -0.679  31.571  0.00  0.00    +0.081 C 
ATOM     43  C   UNL A   1     -25.189   0.773  32.028  0.00  0.00    +0.019 C 
ATOM     44  C   UNL A   1     -25.336   0.684  33.544  0.00  0.00    +0.020 C 
ATOM     45  C   UNL A   1     -24.829  -0.715  33.905  0.00  0.00    +0.089 C 
ATOM     46  N   UNL A   1     -24.758  -1.481  32.646  0.00  0.00    -0.219 NA
ENDBRANCH  35  42
ENDBRANCH   7  35
TORSDOF 10
