MODEL 770
MODEL 1
REMARK VINA RESULT:    -7.010      0.000      0.000
REMARK INTER + INTRA:          -7.066
REMARK INTER:                  -7.420
REMARK INTRA:                   0.354
REMARK UNBOUND:                 0.354
REMARK  Name = No_770-gen_results/8p0m/2024-11-27-11-27-31/
REMARK  1 active torsions:
REMARK  status: ('A' for Active; 'I' for Inactive)
REMARK    1  A    between atoms: C_1  and  C_7
REMARK                            x       y       z     vdW  Elec       q    Type
REMARK                         _______ _______ _______ _____ _____    ______ ____
ROOT
ATOM      1  C   UNL A   1     -24.830  -1.136  29.034  0.00  0.00    +0.249 C 
ATOM      2  O   UNL A   1     -25.834  -0.549  28.651  0.00  0.00    -0.270 OA
ATOM      3  N   UNL A   1     -23.604  -0.492  28.881  0.00  0.00    -0.276 N 
ATOM      4  C   UNL A   1     -22.378  -1.004  29.280  0.00  0.00    +0.094 C 
ATOM      5  C   UNL A   1     -21.334  -0.236  28.806  0.00  0.00    +0.022 C 
ATOM      6  C   UNL A   1     -23.480   0.588  27.960  0.00  0.00    +0.094 C 
ATOM      7  C   UNL A   1     -22.363   1.185  27.635  0.00  0.00    +0.022 C 
ATOM      8  C   UNL A   1     -21.265   0.841  28.131  0.00  0.00    +0.004 C 
ENDROOT
BRANCH   1   9
ATOM      9  C   UNL A   1     -24.862  -2.644  29.077  0.00  0.00    +0.054 A 
ATOM     10  C   UNL A   1     -24.030  -3.284  28.476  0.00  0.00    +0.004 A 
ATOM     11  C   UNL A   1     -23.996  -4.665  28.457  0.00  0.00    +0.000 A 
ATOM     12  C   UNL A   1     -25.020  -5.367  29.151  0.00  0.00    +0.000 A 
ATOM     13  C   UNL A   1     -26.020  -4.611  29.661  0.00  0.00    +0.000 A 
ATOM     14  C   UNL A   1     -25.991  -3.294  29.597  0.00  0.00    +0.004 A 
ENDBRANCH   1   9
TORSDOF 1
ENDMDL
ENDMDL
