REMARK  Name = outputs/IAG933/test6/raw/output_771_IAG933_linker_design_.xyz
REMARK  16 active torsions:
REMARK  status: ('A' for Active; 'I' for Inactive)
REMARK    1  A    between atoms: C_1  and  C_2
REMARK    2  A    between atoms: C_1  and  C_8
REMARK    3  A    between atoms: C_1  and  C_40
REMARK    4  A    between atoms: C_13  and  C_43
REMARK    5  A    between atoms: C_14  and  C_15
REMARK    6  A    between atoms: C_21  and  O_22
REMARK    7  A    between atoms: O_22  and  C_23
REMARK    8  A    between atoms: C_23  and  C_24
REMARK    9  A    between atoms: C_34  and  C_37
REMARK   10  A    between atoms: C_34  and  C_45
REMARK   11  A    between atoms: N_36  and  C_40
REMARK   12  A    between atoms: C_37  and  C_41
REMARK   13  A    between atoms: C_38  and  C_40
REMARK   14  A    between atoms: C_38  and  C_46
REMARK   15  A    between atoms: O_39  and  C_45
REMARK   16  A    between atoms: C_45  and  N_47
REMARK                            x       y       z     vdW  Elec       q    Type
REMARK                         _______ _______ _______ _____ _____    ______ ____
ROOT
ATOM      1  C   UNL A   1     -25.700  -0.271  29.049  0.00  0.00    +0.088 C 
ENDROOT
BRANCH   1   6
ATOM      2  C   UNL A   1     -23.213   1.629  26.880  0.00  0.00    +0.085 C 
ATOM      3  C   UNL A   1     -22.290   0.974  29.001  0.00  0.00    +0.046 C 
ATOM      4  F   UNL A   1     -20.898   1.672  27.273  0.00  0.00    -0.203 F 
ATOM      5  C   UNL A   1     -22.155   1.421  27.744  0.00  0.00    +0.150 C 
ATOM      6  N   UNL A   1     -24.643   0.623  28.412  0.00  0.00    -0.301 N 
ATOM      7 CL   UNL A   1     -22.795   2.328  25.317  0.00  0.00    -0.083 Cl
ATOM      8  C   UNL A   1     -24.510   1.294  27.303  0.00  0.00    +0.134 C 
ATOM      9  C   UNL A   1     -23.611   0.642  29.306  0.00  0.00    +0.064 C 
BRANCH   8  10
ATOM     10  C   UNL A   1     -25.688   1.614  26.461  0.00  0.00    +0.039 C 
ATOM     11  C   UNL A   1     -26.250   2.920  26.395  0.00  0.00    +0.074 C 
ATOM     12  C   UNL A   1     -27.438   3.091  25.645  0.00  0.00    +0.106 C 
ATOM     13  N   UNL A   1     -28.075   2.089  25.003  0.00  0.00    -0.208 NA
ATOM     14  C   UNL A   1     -27.543   0.849  25.079  0.00  0.00    +0.253 C 
ATOM     15  C   UNL A   1     -26.354   0.576  25.777  0.00  0.00    +0.191 C 
ATOM     16  F   UNL A   1     -25.860  -0.681  25.795  0.00  0.00    -0.200 F 
BRANCH  11  17
ATOM     17  C   UNL A   1     -25.642   4.093  27.123  0.00  0.00    +0.266 C 
ATOM     18  N   UNL A   1     -25.614   5.252  26.449  0.00  0.00    -0.200 NA
ATOM     19  C   UNL A   1     -25.026   6.479  26.963  0.00  0.00    +0.139 C 
ATOM     20  O   UNL A   1     -25.143   3.966  28.243  0.00  0.00    -0.268 OA
ENDBRANCH  11  17
BRANCH  14  21
ATOM     21  O   UNL A   1     -28.193  -0.208  24.477  0.00  0.00    -0.456 OA
BRANCH  21  22
ATOM     22  C   UNL A   1     -29.460   0.005  23.866  0.00  0.00    +0.243 C 
BRANCH  22  23
ATOM     23  C   UNL A   1     -30.065  -1.377  23.573  0.00  0.00    +0.229 C 
ATOM     24  O   UNL A   1     -30.729  -1.878  24.721  0.00  0.00    -0.216 OA
ENDBRANCH  22  23
ENDBRANCH  21  22
ENDBRANCH  14  21
ENDBRANCH   8  10
ENDBRANCH   1   6
BRANCH   1  25
ATOM     25  C   UNL A   1     -24.855  -1.012  30.143  0.00  0.00    +0.057 C 
BRANCH  25  26
ATOM     26  C   UNL A   1     -24.973  -2.505  29.788  0.00  0.00    -0.019 C 
ATOM     27  C   UNL A   1     -23.906  -3.173  29.146  0.00  0.00    -0.004 C 
ATOM     28  C   UNL A   1     -23.989  -4.549  28.853  0.00  0.00    -0.000 C 
ATOM     29  C   UNL A   1     -25.137  -5.280  29.205  0.00  0.00    -0.000 C 
ATOM     30  C   UNL A   1     -26.232  -4.611  29.784  0.00  0.00    -0.000 C 
ATOM     31  C   UNL A   1     -26.155  -3.232  30.065  0.00  0.00    -0.004 C 
ENDBRANCH  25  26
BRANCH  25  32
ATOM     32  C   UNL A   1     -25.387  -0.679  31.571  0.00  0.00    +0.078 C 
ATOM     33  C   UNL A   1     -25.189   0.773  32.028  0.00  0.00    +0.019 C 
ATOM     34  C   UNL A   1     -25.336   0.684  33.544  0.00  0.00    +0.020 C 
ATOM     35  C   UNL A   1     -24.829  -0.715  33.905  0.00  0.00    +0.089 C 
ATOM     36  N   UNL A   1     -24.758  -1.481  32.646  0.00  0.00    -0.219 NA
ENDBRANCH  25  32
ENDBRANCH   1  25
BRANCH   1  37
ATOM     37  C   UNL A   1     -27.114   0.253  28.645  0.00  0.00    +0.107 C 
BRANCH  37  38
ATOM     38  C   UNL A   1     -27.897   1.308  29.380  0.00  0.00    +0.245 C 
ATOM     39  N   UNL A   1     -27.082   2.379  29.960  0.00  0.00    -0.178 NA
ATOM     40  O   UNL A   1     -29.156   1.284  29.492  0.00  0.00    -0.273 OA
BRANCH  39  41
ATOM     41  C   UNL A   1     -27.795   3.525  30.630  0.00  0.00    +0.212 C 
BRANCH  41  43
ATOM     42  C   UNL A   1     -29.665   4.984  29.829  0.00  0.00    +0.176 C 
ATOM     43  O   UNL A   1     -28.482   4.219  29.610  0.00  0.00    -0.334 OA
ENDBRANCH  41  43
BRANCH  41  44
ATOM     44  C   UNL A   1     -27.225   4.519  31.593  0.00  0.00    +0.064 C 
BRANCH  44  45
ATOM     45  C   UNL A   1     -26.702   4.138  32.950  0.00  0.00    +0.118 C 
BRANCH  45  48
ATOM     46  O   UNL A   1     -25.606   6.047  33.736  0.00  0.00    -0.246 OA
ATOM     47  O   UNL A   1     -24.343   4.369  33.034  0.00  0.00    -0.246 OA
ATOM     48  C   UNL A   1     -25.475   4.846  33.318  0.00  0.00    +0.365 C 
ENDBRANCH  45  48
ENDBRANCH  44  45
ENDBRANCH  41  44
ENDBRANCH  39  41
ENDBRANCH  37  38
ENDBRANCH   1  37
TORSDOF 16
