REMARK  Name = outputs/IAG933/test6/raw/output_7711_IAG933_linker_design_.xyz
REMARK  12 active torsions:
REMARK  status: ('A' for Active; 'I' for Inactive)
REMARK    1  A    between atoms: C_1  and  C_2
REMARK    2  A    between atoms: C_1  and  C_8
REMARK    3  A    between atoms: C_1  and  N_28
REMARK    4  A    between atoms: C_13  and  C_30
REMARK    5  A    between atoms: C_14  and  C_15
REMARK    6  A    between atoms: C_21  and  O_22
REMARK    7  A    between atoms: O_22  and  C_23
REMARK    8  A    between atoms: C_23  and  C_24
REMARK    9  A    between atoms: C_32  and  N_36
REMARK   10  A    between atoms: C_34  and  C_42
REMARK   11  A    between atoms: N_36  and  C_44
REMARK   12  A    between atoms: C_42  and  C_43
REMARK                            x       y       z     vdW  Elec       q    Type
REMARK                         _______ _______ _______ _____ _____    ______ ____
ROOT
ATOM      1  N   UNL A   1     -24.382  -0.034  29.163  0.00  0.00    -0.169 N 
ATOM      2  N   UNL A   1     -22.141   0.351  29.917  0.00  0.00    +0.209 NA
ATOM      3  C   UNL A   1     -24.820   1.299  27.269  0.00  0.00    +0.078 C 
ATOM      4  C   UNL A   1     -21.236   1.470  26.801  0.00  0.00    +0.183 C 
ATOM      5  C   UNL A   1     -25.306   0.413  28.282  0.00  0.00    +0.283 C 
ATOM      6  C   UNL A   1     -23.622   1.700  26.782  0.00  0.00    +0.148 C 
ATOM      7  O   UNL A   1     -21.489   1.987  25.437  0.00  0.00    -0.310 OA
ATOM      8  O   UNL A   1     -23.591   2.492  25.766  0.00  0.00    -0.448 OA
ATOM      9  C   UNL A   1     -22.739   2.166  24.692  0.00  0.00    +0.361 C 
ATOM     10  C   UNL A   1     -22.495   1.152  27.577  0.00  0.00    +0.126 C 
ATOM     11  C   UNL A   1     -22.998   0.494  28.952  0.00  0.00    +0.367 C 
ENDROOT
BRANCH   3  12
ATOM     12  C   UNL A   1     -25.688   1.614  26.461  0.00  0.00    +0.043 C 
ATOM     13  C   UNL A   1     -26.250   2.920  26.395  0.00  0.00    +0.076 C 
ATOM     14  C   UNL A   1     -27.438   3.091  25.645  0.00  0.00    +0.107 C 
ATOM     15  N   UNL A   1     -28.075   2.089  25.003  0.00  0.00    -0.208 NA
ATOM     16  C   UNL A   1     -27.543   0.849  25.079  0.00  0.00    +0.253 C 
ATOM     17  C   UNL A   1     -26.354   0.576  25.777  0.00  0.00    +0.193 C 
ATOM     18  F   UNL A   1     -25.860  -0.681  25.795  0.00  0.00    -0.199 F 
BRANCH  13  19
ATOM     19  C   UNL A   1     -25.642   4.093  27.123  0.00  0.00    +0.266 C 
ATOM     20  N   UNL A   1     -25.614   5.252  26.449  0.00  0.00    -0.200 NA
ATOM     21  C   UNL A   1     -25.026   6.479  26.963  0.00  0.00    +0.139 C 
ATOM     22  O   UNL A   1     -25.143   3.966  28.243  0.00  0.00    -0.268 OA
ENDBRANCH  13  19
BRANCH  16  23
ATOM     23  O   UNL A   1     -28.193  -0.208  24.477  0.00  0.00    -0.456 OA
BRANCH  23  24
ATOM     24  C   UNL A   1     -29.460   0.005  23.866  0.00  0.00    +0.243 C 
BRANCH  24  25
ATOM     25  C   UNL A   1     -30.065  -1.377  23.573  0.00  0.00    +0.229 C 
ATOM     26  O   UNL A   1     -30.729  -1.878  24.721  0.00  0.00    -0.216 OA
ENDBRANCH  24  25
ENDBRANCH  23  24
ENDBRANCH  16  23
ENDBRANCH   3  12
BRANCH   1  27
ATOM     27  C   UNL A   1     -24.855  -1.012  30.143  0.00  0.00    +0.200 C 
BRANCH  27  28
ATOM     28  C   UNL A   1     -24.973  -2.505  29.788  0.00  0.00    +0.021 C 
ATOM     29  C   UNL A   1     -23.906  -3.173  29.146  0.00  0.00    -0.000 C 
ATOM     30  C   UNL A   1     -23.989  -4.549  28.853  0.00  0.00    -0.000 C 
ATOM     31  C   UNL A   1     -25.137  -5.280  29.205  0.00  0.00    -0.000 C 
ATOM     32  C   UNL A   1     -26.232  -4.611  29.784  0.00  0.00    -0.000 C 
ATOM     33  C   UNL A   1     -26.155  -3.232  30.065  0.00  0.00    -0.000 C 
ENDBRANCH  27  28
BRANCH  27  34
ATOM     34  C   UNL A   1     -25.387  -0.679  31.571  0.00  0.00    +0.120 C 
ATOM     35  C   UNL A   1     -25.189   0.773  32.028  0.00  0.00    +0.023 C 
ATOM     36  C   UNL A   1     -25.336   0.684  33.544  0.00  0.00    +0.020 C 
ATOM     37  C   UNL A   1     -24.829  -0.715  33.905  0.00  0.00    +0.089 C 
ATOM     38  N   UNL A   1     -24.758  -1.481  32.646  0.00  0.00    -0.215 NA
ENDBRANCH  27  34
ENDBRANCH   1  27
BRANCH   5  39
ATOM     39  N   UNL A   1     -26.642  -0.058  28.301  0.00  0.00    -0.192 NA
BRANCH  39  41
ATOM     40  C   UNL A   1     -29.143  -0.283  29.229  0.00  0.00    -0.006 C 
ATOM     41  C   UNL A   1     -27.795  -0.499  28.980  0.00  0.00    +0.080 C 
BRANCH  40  42
ATOM     42  C   UNL A   1     -29.705   1.015  28.710  0.00  0.00    +0.063 C 
BRANCH  42  43
ATOM     43  C   UNL A   1     -30.136   0.628  27.299  0.00  0.00    +0.187 C 
ATOM     44  O   UNL A   1     -31.408   0.998  26.867  0.00  0.00    -0.220 OA
ENDBRANCH  42  43
ENDBRANCH  40  42
ENDBRANCH  39  41
ENDBRANCH   5  39
TORSDOF 12
