REMARK  Name = outputs/IAG933/test6/raw/output_7714_IAG933_linker_design_.xyz
REMARK  14 active torsions:
REMARK  status: ('A' for Active; 'I' for Inactive)
REMARK    1  A    between atoms: C_1  and  C_2
REMARK    2  A    between atoms: C_1  and  C_8
REMARK    3  A    between atoms: C_1  and  C_38
REMARK    4  A    between atoms: C_9  and  C_34
REMARK    5  A    between atoms: C_13  and  O_36
REMARK    6  A    between atoms: C_14  and  C_15
REMARK    7  A    between atoms: C_21  and  O_22
REMARK    8  A    between atoms: O_22  and  C_23
REMARK    9  A    between atoms: C_23  and  C_24
REMARK   10  A    between atoms: C_30  and  C_35
REMARK   11  A    between atoms: C_30  and  C_37
REMARK   12  A    between atoms: C_34  and  C_39
REMARK   13  A    between atoms: O_36  and  C_37
REMARK   14  A    between atoms: C_37  and  C_38
REMARK                            x       y       z     vdW  Elec       q    Type
REMARK                         _______ _______ _______ _____ _____    ______ ____
ROOT
ATOM      1  C   UNL A   1     -25.265  -0.018  29.056  0.00  0.00    +0.050 C 
ENDROOT
BRANCH   1   2
ATOM      2  C   UNL A   1     -24.855  -1.012  30.143  0.00  0.00    +0.042 C 
BRANCH   2   3
ATOM      3  C   UNL A   1     -24.973  -2.505  29.788  0.00  0.00    -0.021 C 
ATOM      4  C   UNL A   1     -23.906  -3.173  29.146  0.00  0.00    -0.004 C 
ATOM      5  C   UNL A   1     -23.989  -4.549  28.853  0.00  0.00    -0.000 C 
ATOM      6  C   UNL A   1     -25.137  -5.280  29.205  0.00  0.00    -0.000 C 
ATOM      7  C   UNL A   1     -26.232  -4.611  29.784  0.00  0.00    -0.000 C 
ATOM      8  C   UNL A   1     -26.155  -3.232  30.065  0.00  0.00    -0.004 C 
ENDBRANCH   2   3
BRANCH   2   9
ATOM      9  C   UNL A   1     -25.387  -0.679  31.571  0.00  0.00    +0.084 C 
ATOM     10  C   UNL A   1     -25.189   0.773  32.028  0.00  0.00    +0.077 C 
ATOM     11  C   UNL A   1     -25.336   0.684  33.544  0.00  0.00    +0.028 C 
ATOM     12  C   UNL A   1     -24.829  -0.715  33.905  0.00  0.00    +0.089 C 
ATOM     13  N   UNL A   1     -24.758  -1.481  32.646  0.00  0.00    -0.219 NA
BRANCH  10  14
ATOM     14  C   UNL A   1     -24.889   2.178  31.615  0.00  0.00    +0.166 C 
ATOM     15  O   UNL A   1     -23.992   2.446  30.868  0.00  0.00    -0.295 OA
BRANCH  14  19
ATOM     16  C   UNL A   1     -26.871   5.216  30.703  0.00  0.00    +0.121 C 
ATOM     17  C   UNL A   1     -25.090   4.163  33.051  0.00  0.00    +0.024 C 
ATOM     18  C   UNL A   1     -27.650   4.842  33.252  0.00  0.00    +0.048 C 
ATOM     19  C   UNL A   1     -25.840   3.185  32.070  0.00  0.00    +0.117 C 
ATOM     20  C   UNL A   1     -26.169   5.274  33.370  0.00  0.00    +0.006 C 
ATOM     21  O   UNL A   1     -29.141   4.125  31.287  0.00  0.00    -0.207 OA
ATOM     22  C   UNL A   1     -27.712   4.471  31.692  0.00  0.00    +0.189 C 
ATOM     23  N   UNL A   1     -26.448   3.995  30.963  0.00  0.00    -0.242 NA
ENDBRANCH  14  19
ENDBRANCH  10  14
ENDBRANCH   2   9
ENDBRANCH   1   2
BRANCH   1  24
ATOM     24  C   UNL A   1     -24.255   1.119  28.543  0.00  0.00    +0.177 C 
BRANCH  24  26
ATOM     25  C   UNL A   1     -22.601   0.103  29.965  0.00  0.00    +0.016 C 
ATOM     26  C   UNL A   1     -22.953   0.997  28.769  0.00  0.00    +0.143 C 
BRANCH  26  28
ATOM     27  O   UNL A   1     -21.965   1.961  26.739  0.00  0.00    -0.245 OA
ATOM     28  C   UNL A   1     -21.828   1.263  27.804  0.00  0.00    +0.368 C 
ATOM     29  O   UNL A   1     -20.718   0.879  28.009  0.00  0.00    -0.245 OA
ENDBRANCH  26  28
ENDBRANCH  24  26
BRANCH  24  30
ATOM     30  O   UNL A   1     -24.530   1.069  27.066  0.00  0.00    -0.476 OA
BRANCH  30  31
ATOM     31  C   UNL A   1     -25.688   1.614  26.461  0.00  0.00    +0.176 C 
ATOM     32  C   UNL A   1     -26.250   2.920  26.395  0.00  0.00    +0.111 C 
ATOM     33  C   UNL A   1     -27.438   3.091  25.645  0.00  0.00    +0.110 C 
ATOM     34  N   UNL A   1     -28.075   2.089  25.003  0.00  0.00    -0.208 NA
ATOM     35  C   UNL A   1     -27.543   0.849  25.079  0.00  0.00    +0.256 C 
ATOM     36  C   UNL A   1     -26.354   0.576  25.777  0.00  0.00    +0.227 C 
ATOM     37  F   UNL A   1     -25.860  -0.681  25.795  0.00  0.00    -0.196 F 
BRANCH  32  38
ATOM     38  C   UNL A   1     -25.642   4.093  27.123  0.00  0.00    +0.269 C 
ATOM     39  N   UNL A   1     -25.614   5.252  26.449  0.00  0.00    -0.200 NA
ATOM     40  C   UNL A   1     -25.026   6.479  26.963  0.00  0.00    +0.139 C 
ATOM     41  O   UNL A   1     -25.143   3.966  28.243  0.00  0.00    -0.268 OA
ENDBRANCH  32  38
BRANCH  35  42
ATOM     42  O   UNL A   1     -28.193  -0.208  24.477  0.00  0.00    -0.456 OA
BRANCH  42  43
ATOM     43  C   UNL A   1     -29.460   0.005  23.866  0.00  0.00    +0.243 C 
BRANCH  43  44
ATOM     44  C   UNL A   1     -30.065  -1.377  23.573  0.00  0.00    +0.229 C 
ATOM     45  O   UNL A   1     -30.729  -1.878  24.721  0.00  0.00    -0.216 OA
ENDBRANCH  43  44
ENDBRANCH  42  43
ENDBRANCH  35  42
ENDBRANCH  30  31
ENDBRANCH  24  30
ENDBRANCH   1  24
TORSDOF 14
