REMARK  Name = outputs/IAG933/test6/raw/output_7716_IAG933_linker_design_.xyz
REMARK  8 active torsions:
REMARK  status: ('A' for Active; 'I' for Inactive)
REMARK    1  A    between atoms: C_1  and  C_2
REMARK    2  A    between atoms: C_13  and  N_29
REMARK    3  A    between atoms: C_14  and  C_15
REMARK    4  A    between atoms: C_21  and  O_22
REMARK    5  A    between atoms: O_22  and  C_23
REMARK    6  A    between atoms: C_23  and  C_24
REMARK    7  A    between atoms: N_29  and  C_32
REMARK    8  A    between atoms: C_35  and  C_42
REMARK                            x       y       z     vdW  Elec       q    Type
REMARK                         _______ _______ _______ _____ _____    ______ ____
ROOT
ATOM      1  C   UNL A   1     -24.855  -1.012  30.143  0.00  0.00    +0.040 C 
ATOM      2  C   UNL A   1     -25.387  -0.679  31.571  0.00  0.00    +0.079 C 
ATOM      3  C   UNL A   1     -25.189   0.773  32.028  0.00  0.00    +0.038 C 
ATOM      4  C   UNL A   1     -25.336   0.684  33.544  0.00  0.00    +0.022 C 
ATOM      5  C   UNL A   1     -24.829  -0.715  33.905  0.00  0.00    +0.089 C 
ATOM      6  N   UNL A   1     -24.758  -1.481  32.646  0.00  0.00    -0.219 NA
ATOM      7  C   UNL A   1     -24.118   1.230  29.269  0.00  0.00    +0.101 C 
ATOM      8 CL   UNL A   1     -22.334   2.301  25.526  0.00  0.00    -0.085 Cl
ATOM      9  C   UNL A   1     -21.472   1.396  28.003  0.00  0.00    +0.009 C 
ATOM     10  C   UNL A   1     -23.729   1.508  27.819  0.00  0.00    +0.143 C 
ATOM     11  C   UNL A   1     -24.860  -0.069  29.005  0.00  0.00    +0.028 C 
ATOM     12  C   UNL A   1     -22.831   0.868  29.946  0.00  0.00    -0.009 C 
ATOM     13  C   UNL A   1     -21.653   0.896  29.256  0.00  0.00    -0.003 C 
ATOM     14  C   UNL A   1     -25.753   1.903  31.224  0.00  0.00    +0.097 C 
ATOM     15  C   UNL A   1     -22.584   1.707  27.214  0.00  0.00    +0.057 C 
ATOM     16  N   UNL A   1     -24.867   2.234  30.102  0.00  0.00    -0.212 NA
ENDROOT
BRANCH   1  17
ATOM     17  C   UNL A   1     -24.973  -2.505  29.788  0.00  0.00    -0.021 C 
ATOM     18  C   UNL A   1     -23.906  -3.173  29.146  0.00  0.00    -0.004 C 
ATOM     19  C   UNL A   1     -23.989  -4.549  28.853  0.00  0.00    -0.000 C 
ATOM     20  C   UNL A   1     -25.137  -5.280  29.205  0.00  0.00    -0.000 C 
ATOM     21  C   UNL A   1     -26.232  -4.611  29.784  0.00  0.00    -0.000 C 
ATOM     22  C   UNL A   1     -26.155  -3.232  30.065  0.00  0.00    -0.004 C 
ENDBRANCH   1  17
BRANCH  14  25
ATOM     23  C   UNL A   1     -27.242   3.057  32.843  0.00  0.00    -0.003 C 
ATOM     24  C   UNL A   1     -25.748   5.425  32.434  0.00  0.00    -0.000 C 
ATOM     25  C   UNL A   1     -26.164   3.065  31.945  0.00  0.00    -0.006 C 
ATOM     26  C   UNL A   1     -27.544   4.225  33.550  0.00  0.00    -0.000 C 
ATOM     27  C   UNL A   1     -25.439   4.265  31.721  0.00  0.00    -0.003 C 
ATOM     28  C   UNL A   1     -26.820   5.389  33.343  0.00  0.00    -0.000 C 
ENDBRANCH  14  25
BRANCH  10  29
ATOM     29  N   UNL A   1     -24.569   1.430  26.997  0.00  0.00    -0.230 NA
BRANCH  29  30
ATOM     30  C   UNL A   1     -25.688   1.614  26.461  0.00  0.00    +0.104 C 
ATOM     31  C   UNL A   1     -26.250   2.920  26.395  0.00  0.00    +0.091 C 
ATOM     32  C   UNL A   1     -27.438   3.091  25.645  0.00  0.00    +0.108 C 
ATOM     33  N   UNL A   1     -28.075   2.089  25.003  0.00  0.00    -0.208 NA
ATOM     34  C   UNL A   1     -27.543   0.849  25.079  0.00  0.00    +0.255 C 
ATOM     35  C   UNL A   1     -26.354   0.576  25.777  0.00  0.00    +0.208 C 
ATOM     36  F   UNL A   1     -25.860  -0.681  25.795  0.00  0.00    -0.198 F 
BRANCH  31  37
ATOM     37  C   UNL A   1     -25.642   4.093  27.123  0.00  0.00    +0.268 C 
ATOM     38  N   UNL A   1     -25.614   5.252  26.449  0.00  0.00    -0.200 NA
ATOM     39  C   UNL A   1     -25.026   6.479  26.963  0.00  0.00    +0.139 C 
ATOM     40  O   UNL A   1     -25.143   3.966  28.243  0.00  0.00    -0.268 OA
ENDBRANCH  31  37
BRANCH  34  41
ATOM     41  O   UNL A   1     -28.193  -0.208  24.477  0.00  0.00    -0.456 OA
BRANCH  41  42
ATOM     42  C   UNL A   1     -29.460   0.005  23.866  0.00  0.00    +0.243 C 
BRANCH  42  43
ATOM     43  C   UNL A   1     -30.065  -1.377  23.573  0.00  0.00    +0.229 C 
ATOM     44  O   UNL A   1     -30.729  -1.878  24.721  0.00  0.00    -0.216 OA
ENDBRANCH  42  43
ENDBRANCH  41  42
ENDBRANCH  34  41
ENDBRANCH  29  30
ENDBRANCH  10  29
TORSDOF 8
