REMARK  Name = outputs/IAG933/test6/raw/output_7718_IAG933_linker_design_.xyz
REMARK  14 active torsions:
REMARK  status: ('A' for Active; 'I' for Inactive)
REMARK    1  A    between atoms: C_1  and  C_2
REMARK    2  A    between atoms: C_1  and  C_8
REMARK    3  A    between atoms: C_1  and  N_31
REMARK    4  A    between atoms: C_13  and  C_33
REMARK    5  A    between atoms: C_14  and  C_15
REMARK    6  A    between atoms: C_21  and  O_22
REMARK    7  A    between atoms: O_22  and  C_23
REMARK    8  A    between atoms: C_23  and  C_24
REMARK    9  A    between atoms: C_29  and  C_41
REMARK   10  A    between atoms: N_31  and  C_32
REMARK   11  A    between atoms: N_31  and  C_40
REMARK   12  A    between atoms: N_34  and  O_38
REMARK   13  A    between atoms: C_39  and  C_41
REMARK   14  A    between atoms: C_39  and  C_44
REMARK                            x       y       z     vdW  Elec       q    Type
REMARK                         _______ _______ _______ _____ _____    ______ ____
ROOT
ATOM      1  N   UNL A   1     -25.422   0.028  29.216  0.00  0.00    -0.244 N 
ENDROOT
BRANCH   1   4
ATOM      2  C   UNL A   1     -21.977   1.570  28.538  0.00  0.00    +0.002 C 
ATOM      3  C   UNL A   1     -22.027   2.023  27.266  0.00  0.00    +0.011 C 
ATOM      4  C   UNL A   1     -24.305   0.738  28.457  0.00  0.00    +0.060 C 
ATOM      5  C   UNL A   1     -24.381   1.374  27.160  0.00  0.00    +0.027 C 
ATOM      6  C   UNL A   1     -23.073   0.931  29.124  0.00  0.00    +0.015 C 
ATOM      7 CL   UNL A   1     -23.147   2.393  24.926  0.00  0.00    -0.082 Cl
ATOM      8  C   UNL A   1     -23.232   1.911  26.601  0.00  0.00    +0.059 C 
BRANCH   5   9
ATOM      9  C   UNL A   1     -25.688   1.614  26.461  0.00  0.00    +0.040 C 
ATOM     10  C   UNL A   1     -26.250   2.920  26.395  0.00  0.00    +0.077 C 
ATOM     11  C   UNL A   1     -27.438   3.091  25.645  0.00  0.00    +0.107 C 
ATOM     12  N   UNL A   1     -28.075   2.089  25.003  0.00  0.00    -0.208 NA
ATOM     13  C   UNL A   1     -27.543   0.849  25.079  0.00  0.00    +0.253 C 
ATOM     14  C   UNL A   1     -26.354   0.576  25.777  0.00  0.00    +0.193 C 
ATOM     15  F   UNL A   1     -25.860  -0.681  25.795  0.00  0.00    -0.199 F 
BRANCH  10  16
ATOM     16  C   UNL A   1     -25.642   4.093  27.123  0.00  0.00    +0.266 C 
ATOM     17  N   UNL A   1     -25.614   5.252  26.449  0.00  0.00    -0.200 NA
ATOM     18  C   UNL A   1     -25.026   6.479  26.963  0.00  0.00    +0.139 C 
ATOM     19  O   UNL A   1     -25.143   3.966  28.243  0.00  0.00    -0.268 OA
ENDBRANCH  10  16
BRANCH  13  20
ATOM     20  O   UNL A   1     -28.193  -0.208  24.477  0.00  0.00    -0.456 OA
BRANCH  20  21
ATOM     21  C   UNL A   1     -29.460   0.005  23.866  0.00  0.00    +0.243 C 
BRANCH  21  22
ATOM     22  C   UNL A   1     -30.065  -1.377  23.573  0.00  0.00    +0.229 C 
ATOM     23  O   UNL A   1     -30.729  -1.878  24.721  0.00  0.00    -0.216 OA
ENDBRANCH  21  22
ENDBRANCH  20  21
ENDBRANCH  13  20
ENDBRANCH   5   9
ENDBRANCH   1   4
BRANCH   1  24
ATOM     24  C   UNL A   1     -26.372   1.507  29.653  0.00  0.00    +0.005 C 
ATOM     25  C   UNL A   1     -26.994   2.535  29.924  0.00  0.00    -0.070 C 
BRANCH  25  26
ATOM     26  C   UNL A   1     -27.744   3.788  30.539  0.00  0.00    +0.087 C 
BRANCH  26  27
ATOM     27  C   UNL A   1     -27.319   5.258  30.173  0.00  0.00    +0.103 C 
BRANCH  27  28
ATOM     28  C   UNL A   1     -26.025   5.634  30.824  0.00  0.00    +0.268 C 
ATOM     29  N   UNL A   1     -25.159   4.685  31.170  0.00  0.00    -0.062 NA
ATOM     30  O   UNL A   1     -25.771   6.831  30.984  0.00  0.00    -0.271 OA
BRANCH  29  31
ATOM     31  O   UNL A   1     -24.721   4.524  32.467  0.00  0.00    -0.241 OA
ATOM     32  C   UNL A   1     -24.180   5.619  33.158  0.00  0.00    +0.208 C 
ENDBRANCH  29  31
ENDBRANCH  27  28
ENDBRANCH  26  27
ENDBRANCH  25  26
ENDBRANCH   1  24
BRANCH   1  33
ATOM     33  C   UNL A   1     -24.855  -1.012  30.143  0.00  0.00    +0.124 C 
BRANCH  33  34
ATOM     34  C   UNL A   1     -24.973  -2.505  29.788  0.00  0.00    -0.002 C 
ATOM     35  C   UNL A   1     -23.906  -3.173  29.146  0.00  0.00    -0.003 C 
ATOM     36  C   UNL A   1     -23.989  -4.549  28.853  0.00  0.00    -0.000 C 
ATOM     37  C   UNL A   1     -25.137  -5.280  29.205  0.00  0.00    -0.000 C 
ATOM     38  C   UNL A   1     -26.232  -4.611  29.784  0.00  0.00    -0.000 C 
ATOM     39  C   UNL A   1     -26.155  -3.232  30.065  0.00  0.00    -0.003 C 
ENDBRANCH  33  34
BRANCH  33  40
ATOM     40  C   UNL A   1     -25.387  -0.679  31.571  0.00  0.00    +0.096 C 
ATOM     41  C   UNL A   1     -25.189   0.773  32.028  0.00  0.00    +0.021 C 
ATOM     42  C   UNL A   1     -25.336   0.684  33.544  0.00  0.00    +0.020 C 
ATOM     43  C   UNL A   1     -24.829  -0.715  33.905  0.00  0.00    +0.089 C 
ATOM     44  N   UNL A   1     -24.758  -1.481  32.646  0.00  0.00    -0.217 NA
ENDBRANCH  33  40
ENDBRANCH   1  33
TORSDOF 14
