MODEL 771
MODEL 1
REMARK VINA RESULT:    -6.700      0.000      0.000
REMARK INTER + INTRA:          -8.365
REMARK INTER:                  -7.875
REMARK INTRA:                  -0.490
REMARK UNBOUND:                -0.490
REMARK  Name = No_771-gen_results/8p0m/2024-11-27-11-27-31/
REMARK  3 active torsions:
REMARK  status: ('A' for Active; 'I' for Inactive)
REMARK    1  A    between atoms: C_3  and  O_9
REMARK    2  A    between atoms: O_9  and  C_11
REMARK    3  A    between atoms: C_11  and  C_13
REMARK                            x       y       z     vdW  Elec       q    Type
REMARK                         _______ _______ _______ _____ _____    ______ ____
ROOT
ATOM      1  F   UNL A   1     -26.250   0.160  27.829  0.00  0.00    -0.191 F 
ATOM      2  C   UNL A   1     -25.414   0.080  27.051  0.00  0.00    +0.341 C 
ATOM      3  C   UNL A   1     -24.165   0.090  27.512  0.00  0.00    +0.188 C 
ATOM      4  C   UNL A   1     -25.598   1.187  25.943  0.00  0.00    +0.099 C 
ATOM      5  F   UNL A   1     -25.586  -1.063  26.276  0.00  0.00    -0.191 F 
ATOM      6  C   UNL A   1     -23.197   1.140  27.338  0.00  0.00    +0.075 C 
ATOM      7  C   UNL A   1     -24.763   2.360  25.949  0.00  0.00    -0.008 C 
ATOM      8  C   UNL A   1     -23.500   2.231  26.489  0.00  0.00    +0.068 C 
ATOM      9 CL   UNL A   1     -21.660   1.201  28.031  0.00  0.00    -0.084 Cl
ATOM     10 CL   UNL A   1     -27.135   1.377  25.192  0.00  0.00    -0.081 Cl
ENDROOT
BRANCH   3  11
ATOM     11  O   UNL A   1     -23.681  -0.911  28.329  0.00  0.00    -0.469 OA
BRANCH  11  12
ATOM     12  C   UNL A   1     -24.345  -1.301  29.378  0.00  0.00    +0.232 C 
BRANCH  12  13
ATOM     13  C   UNL A   1     -24.631  -2.656  29.469  0.00  0.00    +0.021 A 
ATOM     14  C   UNL A   1     -23.737  -3.500  28.856  0.00  0.00    -0.001 A 
ATOM     15  C   UNL A   1     -24.178  -4.814  28.541  0.00  0.00    -0.000 A 
ATOM     16  C   UNL A   1     -25.338  -5.203  29.191  0.00  0.00    -0.000 A 
ATOM     17  C   UNL A   1     -26.113  -4.282  29.658  0.00  0.00    -0.000 A 
ATOM     18  C   UNL A   1     -25.868  -2.985  29.819  0.00  0.00    -0.001 A 
ENDBRANCH  12  13
ENDBRANCH  11  12
ENDBRANCH   3  11
TORSDOF 3
ENDMDL
ENDMDL
