REMARK  Name = outputs/IAG933/test6/raw/output_7720_IAG933_linker_design_.xyz
REMARK  8 active torsions:
REMARK  status: ('A' for Active; 'I' for Inactive)
REMARK    1  A    between atoms: C_1  and  C_2
REMARK    2  A    between atoms: C_13  and  C_34
REMARK    3  A    between atoms: C_14  and  C_15
REMARK    4  A    between atoms: C_21  and  O_22
REMARK    5  A    between atoms: O_22  and  C_23
REMARK    6  A    between atoms: C_23  and  C_24
REMARK    7  A    between atoms: C_28  and  C_42
REMARK    8  A    between atoms: C_38  and  C_40
REMARK                            x       y       z     vdW  Elec       q    Type
REMARK                         _______ _______ _______ _____ _____    ______ ____
ROOT
ATOM      1  C   UNL A   1     -24.855  -1.012  30.143  0.00  0.00    +0.116 C 
ATOM      2  C   UNL A   1     -25.387  -0.679  31.571  0.00  0.00    +0.122 C 
ATOM      3  C   UNL A   1     -25.189   0.773  32.028  0.00  0.00    +0.135 C 
ATOM      4  C   UNL A   1     -25.336   0.684  33.544  0.00  0.00    +0.050 C 
ATOM      5  C   UNL A   1     -24.829  -0.715  33.905  0.00  0.00    +0.091 C 
ATOM      6  N   UNL A   1     -24.758  -1.481  32.646  0.00  0.00    -0.215 NA
ATOM      7  O   UNL A   1     -26.713   0.210  28.596  0.00  0.00    -0.275 OA
ATOM      8  C   UNL A   1     -25.376   0.409  28.377  0.00  0.00    +0.226 C 
ATOM      9  C   UNL A   1     -24.118   2.092  30.226  0.00  0.00    +0.162 C 
ATOM     10  C   UNL A   1     -24.698   1.222  27.480  0.00  0.00    +0.092 C 
ATOM     11  N   UNL A   1     -24.641   0.074  29.479  0.00  0.00    -0.275 N 
ATOM     12  C   UNL A   1     -23.585   0.960  29.489  0.00  0.00    +0.108 C 
ATOM     13  C   UNL A   1     -23.413   1.512  27.168  0.00  0.00    +0.108 C 
ATOM     14  O   UNL A   1     -24.495   1.920  31.545  0.00  0.00    -0.353 OA
ATOM     15  C   UNL A   1     -22.738   1.119  28.153  0.00  0.00    +0.062 C 
ENDROOT
BRANCH  10  16
ATOM     16  C   UNL A   1     -25.688   1.614  26.461  0.00  0.00    +0.079 C 
ATOM     17  C   UNL A   1     -26.250   2.920  26.395  0.00  0.00    +0.055 C 
ATOM     18  C   UNL A   1     -27.438   3.091  25.645  0.00  0.00    +0.102 C 
ATOM     19  N   UNL A   1     -28.075   2.089  25.003  0.00  0.00    -0.212 NA
ATOM     20  C   UNL A   1     -27.543   0.849  25.079  0.00  0.00    +0.234 C 
ATOM     21  C   UNL A   1     -26.354   0.576  25.777  0.00  0.00    +0.240 C 
ATOM     22  F   UNL A   1     -25.860  -0.681  25.795  0.00  0.00    -0.227 F 
BRANCH  17  23
ATOM     23  C   UNL A   1     -25.642   4.093  27.123  0.00  0.00    +0.263 C 
ATOM     24  N   UNL A   1     -25.614   5.252  26.449  0.00  0.00    -0.200 NA
ATOM     25  C   UNL A   1     -25.026   6.479  26.963  0.00  0.00    +0.139 C 
ATOM     26  O   UNL A   1     -25.143   3.966  28.243  0.00  0.00    -0.269 OA
ENDBRANCH  17  23
BRANCH  20  27
ATOM     27  O   UNL A   1     -28.193  -0.208  24.477  0.00  0.00    -0.459 OA
BRANCH  27  28
ATOM     28  C   UNL A   1     -29.460   0.005  23.866  0.00  0.00    +0.242 C 
BRANCH  28  29
ATOM     29  C   UNL A   1     -30.065  -1.377  23.573  0.00  0.00    +0.229 C 
ATOM     30  O   UNL A   1     -30.729  -1.878  24.721  0.00  0.00    -0.216 OA
ENDBRANCH  28  29
ENDBRANCH  27  28
ENDBRANCH  20  27
ENDBRANCH  10  16
BRANCH   1  31
ATOM     31  C   UNL A   1     -24.973  -2.505  29.788  0.00  0.00    -0.003 C 
ATOM     32  C   UNL A   1     -23.906  -3.173  29.146  0.00  0.00    -0.003 C 
ATOM     33  C   UNL A   1     -23.989  -4.549  28.853  0.00  0.00    -0.000 C 
ATOM     34  C   UNL A   1     -25.137  -5.280  29.205  0.00  0.00    -0.000 C 
ATOM     35  C   UNL A   1     -26.232  -4.611  29.784  0.00  0.00    -0.000 C 
ATOM     36  C   UNL A   1     -26.155  -3.232  30.065  0.00  0.00    -0.003 C 
ENDBRANCH   1  31
BRANCH  13  40
ATOM     37  F   UNL A   1     -23.235   1.352  24.792  0.00  0.00    -0.170 F 
ATOM     38  F   UNL A   1     -23.371   3.306  25.758  0.00  0.00    -0.170 F 
ATOM     39  F   UNL A   1     -21.552   2.151  25.731  0.00  0.00    -0.170 F 
ATOM     40  C   UNL A   1     -22.859   2.119  25.898  0.00  0.00    +0.398 C 
ENDBRANCH  13  40
BRANCH  15  41
ATOM     41  C   UNL A   1     -21.369   0.503  27.923  0.00  0.00    +0.184 C 
ATOM     42  O   UNL A   1     -21.273  -0.350  29.055  0.00  0.00    -0.220 OA
ENDBRANCH  15  41
TORSDOF 8
