REMARK  Name = outputs/IAG933/test6/raw/output_7724_IAG933_linker_design_.xyz
REMARK  8 active torsions:
REMARK  status: ('A' for Active; 'I' for Inactive)
REMARK    1  A    between atoms: C_1  and  C_2
REMARK    2  A    between atoms: C_1  and  C_8
REMARK    3  A    between atoms: C_1  and  N_38
REMARK    4  A    between atoms: C_13  and  C_30
REMARK    5  A    between atoms: C_14  and  C_15
REMARK    6  A    between atoms: C_21  and  O_22
REMARK    7  A    between atoms: O_22  and  C_23
REMARK    8  A    between atoms: C_23  and  C_24
REMARK                            x       y       z     vdW  Elec       q    Type
REMARK                         _______ _______ _______ _____ _____    ______ ____
ROOT
ATOM      1  C   UNL A   1     -22.097   1.887  25.547  0.00  0.00    +0.380 C 
ATOM      2  C   UNL A   1     -25.444   0.424  28.383  0.00  0.00    +0.228 C 
ATOM      3  C   UNL A   1     -24.833   1.244  27.375  0.00  0.00    +0.110 C 
ATOM      4  N   UNL A   1     -20.435   0.668  28.484  0.00  0.00    -0.239 NA
ATOM      5  F   UNL A   1     -22.890   1.688  29.540  0.00  0.00    -0.227 F 
ATOM      6  C   UNL A   1     -20.895  -0.664  28.767  0.00  0.00    +0.130 C 
ATOM      7  N   UNL A   1     -23.326   1.825  25.948  0.00  0.00    -0.209 NA
ATOM      8  O   UNL A   1     -26.680   0.364  28.752  0.00  0.00    -0.275 OA
ATOM      9  C   UNL A   1     -22.761   1.170  28.221  0.00  0.00    +0.238 C 
ATOM     10  C   UNL A   1     -22.044  -0.678  29.660  0.00  0.00    +0.050 C 
ATOM     11  N   UNL A   1     -24.414  -0.185  29.026  0.00  0.00    -0.274 N 
ATOM     12  F   UNL A   1     -21.724   1.877  24.295  0.00  0.00    -0.143 F 
ATOM     13  C   UNL A   1     -23.681   1.451  27.148  0.00  0.00    +0.158 C 
ATOM     14  C   UNL A   1     -21.515   1.331  27.723  0.00  0.00    +0.239 C 
ATOM     15  O   UNL A   1     -21.148   1.743  26.500  0.00  0.00    -0.399 OA
ATOM     16  C   UNL A   1     -23.107  -0.306  28.735  0.00  0.00    +0.118 C 
ENDROOT
BRANCH   3  17
ATOM     17  C   UNL A   1     -25.688   1.614  26.461  0.00  0.00    +0.081 C 
ATOM     18  C   UNL A   1     -26.250   2.920  26.395  0.00  0.00    +0.055 C 
ATOM     19  C   UNL A   1     -27.438   3.091  25.645  0.00  0.00    +0.102 C 
ATOM     20  N   UNL A   1     -28.075   2.089  25.003  0.00  0.00    -0.212 NA
ATOM     21  C   UNL A   1     -27.543   0.849  25.079  0.00  0.00    +0.234 C 
ATOM     22  C   UNL A   1     -26.354   0.576  25.777  0.00  0.00    +0.240 C 
ATOM     23  F   UNL A   1     -25.860  -0.681  25.795  0.00  0.00    -0.227 F 
BRANCH  18  24
ATOM     24  C   UNL A   1     -25.642   4.093  27.123  0.00  0.00    +0.263 C 
ATOM     25  N   UNL A   1     -25.614   5.252  26.449  0.00  0.00    -0.200 NA
ATOM     26  C   UNL A   1     -25.026   6.479  26.963  0.00  0.00    +0.139 C 
ATOM     27  O   UNL A   1     -25.143   3.966  28.243  0.00  0.00    -0.269 OA
ENDBRANCH  18  24
BRANCH  21  28
ATOM     28  O   UNL A   1     -28.193  -0.208  24.477  0.00  0.00    -0.459 OA
BRANCH  28  29
ATOM     29  C   UNL A   1     -29.460   0.005  23.866  0.00  0.00    +0.242 C 
BRANCH  29  30
ATOM     30  C   UNL A   1     -30.065  -1.377  23.573  0.00  0.00    +0.229 C 
ATOM     31  O   UNL A   1     -30.729  -1.878  24.721  0.00  0.00    -0.216 OA
ENDBRANCH  29  30
ENDBRANCH  28  29
ENDBRANCH  21  28
ENDBRANCH   3  17
BRANCH  11  32
ATOM     32  C   UNL A   1     -24.855  -1.012  30.143  0.00  0.00    +0.114 C 
BRANCH  32  33
ATOM     33  C   UNL A   1     -24.973  -2.505  29.788  0.00  0.00    -0.003 C 
ATOM     34  C   UNL A   1     -23.906  -3.173  29.146  0.00  0.00    -0.003 C 
ATOM     35  C   UNL A   1     -23.989  -4.549  28.853  0.00  0.00    -0.000 C 
ATOM     36  C   UNL A   1     -25.137  -5.280  29.205  0.00  0.00    -0.000 C 
ATOM     37  C   UNL A   1     -26.232  -4.611  29.784  0.00  0.00    -0.000 C 
ATOM     38  C   UNL A   1     -26.155  -3.232  30.065  0.00  0.00    -0.003 C 
ENDBRANCH  32  33
BRANCH  32  39
ATOM     39  C   UNL A   1     -25.387  -0.679  31.571  0.00  0.00    +0.095 C 
ATOM     40  C   UNL A   1     -25.189   0.773  32.028  0.00  0.00    +0.021 C 
ATOM     41  C   UNL A   1     -25.336   0.684  33.544  0.00  0.00    +0.020 C 
ATOM     42  C   UNL A   1     -24.829  -0.715  33.905  0.00  0.00    +0.089 C 
ATOM     43  N   UNL A   1     -24.758  -1.481  32.646  0.00  0.00    -0.217 NA
ENDBRANCH  32  39
ENDBRANCH  11  32
TORSDOF 8
