REMARK  Name = outputs/IAG933/test6/raw/output_7726_IAG933_linker_design_.xyz
REMARK  10 active torsions:
REMARK  status: ('A' for Active; 'I' for Inactive)
REMARK    1  A    between atoms: C_1  and  C_2
REMARK    2  A    between atoms: C_1  and  C_8
REMARK    3  A    between atoms: C_1  and  C_28
REMARK    4  A    between atoms: C_21  and  O_22
REMARK    5  A    between atoms: O_22  and  C_23
REMARK    6  A    between atoms: C_23  and  C_24
REMARK    7  A    between atoms: N_29  and  C_35
REMARK    8  A    between atoms: N_30  and  C_45
REMARK    9  A    between atoms: C_32  and  C_35
REMARK   10  A    between atoms: C_37  and  S_47
REMARK                            x       y       z     vdW  Elec       q    Type
REMARK                         _______ _______ _______ _____ _____    ______ ____
ROOT
ATOM      1  C   UNL A   1     -25.688   1.614  26.461  0.00  0.00    +0.078 C 
ATOM      2  C   UNL A   1     -26.250   2.920  26.395  0.00  0.00    +0.053 C 
ATOM      3  C   UNL A   1     -25.642   4.093  27.123  0.00  0.00    +0.220 C 
ATOM      4  N   UNL A   1     -25.614   5.252  26.449  0.00  0.00    -0.236 NA
ATOM      5  C   UNL A   1     -25.026   6.479  26.963  0.00  0.00    +0.155 C 
ATOM      6  O   UNL A   1     -25.143   3.966  28.243  0.00  0.00    -0.434 OA
ATOM      7  C   UNL A   1     -27.438   3.091  25.645  0.00  0.00    +0.102 C 
ATOM      8  N   UNL A   1     -28.075   2.089  25.003  0.00  0.00    -0.212 NA
ATOM      9  C   UNL A   1     -27.543   0.849  25.079  0.00  0.00    +0.234 C 
ATOM     10  C   UNL A   1     -26.354   0.576  25.777  0.00  0.00    +0.240 C 
ATOM     11  F   UNL A   1     -25.860  -0.681  25.795  0.00  0.00    -0.227 F 
ATOM     12  C   UNL A   1     -25.167   0.005  28.916  0.00  0.00    +0.014 C 
ATOM     13  C   UNL A   1     -23.782   1.691  28.212  0.00  0.00    +0.113 C 
ATOM     14  C   UNL A   1     -23.513   0.106  28.476  0.00  0.00    +0.018 C 
ATOM     15  C   UNL A   1     -25.419   1.294  28.181  0.00  0.00    +0.090 C 
ATOM     16  C   UNL A   1     -24.860   2.613  28.997  0.00  0.00    +0.282 C 
ENDROOT
BRANCH  16  18
ATOM     17  N   UNL A   1     -26.791   4.079  32.228  0.00  0.00    -0.147 N 
ATOM     18  N   UNL A   1     -25.454   3.475  30.126  0.00  0.00    -0.029 NA
ATOM     19  N   UNL A   1     -24.578   4.406  32.227  0.00  0.00    +0.119 NA
ATOM     20  O   UNL A   1     -25.075   4.684  33.512  0.00  0.00    -0.265 OA
ATOM     21  C   UNL A   1     -26.388   4.355  33.457  0.00  0.00    +0.432 C 
ATOM     22  C   UNL A   1     -25.668   4.143  31.420  0.00  0.00    +0.452 C 
BRANCH  17  23
ATOM     23  C   UNL A   1     -28.221   3.772  31.865  0.00  0.00    +0.198 C 
BRANCH  23  25
ATOM     24  O   UNL A   1     -28.363  -0.070  28.627  0.00  0.00    -0.287 OA
ATOM     25  C   UNL A   1     -28.597   3.060  30.550  0.00  0.00    +0.018 C 
ATOM     26  C   UNL A   1     -28.340   1.681  30.309  0.00  0.00    +0.041 C 
ATOM     27  C   UNL A   1     -28.826   1.124  29.133  0.00  0.00    +0.196 C 
ATOM     28  C   UNL A   1     -29.217   3.833  29.570  0.00  0.00    -0.001 C 
ATOM     29  C   UNL A   1     -29.755   1.820  28.346  0.00  0.00    +0.042 C 
ATOM     30  C   UNL A   1     -29.916   3.205  28.526  0.00  0.00    +0.003 C 
ENDBRANCH  23  25
ENDBRANCH  17  23
ENDBRANCH  16  18
BRANCH  13  32
ATOM     31  C   UNL A   1     -21.089   2.026  27.174  0.00  0.00    +0.069 C 
ATOM     32  S   UNL A   1     -22.764   1.930  26.593  0.00  0.00    -0.134 S 
ENDBRANCH  13  32
BRANCH  12  33
ATOM     33  C   UNL A   1     -24.855  -1.012  30.143  0.00  0.00    +0.039 C 
BRANCH  33  34
ATOM     34  C   UNL A   1     -24.973  -2.505  29.788  0.00  0.00    -0.021 C 
ATOM     35  C   UNL A   1     -23.906  -3.173  29.146  0.00  0.00    -0.004 C 
ATOM     36  C   UNL A   1     -23.989  -4.549  28.853  0.00  0.00    -0.000 C 
ATOM     37  C   UNL A   1     -25.137  -5.280  29.205  0.00  0.00    -0.000 C 
ATOM     38  C   UNL A   1     -26.232  -4.611  29.784  0.00  0.00    -0.000 C 
ATOM     39  C   UNL A   1     -26.155  -3.232  30.065  0.00  0.00    -0.004 C 
ENDBRANCH  33  34
BRANCH  33  40
ATOM     40  C   UNL A   1     -25.387  -0.679  31.571  0.00  0.00    +0.077 C 
ATOM     41  C   UNL A   1     -25.189   0.773  32.028  0.00  0.00    +0.019 C 
ATOM     42  C   UNL A   1     -25.336   0.684  33.544  0.00  0.00    +0.020 C 
ATOM     43  C   UNL A   1     -24.829  -0.715  33.905  0.00  0.00    +0.089 C 
ATOM     44  N   UNL A   1     -24.758  -1.481  32.646  0.00  0.00    -0.219 NA
ENDBRANCH  33  40
ENDBRANCH  12  33
BRANCH   9  45
ATOM     45  O   UNL A   1     -28.193  -0.208  24.477  0.00  0.00    -0.459 OA
BRANCH  45  46
ATOM     46  C   UNL A   1     -29.460   0.005  23.866  0.00  0.00    +0.242 C 
BRANCH  46  47
ATOM     47  C   UNL A   1     -30.065  -1.377  23.573  0.00  0.00    +0.229 C 
ATOM     48  O   UNL A   1     -30.729  -1.878  24.721  0.00  0.00    -0.216 OA
ENDBRANCH  46  47
ENDBRANCH  45  46
ENDBRANCH   9  45
TORSDOF 10
