MODEL 772
MODEL 1
REMARK VINA RESULT:    -6.977      0.000      0.000
REMARK INTER + INTRA:         -11.483
REMARK INTER:                  -9.832
REMARK INTRA:                  -1.651
REMARK UNBOUND:                -1.651
REMARK  Name = No_772-gen_results/8p0m/2024-11-27-11-27-31/
REMARK  7 active torsions:
REMARK  status: ('A' for Active; 'I' for Inactive)
REMARK    1  A    between atoms: C_1  and  C_2
REMARK    2  A    between atoms: C_1  and  C_11
REMARK    3  A    between atoms: C_4  and  C_16
REMARK    4  A    between atoms: C_5  and  C_6
REMARK    5  A    between atoms: C_11  and  C_13
REMARK    6  A    between atoms: C_16  and  N_17
REMARK    7  A    between atoms: C_26  and  C_27
REMARK                            x       y       z     vdW  Elec       q    Type
REMARK                         _______ _______ _______ _____ _____    ______ ____
ROOT
ATOM      1  C   UNL A   1     -24.314  -1.215  29.447  0.00  0.00    -0.021 A 
ATOM      2  C   UNL A   1     -24.957  -0.158  29.042  0.00  0.00    -0.007 A 
ATOM      3  C   UNL A   1     -25.182   1.085  29.821  0.00  0.00    -0.000 A 
ATOM      4  C   UNL A   1     -24.681   1.095  31.154  0.00  0.00    +0.077 A 
ATOM      5  C   UNL A   1     -23.880  -1.103  30.912  0.00  0.00    -0.004 A 
ATOM      6  C   UNL A   1     -24.069   0.008  31.714  0.00  0.00    +0.006 A 
ENDROOT
BRANCH   4   7
ATOM      7  C   UNL A   1     -24.913   2.234  31.964  0.00  0.00    +0.388 C 
ATOM      8  O   UNL A   1     -25.446   2.406  32.903  0.00  0.00    -0.241 OA
ATOM      9  O   UNL A   1     -23.855   3.217  31.755  0.00  0.00    -0.241 OA
ENDBRANCH   4   7
BRANCH   1  10
ATOM     10  C   UNL A   1     -24.117  -2.243  28.841  0.00  0.00    +0.054 C 
BRANCH  10  11
ATOM     11  C   UNL A   1     -25.146  -3.315  29.259  0.00  0.00    +0.187 C 
ATOM     12 CL   UNL A   1     -26.352  -3.021  29.998  0.00  0.00    -0.102 Cl
BRANCH  11  13
ATOM     13  C   UNL A   1     -24.717  -4.758  28.976  0.00  0.00    +0.380 C 
ATOM     14  O   UNL A   1     -25.337  -5.604  29.636  0.00  0.00    -0.244 OA
ATOM     15  O   UNL A   1     -23.799  -4.970  28.205  0.00  0.00    -0.244 OA
ENDBRANCH  11  13
ENDBRANCH  10  11
ENDBRANCH   1  10
BRANCH   3  16
ATOM     16  C   UNL A   1     -25.901   2.234  29.273  0.00  0.00    +0.100 C 
BRANCH  16  17
ATOM     17  N   UNL A   1     -25.481   2.655  28.093  0.00  0.00    -0.264 NA
ATOM     18  C   UNL A   1     -24.601   3.097  27.610  0.00  0.00    +0.088 C 
ATOM     19  C   UNL A   1     -26.643   2.465  27.027  0.00  0.00    +0.099 C 
ATOM     20  C   UNL A   1     -26.457   1.567  26.043  0.00  0.00    -0.009 A 
ATOM     21  C   UNL A   1     -27.354   0.713  25.698  0.00  0.00    -0.003 A 
ATOM     22  C   UNL A   1     -27.132  -0.455  24.960  0.00  0.00    -0.000 A 
ATOM     23  C   UNL A   1     -25.867  -0.561  24.391  0.00  0.00    -0.000 A 
ATOM     24  C   UNL A   1     -24.885   0.320  24.732  0.00  0.00    -0.004 A 
ATOM     25  C   UNL A   1     -25.147   1.374  25.605  0.00  0.00    -0.013 A 
ATOM     26  C   UNL A   1     -24.084   2.175  26.434  0.00  0.00    +0.141 C 
BRANCH  26  27
ATOM     27  C   UNL A   1     -22.736   2.179  25.992  0.00  0.00    +0.370 C 
ATOM     28  O   UNL A   1     -22.323   2.483  24.985  0.00  0.00    -0.245 OA
ATOM     29  O   UNL A   1     -21.855   1.839  26.947  0.00  0.00    -0.245 OA
ENDBRANCH  26  27
ENDBRANCH  16  17
ENDBRANCH   3  16
TORSDOF 7
ENDMDL
ENDMDL
