REMARK  Name = No_773-gen_results/8p0m/2024-11-27-11-27-31/
REMARK  3 active torsions:
REMARK  status: ('A' for Active; 'I' for Inactive)
REMARK    1  A    between atoms: C_1  and  C_12
REMARK    2  A    between atoms: C_5  and  C_7
REMARK    3  A    between atoms: C_7  and  C_9
REMARK                            x       y       z     vdW  Elec       q    Type
REMARK                         _______ _______ _______ _____ _____    ______ ____
ROOT
ATOM      1  C   UNL A   1     -28.016  -0.814  28.878  0.00  0.00    +0.082 A 
ATOM      2  C   UNL A   1     -27.064  -0.119  28.608  0.00  0.00    +0.036 A 
ATOM      3  C   UNL A   1     -26.972   0.714  27.506  0.00  0.00    +0.140 A 
ATOM      4  C   UNL A   1     -28.105   0.774  26.642  0.00  0.00    +0.027 A 
ATOM      5  C   UNL A   1     -29.204   0.118  27.048  0.00  0.00    +0.005 A 
ATOM      6  C   UNL A   1     -29.213  -0.609  28.128  0.00  0.00    +0.004 A 
ATOM      7  F   UNL A   1     -25.815   1.341  27.150  0.00  0.00    -0.204 F 
ENDROOT
BRANCH   5   8
ATOM      8  C   UNL A   1     -30.371   0.233  26.138  0.00  0.00    +0.171 C 
ATOM      9  N   UNL A   1     -30.284   0.131  24.901  0.00  0.00    -0.206 NA
ATOM     10  C   UNL A   1     -31.047   1.683  26.426  0.00  0.00    +0.031 C 
ATOM     11  C   UNL A   1     -31.101   2.450  25.510  0.00  0.00    +0.004 C 
ATOM     12  C   UNL A   1     -30.680   2.172  24.194  0.00  0.00    +0.019 C 
ATOM     13  C   UNL A   1     -30.194   0.983  23.924  0.00  0.00    +0.090 C 
BRANCH   8  14
ATOM     14  C   UNL A   1     -31.473  -0.815  26.582  0.00  0.00    +0.382 C 
ATOM     15  O   UNL A   1     -31.803  -0.952  27.659  0.00  0.00    -0.244 OA
ATOM     16  O   UNL A   1     -32.094  -1.332  25.620  0.00  0.00    -0.244 OA
ENDBRANCH   8  14
ENDBRANCH   5   8
BRANCH   1  17
ATOM     17  C   UNL A   1     -28.064  -1.679  30.158  0.00  0.00    +0.388 C 
ATOM     18  O   UNL A   1     -28.538  -1.455  31.108  0.00  0.00    -0.241 OA
ATOM     19  O   UNL A   1     -27.417  -2.863  29.922  0.00  0.00    -0.241 OA
ENDBRANCH   1  17
TORSDOF 3
