REMARK  Name = outputs/IAG933/test6/raw/output_7734_IAG933_linker_design_.xyz
REMARK  10 active torsions:
REMARK  status: ('A' for Active; 'I' for Inactive)
REMARK    1  A    between atoms: C_1  and  C_2
REMARK    2  A    between atoms: C_1  and  C_8
REMARK    3  A    between atoms: C_1  and  N_32
REMARK    4  A    between atoms: C_13  and  C_29
REMARK    5  A    between atoms: C_14  and  C_15
REMARK    6  A    between atoms: C_21  and  O_22
REMARK    7  A    between atoms: O_22  and  C_23
REMARK    8  A    between atoms: C_23  and  C_24
REMARK    9  A    between atoms: C_31  and  C_42
REMARK   10  A    between atoms: C_34  and  C_42
REMARK                            x       y       z     vdW  Elec       q    Type
REMARK                         _______ _______ _______ _____ _____    ______ ____
ROOT
ATOM      1  C   UNL A   1     -21.595   2.018  27.441  0.00  0.00    +0.020 C 
ATOM      2  C   UNL A   1     -24.630   1.106  27.305  0.00  0.00    +0.113 C 
ATOM      3  N   UNL A   1     -24.384   0.000  29.195  0.00  0.00    -0.267 NA
ATOM      4  C   UNL A   1     -23.014   0.698  29.182  0.00  0.00    +0.090 C 
ATOM      5  C   UNL A   1     -25.171   0.212  28.313  0.00  0.00    +0.082 C 
ATOM      6  N   UNL A   1     -23.413   1.215  26.792  0.00  0.00    -0.194 NA
ATOM      7  C   UNL A   1     -22.518   0.932  27.773  0.00  0.00    +0.089 C 
ATOM      8 CL   UNL A   1     -22.978   1.876  25.199  0.00  0.00    -0.019 Cl
ENDROOT
BRANCH   2   9
ATOM      9  C   UNL A   1     -25.688   1.614  26.461  0.00  0.00    +0.033 C 
ATOM     10  C   UNL A   1     -26.250   2.920  26.395  0.00  0.00    +0.074 C 
ATOM     11  C   UNL A   1     -27.438   3.091  25.645  0.00  0.00    +0.106 C 
ATOM     12  N   UNL A   1     -28.075   2.089  25.003  0.00  0.00    -0.208 NA
ATOM     13  C   UNL A   1     -27.543   0.849  25.079  0.00  0.00    +0.253 C 
ATOM     14  C   UNL A   1     -26.354   0.576  25.777  0.00  0.00    +0.191 C 
ATOM     15  F   UNL A   1     -25.860  -0.681  25.795  0.00  0.00    -0.200 F 
BRANCH  10  16
ATOM     16  C   UNL A   1     -25.642   4.093  27.123  0.00  0.00    +0.266 C 
ATOM     17  N   UNL A   1     -25.614   5.252  26.449  0.00  0.00    -0.200 NA
ATOM     18  C   UNL A   1     -25.026   6.479  26.963  0.00  0.00    +0.139 C 
ATOM     19  O   UNL A   1     -25.143   3.966  28.243  0.00  0.00    -0.268 OA
ENDBRANCH  10  16
BRANCH  13  20
ATOM     20  O   UNL A   1     -28.193  -0.208  24.477  0.00  0.00    -0.456 OA
BRANCH  20  21
ATOM     21  C   UNL A   1     -29.460   0.005  23.866  0.00  0.00    +0.243 C 
BRANCH  21  22
ATOM     22  C   UNL A   1     -30.065  -1.377  23.573  0.00  0.00    +0.229 C 
ATOM     23  O   UNL A   1     -30.729  -1.878  24.721  0.00  0.00    -0.216 OA
ENDBRANCH  21  22
ENDBRANCH  20  21
ENDBRANCH  13  20
ENDBRANCH   2   9
BRANCH   3  24
ATOM     24  C   UNL A   1     -24.855  -1.012  30.143  0.00  0.00    +0.096 C 
BRANCH  24  25
ATOM     25  C   UNL A   1     -24.973  -2.505  29.788  0.00  0.00    -0.006 C 
ATOM     26  C   UNL A   1     -23.906  -3.173  29.146  0.00  0.00    -0.003 C 
ATOM     27  C   UNL A   1     -23.989  -4.549  28.853  0.00  0.00    -0.000 C 
ATOM     28  C   UNL A   1     -25.137  -5.280  29.205  0.00  0.00    -0.000 C 
ATOM     29  C   UNL A   1     -26.232  -4.611  29.784  0.00  0.00    -0.000 C 
ATOM     30  C   UNL A   1     -26.155  -3.232  30.065  0.00  0.00    -0.003 C 
ENDBRANCH  24  25
BRANCH  24  31
ATOM     31  C   UNL A   1     -25.387  -0.679  31.571  0.00  0.00    +0.092 C 
ATOM     32  C   UNL A   1     -25.189   0.773  32.028  0.00  0.00    +0.021 C 
ATOM     33  C   UNL A   1     -25.336   0.684  33.544  0.00  0.00    +0.020 C 
ATOM     34  C   UNL A   1     -24.829  -0.715  33.905  0.00  0.00    +0.089 C 
ATOM     35  N   UNL A   1     -24.758  -1.481  32.646  0.00  0.00    -0.218 NA
ENDBRANCH  24  31
ENDBRANCH   3  24
BRANCH   5  36
ATOM     36  C   UNL A   1     -26.504  -0.546  28.325  0.00  0.00    +0.044 C 
BRANCH  36  38
ATOM     37  C   UNL A   1     -28.640   0.683  28.088  0.00  0.00    +0.003 C 
ATOM     38  C   UNL A   1     -27.937  -0.313  28.752  0.00  0.00    -0.020 C 
ATOM     39  C   UNL A   1     -28.638  -1.255  29.500  0.00  0.00    -0.004 C 
ATOM     40  C   UNL A   1     -30.753  -0.364  28.762  0.00  0.00    +0.007 C 
ATOM     41  C   UNL A   1     -30.006   0.683  28.222  0.00  0.00    +0.034 C 
ATOM     42  C   UNL A   1     -30.019  -1.295  29.446  0.00  0.00    +0.000 C 
ATOM     43 BR   UNL A   1     -30.915   2.175  27.949  0.00  0.00    -0.049 Br
ENDBRANCH  36  38
ENDBRANCH   5  36
TORSDOF 10
