REMARK  Name = outputs/IAG933/test6/raw/output_7736_IAG933_linker_design_.xyz
REMARK  8 active torsions:
REMARK  status: ('A' for Active; 'I' for Inactive)
REMARK    1  A    between atoms: C_1  and  C_2
REMARK    2  A    between atoms: C_1  and  C_8
REMARK    3  A    between atoms: C_1  and  N_33
REMARK    4  A    between atoms: C_21  and  O_22
REMARK    5  A    between atoms: O_22  and  C_23
REMARK    6  A    between atoms: C_23  and  C_24
REMARK    7  A    between atoms: N_33  and  C_42
REMARK    8  A    between atoms: C_34  and  C_40
REMARK                            x       y       z     vdW  Elec       q    Type
REMARK                         _______ _______ _______ _____ _____    ______ ____
ROOT
ATOM      1  C   UNL A   1     -25.688   1.614  26.461  0.00  0.00    +0.101 C 
ATOM      2  C   UNL A   1     -26.250   2.920  26.395  0.00  0.00    +0.055 C 
ATOM      3  C   UNL A   1     -25.642   4.093  27.123  0.00  0.00    +0.218 C 
ATOM      4  N   UNL A   1     -25.614   5.252  26.449  0.00  0.00    -0.236 NA
ATOM      5  C   UNL A   1     -25.026   6.479  26.963  0.00  0.00    +0.155 C 
ATOM      6  O   UNL A   1     -25.143   3.966  28.243  0.00  0.00    -0.457 OA
ATOM      7  C   UNL A   1     -27.438   3.091  25.645  0.00  0.00    +0.102 C 
ATOM      8  N   UNL A   1     -28.075   2.089  25.003  0.00  0.00    -0.212 NA
ATOM      9  C   UNL A   1     -27.543   0.849  25.079  0.00  0.00    +0.234 C 
ATOM     10  C   UNL A   1     -26.354   0.576  25.777  0.00  0.00    +0.242 C 
ATOM     11  F   UNL A   1     -25.860  -0.681  25.795  0.00  0.00    -0.227 F 
ATOM     12  O   UNL A   1     -23.624   1.530  25.393  0.00  0.00    -0.223 OA
ATOM     13  C   UNL A   1     -24.198   1.420  26.725  0.00  0.00    +0.163 C 
ATOM     14  C   UNL A   1     -25.603   3.819  29.656  0.00  0.00    +0.219 C 
ATOM     15  C   UNL A   1     -23.477   1.408  27.725  0.00  0.00    +0.074 C 
ATOM     16  C   UNL A   1     -26.434   2.447  29.744  0.00  0.00    +0.192 C 
ATOM     17  C   UNL A   1     -21.896   1.655  27.608  0.00  0.00    +0.007 C 
ATOM     18  C   UNL A   1     -24.389   1.048  28.981  0.00  0.00    +0.179 C 
ATOM     19  O   UNL A   1     -25.423   1.716  29.095  0.00  0.00    -0.337 OA
ENDROOT
BRANCH  14  25
ATOM     20  C   UNL A   1     -26.720   5.114  31.487  0.00  0.00    -0.001 C 
ATOM     21  C   UNL A   1     -27.689   6.043  31.913  0.00  0.00    -0.000 C 
ATOM     22  C   UNL A   1     -27.449   5.455  29.238  0.00  0.00    -0.001 C 
ATOM     23  C   UNL A   1     -28.454   6.292  29.645  0.00  0.00    -0.000 C 
ATOM     24  C   UNL A   1     -28.530   6.639  30.986  0.00  0.00    -0.000 C 
ATOM     25  C   UNL A   1     -26.561   4.832  30.129  0.00  0.00    +0.020 C 
ENDBRANCH  14  25
BRANCH  18  26
ATOM     26  N   UNL A   1     -23.998  -0.084  29.495  0.00  0.00    -0.246 NA
ATOM     27  C   UNL A   1     -22.575  -0.308  29.692  0.00  0.00    +0.092 C 
BRANCH  26  28
ATOM     28  C   UNL A   1     -24.855  -1.012  30.143  0.00  0.00    +0.098 C 
BRANCH  28  29
ATOM     29  C   UNL A   1     -24.973  -2.505  29.788  0.00  0.00    -0.006 C 
ATOM     30  C   UNL A   1     -23.906  -3.173  29.146  0.00  0.00    -0.003 C 
ATOM     31  C   UNL A   1     -23.989  -4.549  28.853  0.00  0.00    -0.000 C 
ATOM     32  C   UNL A   1     -25.137  -5.280  29.205  0.00  0.00    -0.000 C 
ATOM     33  C   UNL A   1     -26.232  -4.611  29.784  0.00  0.00    -0.000 C 
ATOM     34  C   UNL A   1     -26.155  -3.232  30.065  0.00  0.00    -0.003 C 
ENDBRANCH  28  29
BRANCH  28  35
ATOM     35  C   UNL A   1     -25.387  -0.679  31.571  0.00  0.00    +0.092 C 
ATOM     36  C   UNL A   1     -25.189   0.773  32.028  0.00  0.00    +0.021 C 
ATOM     37  C   UNL A   1     -25.336   0.684  33.544  0.00  0.00    +0.020 C 
ATOM     38  C   UNL A   1     -24.829  -0.715  33.905  0.00  0.00    +0.089 C 
ATOM     39  N   UNL A   1     -24.758  -1.481  32.646  0.00  0.00    -0.218 NA
ENDBRANCH  28  35
ENDBRANCH  26  28
ENDBRANCH  18  26
BRANCH   9  40
ATOM     40  O   UNL A   1     -28.193  -0.208  24.477  0.00  0.00    -0.459 OA
BRANCH  40  41
ATOM     41  C   UNL A   1     -29.460   0.005  23.866  0.00  0.00    +0.242 C 
BRANCH  41  42
ATOM     42  C   UNL A   1     -30.065  -1.377  23.573  0.00  0.00    +0.229 C 
ATOM     43  O   UNL A   1     -30.729  -1.878  24.721  0.00  0.00    -0.216 OA
ENDBRANCH  41  42
ENDBRANCH  40  41
ENDBRANCH   9  40
TORSDOF 8
