REMARK  Name = outputs/IAG933/test6/raw/output_7739_IAG933_linker_design_.xyz
REMARK  12 active torsions:
REMARK  status: ('A' for Active; 'I' for Inactive)
REMARK    1  A    between atoms: C_1  and  C_2
REMARK    2  A    between atoms: C_1  and  C_8
REMARK    3  A    between atoms: C_1  and  C_38
REMARK    4  A    between atoms: C_13  and  C_37
REMARK    5  A    between atoms: C_14  and  C_15
REMARK    6  A    between atoms: C_21  and  O_22
REMARK    7  A    between atoms: O_22  and  C_23
REMARK    8  A    between atoms: C_23  and  C_24
REMARK    9  A    between atoms: C_38  and  N_42
REMARK   10  A    between atoms: C_38  and  C_43
REMARK   11  A    between atoms: C_39  and  N_42
REMARK   12  A    between atoms: C_40  and  C_41
REMARK                            x       y       z     vdW  Elec       q    Type
REMARK                         _______ _______ _______ _____ _____    ______ ____
ROOT
ATOM      1  C   UNL A   1     -25.255  -0.206  28.882  0.00  0.00    +0.126 C 
ENDROOT
BRANCH   1   7
ATOM      2  O   UNL A   1     -22.857   0.028  28.623  0.00  0.00    -0.352 OA
ATOM      3  S   UNL A   1     -22.989   2.128  26.091  0.00  0.00    -0.131 S 
ATOM      4  C   UNL A   1     -21.730   0.963  28.431  0.00  0.00    +0.154 C 
ATOM      5  C   UNL A   1     -21.650   1.681  27.073  0.00  0.00    +0.090 C 
ATOM      6  C   UNL A   1     -24.266   1.246  26.938  0.00  0.00    +0.101 C 
ATOM      7  C   UNL A   1     -24.149   0.650  28.270  0.00  0.00    +0.149 C 
BRANCH   6   8
ATOM      8  C   UNL A   1     -25.688   1.614  26.461  0.00  0.00    +0.028 C 
ATOM      9  C   UNL A   1     -26.250   2.920  26.395  0.00  0.00    +0.073 C 
ATOM     10  C   UNL A   1     -27.438   3.091  25.645  0.00  0.00    +0.106 C 
ATOM     11  N   UNL A   1     -28.075   2.089  25.003  0.00  0.00    -0.208 NA
ATOM     12  C   UNL A   1     -27.543   0.849  25.079  0.00  0.00    +0.253 C 
ATOM     13  C   UNL A   1     -26.354   0.576  25.777  0.00  0.00    +0.190 C 
ATOM     14  F   UNL A   1     -25.860  -0.681  25.795  0.00  0.00    -0.200 F 
BRANCH   9  15
ATOM     15  C   UNL A   1     -25.642   4.093  27.123  0.00  0.00    +0.266 C 
ATOM     16  N   UNL A   1     -25.614   5.252  26.449  0.00  0.00    -0.200 NA
ATOM     17  C   UNL A   1     -25.026   6.479  26.963  0.00  0.00    +0.139 C 
ATOM     18  O   UNL A   1     -25.143   3.966  28.243  0.00  0.00    -0.268 OA
ENDBRANCH   9  15
BRANCH  12  19
ATOM     19  O   UNL A   1     -28.193  -0.208  24.477  0.00  0.00    -0.456 OA
BRANCH  19  20
ATOM     20  C   UNL A   1     -29.460   0.005  23.866  0.00  0.00    +0.243 C 
BRANCH  20  21
ATOM     21  C   UNL A   1     -30.065  -1.377  23.573  0.00  0.00    +0.229 C 
ATOM     22  O   UNL A   1     -30.729  -1.878  24.721  0.00  0.00    -0.216 OA
ENDBRANCH  20  21
ENDBRANCH  19  20
ENDBRANCH  12  19
ENDBRANCH   6   8
ENDBRANCH   1   7
BRANCH   1  23
ATOM     23  C   UNL A   1     -24.855  -1.012  30.143  0.00  0.00    +0.061 C 
BRANCH  23  24
ATOM     24  C   UNL A   1     -24.973  -2.505  29.788  0.00  0.00    -0.019 C 
ATOM     25  C   UNL A   1     -23.906  -3.173  29.146  0.00  0.00    -0.004 C 
ATOM     26  C   UNL A   1     -23.989  -4.549  28.853  0.00  0.00    -0.000 C 
ATOM     27  C   UNL A   1     -25.137  -5.280  29.205  0.00  0.00    -0.000 C 
ATOM     28  C   UNL A   1     -26.232  -4.611  29.784  0.00  0.00    -0.000 C 
ATOM     29  C   UNL A   1     -26.155  -3.232  30.065  0.00  0.00    -0.004 C 
ENDBRANCH  23  24
BRANCH  23  30
ATOM     30  C   UNL A   1     -25.387  -0.679  31.571  0.00  0.00    +0.079 C 
ATOM     31  C   UNL A   1     -25.189   0.773  32.028  0.00  0.00    +0.019 C 
ATOM     32  C   UNL A   1     -25.336   0.684  33.544  0.00  0.00    +0.020 C 
ATOM     33  C   UNL A   1     -24.829  -0.715  33.905  0.00  0.00    +0.089 C 
ATOM     34  N   UNL A   1     -24.758  -1.481  32.646  0.00  0.00    -0.219 NA
ENDBRANCH  23  30
ENDBRANCH   1  23
BRANCH   1  35
ATOM     35  N   UNL A   1     -26.368   0.734  29.378  0.00  0.00    -0.236 NA
BRANCH  35  40
ATOM     36  C   UNL A   1     -28.392   1.800  30.249  0.00  0.00    +0.016 C 
ATOM     37  C   UNL A   1     -28.581  -0.003  28.554  0.00  0.00    +0.017 C 
ATOM     38  C   UNL A   1     -30.585   1.308  29.077  0.00  0.00    +0.001 C 
ATOM     39  C   UNL A   1     -29.799   2.010  30.085  0.00  0.00    +0.001 C 
ATOM     40  C   UNL A   1     -27.742   0.802  29.426  0.00  0.00    +0.065 C 
ATOM     41  C   UNL A   1     -29.974   0.248  28.312  0.00  0.00    +0.012 C 
BRANCH  41  43
ATOM     42  C   UNL A   1     -32.129  -0.014  26.992  0.00  0.00    +0.134 C 
ATOM     43  C   UNL A   1     -30.781  -0.549  27.291  0.00  0.00    +0.085 C 
ATOM     44  O   UNL A   1     -33.107   0.289  26.641  0.00  0.00    -0.231 OA
ENDBRANCH  41  43
ENDBRANCH  35  40
ENDBRANCH   1  35
TORSDOF 12
