REMARK  Name = outputs/IAG933/test6/raw/output_774_IAG933_linker_design_.xyz
REMARK  16 active torsions:
REMARK  status: ('A' for Active; 'I' for Inactive)
REMARK    1  A    between atoms: C_1  and  C_2
REMARK    2  A    between atoms: C_1  and  C_8
REMARK    3  A    between atoms: C_1  and  C_32
REMARK    4  A    between atoms: C_13  and  C_46
REMARK    5  A    between atoms: C_14  and  C_15
REMARK    6  A    between atoms: C_21  and  O_22
REMARK    7  A    between atoms: O_22  and  C_23
REMARK    8  A    between atoms: C_23  and  C_24
REMARK    9  A    between atoms: N_31  and  C_36
REMARK   10  A    between atoms: N_31  and  C_48
REMARK   11  A    between atoms: C_32  and  C_34
REMARK   12  A    between atoms: C_32  and  O_42
REMARK   13  A    between atoms: C_36  and  C_49
REMARK   14  A    between atoms: O_42  and  C_45
REMARK   15  A    between atoms: C_44  and  C_48
REMARK   16  A    between atoms: C_45  and  C_49
REMARK                            x       y       z     vdW  Elec       q    Type
REMARK                         _______ _______ _______ _____ _____    ______ ____
ROOT
ATOM      1  C   UNL A   1     -25.318  -0.064  29.059  0.00  0.00    +0.160 C 
ENDROOT
BRANCH   1   3
ATOM      2  C   UNL A   1     -23.176   1.786  26.355  0.00  0.00    +0.143 C 
ATOM      3  C   UNL A   1     -24.087   0.680  28.300  0.00  0.00    +0.088 C 
ATOM      4  C   UNL A   1     -21.907   1.783  26.951  0.00  0.00    +0.050 C 
ATOM      5  F   UNL A   1     -23.139   2.174  25.001  0.00  0.00    -0.204 F 
ATOM      6  N   UNL A   1     -22.833   0.683  28.813  0.00  0.00    -0.246 NA
ATOM      7  C   UNL A   1     -24.349   1.359  27.033  0.00  0.00    +0.046 C 
ATOM      8  C   UNL A   1     -21.752   1.200  28.186  0.00  0.00    +0.101 C 
BRANCH   7   9
ATOM      9  C   UNL A   1     -25.688   1.614  26.461  0.00  0.00    +0.042 C 
ATOM     10  C   UNL A   1     -26.250   2.920  26.395  0.00  0.00    +0.077 C 
ATOM     11  C   UNL A   1     -27.438   3.091  25.645  0.00  0.00    +0.107 C 
ATOM     12  N   UNL A   1     -28.075   2.089  25.003  0.00  0.00    -0.208 NA
ATOM     13  C   UNL A   1     -27.543   0.849  25.079  0.00  0.00    +0.253 C 
ATOM     14  C   UNL A   1     -26.354   0.576  25.777  0.00  0.00    +0.193 C 
ATOM     15  F   UNL A   1     -25.860  -0.681  25.795  0.00  0.00    -0.199 F 
BRANCH  10  16
ATOM     16  C   UNL A   1     -25.642   4.093  27.123  0.00  0.00    +0.266 C 
ATOM     17  N   UNL A   1     -25.614   5.252  26.449  0.00  0.00    -0.200 NA
ATOM     18  C   UNL A   1     -25.026   6.479  26.963  0.00  0.00    +0.139 C 
ATOM     19  O   UNL A   1     -25.143   3.966  28.243  0.00  0.00    -0.268 OA
ENDBRANCH  10  16
BRANCH  13  20
ATOM     20  O   UNL A   1     -28.193  -0.208  24.477  0.00  0.00    -0.456 OA
BRANCH  20  21
ATOM     21  C   UNL A   1     -29.460   0.005  23.866  0.00  0.00    +0.243 C 
BRANCH  21  22
ATOM     22  C   UNL A   1     -30.065  -1.377  23.573  0.00  0.00    +0.229 C 
ATOM     23  O   UNL A   1     -30.729  -1.878  24.721  0.00  0.00    -0.216 OA
ENDBRANCH  21  22
ENDBRANCH  20  21
ENDBRANCH  13  20
ENDBRANCH   7   9
ENDBRANCH   1   3
BRANCH   1  24
ATOM     24  C   UNL A   1     -24.855  -1.012  30.143  0.00  0.00    +0.071 C 
BRANCH  24  25
ATOM     25  C   UNL A   1     -24.973  -2.505  29.788  0.00  0.00    -0.018 C 
ATOM     26  C   UNL A   1     -23.906  -3.173  29.146  0.00  0.00    -0.004 C 
ATOM     27  C   UNL A   1     -23.989  -4.549  28.853  0.00  0.00    -0.000 C 
ATOM     28  C   UNL A   1     -25.137  -5.280  29.205  0.00  0.00    -0.000 C 
ATOM     29  C   UNL A   1     -26.232  -4.611  29.784  0.00  0.00    -0.000 C 
ATOM     30  C   UNL A   1     -26.155  -3.232  30.065  0.00  0.00    -0.004 C 
ENDBRANCH  24  25
BRANCH  24  31
ATOM     31  C   UNL A   1     -25.387  -0.679  31.571  0.00  0.00    +0.080 C 
ATOM     32  C   UNL A   1     -25.189   0.773  32.028  0.00  0.00    +0.019 C 
ATOM     33  C   UNL A   1     -25.336   0.684  33.544  0.00  0.00    +0.020 C 
ATOM     34  C   UNL A   1     -24.829  -0.715  33.905  0.00  0.00    +0.089 C 
ATOM     35  N   UNL A   1     -24.758  -1.481  32.646  0.00  0.00    -0.219 NA
ENDBRANCH  24  31
ENDBRANCH   1  24
BRANCH   1  36
ATOM     36  O   UNL A   1     -26.710  -0.017  28.632  0.00  0.00    -0.350 OA
BRANCH  36  37
ATOM     37  C   UNL A   1     -28.018  -0.376  29.168  0.00  0.00    +0.144 C 
BRANCH  37  38
ATOM     38  C   UNL A   1     -28.601   0.845  29.595  0.00  0.00    +0.050 C 
BRANCH  38  39
ATOM     39  C   UNL A   1     -29.662   0.958  28.491  0.00  0.00    +0.076 C 
ATOM     40  C   UNL A   1     -29.876  -0.140  27.425  0.00  0.00    +0.019 C 
BRANCH  39  41
ATOM     41  N   UNL A   1     -29.924   2.240  28.020  0.00  0.00    -0.214 NA
BRANCH  41  42
ATOM     42  C   UNL A   1     -30.698   2.575  27.035  0.00  0.00    +0.118 C 
BRANCH  42  49
ATOM     43  C   UNL A   1     -30.988   6.489  27.274  0.00  0.00    +0.042 C 
ATOM     44  C   UNL A   1     -33.136   5.409  27.223  0.00  0.00    -0.000 C 
ATOM     45  C   UNL A   1     -30.373   5.234  27.359  0.00  0.00    +0.193 C 
ATOM     46  O   UNL A   1     -29.054   5.220  27.659  0.00  0.00    -0.287 OA
ATOM     47  C   UNL A   1     -32.376   6.586  27.149  0.00  0.00    +0.003 C 
ATOM     48  C   UNL A   1     -32.558   4.164  27.244  0.00  0.00    +0.000 C 
ATOM     49  C   UNL A   1     -31.185   3.967  27.180  0.00  0.00    +0.034 C 
ENDBRANCH  42  49
ENDBRANCH  41  42
ENDBRANCH  39  41
ENDBRANCH  38  39
ENDBRANCH  37  38
ENDBRANCH  36  37
ENDBRANCH   1  36
TORSDOF 16
