REMARK  Name = outputs/IAG933/test6/raw/output_7743_IAG933_linker_design_.xyz
REMARK  13 active torsions:
REMARK  status: ('A' for Active; 'I' for Inactive)
REMARK    1  A    between atoms: C_1  and  C_2
REMARK    2  A    between atoms: C_1  and  C_8
REMARK    3  A    between atoms: C_1  and  N_41
REMARK    4  A    between atoms: C_13  and  N_44
REMARK    5  A    between atoms: C_14  and  C_15
REMARK    6  A    between atoms: C_21  and  O_22
REMARK    7  A    between atoms: O_22  and  C_23
REMARK    8  A    between atoms: C_23  and  C_24
REMARK    9  A    between atoms: C_30  and  O_34
REMARK   10  A    between atoms: C_32  and  C_37
REMARK   11  A    between atoms: C_32  and  C_45
REMARK   12  A    between atoms: C_38  and  C_48
REMARK   13  A    between atoms: N_47  and  C_48
REMARK                            x       y       z     vdW  Elec       q    Type
REMARK                         _______ _______ _______ _____ _____    ______ ____
ROOT
ATOM      1  C   UNL A   1     -21.597   1.049  27.785  0.00  0.00    +0.018 C 
ATOM      2  C   UNL A   1     -22.616   1.529  27.140  0.00  0.00    +0.149 C 
ATOM      3  C   UNL A   1     -25.904   0.631  28.615  0.00  0.00    +0.160 C 
ATOM      4  C   UNL A   1     -23.758   0.585  28.882  0.00  0.00    +0.047 C 
ATOM      5  C   UNL A   1     -23.791   1.269  27.950  0.00  0.00    +0.093 C 
ATOM      6  N   UNL A   1     -24.932   0.107  29.242  0.00  0.00    -0.291 N 
ATOM      7  C   UNL A   1     -22.067   0.326  29.067  0.00  0.00    +0.072 C 
ATOM      8  N   UNL A   1     -24.988   1.224  27.707  0.00  0.00    -0.284 N 
ENDROOT
BRANCH   8   9
ATOM      9  C   UNL A   1     -25.688   1.614  26.461  0.00  0.00    +0.145 C 
ATOM     10  C   UNL A   1     -26.250   2.920  26.395  0.00  0.00    +0.073 C 
ATOM     11  C   UNL A   1     -27.438   3.091  25.645  0.00  0.00    +0.104 C 
ATOM     12  N   UNL A   1     -28.075   2.089  25.003  0.00  0.00    -0.212 NA
ATOM     13  C   UNL A   1     -27.543   0.849  25.079  0.00  0.00    +0.236 C 
ATOM     14  C   UNL A   1     -26.354   0.576  25.777  0.00  0.00    +0.258 C 
ATOM     15  F   UNL A   1     -25.860  -0.681  25.795  0.00  0.00    -0.225 F 
BRANCH  10  16
ATOM     16  C   UNL A   1     -25.642   4.093  27.123  0.00  0.00    +0.264 C 
ATOM     17  N   UNL A   1     -25.614   5.252  26.449  0.00  0.00    -0.200 NA
ATOM     18  C   UNL A   1     -25.026   6.479  26.963  0.00  0.00    +0.139 C 
ATOM     19  O   UNL A   1     -25.143   3.966  28.243  0.00  0.00    -0.269 OA
ENDBRANCH  10  16
BRANCH  13  20
ATOM     20  O   UNL A   1     -28.193  -0.208  24.477  0.00  0.00    -0.459 OA
BRANCH  20  21
ATOM     21  C   UNL A   1     -29.460   0.005  23.866  0.00  0.00    +0.242 C 
BRANCH  21  22
ATOM     22  C   UNL A   1     -30.065  -1.377  23.573  0.00  0.00    +0.229 C 
ATOM     23  O   UNL A   1     -30.729  -1.878  24.721  0.00  0.00    -0.216 OA
ENDBRANCH  21  22
ENDBRANCH  20  21
ENDBRANCH  13  20
ENDBRANCH   8   9
BRANCH   2  24
ATOM     24  O   UNL A   1     -22.609   2.081  25.799  0.00  0.00    -0.470 OA
ATOM     25  C   UNL A   1     -23.116   1.375  24.584  0.00  0.00    +0.253 C 
ENDBRANCH   2  24
BRANCH   6  26
ATOM     26  C   UNL A   1     -24.855  -1.012  30.143  0.00  0.00    +0.112 C 
BRANCH  26  27
ATOM     27  C   UNL A   1     -24.973  -2.505  29.788  0.00  0.00    -0.003 C 
ATOM     28  C   UNL A   1     -23.906  -3.173  29.146  0.00  0.00    -0.003 C 
ATOM     29  C   UNL A   1     -23.989  -4.549  28.853  0.00  0.00    -0.000 C 
ATOM     30  C   UNL A   1     -25.137  -5.280  29.205  0.00  0.00    -0.000 C 
ATOM     31  C   UNL A   1     -26.232  -4.611  29.784  0.00  0.00    -0.000 C 
ATOM     32  C   UNL A   1     -26.155  -3.232  30.065  0.00  0.00    -0.003 C 
ENDBRANCH  26  27
BRANCH  26  33
ATOM     33  C   UNL A   1     -25.387  -0.679  31.571  0.00  0.00    +0.095 C 
ATOM     34  C   UNL A   1     -25.189   0.773  32.028  0.00  0.00    +0.021 C 
ATOM     35  C   UNL A   1     -25.336   0.684  33.544  0.00  0.00    +0.020 C 
ATOM     36  C   UNL A   1     -24.829  -0.715  33.905  0.00  0.00    +0.089 C 
ATOM     37  N   UNL A   1     -24.758  -1.481  32.646  0.00  0.00    -0.217 NA
ENDBRANCH  26  33
ENDBRANCH   6  26
BRANCH   3  38
ATOM     38  C   UNL A   1     -27.346   0.011  28.575  0.00  0.00    +0.127 C 
BRANCH  38  40
ATOM     39  O   UNL A   1     -28.989   0.932  30.152  0.00  0.00    -0.273 OA
ATOM     40  C   UNL A   1     -28.572   0.669  28.999  0.00  0.00    +0.245 C 
ATOM     41  N   UNL A   1     -29.159   1.078  27.900  0.00  0.00    -0.201 NA
BRANCH  41  42
ATOM     42  C   UNL A   1     -30.168   2.122  28.172  0.00  0.00    +0.141 C 
BRANCH  42  47
ATOM     43  C   UNL A   1     -33.720  -0.158  27.515  0.00  0.00    -0.004 C 
ATOM     44  C   UNL A   1     -31.418   0.349  26.922  0.00  0.00    -0.007 C 
ATOM     45  C   UNL A   1     -32.558  -0.524  26.865  0.00  0.00    -0.022 C 
ATOM     46  C   UNL A   1     -32.700   2.002  28.116  0.00  0.00    -0.003 C 
ATOM     47  C   UNL A   1     -31.482   1.532  27.665  0.00  0.00    -0.001 C 
ATOM     48  C   UNL A   1     -32.685  -1.948  26.216  0.00  0.00    +0.031 C 
ATOM     49  C   UNL A   1     -33.724   1.105  28.076  0.00  0.00    -0.001 C 
ENDBRANCH  42  47
ENDBRANCH  41  42
ENDBRANCH  38  40
ENDBRANCH   3  38
TORSDOF 13
