REMARK  Name = outputs/IAG933/test6/raw/output_7744_IAG933_linker_design_.xyz
REMARK  13 active torsions:
REMARK  status: ('A' for Active; 'I' for Inactive)
REMARK    1  A    between atoms: C_1  and  C_2
REMARK    2  A    between atoms: C_1  and  C_8
REMARK    3  A    between atoms: C_1  and  C_39
REMARK    4  A    between atoms: C_13  and  C_42
REMARK    5  A    between atoms: C_14  and  C_15
REMARK    6  A    between atoms: C_21  and  O_22
REMARK    7  A    between atoms: O_22  and  C_23
REMARK    8  A    between atoms: C_23  and  C_24
REMARK    9  A    between atoms: O_29  and  C_39
REMARK   10  A    between atoms: O_29  and  C_44
REMARK   11  A    between atoms: C_31  and  C_41
REMARK   12  A    between atoms: C_34  and  C_39
REMARK   13  A    between atoms: C_41  and  C_44
REMARK                            x       y       z     vdW  Elec       q    Type
REMARK                         _______ _______ _______ _____ _____    ______ ____
ROOT
ATOM      1  C   UNL A   1     -25.113  -0.141  28.943  0.00  0.00    +0.121 C 
ENDROOT
BRANCH   1   3
ATOM      2  C   UNL A   1     -22.067   1.436  27.428  0.00  0.00    +0.036 C 
ATOM      3  C   UNL A   1     -24.279   1.029  28.520  0.00  0.00    +0.034 C 
ATOM      4  C   UNL A   1     -23.187   1.954  26.522  0.00  0.00    +0.165 C 
ATOM      5  F   UNL A   1     -23.059   1.611  25.186  0.00  0.00    -0.237 F 
ATOM      6  C   UNL A   1     -24.525   1.321  27.021  0.00  0.00    +0.060 C 
ATOM      7  C   UNL A   1     -22.777   1.034  28.740  0.00  0.00    +0.006 C 
BRANCH   6   8
ATOM      8  C   UNL A   1     -25.688   1.614  26.461  0.00  0.00    +0.018 C 
ATOM      9  C   UNL A   1     -26.250   2.920  26.395  0.00  0.00    +0.073 C 
ATOM     10  C   UNL A   1     -27.438   3.091  25.645  0.00  0.00    +0.106 C 
ATOM     11  N   UNL A   1     -28.075   2.089  25.003  0.00  0.00    -0.208 NA
ATOM     12  C   UNL A   1     -27.543   0.849  25.079  0.00  0.00    +0.253 C 
ATOM     13  C   UNL A   1     -26.354   0.576  25.777  0.00  0.00    +0.189 C 
ATOM     14  F   UNL A   1     -25.860  -0.681  25.795  0.00  0.00    -0.200 F 
BRANCH   9  15
ATOM     15  C   UNL A   1     -25.642   4.093  27.123  0.00  0.00    +0.266 C 
ATOM     16  N   UNL A   1     -25.614   5.252  26.449  0.00  0.00    -0.200 NA
ATOM     17  C   UNL A   1     -25.026   6.479  26.963  0.00  0.00    +0.139 C 
ATOM     18  O   UNL A   1     -25.143   3.966  28.243  0.00  0.00    -0.268 OA
ENDBRANCH   9  15
BRANCH  12  19
ATOM     19  O   UNL A   1     -28.193  -0.208  24.477  0.00  0.00    -0.456 OA
BRANCH  19  20
ATOM     20  C   UNL A   1     -29.460   0.005  23.866  0.00  0.00    +0.243 C 
BRANCH  20  21
ATOM     21  C   UNL A   1     -30.065  -1.377  23.573  0.00  0.00    +0.229 C 
ATOM     22  O   UNL A   1     -30.729  -1.878  24.721  0.00  0.00    -0.216 OA
ENDBRANCH  20  21
ENDBRANCH  19  20
ENDBRANCH  12  19
ENDBRANCH   6   8
ENDBRANCH   1   3
BRANCH   1  23
ATOM     23  C   UNL A   1     -24.855  -1.012  30.143  0.00  0.00    +0.066 C 
BRANCH  23  24
ATOM     24  C   UNL A   1     -24.973  -2.505  29.788  0.00  0.00    -0.019 C 
ATOM     25  C   UNL A   1     -23.906  -3.173  29.146  0.00  0.00    -0.004 C 
ATOM     26  C   UNL A   1     -23.989  -4.549  28.853  0.00  0.00    -0.000 C 
ATOM     27  C   UNL A   1     -25.137  -5.280  29.205  0.00  0.00    -0.000 C 
ATOM     28  C   UNL A   1     -26.232  -4.611  29.784  0.00  0.00    -0.000 C 
ATOM     29  C   UNL A   1     -26.155  -3.232  30.065  0.00  0.00    -0.004 C 
ENDBRANCH  23  24
BRANCH  23  30
ATOM     30  C   UNL A   1     -25.387  -0.679  31.571  0.00  0.00    +0.079 C 
ATOM     31  C   UNL A   1     -25.189   0.773  32.028  0.00  0.00    +0.019 C 
ATOM     32  C   UNL A   1     -25.336   0.684  33.544  0.00  0.00    +0.020 C 
ATOM     33  C   UNL A   1     -24.829  -0.715  33.905  0.00  0.00    +0.089 C 
ATOM     34  N   UNL A   1     -24.758  -1.481  32.646  0.00  0.00    -0.219 NA
ENDBRANCH  23  30
ENDBRANCH   1  23
BRANCH   1  35
ATOM     35  O   UNL A   1     -26.510   0.163  28.827  0.00  0.00    -0.353 OA
BRANCH  35  36
ATOM     36  C   UNL A   1     -27.406   1.252  29.345  0.00  0.00    +0.182 C 
BRANCH  36  38
ATOM     37  F   UNL A   1     -28.836   1.642  29.247  0.00  0.00    -0.230 F 
ATOM     38  C   UNL A   1     -28.520   0.419  29.918  0.00  0.00    +0.213 C 
BRANCH  38  40
ATOM     39  C   UNL A   1     -31.291  -1.798  28.599  0.00  0.00    +0.000 C 
ATOM     40  C   UNL A   1     -29.356  -0.762  29.622  0.00  0.00    +0.013 C 
ATOM     41  C   UNL A   1     -30.131  -2.947  30.360  0.00  0.00    +0.034 C 
ATOM     42  C   UNL A   1     -30.329  -0.768  28.623  0.00  0.00    -0.002 C 
ATOM     43  C   UNL A   1     -29.198  -1.909  30.417  0.00  0.00    +0.005 C 
ATOM     44  C   UNL A   1     -31.238  -2.841  29.503  0.00  0.00    +0.007 C 
ATOM     45 BR   UNL A   1     -29.862  -4.378  31.275  0.00  0.00    -0.049 Br
ENDBRANCH  38  40
ENDBRANCH  36  38
ENDBRANCH  35  36
ENDBRANCH   1  35
TORSDOF 13
