MODEL 774
MODEL 1
REMARK VINA RESULT:    -6.617      0.000      0.000
REMARK INTER + INTRA:          -8.986
REMARK INTER:                  -8.165
REMARK INTRA:                  -0.821
REMARK UNBOUND:                -0.821
REMARK  Name = No_774-gen_results/8p0m/2024-11-27-11-27-31/
REMARK  4 active torsions:
REMARK  status: ('A' for Active; 'I' for Inactive)
REMARK    1  A    between atoms: C_4  and  C_14
REMARK    2  A    between atoms: C_5  and  C_11
REMARK    3  A    between atoms: C_15  and  C_17
REMARK    4  A    between atoms: N_18  and  C_19
REMARK                            x       y       z     vdW  Elec       q    Type
REMARK                         _______ _______ _______ _____ _____    ______ ____
ROOT
ATOM      1  C   UNL A   1     -23.836   3.239  25.760  0.00  0.00    -0.005 A 
ATOM      2  C   UNL A   1     -23.557   2.366  26.548  0.00  0.00    -0.026 A 
ATOM      3  C   UNL A   1     -24.331   1.424  27.006  0.00  0.00    -0.022 A 
ATOM      4  C   UNL A   1     -23.948   0.364  27.971  0.00  0.00    +0.054 C 
ATOM      5  C   UNL A   1     -22.589   0.359  28.397  0.00  0.00    +0.112 C 
ATOM      6  C   UNL A   1     -21.755   1.313  27.872  0.00  0.00    +0.017 C 
ATOM      7  C   UNL A   1     -22.141   2.254  26.979  0.00  0.00    +0.027 C 
ATOM      8  C   UNL A   1     -25.220   3.533  25.636  0.00  0.00    -0.000 A 
ATOM      9  C   UNL A   1     -26.123   2.729  26.151  0.00  0.00    -0.000 A 
ATOM     10  C   UNL A   1     -25.747   1.562  26.873  0.00  0.00    -0.004 A 
ENDROOT
BRANCH   5  11
ATOM     11  C   UNL A   1     -22.017  -0.662  29.257  0.00  0.00    +0.365 C 
ATOM     12  O   UNL A   1     -21.453  -1.534  28.963  0.00  0.00    -0.246 OA
ATOM     13  O   UNL A   1     -22.285  -0.474  30.620  0.00  0.00    -0.246 OA
ENDBRANCH   5  11
BRANCH   4  14
ATOM     14  C   UNL A   1     -24.842  -0.685  28.526  0.00  0.00    -0.024 C 
ATOM     15  C   UNL A   1     -25.597  -0.782  29.507  0.00  0.00    -0.007 C 
ATOM     16  C   UNL A   1     -25.583   0.302  30.486  0.00  0.00    +0.032 C 
BRANCH  15  17
ATOM     17  C   UNL A   1     -26.353  -1.954  29.884  0.00  0.00    +0.091 C 
ATOM     18  N   UNL A   1     -26.230  -2.862  29.299  0.00  0.00    -0.243 NA
BRANCH  18  19
ATOM     19  C   UNL A   1     -26.661  -4.116  29.740  0.00  0.00    +0.238 C 
ATOM     20 BR   UNL A   1     -27.568  -4.507  30.143  0.00  0.00    -0.037 Br
ATOM     21 CL   UNL A   1     -25.217  -5.358  29.430  0.00  0.00    -0.075 Cl
ENDBRANCH  18  19
ENDBRANCH  15  17
ENDBRANCH   4  14
TORSDOF 4
ENDMDL
ENDMDL
