REMARK  Name = outputs/IAG933/test6/raw/output_775_IAG933_linker_design_.xyz
REMARK  11 active torsions:
REMARK  status: ('A' for Active; 'I' for Inactive)
REMARK    1  A    between atoms: C_1  and  C_2
REMARK    2  A    between atoms: C_1  and  C_8
REMARK    3  A    between atoms: C_1  and  N_30
REMARK    4  A    between atoms: C_13  and  C_29
REMARK    5  A    between atoms: C_14  and  C_15
REMARK    6  A    between atoms: C_21  and  O_22
REMARK    7  A    between atoms: O_22  and  C_23
REMARK    8  A    between atoms: C_23  and  C_24
REMARK    9  A    between atoms: C_28  and  C_32
REMARK   10  A    between atoms: C_32  and  C_40
REMARK   11  A    between atoms: C_35  and  C_38
REMARK                            x       y       z     vdW  Elec       q    Type
REMARK                         _______ _______ _______ _____ _____    ______ ____
ROOT
ATOM      1  C   UNL A   1     -24.297   1.470  26.938  0.00  0.00    +0.004 C 
ATOM      2  C   UNL A   1     -21.712   1.495  27.642  0.00  0.00    +0.029 C 
ATOM      3  C   UNL A   1     -22.706   0.939  28.430  0.00  0.00    +0.139 C 
ATOM      4  C   UNL A   1     -23.415   1.911  26.031  0.00  0.00    +0.000 C 
ATOM      5  C   UNL A   1     -24.113   1.040  28.137  0.00  0.00    +0.041 C 
ATOM      6  F   UNL A   1     -22.367   0.099  29.428  0.00  0.00    -0.204 F 
ATOM      7  C   UNL A   1     -22.067   2.003  26.394  0.00  0.00    +0.002 C 
ENDROOT
BRANCH   1   8
ATOM      8  C   UNL A   1     -25.688   1.614  26.461  0.00  0.00    +0.038 C 
ATOM      9  C   UNL A   1     -26.250   2.920  26.395  0.00  0.00    +0.076 C 
ATOM     10  C   UNL A   1     -27.438   3.091  25.645  0.00  0.00    +0.107 C 
ATOM     11  N   UNL A   1     -28.075   2.089  25.003  0.00  0.00    -0.208 NA
ATOM     12  C   UNL A   1     -27.543   0.849  25.079  0.00  0.00    +0.253 C 
ATOM     13  C   UNL A   1     -26.354   0.576  25.777  0.00  0.00    +0.193 C 
ATOM     14  F   UNL A   1     -25.860  -0.681  25.795  0.00  0.00    -0.199 F 
BRANCH   9  15
ATOM     15  C   UNL A   1     -25.642   4.093  27.123  0.00  0.00    +0.266 C 
ATOM     16  N   UNL A   1     -25.614   5.252  26.449  0.00  0.00    -0.200 NA
ATOM     17  C   UNL A   1     -25.026   6.479  26.963  0.00  0.00    +0.139 C 
ATOM     18  O   UNL A   1     -25.143   3.966  28.243  0.00  0.00    -0.268 OA
ENDBRANCH   9  15
BRANCH  12  19
ATOM     19  O   UNL A   1     -28.193  -0.208  24.477  0.00  0.00    -0.456 OA
BRANCH  19  20
ATOM     20  C   UNL A   1     -29.460   0.005  23.866  0.00  0.00    +0.243 C 
BRANCH  20  21
ATOM     21  C   UNL A   1     -30.065  -1.377  23.573  0.00  0.00    +0.229 C 
ATOM     22  O   UNL A   1     -30.729  -1.878  24.721  0.00  0.00    -0.216 OA
ENDBRANCH  20  21
ENDBRANCH  19  20
ENDBRANCH  12  19
ENDBRANCH   1   8
BRANCH   5  26
ATOM     23  N   UNL A   1     -25.753   0.088  29.249  0.00  0.00    -0.175 NA
ATOM     24  N   UNL A   1     -26.247   0.662  28.871  0.00  0.00    -0.200 N 
ATOM     25  O   UNL A   1     -28.148  -0.462  28.868  0.00  0.00    -0.273 OA
ATOM     26  C   UNL A   1     -25.248   0.684  28.945  0.00  0.00    +0.193 C 
ATOM     27  C   UNL A   1     -27.520   0.686  29.066  0.00  0.00    +0.243 C 
BRANCH  23  28
ATOM     28  C   UNL A   1     -24.855  -1.012  30.143  0.00  0.00    +0.116 C 
BRANCH  28  29
ATOM     29  C   UNL A   1     -24.973  -2.505  29.788  0.00  0.00    -0.005 C 
ATOM     30  C   UNL A   1     -23.906  -3.173  29.146  0.00  0.00    -0.003 C 
ATOM     31  C   UNL A   1     -23.989  -4.549  28.853  0.00  0.00    -0.000 C 
ATOM     32  C   UNL A   1     -25.137  -5.280  29.205  0.00  0.00    -0.000 C 
ATOM     33  C   UNL A   1     -26.232  -4.611  29.784  0.00  0.00    -0.000 C 
ATOM     34  C   UNL A   1     -26.155  -3.232  30.065  0.00  0.00    -0.003 C 
ENDBRANCH  28  29
BRANCH  28  35
ATOM     35  C   UNL A   1     -25.387  -0.679  31.571  0.00  0.00    +0.093 C 
ATOM     36  C   UNL A   1     -25.189   0.773  32.028  0.00  0.00    +0.021 C 
ATOM     37  C   UNL A   1     -25.336   0.684  33.544  0.00  0.00    +0.020 C 
ATOM     38  C   UNL A   1     -24.829  -0.715  33.905  0.00  0.00    +0.089 C 
ATOM     39  N   UNL A   1     -24.758  -1.481  32.646  0.00  0.00    -0.218 NA
ENDBRANCH  28  35
ENDBRANCH  23  28
BRANCH  27  40
ATOM     40  C   UNL A   1     -28.267   1.910  29.802  0.00  0.00    +0.122 C 
BRANCH  40  41
ATOM     41  C   UNL A   1     -29.723   2.234  29.409  0.00  0.00    +0.192 C 
ATOM     42  O   UNL A   1     -29.880   2.004  27.984  0.00  0.00    -0.220 OA
ENDBRANCH  40  41
ENDBRANCH  27  40
ENDBRANCH   5  26
TORSDOF 11
