REMARK  Name = outputs/IAG933/test6/raw/output_7752_IAG933_linker_design_.xyz
REMARK  13 active torsions:
REMARK  status: ('A' for Active; 'I' for Inactive)
REMARK    1  A    between atoms: C_1  and  C_2
REMARK    2  A    between atoms: C_1  and  C_8
REMARK    3  A    between atoms: C_1  and  C_32
REMARK    4  A    between atoms: C_13  and  C_29
REMARK    5  A    between atoms: C_14  and  C_15
REMARK    6  A    between atoms: C_21  and  O_22
REMARK    7  A    between atoms: O_22  and  C_23
REMARK    8  A    between atoms: C_23  and  C_24
REMARK    9  A    between atoms: C_31  and  C_39
REMARK   10  A    between atoms: C_32  and  C_36
REMARK   11  A    between atoms: C_32  and  N_40
REMARK   12  A    between atoms: N_40  and  C_46
REMARK   13  A    between atoms: C_41  and  C_43
REMARK                            x       y       z     vdW  Elec       q    Type
REMARK                         _______ _______ _______ _____ _____    ______ ____
ROOT
ATOM      1  C   UNL A   1     -25.382  -0.134  28.975  0.00  0.00    +0.120 C 
ENDROOT
BRANCH   1   2
ATOM      2  C   UNL A   1     -26.049   1.143  29.128  0.00  0.00    -0.005 C 
ATOM      3  C   UNL A   1     -27.438   1.468  29.447  0.00  0.00    -0.003 C 
BRANCH   3   9
ATOM      4  C   UNL A   1     -30.698  -1.258  30.586  0.00  0.00    -0.004 C 
ATOM      5  C   UNL A   1     -29.462  -1.371  31.218  0.00  0.00    -0.000 C 
ATOM      6  C   UNL A   1     -28.429  -0.604  30.725  0.00  0.00    -0.000 C 
ATOM      7  C   UNL A   1     -29.666   0.277  28.881  0.00  0.00    -0.004 C 
ATOM      8  C   UNL A   1     -30.757  -0.374  29.515  0.00  0.00    -0.022 C 
ATOM      9  C   UNL A   1     -28.503   0.352  29.644  0.00  0.00    -0.001 C 
BRANCH   8  10
ATOM     10  C   UNL A   1     -32.104  -0.000  29.049  0.00  0.00    +0.022 C 
ATOM     11  C   UNL A   1     -33.129   0.252  30.161  0.00  0.00    +0.005 C 
ATOM     12  C   UNL A   1     -32.493  -0.714  27.750  0.00  0.00    +0.005 C 
ENDBRANCH   8  10
ENDBRANCH   3   9
ENDBRANCH   1   2
BRANCH   1  13
ATOM     13  C   UNL A   1     -24.855  -1.012  30.143  0.00  0.00    +0.062 C 
BRANCH  13  14
ATOM     14  C   UNL A   1     -24.973  -2.505  29.788  0.00  0.00    -0.019 C 
ATOM     15  C   UNL A   1     -23.906  -3.173  29.146  0.00  0.00    -0.004 C 
ATOM     16  C   UNL A   1     -23.989  -4.549  28.853  0.00  0.00    -0.000 C 
ATOM     17  C   UNL A   1     -25.137  -5.280  29.205  0.00  0.00    -0.000 C 
ATOM     18  C   UNL A   1     -26.232  -4.611  29.784  0.00  0.00    -0.000 C 
ATOM     19  C   UNL A   1     -26.155  -3.232  30.065  0.00  0.00    -0.004 C 
ENDBRANCH  13  14
BRANCH  13  20
ATOM     20  C   UNL A   1     -25.387  -0.679  31.571  0.00  0.00    +0.079 C 
ATOM     21  C   UNL A   1     -25.189   0.773  32.028  0.00  0.00    +0.019 C 
ATOM     22  C   UNL A   1     -25.336   0.684  33.544  0.00  0.00    +0.020 C 
ATOM     23  C   UNL A   1     -24.829  -0.715  33.905  0.00  0.00    +0.089 C 
ATOM     24  N   UNL A   1     -24.758  -1.481  32.646  0.00  0.00    -0.219 NA
ENDBRANCH  13  20
ENDBRANCH   1  13
BRANCH   1  25
ATOM     25  N   UNL A   1     -24.028  -0.008  28.470  0.00  0.00    -0.229 NA
BRANCH  25  31
ATOM     26  C   UNL A   1     -24.251   1.603  26.643  0.00  0.00    +0.043 C 
ATOM     27  C   UNL A   1     -23.301   2.188  25.834  0.00  0.00    +0.180 C 
ATOM     28  C   UNL A   1     -22.200   1.194  27.539  0.00  0.00    +0.303 C 
ATOM     29  F   UNL A   1     -21.344   0.904  28.487  0.00  0.00    -0.161 F 
ATOM     30  O   UNL A   1     -22.006   1.950  26.391  0.00  0.00    -0.425 OA
ATOM     31  C   UNL A   1     -23.444   0.925  27.740  0.00  0.00    +0.129 C 
BRANCH  26  32
ATOM     32  C   UNL A   1     -25.688   1.614  26.461  0.00  0.00    +0.097 C 
ATOM     33  C   UNL A   1     -26.250   2.920  26.395  0.00  0.00    +0.059 C 
ATOM     34  C   UNL A   1     -27.438   3.091  25.645  0.00  0.00    +0.102 C 
ATOM     35  N   UNL A   1     -28.075   2.089  25.003  0.00  0.00    -0.212 NA
ATOM     36  C   UNL A   1     -27.543   0.849  25.079  0.00  0.00    +0.234 C 
ATOM     37  C   UNL A   1     -26.354   0.576  25.777  0.00  0.00    +0.244 C 
ATOM     38  F   UNL A   1     -25.860  -0.681  25.795  0.00  0.00    -0.227 F 
BRANCH  33  39
ATOM     39  C   UNL A   1     -25.642   4.093  27.123  0.00  0.00    +0.263 C 
ATOM     40  N   UNL A   1     -25.614   5.252  26.449  0.00  0.00    -0.200 NA
ATOM     41  C   UNL A   1     -25.026   6.479  26.963  0.00  0.00    +0.139 C 
ATOM     42  O   UNL A   1     -25.143   3.966  28.243  0.00  0.00    -0.269 OA
ENDBRANCH  33  39
BRANCH  36  43
ATOM     43  O   UNL A   1     -28.193  -0.208  24.477  0.00  0.00    -0.459 OA
BRANCH  43  44
ATOM     44  C   UNL A   1     -29.460   0.005  23.866  0.00  0.00    +0.242 C 
BRANCH  44  45
ATOM     45  C   UNL A   1     -30.065  -1.377  23.573  0.00  0.00    +0.229 C 
ATOM     46  O   UNL A   1     -30.729  -1.878  24.721  0.00  0.00    -0.216 OA
ENDBRANCH  44  45
ENDBRANCH  43  44
ENDBRANCH  36  43
ENDBRANCH  26  32
ENDBRANCH  25  31
ENDBRANCH   1  25
TORSDOF 13
