REMARK  Name = outputs/IAG933/test6/raw/output_7754_IAG933_linker_design_.xyz
REMARK  12 active torsions:
REMARK  status: ('A' for Active; 'I' for Inactive)
REMARK    1  A    between atoms: C_1  and  C_2
REMARK    2  A    between atoms: C_1  and  C_8
REMARK    3  A    between atoms: C_1  and  C_39
REMARK    4  A    between atoms: C_9  and  C_41
REMARK    5  A    between atoms: C_13  and  C_32
REMARK    6  A    between atoms: C_14  and  C_15
REMARK    7  A    between atoms: C_21  and  O_22
REMARK    8  A    between atoms: O_22  and  C_23
REMARK    9  A    between atoms: C_23  and  C_24
REMARK   10  A    between atoms: C_29  and  C_46
REMARK   11  A    between atoms: C_35  and  C_37
REMARK   12  A    between atoms: C_39  and  C_46
REMARK                            x       y       z     vdW  Elec       q    Type
REMARK                         _______ _______ _______ _____ _____    ______ ____
ROOT
ATOM      1  C   UNL A   1     -24.855  -1.012  30.143  0.00  0.00    +0.039 C 
ENDROOT
BRANCH   1   2
ATOM      2  C   UNL A   1     -24.973  -2.505  29.788  0.00  0.00    -0.021 C 
ATOM      3  C   UNL A   1     -23.906  -3.173  29.146  0.00  0.00    -0.004 C 
ATOM      4  C   UNL A   1     -23.989  -4.549  28.853  0.00  0.00    -0.000 C 
ATOM      5  C   UNL A   1     -25.137  -5.280  29.205  0.00  0.00    -0.000 C 
ATOM      6  C   UNL A   1     -26.232  -4.611  29.784  0.00  0.00    -0.000 C 
ATOM      7  C   UNL A   1     -26.155  -3.232  30.065  0.00  0.00    -0.004 C 
ENDBRANCH   1   2
BRANCH   1   8
ATOM      8  C   UNL A   1     -25.387  -0.679  31.571  0.00  0.00    +0.081 C 
ATOM      9  C   UNL A   1     -25.189   0.773  32.028  0.00  0.00    +0.062 C 
ATOM     10  C   UNL A   1     -25.336   0.684  33.544  0.00  0.00    +0.024 C 
ATOM     11  C   UNL A   1     -24.829  -0.715  33.905  0.00  0.00    +0.089 C 
ATOM     12  N   UNL A   1     -24.758  -1.481  32.646  0.00  0.00    -0.219 NA
BRANCH   9  19
ATOM     13  C   UNL A   1     -27.166   5.634  33.778  0.00  0.00    +0.034 C 
ATOM     14  O   UNL A   1     -26.907   0.933  30.418  0.00  0.00    -0.207 OA
ATOM     15  N   UNL A   1     -26.830   2.873  31.382  0.00  0.00    -0.243 NA
ATOM     16  C   UNL A   1     -25.392   2.925  31.110  0.00  0.00    +0.132 C 
ATOM     17  C   UNL A   1     -26.447   4.726  32.789  0.00  0.00    +0.138 C 
ATOM     18  C   UNL A   1     -27.374   3.545  32.522  0.00  0.00    +0.104 C 
ATOM     19  C   UNL A   1     -26.364   1.731  31.489  0.00  0.00    +0.191 C 
ATOM     20  C   UNL A   1     -24.466   3.538  32.244  0.00  0.00    +0.162 C 
ATOM     21  O   UNL A   1     -25.284   4.037  33.293  0.00  0.00    -0.353 OA
BRANCH  17  22
ATOM     22  C   UNL A   1     -25.852   5.713  31.813  0.00  0.00    +0.210 C 
ATOM     23  O   UNL A   1     -26.050   5.567  30.474  0.00  0.00    -0.218 OA
ENDBRANCH  17  22
ENDBRANCH   9  19
ENDBRANCH   1   8
BRANCH   1  24
ATOM     24  C   UNL A   1     -25.550  -0.398  28.973  0.00  0.00    +0.010 C 
BRANCH  24  25
ATOM     25  C   UNL A   1     -24.597  -0.196  27.780  0.00  0.00    +0.026 C 
BRANCH  25  26
ATOM     26  C   UNL A   1     -23.884   0.848  27.887  0.00  0.00    -0.026 C 
ATOM     27  C   UNL A   1     -22.695   1.056  28.543  0.00  0.00    -0.005 C 
ATOM     28  C   UNL A   1     -24.255   1.480  26.831  0.00  0.00    -0.019 C 
ATOM     29  C   UNL A   1     -23.246   1.993  26.016  0.00  0.00    -0.004 C 
ATOM     30  C   UNL A   1     -21.732   1.659  27.802  0.00  0.00    -0.000 C 
ATOM     31  C   UNL A   1     -21.975   2.087  26.523  0.00  0.00    -0.000 C 
BRANCH  28  32
ATOM     32  C   UNL A   1     -25.688   1.614  26.461  0.00  0.00    +0.092 C 
ATOM     33  C   UNL A   1     -26.250   2.920  26.395  0.00  0.00    +0.059 C 
ATOM     34  C   UNL A   1     -27.438   3.091  25.645  0.00  0.00    +0.102 C 
ATOM     35  N   UNL A   1     -28.075   2.089  25.003  0.00  0.00    -0.212 NA
ATOM     36  C   UNL A   1     -27.543   0.849  25.079  0.00  0.00    +0.234 C 
ATOM     37  C   UNL A   1     -26.354   0.576  25.777  0.00  0.00    +0.244 C 
ATOM     38  F   UNL A   1     -25.860  -0.681  25.795  0.00  0.00    -0.227 F 
BRANCH  33  39
ATOM     39  C   UNL A   1     -25.642   4.093  27.123  0.00  0.00    +0.263 C 
ATOM     40  N   UNL A   1     -25.614   5.252  26.449  0.00  0.00    -0.200 NA
ATOM     41  C   UNL A   1     -25.026   6.479  26.963  0.00  0.00    +0.139 C 
ATOM     42  O   UNL A   1     -25.143   3.966  28.243  0.00  0.00    -0.269 OA
ENDBRANCH  33  39
BRANCH  36  43
ATOM     43  O   UNL A   1     -28.193  -0.208  24.477  0.00  0.00    -0.459 OA
BRANCH  43  44
ATOM     44  C   UNL A   1     -29.460   0.005  23.866  0.00  0.00    +0.242 C 
BRANCH  44  45
ATOM     45  C   UNL A   1     -30.065  -1.377  23.573  0.00  0.00    +0.229 C 
ATOM     46  O   UNL A   1     -30.729  -1.878  24.721  0.00  0.00    -0.216 OA
ENDBRANCH  44  45
ENDBRANCH  43  44
ENDBRANCH  36  43
ENDBRANCH  28  32
ENDBRANCH  25  26
ENDBRANCH  24  25
ENDBRANCH   1  24
TORSDOF 12
