REMARK  Name = outputs/IAG933/test6/raw/output_7755_IAG933_linker_design_.xyz
REMARK  13 active torsions:
REMARK  status: ('A' for Active; 'I' for Inactive)
REMARK    1  A    between atoms: C_1  and  C_2
REMARK    2  A    between atoms: C_1  and  C_8
REMARK    3  A    between atoms: C_1  and  C_39
REMARK    4  A    between atoms: C_13  and  C_30
REMARK    5  A    between atoms: C_14  and  C_15
REMARK    6  A    between atoms: C_21  and  O_22
REMARK    7  A    between atoms: O_22  and  C_23
REMARK    8  A    between atoms: C_23  and  C_24
REMARK    9  A    between atoms: C_28  and  C_39
REMARK   10  A    between atoms: O_33  and  C_35
REMARK   11  A    between atoms: C_39  and  O_40
REMARK   12  A    between atoms: O_40  and  C_44
REMARK   13  A    between atoms: C_43  and  C_44
REMARK                            x       y       z     vdW  Elec       q    Type
REMARK                         _______ _______ _______ _____ _____    ______ ____
ROOT
ATOM      1  C   UNL A   1     -24.905  -0.263  28.831  0.00  0.00    +0.143 C 
ENDROOT
BRANCH   1   2
ATOM      2  C   UNL A   1     -23.969   0.832  28.118  0.00  0.00    +0.001 C 
ATOM      3  C   UNL A   1     -24.265   1.413  26.854  0.00  0.00    -0.017 C 
ATOM      4  C   UNL A   1     -22.706   1.045  28.735  0.00  0.00    -0.002 C 
ATOM      5  C   UNL A   1     -21.661   1.585  27.968  0.00  0.00    -0.000 C 
ATOM      6  C   UNL A   1     -23.204   1.907  26.080  0.00  0.00    -0.004 C 
ATOM      7  C   UNL A   1     -21.910   2.015  26.648  0.00  0.00    -0.000 C 
BRANCH   3   8
ATOM      8  C   UNL A   1     -25.688   1.614  26.461  0.00  0.00    +0.092 C 
ATOM      9  C   UNL A   1     -26.250   2.920  26.395  0.00  0.00    +0.059 C 
ATOM     10  C   UNL A   1     -27.438   3.091  25.645  0.00  0.00    +0.102 C 
ATOM     11  N   UNL A   1     -28.075   2.089  25.003  0.00  0.00    -0.212 NA
ATOM     12  C   UNL A   1     -27.543   0.849  25.079  0.00  0.00    +0.234 C 
ATOM     13  C   UNL A   1     -26.354   0.576  25.777  0.00  0.00    +0.244 C 
ATOM     14  F   UNL A   1     -25.860  -0.681  25.795  0.00  0.00    -0.227 F 
BRANCH   9  15
ATOM     15  C   UNL A   1     -25.642   4.093  27.123  0.00  0.00    +0.263 C 
ATOM     16  N   UNL A   1     -25.614   5.252  26.449  0.00  0.00    -0.200 NA
ATOM     17  C   UNL A   1     -25.026   6.479  26.963  0.00  0.00    +0.139 C 
ATOM     18  O   UNL A   1     -25.143   3.966  28.243  0.00  0.00    -0.269 OA
ENDBRANCH   9  15
BRANCH  12  19
ATOM     19  O   UNL A   1     -28.193  -0.208  24.477  0.00  0.00    -0.459 OA
BRANCH  19  20
ATOM     20  C   UNL A   1     -29.460   0.005  23.866  0.00  0.00    +0.242 C 
BRANCH  20  21
ATOM     21  C   UNL A   1     -30.065  -1.377  23.573  0.00  0.00    +0.229 C 
ATOM     22  O   UNL A   1     -30.729  -1.878  24.721  0.00  0.00    -0.216 OA
ENDBRANCH  20  21
ENDBRANCH  19  20
ENDBRANCH  12  19
ENDBRANCH   3   8
ENDBRANCH   1   2
BRANCH   1  23
ATOM     23  C   UNL A   1     -24.855  -1.012  30.143  0.00  0.00    +0.070 C 
BRANCH  23  24
ATOM     24  C   UNL A   1     -24.973  -2.505  29.788  0.00  0.00    -0.018 C 
ATOM     25  C   UNL A   1     -23.906  -3.173  29.146  0.00  0.00    -0.004 C 
ATOM     26  C   UNL A   1     -23.989  -4.549  28.853  0.00  0.00    -0.000 C 
ATOM     27  C   UNL A   1     -25.137  -5.280  29.205  0.00  0.00    -0.000 C 
ATOM     28  C   UNL A   1     -26.232  -4.611  29.784  0.00  0.00    -0.000 C 
ATOM     29  C   UNL A   1     -26.155  -3.232  30.065  0.00  0.00    -0.004 C 
ENDBRANCH  23  24
BRANCH  23  30
ATOM     30  C   UNL A   1     -25.387  -0.679  31.571  0.00  0.00    +0.080 C 
ATOM     31  C   UNL A   1     -25.189   0.773  32.028  0.00  0.00    +0.019 C 
ATOM     32  C   UNL A   1     -25.336   0.684  33.544  0.00  0.00    +0.020 C 
ATOM     33  C   UNL A   1     -24.829  -0.715  33.905  0.00  0.00    +0.089 C 
ATOM     34  N   UNL A   1     -24.758  -1.481  32.646  0.00  0.00    -0.219 NA
ENDBRANCH  23  30
ENDBRANCH   1  23
BRANCH   1  35
ATOM     35  O   UNL A   1     -26.328  -0.148  28.370  0.00  0.00    -0.347 OA
BRANCH  35  36
ATOM     36  C   UNL A   1     -27.628  -0.117  28.894  0.00  0.00    +0.169 C 
BRANCH  36  42
ATOM     37  C   UNL A   1     -29.530   1.386  29.078  0.00  0.00    +0.001 C 
ATOM     38  C   UNL A   1     -29.770   3.125  30.734  0.00  0.00    +0.139 C 
ATOM     39  C   UNL A   1     -27.955   1.559  30.922  0.00  0.00    +0.001 C 
ATOM     40  C   UNL A   1     -30.180   2.524  29.539  0.00  0.00    +0.037 C 
ATOM     41  C   UNL A   1     -28.681   2.633  31.441  0.00  0.00    +0.037 C 
ATOM     42  C   UNL A   1     -28.337   0.937  29.681  0.00  0.00    +0.007 C 
BRANCH  38  43
ATOM     43  O   UNL A   1     -30.545   4.160  31.166  0.00  0.00    -0.471 OA
ATOM     44  C   UNL A   1     -30.259   4.942  32.314  0.00  0.00    +0.253 C 
ENDBRANCH  38  43
ENDBRANCH  36  42
ENDBRANCH  35  36
ENDBRANCH   1  35
TORSDOF 13
