REMARK  Name = outputs/IAG933/test6/raw/output_7756_IAG933_linker_design_.xyz
REMARK  16 active torsions:
REMARK  status: ('A' for Active; 'I' for Inactive)
REMARK    1  A    between atoms: C_1  and  C_2
REMARK    2  A    between atoms: C_1  and  C_8
REMARK    3  A    between atoms: C_1  and  C_40
REMARK    4  A    between atoms: C_13  and  C_36
REMARK    5  A    between atoms: C_14  and  C_15
REMARK    6  A    between atoms: C_21  and  O_22
REMARK    7  A    between atoms: O_22  and  C_23
REMARK    8  A    between atoms: C_23  and  C_24
REMARK    9  A    between atoms: C_28  and  C_31
REMARK   10  A    between atoms: C_29  and  C_36
REMARK   11  A    between atoms: C_29  and  C_39
REMARK   12  A    between atoms: C_31  and  C_33
REMARK   13  A    between atoms: N_32  and  C_33
REMARK   14  A    between atoms: C_34  and  C_38
REMARK   15  A    between atoms: C_34  and  C_40
REMARK   16  A    between atoms: C_36  and  C_40
REMARK                            x       y       z     vdW  Elec       q    Type
REMARK                         _______ _______ _______ _____ _____    ______ ____
ROOT
ATOM      1  C   UNL A   1     -24.929  -0.077  28.856  0.00  0.00    +0.015 C 
ENDROOT
BRANCH   1   2
ATOM      2  C   UNL A   1     -24.855  -1.012  30.143  0.00  0.00    +0.039 C 
BRANCH   2   3
ATOM      3  C   UNL A   1     -24.973  -2.505  29.788  0.00  0.00    -0.021 C 
ATOM      4  C   UNL A   1     -23.906  -3.173  29.146  0.00  0.00    -0.004 C 
ATOM      5  C   UNL A   1     -23.989  -4.549  28.853  0.00  0.00    -0.000 C 
ATOM      6  C   UNL A   1     -25.137  -5.280  29.205  0.00  0.00    -0.000 C 
ATOM      7  C   UNL A   1     -26.232  -4.611  29.784  0.00  0.00    -0.000 C 
ATOM      8  C   UNL A   1     -26.155  -3.232  30.065  0.00  0.00    -0.004 C 
ENDBRANCH   2   3
BRANCH   2   9
ATOM      9  C   UNL A   1     -25.387  -0.679  31.571  0.00  0.00    +0.077 C 
ATOM     10  C   UNL A   1     -25.189   0.773  32.028  0.00  0.00    +0.019 C 
ATOM     11  C   UNL A   1     -25.336   0.684  33.544  0.00  0.00    +0.020 C 
ATOM     12  C   UNL A   1     -24.829  -0.715  33.905  0.00  0.00    +0.089 C 
ATOM     13  N   UNL A   1     -24.758  -1.481  32.646  0.00  0.00    -0.219 NA
ENDBRANCH   2   9
ENDBRANCH   1   2
BRANCH   1  14
ATOM     14  C   UNL A   1     -26.327  -0.502  28.269  0.00  0.00    +0.087 C 
BRANCH  14  17
ATOM     15  N   UNL A   1     -28.419   0.356  30.027  0.00  0.00    -0.205 NA
ATOM     16  O   UNL A   1     -28.062  -1.538  29.140  0.00  0.00    -0.273 OA
ATOM     17  C   UNL A   1     -27.621  -0.568  29.204  0.00  0.00    +0.241 C 
BRANCH  15  18
ATOM     18  C   UNL A   1     -29.807   0.059  30.388  0.00  0.00    +0.117 C 
BRANCH  18  19
ATOM     19  C   UNL A   1     -30.073  -1.310  31.056  0.00  0.00    +0.044 C 
BRANCH  19  20
ATOM     20  C   UNL A   1     -29.150  -1.546  32.301  0.00  0.00    +0.111 C 
ATOM     21  N   UNL A   1     -28.534  -0.277  32.729  0.00  0.00    -0.131 NA
ENDBRANCH  19  20
ENDBRANCH  18  19
ENDBRANCH  15  18
ENDBRANCH  14  17
ENDBRANCH   1  14
BRANCH   1  22
ATOM     22  C   UNL A   1     -24.739   1.230  27.652  0.00  0.00    +0.011 C 
BRANCH  22  23
ATOM     23  C   UNL A   1     -25.688   1.614  26.461  0.00  0.00    +0.070 C 
ATOM     24  C   UNL A   1     -26.250   2.920  26.395  0.00  0.00    +0.055 C 
ATOM     25  C   UNL A   1     -27.438   3.091  25.645  0.00  0.00    +0.102 C 
ATOM     26  N   UNL A   1     -28.075   2.089  25.003  0.00  0.00    -0.212 NA
ATOM     27  C   UNL A   1     -27.543   0.849  25.079  0.00  0.00    +0.234 C 
ATOM     28  C   UNL A   1     -26.354   0.576  25.777  0.00  0.00    +0.240 C 
ATOM     29  F   UNL A   1     -25.860  -0.681  25.795  0.00  0.00    -0.227 F 
BRANCH  24  30
ATOM     30  C   UNL A   1     -25.642   4.093  27.123  0.00  0.00    +0.262 C 
ATOM     31  N   UNL A   1     -25.614   5.252  26.449  0.00  0.00    -0.200 NA
ATOM     32  C   UNL A   1     -25.026   6.479  26.963  0.00  0.00    +0.139 C 
ATOM     33  O   UNL A   1     -25.143   3.966  28.243  0.00  0.00    -0.269 OA
ENDBRANCH  24  30
BRANCH  27  34
ATOM     34  O   UNL A   1     -28.193  -0.208  24.477  0.00  0.00    -0.459 OA
BRANCH  34  35
ATOM     35  C   UNL A   1     -29.460   0.005  23.866  0.00  0.00    +0.242 C 
BRANCH  35  36
ATOM     36  C   UNL A   1     -30.065  -1.377  23.573  0.00  0.00    +0.229 C 
ATOM     37  O   UNL A   1     -30.729  -1.878  24.721  0.00  0.00    -0.216 OA
ENDBRANCH  35  36
ENDBRANCH  34  35
ENDBRANCH  27  34
ENDBRANCH  22  23
BRANCH  22  38
ATOM     38  C   UNL A   1     -23.445   1.463  27.130  0.00  0.00    +0.033 C 
BRANCH  38  40
ATOM     39  O   UNL A   1     -22.375   0.194  28.954  0.00  0.00    -0.223 OA
ATOM     40  C   UNL A   1     -22.214   1.344  28.090  0.00  0.00    +0.152 C 
ATOM     41  C   UNL A   1     -20.879   1.465  27.317  0.00  0.00    +0.035 C 
ENDBRANCH  38  40
ENDBRANCH  22  38
ENDBRANCH   1  22
TORSDOF 16
