REMARK  Name = outputs/IAG933/test6/raw/output_7757_IAG933_linker_design_.xyz
REMARK  12 active torsions:
REMARK  status: ('A' for Active; 'I' for Inactive)
REMARK    1  A    between atoms: C_1  and  C_2
REMARK    2  A    between atoms: C_1  and  C_8
REMARK    3  A    between atoms: C_1  and  C_39
REMARK    4  A    between atoms: C_13  and  C_35
REMARK    5  A    between atoms: C_14  and  C_15
REMARK    6  A    between atoms: C_21  and  O_22
REMARK    7  A    between atoms: O_22  and  C_23
REMARK    8  A    between atoms: C_23  and  C_24
REMARK    9  A    between atoms: O_28  and  C_36
REMARK   10  A    between atoms: C_30  and  C_39
REMARK   11  A    between atoms: C_36  and  N_37
REMARK   12  A    between atoms: N_37  and  C_39
REMARK                            x       y       z     vdW  Elec       q    Type
REMARK                         _______ _______ _______ _____ _____    ______ ____
ROOT
ATOM      1  F   UNL A   1     -23.516   1.838  24.668  0.00  0.00    -0.202 F 
ATOM      2  C   UNL A   1     -23.969   0.630  28.136  0.00  0.00    +0.014 A 
ATOM      3  C   UNL A   1     -21.657   1.087  27.553  0.00  0.00    +0.185 A 
ATOM      4  F   UNL A   1     -21.171   2.348  25.605  0.00  0.00    -0.199 F 
ATOM      5  C   UNL A   1     -23.294   1.615  25.980  0.00  0.00    +0.170 A 
ATOM      6  N   UNL A   1     -21.931  -0.384  29.251  0.00  0.00    -0.192 NA
ATOM      7  C   UNL A   1     -24.301   1.322  26.875  0.00  0.00    +0.031 A 
ATOM      8  C   UNL A   1     -20.655  -0.162  28.800  0.00  0.00    +0.324 C 
ATOM      9  C   UNL A   1     -22.025   1.691  26.408  0.00  0.00    +0.202 A 
ATOM     10  C   UNL A   1     -22.597   0.416  28.385  0.00  0.00    +0.103 A 
ATOM     11  O   UNL A   1     -20.332   0.915  28.012  0.00  0.00    -0.450 OA
ENDROOT
BRANCH   7  12
ATOM     12  C   UNL A   1     -25.688   1.614  26.461  0.00  0.00    +0.040 C 
ATOM     13  C   UNL A   1     -26.250   2.920  26.395  0.00  0.00    +0.077 C 
ATOM     14  C   UNL A   1     -27.438   3.091  25.645  0.00  0.00    +0.107 C 
ATOM     15  N   UNL A   1     -28.075   2.089  25.003  0.00  0.00    -0.208 NA
ATOM     16  C   UNL A   1     -27.543   0.849  25.079  0.00  0.00    +0.253 C 
ATOM     17  C   UNL A   1     -26.354   0.576  25.777  0.00  0.00    +0.193 C 
ATOM     18  F   UNL A   1     -25.860  -0.681  25.795  0.00  0.00    -0.199 F 
BRANCH  13  19
ATOM     19  C   UNL A   1     -25.642   4.093  27.123  0.00  0.00    +0.266 C 
ATOM     20  N   UNL A   1     -25.614   5.252  26.449  0.00  0.00    -0.200 NA
ATOM     21  C   UNL A   1     -25.026   6.479  26.963  0.00  0.00    +0.139 C 
ATOM     22  O   UNL A   1     -25.143   3.966  28.243  0.00  0.00    -0.268 OA
ENDBRANCH  13  19
BRANCH  16  23
ATOM     23  O   UNL A   1     -28.193  -0.208  24.477  0.00  0.00    -0.456 OA
BRANCH  23  24
ATOM     24  C   UNL A   1     -29.460   0.005  23.866  0.00  0.00    +0.243 C 
BRANCH  24  25
ATOM     25  C   UNL A   1     -30.065  -1.377  23.573  0.00  0.00    +0.229 C 
ATOM     26  O   UNL A   1     -30.729  -1.878  24.721  0.00  0.00    -0.216 OA
ENDBRANCH  24  25
ENDBRANCH  23  24
ENDBRANCH  16  23
ENDBRANCH   7  12
BRANCH   2  27
ATOM     27  C   UNL A   1     -24.915   0.119  29.102  0.00  0.00    +0.104 C 
BRANCH  27  28
ATOM     28  C   UNL A   1     -24.855  -1.012  30.143  0.00  0.00    +0.059 C 
BRANCH  28  29
ATOM     29  C   UNL A   1     -24.973  -2.505  29.788  0.00  0.00    -0.019 C 
ATOM     30  C   UNL A   1     -23.906  -3.173  29.146  0.00  0.00    -0.004 C 
ATOM     31  C   UNL A   1     -23.989  -4.549  28.853  0.00  0.00    -0.000 C 
ATOM     32  C   UNL A   1     -25.137  -5.280  29.205  0.00  0.00    -0.000 C 
ATOM     33  C   UNL A   1     -26.232  -4.611  29.784  0.00  0.00    -0.000 C 
ATOM     34  C   UNL A   1     -26.155  -3.232  30.065  0.00  0.00    -0.004 C 
ENDBRANCH  28  29
BRANCH  28  35
ATOM     35  C   UNL A   1     -25.387  -0.679  31.571  0.00  0.00    +0.079 C 
ATOM     36  C   UNL A   1     -25.189   0.773  32.028  0.00  0.00    +0.019 C 
ATOM     37  C   UNL A   1     -25.336   0.684  33.544  0.00  0.00    +0.020 C 
ATOM     38  C   UNL A   1     -24.829  -0.715  33.905  0.00  0.00    +0.089 C 
ATOM     39  N   UNL A   1     -24.758  -1.481  32.646  0.00  0.00    -0.219 NA
ENDBRANCH  28  35
ENDBRANCH  27  28
BRANCH  27  40
ATOM     40  N   UNL A   1     -26.096   1.008  29.235  0.00  0.00    -0.186 NA
BRANCH  40  41
ATOM     41  C   UNL A   1     -27.436   0.735  28.849  0.00  0.00    +0.229 C 
ATOM     42  C   UNL A   1     -28.208   1.680  29.848  0.00  0.00    +0.056 C 
BRANCH  41  43
ATOM     43  O   UNL A   1     -27.866  -0.573  29.112  0.00  0.00    -0.174 OA
ATOM     44  O   UNL A   1     -29.196  -0.543  28.571  0.00  0.00    -0.033 OA
ENDBRANCH  41  43
ENDBRANCH  40  41
ENDBRANCH  27  40
ENDBRANCH   2  27
TORSDOF 12
