REMARK  Name = outputs/IAG933/test6/raw/output_7758_IAG933_linker_design_.xyz
REMARK  10 active torsions:
REMARK  status: ('A' for Active; 'I' for Inactive)
REMARK    1  A    between atoms: C_1  and  C_2
REMARK    2  A    between atoms: C_1  and  C_8
REMARK    3  A    between atoms: C_1  and  C_31
REMARK    4  A    between atoms: C_9  and  N_34
REMARK    5  A    between atoms: C_13  and  C_29
REMARK    6  A    between atoms: C_14  and  C_15
REMARK    7  A    between atoms: C_21  and  O_22
REMARK    8  A    between atoms: O_22  and  C_23
REMARK    9  A    between atoms: C_23  and  C_24
REMARK   10  A    between atoms: C_30  and  O_41
REMARK                            x       y       z     vdW  Elec       q    Type
REMARK                         _______ _______ _______ _____ _____    ______ ____
ROOT
ATOM      1  C   UNL A   1     -22.115   1.639  27.219  0.00  0.00    +0.162 C 
ATOM      2  C   UNL A   1     -24.661   1.276  27.137  0.00  0.00    +0.124 C 
ATOM      3  C   UNL A   1     -24.254  -0.050  29.107  0.00  0.00    +0.060 C 
ATOM      4  O   UNL A   1     -23.400   2.570  25.580  0.00  0.00    -0.283 OA
ATOM      5  F   UNL A   1     -21.164   2.214  26.676  0.00  0.00    -0.205 F 
ATOM      6  C   UNL A   1     -21.918   0.833  28.436  0.00  0.00    +0.087 C 
ATOM      7  C   UNL A   1     -23.409   1.797  26.669  0.00  0.00    +0.236 C 
ATOM      8  N   UNL A   1     -25.075   0.486  28.189  0.00  0.00    -0.246 NA
ATOM      9  C   UNL A   1     -22.763   0.063  29.192  0.00  0.00    -0.004 C 
ENDROOT
BRANCH   2  10
ATOM     10  C   UNL A   1     -25.688   1.614  26.461  0.00  0.00    +0.059 C 
ATOM     11  C   UNL A   1     -26.250   2.920  26.395  0.00  0.00    +0.078 C 
ATOM     12  C   UNL A   1     -27.438   3.091  25.645  0.00  0.00    +0.107 C 
ATOM     13  N   UNL A   1     -28.075   2.089  25.003  0.00  0.00    -0.208 NA
ATOM     14  C   UNL A   1     -27.543   0.849  25.079  0.00  0.00    +0.253 C 
ATOM     15  C   UNL A   1     -26.354   0.576  25.777  0.00  0.00    +0.195 C 
ATOM     16  F   UNL A   1     -25.860  -0.681  25.795  0.00  0.00    -0.199 F 
BRANCH  11  17
ATOM     17  C   UNL A   1     -25.642   4.093  27.123  0.00  0.00    +0.267 C 
ATOM     18  N   UNL A   1     -25.614   5.252  26.449  0.00  0.00    -0.200 NA
ATOM     19  C   UNL A   1     -25.026   6.479  26.963  0.00  0.00    +0.139 C 
ATOM     20  O   UNL A   1     -25.143   3.966  28.243  0.00  0.00    -0.268 OA
ENDBRANCH  11  17
BRANCH  14  21
ATOM     21  O   UNL A   1     -28.193  -0.208  24.477  0.00  0.00    -0.456 OA
BRANCH  21  22
ATOM     22  C   UNL A   1     -29.460   0.005  23.866  0.00  0.00    +0.243 C 
BRANCH  22  23
ATOM     23  C   UNL A   1     -30.065  -1.377  23.573  0.00  0.00    +0.229 C 
ATOM     24  O   UNL A   1     -30.729  -1.878  24.721  0.00  0.00    -0.216 OA
ENDBRANCH  22  23
ENDBRANCH  21  22
ENDBRANCH  14  21
ENDBRANCH   2  10
BRANCH   3  25
ATOM     25  C   UNL A   1     -24.855  -1.012  30.143  0.00  0.00    +0.080 C 
BRANCH  25  26
ATOM     26  C   UNL A   1     -24.973  -2.505  29.788  0.00  0.00    -0.015 C 
ATOM     27  C   UNL A   1     -23.906  -3.173  29.146  0.00  0.00    -0.004 C 
ATOM     28  C   UNL A   1     -23.989  -4.549  28.853  0.00  0.00    -0.000 C 
ATOM     29  C   UNL A   1     -25.137  -5.280  29.205  0.00  0.00    -0.000 C 
ATOM     30  C   UNL A   1     -26.232  -4.611  29.784  0.00  0.00    -0.000 C 
ATOM     31  C   UNL A   1     -26.155  -3.232  30.065  0.00  0.00    -0.004 C 
ENDBRANCH  25  26
BRANCH  25  32
ATOM     32  C   UNL A   1     -25.387  -0.679  31.571  0.00  0.00    +0.102 C 
ATOM     33  C   UNL A   1     -25.189   0.773  32.028  0.00  0.00    +0.115 C 
ATOM     34  C   UNL A   1     -25.336   0.684  33.544  0.00  0.00    +0.042 C 
ATOM     35  C   UNL A   1     -24.829  -0.715  33.905  0.00  0.00    +0.090 C 
ATOM     36  N   UNL A   1     -24.758  -1.481  32.646  0.00  0.00    -0.217 NA
BRANCH  33  39
ATOM     37  C   UNL A   1     -25.568   3.142  31.461  0.00  0.00    +0.323 C 
ATOM     38  N   UNL A   1     -26.210   4.096  30.827  0.00  0.00    -0.090 NA
ATOM     39  N   UNL A   1     -25.580   1.824  31.096  0.00  0.00    -0.187 NA
BRANCH  37  41
ATOM     40  C   UNL A   1     -24.659   4.832  32.852  0.00  0.00    +0.256 C 
ATOM     41  O   UNL A   1     -24.876   3.493  32.492  0.00  0.00    -0.444 OA
ENDBRANCH  37  41
ENDBRANCH  33  39
ENDBRANCH  25  32
ENDBRANCH   3  25
TORSDOF 10
