MODEL 775
MODEL 1
REMARK VINA RESULT:    -4.594      0.000      0.000
REMARK INTER + INTRA:          -4.594
REMARK INTER:                  -4.594
REMARK INTRA:                   0.000
REMARK UNBOUND:                 0.000
REMARK  Name = No_775-gen_results/8p0m/2024-11-27-11-27-31/
REMARK  0 active torsions:
REMARK  status: ('A' for Active; 'I' for Inactive)
REMARK                            x       y       z     vdW  Elec       q    Type
REMARK                         _______ _______ _______ _____ _____    ______ ____
ROOT
ATOM      1  C   UNL A   1     -10.213  -9.763  18.296  0.00  0.00    +0.030 A 
ATOM      2  C   UNL A   1      -9.237 -10.418  18.009  0.00  0.00    +0.140 A 
ATOM      3  C   UNL A   1      -8.142 -10.564  18.697  0.00  0.00    +0.030 A 
ATOM      4  C   UNL A   1      -8.035  -9.874  19.943  0.00  0.00    +0.002 A 
ATOM      5  C   UNL A   1     -10.225  -9.126  19.599  0.00  0.00    +0.002 A 
ATOM      6  C   UNL A   1      -9.134  -9.211  20.361  0.00  0.00    +0.000 A 
ATOM      7  F   UNL A   1      -9.234 -11.110  16.803  0.00  0.00    -0.204 F 
ENDROOT
TORSDOF 0
ENDMDL
ENDMDL
