REMARK  Name = outputs/IAG933/test6/raw/output_776_IAG933_linker_design_.xyz
REMARK  12 active torsions:
REMARK  status: ('A' for Active; 'I' for Inactive)
REMARK    1  A    between atoms: C_1  and  C_2
REMARK    2  A    between atoms: C_1  and  C_8
REMARK    3  A    between atoms: C_1  and  C_40
REMARK    4  A    between atoms: C_13  and  C_28
REMARK    5  A    between atoms: C_14  and  C_15
REMARK    6  A    between atoms: C_21  and  O_22
REMARK    7  A    between atoms: O_22  and  C_23
REMARK    8  A    between atoms: C_23  and  C_24
REMARK    9  A    between atoms: C_28  and  C_39
REMARK   10  A    between atoms: C_29  and  C_32
REMARK   11  A    between atoms: C_32  and  C_40
REMARK   12  A    between atoms: C_35  and  O_42
REMARK                            x       y       z     vdW  Elec       q    Type
REMARK                         _______ _______ _______ _____ _____    ______ ____
ROOT
ATOM      1  C   UNL A   1     -24.778   1.234  27.681  0.00  0.00    +0.039 C 
ATOM      2  C   UNL A   1     -26.005   1.154  29.055  0.00  0.00    +0.031 C 
ATOM      3  C   UNL A   1     -24.752   1.901  29.063  0.00  0.00    +0.006 C 
ENDROOT
BRANCH   1   4
ATOM      4  C   UNL A   1     -25.688   1.614  26.461  0.00  0.00    +0.073 C 
ATOM      5  C   UNL A   1     -26.250   2.920  26.395  0.00  0.00    +0.055 C 
ATOM      6  C   UNL A   1     -27.438   3.091  25.645  0.00  0.00    +0.102 C 
ATOM      7  N   UNL A   1     -28.075   2.089  25.003  0.00  0.00    -0.212 NA
ATOM      8  C   UNL A   1     -27.543   0.849  25.079  0.00  0.00    +0.234 C 
ATOM      9  C   UNL A   1     -26.354   0.576  25.777  0.00  0.00    +0.240 C 
ATOM     10  F   UNL A   1     -25.860  -0.681  25.795  0.00  0.00    -0.227 F 
BRANCH   5  11
ATOM     11  C   UNL A   1     -25.642   4.093  27.123  0.00  0.00    +0.262 C 
ATOM     12  N   UNL A   1     -25.614   5.252  26.449  0.00  0.00    -0.200 NA
ATOM     13  C   UNL A   1     -25.026   6.479  26.963  0.00  0.00    +0.139 C 
ATOM     14  O   UNL A   1     -25.143   3.966  28.243  0.00  0.00    -0.269 OA
ENDBRANCH   5  11
BRANCH   8  15
ATOM     15  O   UNL A   1     -28.193  -0.208  24.477  0.00  0.00    -0.459 OA
BRANCH  15  16
ATOM     16  C   UNL A   1     -29.460   0.005  23.866  0.00  0.00    +0.242 C 
BRANCH  16  17
ATOM     17  C   UNL A   1     -30.065  -1.377  23.573  0.00  0.00    +0.229 C 
ATOM     18  O   UNL A   1     -30.729  -1.878  24.721  0.00  0.00    -0.216 OA
ENDBRANCH  16  17
ENDBRANCH  15  16
ENDBRANCH   8  15
ENDBRANCH   1   4
BRANCH   1  24
ATOM     19  C   UNL A   1     -21.013  -0.310  28.920  0.00  0.00    +0.064 C 
ATOM     20  C   UNL A   1     -22.066   1.669  27.075  0.00  0.00    +0.263 C 
ATOM     21  C   UNL A   1     -20.178   0.703  28.108  0.00  0.00    +0.147 C 
ATOM     22  C   UNL A   1     -22.355   0.280  29.244  0.00  0.00    +0.145 C 
ATOM     23  O   UNL A   1     -20.911   1.805  27.621  0.00  0.00    -0.329 OA
ATOM     24  C   UNL A   1     -23.468   0.900  27.107  0.00  0.00    +0.172 C 
ATOM     25  O   UNL A   1     -23.239  -0.132  28.052  0.00  0.00    -0.351 OA
BRANCH  20  27
ATOM     26  C   UNL A   1     -23.032   1.893  24.796  0.00  0.00    +0.177 C 
ATOM     27  O   UNL A   1     -21.913   1.808  25.535  0.00  0.00    -0.326 OA
ENDBRANCH  20  27
ENDBRANCH   1  24
BRANCH   2  28
ATOM     28  C   UNL A   1     -27.395   1.825  29.430  0.00  0.00    +0.003 C 
ATOM     29  C   UNL A   1     -27.553   2.966  30.392  0.00  0.00    +0.000 C 
ENDBRANCH   2  28
BRANCH   2  31
ATOM     30  O   UNL A   1     -26.980  -0.519  28.572  0.00  0.00    -0.223 OA
ATOM     31  C   UNL A   1     -26.034  -0.238  29.414  0.00  0.00    +0.157 C 
BRANCH  31  32
ATOM     32  C   UNL A   1     -24.855  -1.012  30.143  0.00  0.00    +0.069 C 
BRANCH  32  33
ATOM     33  C   UNL A   1     -24.973  -2.505  29.788  0.00  0.00    -0.019 C 
ATOM     34  C   UNL A   1     -23.906  -3.173  29.146  0.00  0.00    -0.004 C 
ATOM     35  C   UNL A   1     -23.989  -4.549  28.853  0.00  0.00    -0.000 C 
ATOM     36  C   UNL A   1     -25.137  -5.280  29.205  0.00  0.00    -0.000 C 
ATOM     37  C   UNL A   1     -26.232  -4.611  29.784  0.00  0.00    -0.000 C 
ATOM     38  C   UNL A   1     -26.155  -3.232  30.065  0.00  0.00    -0.004 C 
ENDBRANCH  32  33
BRANCH  32  39
ATOM     39  C   UNL A   1     -25.387  -0.679  31.571  0.00  0.00    +0.079 C 
ATOM     40  C   UNL A   1     -25.189   0.773  32.028  0.00  0.00    +0.019 C 
ATOM     41  C   UNL A   1     -25.336   0.684  33.544  0.00  0.00    +0.020 C 
ATOM     42  C   UNL A   1     -24.829  -0.715  33.905  0.00  0.00    +0.089 C 
ATOM     43  N   UNL A   1     -24.758  -1.481  32.646  0.00  0.00    -0.219 NA
ENDBRANCH  32  39
ENDBRANCH  31  32
ENDBRANCH   2  31
TORSDOF 12
