REMARK  Name = outputs/IAG933/test6/raw/output_7762_IAG933_linker_design_.xyz
REMARK  4 active torsions:
REMARK  status: ('A' for Active; 'I' for Inactive)
REMARK    1  A    between atoms: C_1  and  C_2
REMARK    2  A    between atoms: C_1  and  C_8
REMARK    3  A    between atoms: C_1  and  C_43
REMARK    4  A    between atoms: C_14  and  C_15
REMARK                            x       y       z     vdW  Elec       q    Type
REMARK                         _______ _______ _______ _____ _____    ______ ____
ROOT
ATOM      1  C   UNL A   1     -25.688   1.614  26.461  0.00  0.00    +0.016 C 
ATOM      2  C   UNL A   1     -26.250   2.920  26.395  0.00  0.00    +0.073 C 
ATOM      3  C   UNL A   1     -27.438   3.091  25.645  0.00  0.00    +0.106 C 
ATOM      4  N   UNL A   1     -28.075   2.089  25.003  0.00  0.00    -0.208 NA
ATOM      5  C   UNL A   1     -27.543   0.849  25.079  0.00  0.00    +0.253 C 
ATOM      6  O   UNL A   1     -28.193  -0.208  24.477  0.00  0.00    -0.456 OA
ATOM      7  C   UNL A   1     -29.460   0.005  23.866  0.00  0.00    +0.239 C 
ATOM      8  C   UNL A   1     -30.065  -1.377  23.573  0.00  0.00    +0.189 C 
ATOM      9  O   UNL A   1     -30.729  -1.878  24.721  0.00  0.00    -0.352 OA
ATOM     10  C   UNL A   1     -26.354   0.576  25.777  0.00  0.00    +0.189 C 
ATOM     11  F   UNL A   1     -25.860  -0.681  25.795  0.00  0.00    -0.200 F 
ATOM     12  C   UNL A   1     -24.389   1.394  27.055  0.00  0.00    +0.027 C 
ATOM     13  C   UNL A   1     -24.352   0.939  28.536  0.00  0.00    +0.032 C 
ATOM     14  C   UNL A   1     -32.882  -0.604  29.150  0.00  0.00    +0.227 C 
ATOM     15  C   UNL A   1     -32.012  -2.938  26.697  0.00  0.00    +0.051 C 
ATOM     16  O   UNL A   1     -29.037   1.835  30.354  0.00  0.00    -0.219 OA
ATOM     17  C   UNL A   1     -33.421  -0.421  26.752  0.00  0.00    +0.096 C 
ATOM     18  N   UNL A   1     -30.668  -0.079  31.701  0.00  0.00    -0.130 NA
ATOM     19  C   UNL A   1     -27.733  -0.111  29.787  0.00  0.00    +0.176 C 
ATOM     20  O   UNL A   1     -33.654  -1.080  29.988  0.00  0.00    -0.275 OA
ATOM     21  C   UNL A   1     -21.886   1.498  26.743  0.00  0.00    +0.000 C 
ATOM     22  C   UNL A   1     -32.866  -0.999  25.410  0.00  0.00    +0.051 C 
ATOM     23  N   UNL A   1     -32.763  -1.110  27.884  0.00  0.00    -0.279 N 
ATOM     24  C   UNL A   1     -22.953   0.907  29.168  0.00  0.00    +0.003 C 
ATOM     25  C   UNL A   1     -31.571  -1.737  25.826  0.00  0.00    +0.119 C 
ATOM     26  C   UNL A   1     -29.195   0.543  29.726  0.00  0.00    +0.199 C 
ATOM     27  C   UNL A   1     -25.271  -0.213  28.929  0.00  0.00    +0.121 C 
ATOM     28  C   UNL A   1     -21.845   1.381  28.189  0.00  0.00    +0.000 C 
ATOM     29  O   UNL A   1     -26.561   0.406  29.015  0.00  0.00    -0.353 OA
ATOM     30  C   UNL A   1     -30.561  -0.095  30.212  0.00  0.00    +0.134 C 
ATOM     31  C   UNL A   1     -23.197   1.933  26.178  0.00  0.00    +0.004 C 
ATOM     32  C   UNL A   1     -31.834   0.473  29.495  0.00  0.00    +0.107 C 
ATOM     33  C   UNL A   1     -32.184  -2.439  28.135  0.00  0.00    +0.096 C 
ENDROOT
BRANCH   2  34
ATOM     34  C   UNL A   1     -25.642   4.093  27.123  0.00  0.00    +0.266 C 
ATOM     35  N   UNL A   1     -25.614   5.252  26.449  0.00  0.00    -0.200 NA
ATOM     36  C   UNL A   1     -25.026   6.479  26.963  0.00  0.00    +0.139 C 
ATOM     37  O   UNL A   1     -25.143   3.966  28.243  0.00  0.00    -0.268 OA
ENDBRANCH   2  34
BRANCH  27  38
ATOM     38  C   UNL A   1     -24.855  -1.012  30.143  0.00  0.00    +0.066 C 
BRANCH  38  39
ATOM     39  C   UNL A   1     -24.973  -2.505  29.788  0.00  0.00    -0.019 C 
ATOM     40  C   UNL A   1     -23.906  -3.173  29.146  0.00  0.00    -0.004 C 
ATOM     41  C   UNL A   1     -23.989  -4.549  28.853  0.00  0.00    -0.000 C 
ATOM     42  C   UNL A   1     -25.137  -5.280  29.205  0.00  0.00    -0.000 C 
ATOM     43  C   UNL A   1     -26.232  -4.611  29.784  0.00  0.00    -0.000 C 
ATOM     44  C   UNL A   1     -26.155  -3.232  30.065  0.00  0.00    -0.004 C 
ENDBRANCH  38  39
BRANCH  38  45
ATOM     45  C   UNL A   1     -25.387  -0.679  31.571  0.00  0.00    +0.079 C 
ATOM     46  C   UNL A   1     -25.189   0.773  32.028  0.00  0.00    +0.019 C 
ATOM     47  C   UNL A   1     -25.336   0.684  33.544  0.00  0.00    +0.020 C 
ATOM     48  C   UNL A   1     -24.829  -0.715  33.905  0.00  0.00    +0.089 C 
ATOM     49  N   UNL A   1     -24.758  -1.481  32.646  0.00  0.00    -0.219 NA
ENDBRANCH  38  45
ENDBRANCH  27  38
TORSDOF 4
