REMARK  Name = outputs/IAG933/test6/raw/output_7767_IAG933_linker_design_.xyz
REMARK  8 active torsions:
REMARK  status: ('A' for Active; 'I' for Inactive)
REMARK    1  A    between atoms: C_1  and  C_2
REMARK    2  A    between atoms: C_1  and  C_8
REMARK    3  A    between atoms: C_1  and  C_29
REMARK    4  A    between atoms: C_13  and  C_32
REMARK    5  A    between atoms: C_14  and  C_15
REMARK    6  A    between atoms: C_21  and  O_22
REMARK    7  A    between atoms: O_22  and  C_23
REMARK    8  A    between atoms: C_23  and  C_24
REMARK                            x       y       z     vdW  Elec       q    Type
REMARK                         _______ _______ _______ _____ _____    ______ ____
ROOT
ATOM      1  O   UNL A   1     -20.815   0.974  27.934  0.00  0.00    -0.432 OA
ATOM      2  C   UNL A   1     -24.535  -0.032  29.240  0.00  0.00    +0.238 C 
ATOM      3  O   UNL A   1     -25.614   0.573  28.824  0.00  0.00    -0.274 OA
ATOM      4  C   UNL A   1     -23.344   1.009  27.680  0.00  0.00    +0.096 C 
ATOM      5  C   UNL A   1     -24.214   1.585  26.712  0.00  0.00    +0.128 C 
ATOM      6  C   UNL A   1     -21.971   1.359  27.305  0.00  0.00    +0.242 C 
ATOM      7  C   UNL A   1     -23.443   2.362  25.907  0.00  0.00    +0.264 C 
ATOM      8  N   UNL A   1     -23.354   0.197  28.799  0.00  0.00    -0.232 N 
ATOM      9  O   UNL A   1     -23.802   3.205  25.112  0.00  0.00    -0.272 OA
ATOM     10  C   UNL A   1     -20.963   0.062  28.874  0.00  0.00    +0.198 C 
ATOM     11  F   UNL A   1     -21.229   2.366  25.405  0.00  0.00    -0.098 F 
ATOM     12  C   UNL A   1     -22.270  -0.329  29.407  0.00  0.00    +0.113 C 
ATOM     13  N   UNL A   1     -22.153   2.069  26.220  0.00  0.00    -0.069 N 
ENDROOT
BRANCH   5  14
ATOM     14  C   UNL A   1     -25.688   1.614  26.461  0.00  0.00    +0.084 C 
ATOM     15  C   UNL A   1     -26.250   2.920  26.395  0.00  0.00    +0.056 C 
ATOM     16  C   UNL A   1     -27.438   3.091  25.645  0.00  0.00    +0.102 C 
ATOM     17  N   UNL A   1     -28.075   2.089  25.003  0.00  0.00    -0.212 NA
ATOM     18  C   UNL A   1     -27.543   0.849  25.079  0.00  0.00    +0.234 C 
ATOM     19  C   UNL A   1     -26.354   0.576  25.777  0.00  0.00    +0.241 C 
ATOM     20  F   UNL A   1     -25.860  -0.681  25.795  0.00  0.00    -0.227 F 
BRANCH  15  21
ATOM     21  C   UNL A   1     -25.642   4.093  27.123  0.00  0.00    +0.263 C 
ATOM     22  N   UNL A   1     -25.614   5.252  26.449  0.00  0.00    -0.200 NA
ATOM     23  C   UNL A   1     -25.026   6.479  26.963  0.00  0.00    +0.139 C 
ATOM     24  O   UNL A   1     -25.143   3.966  28.243  0.00  0.00    -0.269 OA
ENDBRANCH  15  21
BRANCH  18  25
ATOM     25  O   UNL A   1     -28.193  -0.208  24.477  0.00  0.00    -0.459 OA
BRANCH  25  26
ATOM     26  C   UNL A   1     -29.460   0.005  23.866  0.00  0.00    +0.242 C 
BRANCH  26  27
ATOM     27  C   UNL A   1     -30.065  -1.377  23.573  0.00  0.00    +0.229 C 
ATOM     28  O   UNL A   1     -30.729  -1.878  24.721  0.00  0.00    -0.216 OA
ENDBRANCH  26  27
ENDBRANCH  25  26
ENDBRANCH  18  25
ENDBRANCH   5  14
BRANCH   2  29
ATOM     29  C   UNL A   1     -24.855  -1.012  30.143  0.00  0.00    +0.116 C 
BRANCH  29  30
ATOM     30  C   UNL A   1     -24.973  -2.505  29.788  0.00  0.00    -0.013 C 
ATOM     31  C   UNL A   1     -23.906  -3.173  29.146  0.00  0.00    -0.004 C 
ATOM     32  C   UNL A   1     -23.989  -4.549  28.853  0.00  0.00    -0.000 C 
ATOM     33  C   UNL A   1     -25.137  -5.280  29.205  0.00  0.00    -0.000 C 
ATOM     34  C   UNL A   1     -26.232  -4.611  29.784  0.00  0.00    -0.000 C 
ATOM     35  C   UNL A   1     -26.155  -3.232  30.065  0.00  0.00    -0.004 C 
ENDBRANCH  29  30
BRANCH  29  36
ATOM     36  C   UNL A   1     -25.387  -0.679  31.571  0.00  0.00    +0.086 C 
ATOM     37  C   UNL A   1     -25.189   0.773  32.028  0.00  0.00    +0.020 C 
ATOM     38  C   UNL A   1     -25.336   0.684  33.544  0.00  0.00    +0.020 C 
ATOM     39  C   UNL A   1     -24.829  -0.715  33.905  0.00  0.00    +0.089 C 
ATOM     40  N   UNL A   1     -24.758  -1.481  32.646  0.00  0.00    -0.219 NA
ENDBRANCH  29  36
ENDBRANCH   2  29
TORSDOF 8
