REMARK  Name = outputs/IAG933/test6/raw/output_7768_IAG933_linker_design_.xyz
REMARK  14 active torsions:
REMARK  status: ('A' for Active; 'I' for Inactive)
REMARK    1  A    between atoms: C_1  and  C_2
REMARK    2  A    between atoms: C_1  and  C_8
REMARK    3  A    between atoms: C_1  and  N_35
REMARK    4  A    between atoms: C_13  and  C_29
REMARK    5  A    between atoms: C_14  and  C_15
REMARK    6  A    between atoms: C_21  and  O_22
REMARK    7  A    between atoms: O_22  and  C_23
REMARK    8  A    between atoms: C_23  and  C_24
REMARK    9  A    between atoms: C_30  and  N_35
REMARK   10  A    between atoms: C_30  and  C_41
REMARK   11  A    between atoms: C_33  and  N_35
REMARK   12  A    between atoms: O_34  and  C_37
REMARK   13  A    between atoms: C_37  and  C_39
REMARK   14  A    between atoms: C_38  and  C_39
REMARK                            x       y       z     vdW  Elec       q    Type
REMARK                         _______ _______ _______ _____ _____    ______ ____
ROOT
ATOM      1  C   UNL A   1     -24.734   1.282  27.474  0.00  0.00    +0.064 C 
ATOM      2  C   UNL A   1     -24.221   0.786  28.767  0.00  0.00    +0.190 C 
ATOM      3  F   UNL A   1     -23.314   1.016  29.705  0.00  0.00    -0.223 F 
ATOM      4  C   UNL A   1     -23.344   1.328  27.349  0.00  0.00    +0.132 C 
ENDROOT
BRANCH   1   5
ATOM      5  C   UNL A   1     -25.688   1.614  26.461  0.00  0.00    +0.074 C 
ATOM      6  C   UNL A   1     -26.250   2.920  26.395  0.00  0.00    +0.055 C 
ATOM      7  C   UNL A   1     -27.438   3.091  25.645  0.00  0.00    +0.102 C 
ATOM      8  N   UNL A   1     -28.075   2.089  25.003  0.00  0.00    -0.212 NA
ATOM      9  C   UNL A   1     -27.543   0.849  25.079  0.00  0.00    +0.234 C 
ATOM     10  C   UNL A   1     -26.354   0.576  25.777  0.00  0.00    +0.240 C 
ATOM     11  F   UNL A   1     -25.860  -0.681  25.795  0.00  0.00    -0.227 F 
BRANCH   6  12
ATOM     12  C   UNL A   1     -25.642   4.093  27.123  0.00  0.00    +0.262 C 
ATOM     13  N   UNL A   1     -25.614   5.252  26.449  0.00  0.00    -0.200 NA
ATOM     14  C   UNL A   1     -25.026   6.479  26.963  0.00  0.00    +0.139 C 
ATOM     15  O   UNL A   1     -25.143   3.966  28.243  0.00  0.00    -0.269 OA
ENDBRANCH   6  12
BRANCH   9  16
ATOM     16  O   UNL A   1     -28.193  -0.208  24.477  0.00  0.00    -0.459 OA
BRANCH  16  17
ATOM     17  C   UNL A   1     -29.460   0.005  23.866  0.00  0.00    +0.242 C 
BRANCH  17  18
ATOM     18  C   UNL A   1     -30.065  -1.377  23.573  0.00  0.00    +0.229 C 
ATOM     19  O   UNL A   1     -30.729  -1.878  24.721  0.00  0.00    -0.216 OA
ENDBRANCH  17  18
ENDBRANCH  16  17
ENDBRANCH   9  16
ENDBRANCH   1   5
BRANCH   4  21
ATOM     20  O   UNL A   1     -21.135   2.042  26.520  0.00  0.00    -0.351 OA
ATOM     21  C   UNL A   1     -22.302   1.878  27.760  0.00  0.00    +0.154 C 
ATOM     22  C   UNL A   1     -20.823   1.923  27.772  0.00  0.00    +0.172 C 
ENDBRANCH   4  21
BRANCH   4  24
ATOM     23  F   UNL A   1     -23.463   0.988  24.654  0.00  0.00    -0.201 F 
ATOM     24  C   UNL A   1     -23.207   1.701  25.752  0.00  0.00    +0.321 C 
BRANCH  24  26
ATOM     25  F   UNL A   1     -22.200   2.890  24.337  0.00  0.00    -0.044 F 
ATOM     26  O   UNL A   1     -22.895   2.849  25.514  0.00  0.00    -0.146 OA
ENDBRANCH  24  26
ENDBRANCH   4  24
BRANCH   2  27
ATOM     27  N   UNL A   1     -25.100  -0.003  29.196  0.00  0.00    -0.239 NA
BRANCH  27  28
ATOM     28  C   UNL A   1     -24.855  -1.012  30.143  0.00  0.00    +0.099 C 
BRANCH  28  29
ATOM     29  C   UNL A   1     -24.973  -2.505  29.788  0.00  0.00    -0.006 C 
ATOM     30  C   UNL A   1     -23.906  -3.173  29.146  0.00  0.00    -0.003 C 
ATOM     31  C   UNL A   1     -23.989  -4.549  28.853  0.00  0.00    -0.000 C 
ATOM     32  C   UNL A   1     -25.137  -5.280  29.205  0.00  0.00    -0.000 C 
ATOM     33  C   UNL A   1     -26.232  -4.611  29.784  0.00  0.00    -0.000 C 
ATOM     34  C   UNL A   1     -26.155  -3.232  30.065  0.00  0.00    -0.003 C 
ENDBRANCH  28  29
BRANCH  28  35
ATOM     35  C   UNL A   1     -25.387  -0.679  31.571  0.00  0.00    +0.092 C 
ATOM     36  C   UNL A   1     -25.189   0.773  32.028  0.00  0.00    +0.021 C 
ATOM     37  C   UNL A   1     -25.336   0.684  33.544  0.00  0.00    +0.020 C 
ATOM     38  C   UNL A   1     -24.829  -0.715  33.905  0.00  0.00    +0.089 C 
ATOM     39  N   UNL A   1     -24.758  -1.481  32.646  0.00  0.00    -0.218 NA
ENDBRANCH  28  35
ENDBRANCH  27  28
BRANCH  27  40
ATOM     40  C   UNL A   1     -26.232  -0.689  28.351  0.00  0.00    +0.148 C 
BRANCH  40  42
ATOM     41  O   UNL A   1     -28.303  -1.477  29.291  0.00  0.00    -0.287 OA
ATOM     42  C   UNL A   1     -27.723  -0.548  28.802  0.00  0.00    +0.225 C 
ENDBRANCH  40  42
ENDBRANCH  27  40
ENDBRANCH   2  27
TORSDOF 14
