MODEL 776
MODEL 1
REMARK VINA RESULT:    -5.022      0.000      0.000
REMARK INTER + INTRA:          -5.022
REMARK INTER:                  -5.022
REMARK INTRA:                   0.000
REMARK UNBOUND:                 0.000
REMARK  Name = No_776-gen_results/8p0m/2024-11-27-11-27-31/
REMARK  0 active torsions:
REMARK  status: ('A' for Active; 'I' for Inactive)
REMARK                            x       y       z     vdW  Elec       q    Type
REMARK                         _______ _______ _______ _____ _____    ______ ____
ROOT
ATOM      1  C   UNL A   1     -10.493  -9.274  19.196  0.00  0.00    +0.042 A 
ATOM      2  C   UNL A   1      -9.753  -9.094  20.135  0.00  0.00    +0.003 A 
ATOM      3  C   UNL A   1      -8.460  -9.606  20.139  0.00  0.00    +0.000 A 
ATOM      4  C   UNL A   1      -7.978 -10.408  19.045  0.00  0.00    +0.003 A 
ATOM      5  C   UNL A   1      -8.907 -10.587  18.012  0.00  0.00    +0.042 A 
ATOM      6  C   UNL A   1     -10.124 -10.095  18.064  0.00  0.00    +0.196 A 
ATOM      7  O   UNL A   1     -10.978 -10.347  17.035  0.00  0.00    -0.287 OA
ENDROOT
TORSDOF 0
ENDMDL
ENDMDL
