REMARK  Name = outputs/IAG933/test6/raw/output_7772_IAG933_linker_design_.xyz
REMARK  12 active torsions:
REMARK  status: ('A' for Active; 'I' for Inactive)
REMARK    1  A    between atoms: C_1  and  C_2
REMARK    2  A    between atoms: C_1  and  C_8
REMARK    3  A    between atoms: C_1  and  N_32
REMARK    4  A    between atoms: C_13  and  C_36
REMARK    5  A    between atoms: C_14  and  C_15
REMARK    6  A    between atoms: C_21  and  O_22
REMARK    7  A    between atoms: O_22  and  C_23
REMARK    8  A    between atoms: C_23  and  C_24
REMARK    9  A    between atoms: C_28  and  C_41
REMARK   10  A    between atoms: C_28  and  C_42
REMARK   11  A    between atoms: N_32  and  C_37
REMARK   12  A    between atoms: N_33  and  C_41
REMARK                            x       y       z     vdW  Elec       q    Type
REMARK                         _______ _______ _______ _____ _____    ______ ____
ROOT
ATOM      1  N   UNL A   1     -25.153   0.082  29.181  0.00  0.00    -0.255 N 
ATOM      2  C   UNL A   1     -26.641   0.702  29.285  0.00  0.00    +0.231 C 
ATOM      3  O   UNL A   1     -27.305  -0.311  28.869  0.00  0.00    -0.275 OA
ENDROOT
BRANCH   1   8
ATOM      4  C   UNL A   1     -23.193   1.938  26.560  0.00  0.00    +0.059 C 
ATOM      5 CL   UNL A   1     -23.188   2.973  25.149  0.00  0.00    -0.082 Cl
ATOM      6  C   UNL A   1     -21.688   0.858  28.259  0.00  0.00    +0.002 C 
ATOM      7  C   UNL A   1     -24.395   1.327  27.177  0.00  0.00    +0.027 C 
ATOM      8  C   UNL A   1     -24.195   0.567  28.408  0.00  0.00    +0.055 C 
ATOM      9  C   UNL A   1     -21.905   1.700  27.127  0.00  0.00    +0.011 C 
ATOM     10  C   UNL A   1     -22.831   0.269  28.868  0.00  0.00    +0.015 C 
BRANCH   7  11
ATOM     11  C   UNL A   1     -25.688   1.614  26.461  0.00  0.00    +0.040 C 
ATOM     12  C   UNL A   1     -26.250   2.920  26.395  0.00  0.00    +0.077 C 
ATOM     13  C   UNL A   1     -27.438   3.091  25.645  0.00  0.00    +0.107 C 
ATOM     14  N   UNL A   1     -28.075   2.089  25.003  0.00  0.00    -0.208 NA
ATOM     15  C   UNL A   1     -27.543   0.849  25.079  0.00  0.00    +0.253 C 
ATOM     16  C   UNL A   1     -26.354   0.576  25.777  0.00  0.00    +0.193 C 
ATOM     17  F   UNL A   1     -25.860  -0.681  25.795  0.00  0.00    -0.199 F 
BRANCH  12  18
ATOM     18  C   UNL A   1     -25.642   4.093  27.123  0.00  0.00    +0.266 C 
ATOM     19  N   UNL A   1     -25.614   5.252  26.449  0.00  0.00    -0.200 NA
ATOM     20  C   UNL A   1     -25.026   6.479  26.963  0.00  0.00    +0.139 C 
ATOM     21  O   UNL A   1     -25.143   3.966  28.243  0.00  0.00    -0.268 OA
ENDBRANCH  12  18
BRANCH  15  22
ATOM     22  O   UNL A   1     -28.193  -0.208  24.477  0.00  0.00    -0.456 OA
BRANCH  22  23
ATOM     23  C   UNL A   1     -29.460   0.005  23.866  0.00  0.00    +0.243 C 
BRANCH  23  24
ATOM     24  C   UNL A   1     -30.065  -1.377  23.573  0.00  0.00    +0.229 C 
ATOM     25  O   UNL A   1     -30.729  -1.878  24.721  0.00  0.00    -0.216 OA
ENDBRANCH  23  24
ENDBRANCH  22  23
ENDBRANCH  15  22
ENDBRANCH   7  11
ENDBRANCH   1   8
BRANCH   1  26
ATOM     26  C   UNL A   1     -24.855  -1.012  30.143  0.00  0.00    +0.118 C 
BRANCH  26  27
ATOM     27  C   UNL A   1     -24.973  -2.505  29.788  0.00  0.00    -0.003 C 
ATOM     28  C   UNL A   1     -23.906  -3.173  29.146  0.00  0.00    -0.003 C 
ATOM     29  C   UNL A   1     -23.989  -4.549  28.853  0.00  0.00    -0.000 C 
ATOM     30  C   UNL A   1     -25.137  -5.280  29.205  0.00  0.00    -0.000 C 
ATOM     31  C   UNL A   1     -26.232  -4.611  29.784  0.00  0.00    -0.000 C 
ATOM     32  C   UNL A   1     -26.155  -3.232  30.065  0.00  0.00    -0.003 C 
ENDBRANCH  26  27
BRANCH  26  33
ATOM     33  C   UNL A   1     -25.387  -0.679  31.571  0.00  0.00    +0.096 C 
ATOM     34  C   UNL A   1     -25.189   0.773  32.028  0.00  0.00    +0.021 C 
ATOM     35  C   UNL A   1     -25.336   0.684  33.544  0.00  0.00    +0.020 C 
ATOM     36  C   UNL A   1     -24.829  -0.715  33.905  0.00  0.00    +0.089 C 
ATOM     37  N   UNL A   1     -24.758  -1.481  32.646  0.00  0.00    -0.217 NA
ENDBRANCH  26  33
ENDBRANCH   1  26
BRANCH   2  38
ATOM     38  C   UNL A   1     -27.952   1.523  29.551  0.00  0.00    +0.103 C 
BRANCH  38  39
ATOM     39  C   UNL A   1     -27.691   2.770  30.421  0.00  0.00    +0.082 C 
BRANCH  39  42
ATOM     40  N   UNL A   1     -30.444   5.932  30.099  0.00  0.00    -0.186 N 
ATOM     41  N   UNL A   1     -32.573   6.207  31.171  0.00  0.00    +0.130 NA
ATOM     42  N   UNL A   1     -28.714   3.867  30.466  0.00  0.00    -0.267 NA
ATOM     43  C   UNL A   1     -29.932   5.306  28.829  0.00  0.00    +0.185 C 
ATOM     44  C   UNL A   1     -29.325   6.354  31.026  0.00  0.00    +0.185 C 
ATOM     45  N   UNL A   1     -31.743   7.773  29.764  0.00  0.00    +0.130 NA
ATOM     46  C   UNL A   1     -28.269   5.211  30.905  0.00  0.00    +0.113 C 
ATOM     47  C   UNL A   1     -31.630   6.610  30.368  0.00  0.00    +0.495 C 
ATOM     48  C   UNL A   1     -29.408   3.893  29.136  0.00  0.00    +0.113 C 
ENDBRANCH  39  42
ENDBRANCH  38  39
ENDBRANCH   2  38
TORSDOF 12
