REMARK  Name = outputs/IAG933/test6/raw/output_7775_IAG933_linker_design_.xyz
REMARK  13 active torsions:
REMARK  status: ('A' for Active; 'I' for Inactive)
REMARK    1  A    between atoms: C_1  and  C_2
REMARK    2  A    between atoms: C_1  and  C_8
REMARK    3  A    between atoms: C_1  and  N_46
REMARK    4  A    between atoms: C_13  and  C_44
REMARK    5  A    between atoms: C_14  and  C_15
REMARK    6  A    between atoms: C_21  and  O_22
REMARK    7  A    between atoms: O_22  and  C_23
REMARK    8  A    between atoms: C_23  and  C_24
REMARK    9  A    between atoms: C_30  and  C_40
REMARK   10  A    between atoms: C_30  and  C_47
REMARK   11  A    between atoms: C_38  and  C_44
REMARK   12  A    between atoms: C_39  and  C_41
REMARK   13  A    between atoms: C_39  and  C_44
REMARK                            x       y       z     vdW  Elec       q    Type
REMARK                         _______ _______ _______ _____ _____    ______ ____
ROOT
ATOM      1  C   UNL A   1     -25.514   0.871  28.749  0.00  0.00    +0.073 C 
ATOM      2  C   UNL A   1     -26.561   0.114  28.791  0.00  0.00    +0.072 C 
ATOM      3  N   UNL A   1     -25.454  -0.140  29.219  0.00  0.00    -0.269 NA
ENDROOT
BRANCH   3   4
ATOM      4  C   UNL A   1     -24.855  -1.012  30.143  0.00  0.00    +0.096 C 
BRANCH   4   5
ATOM      5  C   UNL A   1     -24.973  -2.505  29.788  0.00  0.00    -0.006 C 
ATOM      6  C   UNL A   1     -23.906  -3.173  29.146  0.00  0.00    -0.003 C 
ATOM      7  C   UNL A   1     -23.989  -4.549  28.853  0.00  0.00    -0.000 C 
ATOM      8  C   UNL A   1     -25.137  -5.280  29.205  0.00  0.00    -0.000 C 
ATOM      9  C   UNL A   1     -26.232  -4.611  29.784  0.00  0.00    -0.000 C 
ATOM     10  C   UNL A   1     -26.155  -3.232  30.065  0.00  0.00    -0.003 C 
ENDBRANCH   4   5
BRANCH   4  11
ATOM     11  C   UNL A   1     -25.387  -0.679  31.571  0.00  0.00    +0.092 C 
ATOM     12  C   UNL A   1     -25.189   0.773  32.028  0.00  0.00    +0.021 C 
ATOM     13  C   UNL A   1     -25.336   0.684  33.544  0.00  0.00    +0.020 C 
ATOM     14  C   UNL A   1     -24.829  -0.715  33.905  0.00  0.00    +0.089 C 
ATOM     15  N   UNL A   1     -24.758  -1.481  32.646  0.00  0.00    -0.218 NA
ENDBRANCH   4  11
ENDBRANCH   3   4
BRANCH   2  16
ATOM     16  C   UNL A   1     -27.675  -1.082  29.127  0.00  0.00    +0.018 C 
BRANCH  16  26
ATOM     17  O   UNL A   1     -31.941  -1.556  27.463  0.00  0.00    -0.480 OA
ATOM     18  C   UNL A   1     -31.642  -3.299  29.256  0.00  0.00    +0.048 C 
ATOM     19  C   UNL A   1     -30.102  -1.231  29.143  0.00  0.00    +0.057 C 
ATOM     20  C   UNL A   1     -32.607  -2.470  28.381  0.00  0.00    +0.205 C 
ATOM     21  C   UNL A   1     -31.112   0.692  28.028  0.00  0.00    +0.006 C 
ATOM     22  C   UNL A   1     -30.459  -2.528  29.893  0.00  0.00    +0.011 C 
ATOM     23  C   UNL A   1     -31.045  -0.712  28.163  0.00  0.00    +0.111 C 
ATOM     24  C   UNL A   1     -30.226   1.483  28.805  0.00  0.00    +0.029 C 
ATOM     25  C   UNL A   1     -29.097   0.890  29.465  0.00  0.00    +0.005 C 
ATOM     26  C   UNL A   1     -28.950  -0.475  29.250  0.00  0.00    +0.009 C 
ENDBRANCH  16  26
ENDBRANCH   2  16
BRANCH   1  27
ATOM     27  C   UNL A   1     -24.758   1.223  27.523  0.00  0.00    +0.030 C 
BRANCH  27  28
ATOM     28  C   UNL A   1     -25.688   1.614  26.461  0.00  0.00    +0.072 C 
ATOM     29  C   UNL A   1     -26.250   2.920  26.395  0.00  0.00    +0.055 C 
ATOM     30  C   UNL A   1     -27.438   3.091  25.645  0.00  0.00    +0.102 C 
ATOM     31  N   UNL A   1     -28.075   2.089  25.003  0.00  0.00    -0.212 NA
ATOM     32  C   UNL A   1     -27.543   0.849  25.079  0.00  0.00    +0.234 C 
ATOM     33  C   UNL A   1     -26.354   0.576  25.777  0.00  0.00    +0.240 C 
ATOM     34  F   UNL A   1     -25.860  -0.681  25.795  0.00  0.00    -0.227 F 
BRANCH  29  35
ATOM     35  C   UNL A   1     -25.642   4.093  27.123  0.00  0.00    +0.262 C 
ATOM     36  N   UNL A   1     -25.614   5.252  26.449  0.00  0.00    -0.200 NA
ATOM     37  C   UNL A   1     -25.026   6.479  26.963  0.00  0.00    +0.139 C 
ATOM     38  O   UNL A   1     -25.143   3.966  28.243  0.00  0.00    -0.269 OA
ENDBRANCH  29  35
BRANCH  32  39
ATOM     39  O   UNL A   1     -28.193  -0.208  24.477  0.00  0.00    -0.459 OA
BRANCH  39  40
ATOM     40  C   UNL A   1     -29.460   0.005  23.866  0.00  0.00    +0.242 C 
BRANCH  40  41
ATOM     41  C   UNL A   1     -30.065  -1.377  23.573  0.00  0.00    +0.229 C 
ATOM     42  O   UNL A   1     -30.729  -1.878  24.721  0.00  0.00    -0.216 OA
ENDBRANCH  40  41
ENDBRANCH  39  40
ENDBRANCH  32  39
ENDBRANCH  27  28
BRANCH  27  43
ATOM     43  C   UNL A   1     -23.446   1.268  27.087  0.00  0.00    +0.059 C 
ATOM     44  C   UNL A   1     -23.090   2.022  25.810  0.00  0.00    +0.008 C 
BRANCH  43  45
ATOM     45  C   UNL A   1     -22.309   0.910  27.986  0.00  0.00    +0.151 C 
ATOM     46  O   UNL A   1     -22.367   0.278  29.019  0.00  0.00    -0.296 OA
ATOM     47  C   UNL A   1     -21.106   1.694  27.518  0.00  0.00    +0.072 C 
ENDBRANCH  43  45
ENDBRANCH  27  43
ENDBRANCH   1  27
TORSDOF 13
