REMARK  Name = outputs/IAG933/test6/raw/output_7777_IAG933_linker_design_.xyz
REMARK  20 active torsions:
REMARK  status: ('A' for Active; 'I' for Inactive)
REMARK    1  A    between atoms: C_1  and  C_2
REMARK    2  A    between atoms: C_1  and  C_8
REMARK    3  A    between atoms: C_1  and  N_36
REMARK    4  A    between atoms: C_14  and  C_15
REMARK    5  A    between atoms: C_15  and  O_18
REMARK    6  A    between atoms: O_18  and  C_33
REMARK    7  A    between atoms: C_21  and  O_22
REMARK    8  A    between atoms: O_22  and  C_23
REMARK    9  A    between atoms: C_23  and  C_24
REMARK   10  A    between atoms: C_28  and  C_37
REMARK   11  A    between atoms: C_28  and  C_40
REMARK   12  A    between atoms: C_29  and  N_30
REMARK   13  A    between atoms: C_29  and  N_36
REMARK   14  A    between atoms: C_29  and  N_45
REMARK   15  A    between atoms: N_30  and  C_33
REMARK   16  A    between atoms: O_32  and  C_42
REMARK   17  A    between atoms: C_33  and  N_34
REMARK   18  A    between atoms: N_34  and  N_35
REMARK   19  A    between atoms: N_35  and  C_44
REMARK   20  A    between atoms: C_42  and  N_45
REMARK                            x       y       z     vdW  Elec       q    Type
REMARK                         _______ _______ _______ _____ _____    ______ ____
ROOT
ATOM      1  C   UNL A   1     -25.506   3.050  29.112  0.00  0.00    +0.347 C 
ENDROOT
BRANCH   1   2
ATOM      2  N   UNL A   1     -26.713   3.317  29.499  0.00  0.00    -0.066 NA
BRANCH   2   3
ATOM      3  N   UNL A   1     -27.029   4.421  30.172  0.00  0.00    -0.171 N 
ATOM      4  C   UNL A   1     -26.154   5.511  30.622  0.00  0.00    +0.244 C 
ATOM      5  O   UNL A   1     -25.438   6.165  29.938  0.00  0.00    -0.273 OA
BRANCH   3   7
ATOM      6  O   UNL A   1     -29.273   3.416  30.450  0.00  0.00    -0.194 OA
ATOM      7  C   UNL A   1     -28.464   4.586  30.413  0.00  0.00    +0.296 C 
ENDBRANCH   3   7
BRANCH   4   8
ATOM      8  C   UNL A   1     -26.216   5.904  32.171  0.00  0.00    +0.107 C 
BRANCH   8  10
ATOM      9  N   UNL A   1     -24.785   7.216  33.504  0.00  0.00    -0.131 NA
ATOM     10  C   UNL A   1     -25.698   7.298  32.356  0.00  0.00    +0.119 C 
ENDBRANCH   8  10
ENDBRANCH   4   8
ENDBRANCH   2   3
ENDBRANCH   1   2
BRANCH   1  11
ATOM     11  N   UNL A   1     -24.692   2.115  29.542  0.00  0.00    -0.126 NA
BRANCH  11  12
ATOM     12  C   UNL A   1     -24.222   0.930  29.157  0.00  0.00    +0.251 C 
BRANCH  12  13
ATOM     13  N   UNL A   1     -23.009   0.619  28.960  0.00  0.00    -0.172 NA
BRANCH  13  15
ATOM     14  C   UNL A   1     -21.084   1.440  27.914  0.00  0.00    +0.059 C 
ATOM     15  C   UNL A   1     -22.390   1.459  28.098  0.00  0.00    +0.212 C 
BRANCH  15  16
ATOM     16  O   UNL A   1     -22.948   2.344  27.250  0.00  0.00    -0.458 OA
ATOM     17  C   UNL A   1     -22.146   2.513  26.050  0.00  0.00    +0.254 C 
ENDBRANCH  15  16
ENDBRANCH  13  15
ENDBRANCH  12  13
BRANCH  12  18
ATOM     18  N   UNL A   1     -25.227  -0.156  29.160  0.00  0.00    -0.178 NA
BRANCH  18  19
ATOM     19  C   UNL A   1     -24.855  -1.012  30.143  0.00  0.00    +0.114 C 
BRANCH  19  20
ATOM     20  C   UNL A   1     -24.973  -2.505  29.788  0.00  0.00    -0.005 C 
ATOM     21  C   UNL A   1     -23.906  -3.173  29.146  0.00  0.00    -0.003 C 
ATOM     22  C   UNL A   1     -23.989  -4.549  28.853  0.00  0.00    -0.000 C 
ATOM     23  C   UNL A   1     -25.137  -5.280  29.205  0.00  0.00    -0.000 C 
ATOM     24  C   UNL A   1     -26.232  -4.611  29.784  0.00  0.00    -0.000 C 
ATOM     25  C   UNL A   1     -26.155  -3.232  30.065  0.00  0.00    -0.003 C 
ENDBRANCH  19  20
BRANCH  19  26
ATOM     26  C   UNL A   1     -25.387  -0.679  31.571  0.00  0.00    +0.093 C 
ATOM     27  C   UNL A   1     -25.189   0.773  32.028  0.00  0.00    +0.021 C 
ATOM     28  C   UNL A   1     -25.336   0.684  33.544  0.00  0.00    +0.020 C 
ATOM     29  C   UNL A   1     -24.829  -0.715  33.905  0.00  0.00    +0.089 C 
ATOM     30  N   UNL A   1     -24.758  -1.481  32.646  0.00  0.00    -0.218 NA
ENDBRANCH  19  26
ENDBRANCH  18  19
ENDBRANCH  12  18
ENDBRANCH  11  12
ENDBRANCH   1  11
BRANCH   1  31
ATOM     31  O   UNL A   1     -25.143   3.966  28.243  0.00  0.00    -0.431 OA
BRANCH  31  32
ATOM     32  C   UNL A   1     -25.642   4.093  27.123  0.00  0.00    +0.224 C 
ATOM     33  N   UNL A   1     -25.614   5.252  26.449  0.00  0.00    -0.236 NA
ATOM     34  C   UNL A   1     -25.026   6.479  26.963  0.00  0.00    +0.155 C 
BRANCH  32  36
ATOM     35  C   UNL A   1     -25.688   1.614  26.461  0.00  0.00    +0.041 C 
ATOM     36  C   UNL A   1     -26.250   2.920  26.395  0.00  0.00    +0.074 C 
ATOM     37  C   UNL A   1     -27.438   3.091  25.645  0.00  0.00    +0.107 C 
ATOM     38  N   UNL A   1     -28.075   2.089  25.003  0.00  0.00    -0.208 NA
ATOM     39  C   UNL A   1     -27.543   0.849  25.079  0.00  0.00    +0.253 C 
ATOM     40  C   UNL A   1     -26.354   0.576  25.777  0.00  0.00    +0.193 C 
ATOM     41  F   UNL A   1     -25.860  -0.681  25.795  0.00  0.00    -0.199 F 
BRANCH  39  42
ATOM     42  O   UNL A   1     -28.193  -0.208  24.477  0.00  0.00    -0.456 OA
BRANCH  42  43
ATOM     43  C   UNL A   1     -29.460   0.005  23.866  0.00  0.00    +0.243 C 
BRANCH  43  44
ATOM     44  C   UNL A   1     -30.065  -1.377  23.573  0.00  0.00    +0.229 C 
ATOM     45  O   UNL A   1     -30.729  -1.878  24.721  0.00  0.00    -0.216 OA
ENDBRANCH  43  44
ENDBRANCH  42  43
ENDBRANCH  39  42
ENDBRANCH  32  36
ENDBRANCH  31  32
ENDBRANCH   1  31
TORSDOF 20
