REMARK  Name = outputs/IAG933/test6/raw/output_7778_IAG933_linker_design_.xyz
REMARK  11 active torsions:
REMARK  status: ('A' for Active; 'I' for Inactive)
REMARK    1  A    between atoms: C_1  and  C_2
REMARK    2  A    between atoms: C_1  and  C_8
REMARK    3  A    between atoms: C_1  and  C_40
REMARK    4  A    between atoms: C_13  and  C_33
REMARK    5  A    between atoms: C_14  and  C_15
REMARK    6  A    between atoms: C_21  and  O_22
REMARK    7  A    between atoms: O_22  and  C_23
REMARK    8  A    between atoms: C_23  and  C_24
REMARK    9  A    between atoms: C_33  and  C_36
REMARK   10  A    between atoms: C_36  and  C_43
REMARK   11  A    between atoms: C_41  and  N_42
REMARK                            x       y       z     vdW  Elec       q    Type
REMARK                         _______ _______ _______ _____ _____    ______ ____
ROOT
ATOM      1  O   UNL A   1     -24.219   0.106  27.902  0.00  0.00    -0.350 OA
ATOM      2  C   UNL A   1     -24.496   1.291  27.259  0.00  0.00    +0.169 C 
ATOM      3  C   UNL A   1     -24.125  -0.113  29.310  0.00  0.00    +0.143 C 
ATOM      4  C   UNL A   1     -24.390   1.383  28.767  0.00  0.00    +0.156 C 
ENDROOT
BRANCH   2   5
ATOM      5  C   UNL A   1     -25.688   1.614  26.461  0.00  0.00    +0.044 C 
ATOM      6  C   UNL A   1     -26.250   2.920  26.395  0.00  0.00    +0.075 C 
ATOM      7  C   UNL A   1     -27.438   3.091  25.645  0.00  0.00    +0.106 C 
ATOM      8  N   UNL A   1     -28.075   2.089  25.003  0.00  0.00    -0.208 NA
ATOM      9  C   UNL A   1     -27.543   0.849  25.079  0.00  0.00    +0.253 C 
ATOM     10  C   UNL A   1     -26.354   0.576  25.777  0.00  0.00    +0.191 C 
ATOM     11  F   UNL A   1     -25.860  -0.681  25.795  0.00  0.00    -0.200 F 
BRANCH   6  12
ATOM     12  C   UNL A   1     -25.642   4.093  27.123  0.00  0.00    +0.266 C 
ATOM     13  N   UNL A   1     -25.614   5.252  26.449  0.00  0.00    -0.200 NA
ATOM     14  C   UNL A   1     -25.026   6.479  26.963  0.00  0.00    +0.139 C 
ATOM     15  O   UNL A   1     -25.143   3.966  28.243  0.00  0.00    -0.268 OA
ENDBRANCH   6  12
BRANCH   9  16
ATOM     16  O   UNL A   1     -28.193  -0.208  24.477  0.00  0.00    -0.456 OA
BRANCH  16  17
ATOM     17  C   UNL A   1     -29.460   0.005  23.866  0.00  0.00    +0.243 C 
BRANCH  17  18
ATOM     18  C   UNL A   1     -30.065  -1.377  23.573  0.00  0.00    +0.229 C 
ATOM     19  O   UNL A   1     -30.729  -1.878  24.721  0.00  0.00    -0.216 OA
ENDBRANCH  17  18
ENDBRANCH  16  17
ENDBRANCH   9  16
ENDBRANCH   2   5
BRANCH   4  26
ATOM     20  O   UNL A   1     -26.535   5.747  31.186  0.00  0.00    -0.273 OA
ATOM     21  O   UNL A   1     -24.172   3.324  31.335  0.00  0.00    -0.249 OA
ATOM     22  C   UNL A   1     -26.881   4.672  31.616  0.00  0.00    +0.250 C 
ATOM     23  C   UNL A   1     -25.240   3.078  30.869  0.00  0.00    +0.346 C 
ATOM     24  N   UNL A   1     -26.396   3.562  31.089  0.00  0.00    -0.126 NA
ATOM     25  C   UNL A   1     -27.856   4.626  32.794  0.00  0.00    +0.097 C 
ATOM     26  N   UNL A   1     -25.376   1.982  29.808  0.00  0.00    -0.183 NA
ENDBRANCH   4  26
BRANCH   2  28
ATOM     27  F   UNL A   1     -23.455   2.159  25.128  0.00  0.00    -0.230 F 
ATOM     28  C   UNL A   1     -23.436   1.926  26.441  0.00  0.00    +0.242 C 
BRANCH  28  31
ATOM     29  N   UNL A   1     -21.583   1.189  28.222  0.00  0.00    -0.091 NA
ATOM     30  F   UNL A   1     -21.074   1.517  26.052  0.00  0.00    -0.213 F 
ATOM     31  C   UNL A   1     -21.965   1.489  26.948  0.00  0.00    +0.286 C 
ENDBRANCH  28  31
ENDBRANCH   2  28
BRANCH   3  32
ATOM     32  C   UNL A   1     -24.855  -1.012  30.143  0.00  0.00    +0.067 C 
BRANCH  32  33
ATOM     33  C   UNL A   1     -24.973  -2.505  29.788  0.00  0.00    -0.019 C 
ATOM     34  C   UNL A   1     -23.906  -3.173  29.146  0.00  0.00    -0.004 C 
ATOM     35  C   UNL A   1     -23.989  -4.549  28.853  0.00  0.00    -0.000 C 
ATOM     36  C   UNL A   1     -25.137  -5.280  29.205  0.00  0.00    -0.000 C 
ATOM     37  C   UNL A   1     -26.232  -4.611  29.784  0.00  0.00    -0.000 C 
ATOM     38  C   UNL A   1     -26.155  -3.232  30.065  0.00  0.00    -0.004 C 
ENDBRANCH  32  33
BRANCH  32  39
ATOM     39  C   UNL A   1     -25.387  -0.679  31.571  0.00  0.00    +0.079 C 
ATOM     40  C   UNL A   1     -25.189   0.773  32.028  0.00  0.00    +0.019 C 
ATOM     41  C   UNL A   1     -25.336   0.684  33.544  0.00  0.00    +0.020 C 
ATOM     42  C   UNL A   1     -24.829  -0.715  33.905  0.00  0.00    +0.089 C 
ATOM     43  N   UNL A   1     -24.758  -1.481  32.646  0.00  0.00    -0.219 NA
ENDBRANCH  32  39
ENDBRANCH   3  32
TORSDOF 11
