MODEL 777
MODEL 1
REMARK VINA RESULT:    -7.747      0.000      0.000
REMARK INTER + INTRA:          -8.473
REMARK INTER:                  -8.200
REMARK INTRA:                  -0.273
REMARK UNBOUND:                -0.273
REMARK  Name = No_777-gen_results/8p0m/2024-11-27-11-27-31/
REMARK  1 active torsions:
REMARK  status: ('A' for Active; 'I' for Inactive)
REMARK    1  A    between atoms: C_2  and  C_7
REMARK                            x       y       z     vdW  Elec       q    Type
REMARK                         _______ _______ _______ _____ _____    ______ ____
ROOT
ATOM      1  C   UNL A   1     -23.606  -1.467  28.927  0.00  0.00    +0.000 A 
ATOM      2  C   UNL A   1     -22.787  -1.133  29.439  0.00  0.00    +0.000 A 
ATOM      3  C   UNL A   1     -21.907   0.072  29.205  0.00  0.00    +0.000 A 
ATOM      4  C   UNL A   1     -22.264   0.922  28.177  0.00  0.00    +0.000 A 
ATOM      5  C   UNL A   1     -23.413   0.635  27.436  0.00  0.00    +0.000 A 
ATOM      6  C   UNL A   1     -24.115  -0.500  27.715  0.00  0.00    +0.000 A 
ATOM      7  C   UNL A   1     -23.781   1.493  26.317  0.00  0.00    +0.000 A 
ATOM      8  C   UNL A   1     -25.178   1.297  25.871  0.00  0.00    +0.000 A 
ATOM      9  C   UNL A   1     -25.788   0.054  26.197  0.00  0.00    +0.000 A 
ATOM     10  C   UNL A   1     -25.340  -0.769  27.110  0.00  0.00    +0.000 A 
ENDROOT
BRANCH   1  12
ATOM     11  C   UNL A   1     -25.640  -2.484  29.690  0.00  0.00    +0.000 A 
ATOM     12  C   UNL A   1     -24.548  -2.591  29.181  0.00  0.00    +0.000 A 
ATOM     13  C   UNL A   1     -24.070  -3.826  28.757  0.00  0.00    +0.000 A 
ATOM     14  C   UNL A   1     -24.843  -5.026  28.953  0.00  0.00    +0.000 A 
ATOM     15  C   UNL A   1     -26.083  -4.815  29.570  0.00  0.00    +0.000 A 
ATOM     16  C   UNL A   1     -26.481  -3.628  29.968  0.00  0.00    +0.000 A 
ENDBRANCH   1  12
TORSDOF 1
ENDMDL
ENDMDL
