REMARK  Name = outputs/IAG933/test6/raw/output_7785_IAG933_linker_design_.xyz
REMARK  11 active torsions:
REMARK  status: ('A' for Active; 'I' for Inactive)
REMARK    1  A    between atoms: C_1  and  C_2
REMARK    2  A    between atoms: C_1  and  C_8
REMARK    3  A    between atoms: C_1  and  N_40
REMARK    4  A    between atoms: C_13  and  C_41
REMARK    5  A    between atoms: C_14  and  C_15
REMARK    6  A    between atoms: C_21  and  O_22
REMARK    7  A    between atoms: O_22  and  C_23
REMARK    8  A    between atoms: C_23  and  C_24
REMARK    9  A    between atoms: O_31  and  C_35
REMARK   10  A    between atoms: C_34  and  N_38
REMARK   11  A    between atoms: N_38  and  C_43
REMARK                            x       y       z     vdW  Elec       q    Type
REMARK                         _______ _______ _______ _____ _____    ______ ____
ROOT
ATOM      1  C   UNL A   1     -22.513  -0.611  29.534  0.00  0.00    +0.104 C 
ATOM      2  O   UNL A   1     -20.951   1.560  26.999  0.00  0.00    -0.287 OA
ATOM      3  C   UNL A   1     -23.345   1.436  26.991  0.00  0.00    +0.065 C 
ATOM      4  C   UNL A   1     -21.616   0.321  28.776  0.00  0.00    +0.033 C 
ATOM      5  C   UNL A   1     -21.941   1.109  27.601  0.00  0.00    +0.192 C 
ATOM      6  C   UNL A   1     -22.924   2.129  25.742  0.00  0.00    +0.234 C 
ATOM      7  O   UNL A   1     -21.473   2.156  25.674  0.00  0.00    -0.283 OA
ATOM      8  N   UNL A   1     -24.114  -0.179  29.461  0.00  0.00    -0.249 NA
ATOM      9  C   UNL A   1     -24.640   1.222  27.451  0.00  0.00    +0.089 C 
ATOM     10  C   UNL A   1     -24.898   0.876  28.927  0.00  0.00    +0.161 C 
ENDROOT
BRANCH   9  11
ATOM     11  C   UNL A   1     -25.688   1.614  26.461  0.00  0.00    +0.023 C 
ATOM     12  C   UNL A   1     -26.250   2.920  26.395  0.00  0.00    +0.073 C 
ATOM     13  C   UNL A   1     -27.438   3.091  25.645  0.00  0.00    +0.106 C 
ATOM     14  N   UNL A   1     -28.075   2.089  25.003  0.00  0.00    -0.208 NA
ATOM     15  C   UNL A   1     -27.543   0.849  25.079  0.00  0.00    +0.253 C 
ATOM     16  C   UNL A   1     -26.354   0.576  25.777  0.00  0.00    +0.190 C 
ATOM     17  F   UNL A   1     -25.860  -0.681  25.795  0.00  0.00    -0.200 F 
BRANCH  12  18
ATOM     18  C   UNL A   1     -25.642   4.093  27.123  0.00  0.00    +0.266 C 
ATOM     19  N   UNL A   1     -25.614   5.252  26.449  0.00  0.00    -0.200 NA
ATOM     20  C   UNL A   1     -25.026   6.479  26.963  0.00  0.00    +0.139 C 
ATOM     21  O   UNL A   1     -25.143   3.966  28.243  0.00  0.00    -0.268 OA
ENDBRANCH  12  18
BRANCH  15  22
ATOM     22  O   UNL A   1     -28.193  -0.208  24.477  0.00  0.00    -0.456 OA
BRANCH  22  23
ATOM     23  C   UNL A   1     -29.460   0.005  23.866  0.00  0.00    +0.243 C 
BRANCH  23  24
ATOM     24  C   UNL A   1     -30.065  -1.377  23.573  0.00  0.00    +0.229 C 
ATOM     25  O   UNL A   1     -30.729  -1.878  24.721  0.00  0.00    -0.216 OA
ENDBRANCH  23  24
ENDBRANCH  22  23
ENDBRANCH  15  22
ENDBRANCH   9  11
BRANCH   8  26
ATOM     26  C   UNL A   1     -24.855  -1.012  30.143  0.00  0.00    +0.098 C 
BRANCH  26  27
ATOM     27  C   UNL A   1     -24.973  -2.505  29.788  0.00  0.00    -0.006 C 
ATOM     28  C   UNL A   1     -23.906  -3.173  29.146  0.00  0.00    -0.003 C 
ATOM     29  C   UNL A   1     -23.989  -4.549  28.853  0.00  0.00    -0.000 C 
ATOM     30  C   UNL A   1     -25.137  -5.280  29.205  0.00  0.00    -0.000 C 
ATOM     31  C   UNL A   1     -26.232  -4.611  29.784  0.00  0.00    -0.000 C 
ATOM     32  C   UNL A   1     -26.155  -3.232  30.065  0.00  0.00    -0.003 C 
ENDBRANCH  26  27
BRANCH  26  33
ATOM     33  C   UNL A   1     -25.387  -0.679  31.571  0.00  0.00    +0.092 C 
ATOM     34  C   UNL A   1     -25.189   0.773  32.028  0.00  0.00    +0.021 C 
ATOM     35  C   UNL A   1     -25.336   0.684  33.544  0.00  0.00    +0.020 C 
ATOM     36  C   UNL A   1     -24.829  -0.715  33.905  0.00  0.00    +0.089 C 
ATOM     37  N   UNL A   1     -24.758  -1.481  32.646  0.00  0.00    -0.218 NA
ENDBRANCH  26  33
ENDBRANCH   8  26
BRANCH  10  38
ATOM     38  N   UNL A   1     -25.628   1.688  29.746  0.00  0.00    -0.215 NA
BRANCH  38  40
ATOM     39  C   UNL A   1     -25.591   3.858  31.017  0.00  0.00    +0.233 C 
ATOM     40  C   UNL A   1     -26.091   2.864  30.209  0.00  0.00    +0.163 C 
ATOM     41  C   UNL A   1     -27.355   3.369  29.801  0.00  0.00    +0.279 C 
ATOM     42  O   UNL A   1     -26.598   4.932  31.013  0.00  0.00    -0.346 OA
ATOM     43  N   UNL A   1     -27.572   4.679  30.235  0.00  0.00    -0.037 NA
BRANCH  41  44
ATOM     44  O   UNL A   1     -28.287   2.571  29.152  0.00  0.00    -0.453 OA
ATOM     45  C   UNL A   1     -29.679   2.607  29.471  0.00  0.00    +0.254 C 
ENDBRANCH  41  44
ENDBRANCH  38  40
ENDBRANCH  10  38
TORSDOF 11
