REMARK  Name = outputs/IAG933/test6/raw/output_7789_IAG933_linker_design_.xyz
REMARK  14 active torsions:
REMARK  status: ('A' for Active; 'I' for Inactive)
REMARK    1  A    between atoms: C_1  and  C_2
REMARK    2  A    between atoms: C_1  and  C_8
REMARK    3  A    between atoms: C_1  and  N_42
REMARK    4  A    between atoms: C_13  and  C_29
REMARK    5  A    between atoms: C_14  and  C_15
REMARK    6  A    between atoms: C_21  and  O_22
REMARK    7  A    between atoms: O_22  and  C_23
REMARK    8  A    between atoms: C_23  and  C_24
REMARK    9  A    between atoms: C_29  and  C_40
REMARK   10  A    between atoms: S_30  and  C_36
REMARK   11  A    between atoms: S_30  and  C_43
REMARK   12  A    between atoms: C_36  and  N_42
REMARK   13  A    between atoms: N_37  and  C_43
REMARK   14  A    between atoms: C_38  and  N_42
REMARK                            x       y       z     vdW  Elec       q    Type
REMARK                         _______ _______ _______ _____ _____    ______ ____
ROOT
ATOM      1  N   UNL A   1     -25.808  -0.276  29.246  0.00  0.00    -0.250 NA
ENDROOT
BRANCH   1   3
ATOM      2  C   UNL A   1     -24.425   1.295  27.445  0.00  0.00    +0.036 C 
ATOM      3  C   UNL A   1     -25.120   0.414  28.670  0.00  0.00    +0.064 C 
ATOM      4  C   UNL A   1     -23.502   0.712  28.722  0.00  0.00    +0.022 C 
BRANCH   2   5
ATOM      5  C   UNL A   1     -25.688   1.614  26.461  0.00  0.00    +0.017 C 
ATOM      6  C   UNL A   1     -26.250   2.920  26.395  0.00  0.00    +0.073 C 
ATOM      7  C   UNL A   1     -27.438   3.091  25.645  0.00  0.00    +0.106 C 
ATOM      8  N   UNL A   1     -28.075   2.089  25.003  0.00  0.00    -0.208 NA
ATOM      9  C   UNL A   1     -27.543   0.849  25.079  0.00  0.00    +0.253 C 
ATOM     10  C   UNL A   1     -26.354   0.576  25.777  0.00  0.00    +0.189 C 
ATOM     11  F   UNL A   1     -25.860  -0.681  25.795  0.00  0.00    -0.200 F 
BRANCH   6  12
ATOM     12  C   UNL A   1     -25.642   4.093  27.123  0.00  0.00    +0.266 C 
ATOM     13  N   UNL A   1     -25.614   5.252  26.449  0.00  0.00    -0.200 NA
ATOM     14  C   UNL A   1     -25.026   6.479  26.963  0.00  0.00    +0.139 C 
ATOM     15  O   UNL A   1     -25.143   3.966  28.243  0.00  0.00    -0.268 OA
ENDBRANCH   6  12
BRANCH   9  16
ATOM     16  O   UNL A   1     -28.193  -0.208  24.477  0.00  0.00    -0.456 OA
BRANCH  16  17
ATOM     17  C   UNL A   1     -29.460   0.005  23.866  0.00  0.00    +0.243 C 
BRANCH  17  18
ATOM     18  C   UNL A   1     -30.065  -1.377  23.573  0.00  0.00    +0.229 C 
ATOM     19  O   UNL A   1     -30.729  -1.878  24.721  0.00  0.00    -0.216 OA
ENDBRANCH  17  18
ENDBRANCH  16  17
ENDBRANCH   9  16
ENDBRANCH   2   5
BRANCH   2  21
ATOM     20  C   UNL A   1     -21.840   1.653  26.809  0.00  0.00    +0.000 C 
ATOM     21  C   UNL A   1     -23.237   1.293  26.310  0.00  0.00    +0.005 C 
ENDBRANCH   2  21
ENDBRANCH   1   3
BRANCH   1  22
ATOM     22  C   UNL A   1     -24.855  -1.012  30.143  0.00  0.00    +0.098 C 
BRANCH  22  23
ATOM     23  C   UNL A   1     -24.973  -2.505  29.788  0.00  0.00    -0.006 C 
ATOM     24  C   UNL A   1     -23.906  -3.173  29.146  0.00  0.00    -0.003 C 
ATOM     25  C   UNL A   1     -23.989  -4.549  28.853  0.00  0.00    -0.000 C 
ATOM     26  C   UNL A   1     -25.137  -5.280  29.205  0.00  0.00    -0.000 C 
ATOM     27  C   UNL A   1     -26.232  -4.611  29.784  0.00  0.00    -0.000 C 
ATOM     28  C   UNL A   1     -26.155  -3.232  30.065  0.00  0.00    -0.003 C 
ENDBRANCH  22  23
BRANCH  22  29
ATOM     29  C   UNL A   1     -25.387  -0.679  31.571  0.00  0.00    +0.092 C 
ATOM     30  C   UNL A   1     -25.189   0.773  32.028  0.00  0.00    +0.021 C 
ATOM     31  C   UNL A   1     -25.336   0.684  33.544  0.00  0.00    +0.020 C 
ATOM     32  C   UNL A   1     -24.829  -0.715  33.905  0.00  0.00    +0.089 C 
ATOM     33  N   UNL A   1     -24.758  -1.481  32.646  0.00  0.00    -0.218 NA
ENDBRANCH  22  29
ENDBRANCH   1  22
BRANCH   1  34
ATOM     34  C   UNL A   1     -27.125  -0.543  28.497  0.00  0.00    +0.228 C 
BRANCH  34  36
ATOM     35  O   UNL A   1     -28.509  -1.339  30.408  0.00  0.00    -0.170 OA
ATOM     36  S   UNL A   1     -28.515  -0.133  29.477  0.00  0.00    +0.025 S 
ATOM     37  O   UNL A   1     -28.095   0.991  30.131  0.00  0.00    -0.170 OA
BRANCH  36  38
ATOM     38  C   UNL A   1     -29.929   0.086  29.019  0.00  0.00    +0.250 C 
BRANCH  38  42
ATOM     39  C   UNL A   1     -31.586  -1.052  27.849  0.00  0.00    +0.344 C 
ATOM     40  O   UNL A   1     -32.156  -1.169  26.739  0.00  0.00    -0.249 OA
ATOM     41  N   UNL A   1     -31.720  -1.940  28.789  0.00  0.00    -0.069 NA
ATOM     42  N   UNL A   1     -30.859   0.076  28.111  0.00  0.00    -0.239 N 
ATOM     43  C   UNL A   1     -30.962   1.268  27.303  0.00  0.00    +0.118 C 
ENDBRANCH  38  42
ENDBRANCH  36  38
ENDBRANCH  34  36
ENDBRANCH   1  34
TORSDOF 14
