REMARK  Name = outputs/IAG933/test6/raw/output_7790_IAG933_linker_design_.xyz
REMARK  14 active torsions:
REMARK  status: ('A' for Active; 'I' for Inactive)
REMARK    1  A    between atoms: C_1  and  C_2
REMARK    2  A    between atoms: C_1  and  C_8
REMARK    3  A    between atoms: C_1  and  C_29
REMARK    4  A    between atoms: C_13  and  C_39
REMARK    5  A    between atoms: C_14  and  C_15
REMARK    6  A    between atoms: C_21  and  O_22
REMARK    7  A    between atoms: O_22  and  C_23
REMARK    8  A    between atoms: C_23  and  C_24
REMARK    9  A    between atoms: C_28  and  C_36
REMARK   10  A    between atoms: C_29  and  N_35
REMARK   11  A    between atoms: C_29  and  N_38
REMARK   12  A    between atoms: C_30  and  C_31
REMARK   13  A    between atoms: C_30  and  N_35
REMARK   14  A    between atoms: N_35  and  C_39
REMARK                            x       y       z     vdW  Elec       q    Type
REMARK                         _______ _______ _______ _____ _____    ______ ____
ROOT
ATOM      1  N   UNL A   1     -24.400   0.366  28.073  0.00  0.00    -0.253 NA
ENDROOT
BRANCH   1   2
ATOM      2  C   UNL A   1     -25.615  -0.285  29.009  0.00  0.00    +0.160 C 
BRANCH   2   5
ATOM      3  C   UNL A   1     -27.987  -0.433  28.845  0.00  0.00    +0.260 C 
ATOM      4  O   UNL A   1     -28.249  -1.612  29.142  0.00  0.00    -0.272 OA
ATOM      5  N   UNL A   1     -26.842   0.317  29.406  0.00  0.00    -0.189 NA
BRANCH   3   8
ATOM      6  N   UNL A   1     -28.843   1.765  28.343  0.00  0.00    -0.123 NA
ATOM      7  C   UNL A   1     -30.284  -0.122  27.763  0.00  0.00    +0.030 C 
ATOM      8  C   UNL A   1     -28.831   0.392  27.817  0.00  0.00    +0.169 C 
ENDBRANCH   3   8
ENDBRANCH   2   5
BRANCH   2   9
ATOM      9  C   UNL A   1     -24.855  -1.012  30.143  0.00  0.00    +0.074 C 
BRANCH   9  10
ATOM     10  C   UNL A   1     -24.973  -2.505  29.788  0.00  0.00    -0.018 C 
ATOM     11  C   UNL A   1     -23.906  -3.173  29.146  0.00  0.00    -0.004 C 
ATOM     12  C   UNL A   1     -23.989  -4.549  28.853  0.00  0.00    -0.000 C 
ATOM     13  C   UNL A   1     -25.137  -5.280  29.205  0.00  0.00    -0.000 C 
ATOM     14  C   UNL A   1     -26.232  -4.611  29.784  0.00  0.00    -0.000 C 
ATOM     15  C   UNL A   1     -26.155  -3.232  30.065  0.00  0.00    -0.004 C 
ENDBRANCH   9  10
BRANCH   9  16
ATOM     16  C   UNL A   1     -25.387  -0.679  31.571  0.00  0.00    +0.080 C 
ATOM     17  C   UNL A   1     -25.189   0.773  32.028  0.00  0.00    +0.019 C 
ATOM     18  C   UNL A   1     -25.336   0.684  33.544  0.00  0.00    +0.020 C 
ATOM     19  C   UNL A   1     -24.829  -0.715  33.905  0.00  0.00    +0.089 C 
ATOM     20  N   UNL A   1     -24.758  -1.481  32.646  0.00  0.00    -0.219 NA
ENDBRANCH   9  16
ENDBRANCH   2   9
ENDBRANCH   1   2
BRANCH   1  21
ATOM     21  C   UNL A   1     -23.048   0.089  28.548  0.00  0.00    +0.074 C 
BRANCH  21  22
ATOM     22  C   UNL A   1     -22.126   1.306  28.390  0.00  0.00    +0.017 C 
ATOM     23  C   UNL A   1     -21.490   1.554  27.021  0.00  0.00    +0.002 C 
ENDBRANCH  21  22
ENDBRANCH   1  21
BRANCH   1  24
ATOM     24  C   UNL A   1     -24.341   1.298  26.996  0.00  0.00    +0.103 C 
BRANCH  24  25
ATOM     25  C   UNL A   1     -25.688   1.614  26.461  0.00  0.00    +0.032 C 
ATOM     26  C   UNL A   1     -26.250   2.920  26.395  0.00  0.00    +0.074 C 
ATOM     27  C   UNL A   1     -27.438   3.091  25.645  0.00  0.00    +0.106 C 
ATOM     28  N   UNL A   1     -28.075   2.089  25.003  0.00  0.00    -0.208 NA
ATOM     29  C   UNL A   1     -27.543   0.849  25.079  0.00  0.00    +0.253 C 
ATOM     30  C   UNL A   1     -26.354   0.576  25.777  0.00  0.00    +0.190 C 
ATOM     31  F   UNL A   1     -25.860  -0.681  25.795  0.00  0.00    -0.200 F 
BRANCH  26  32
ATOM     32  C   UNL A   1     -25.642   4.093  27.123  0.00  0.00    +0.266 C 
ATOM     33  N   UNL A   1     -25.614   5.252  26.449  0.00  0.00    -0.200 NA
ATOM     34  C   UNL A   1     -25.026   6.479  26.963  0.00  0.00    +0.139 C 
ATOM     35  O   UNL A   1     -25.143   3.966  28.243  0.00  0.00    -0.268 OA
ENDBRANCH  26  32
BRANCH  29  36
ATOM     36  O   UNL A   1     -28.193  -0.208  24.477  0.00  0.00    -0.456 OA
BRANCH  36  37
ATOM     37  C   UNL A   1     -29.460   0.005  23.866  0.00  0.00    +0.243 C 
BRANCH  37  38
ATOM     38  C   UNL A   1     -30.065  -1.377  23.573  0.00  0.00    +0.229 C 
ATOM     39  O   UNL A   1     -30.729  -1.878  24.721  0.00  0.00    -0.216 OA
ENDBRANCH  37  38
ENDBRANCH  36  37
ENDBRANCH  29  36
ENDBRANCH  24  25
ENDBRANCH   1  24
TORSDOF 14
