REMARK  Name = outputs/IAG933/test6/raw/output_7791_IAG933_linker_design_.xyz
REMARK  12 active torsions:
REMARK  status: ('A' for Active; 'I' for Inactive)
REMARK    1  A    between atoms: C_1  and  C_2
REMARK    2  A    between atoms: C_1  and  C_8
REMARK    3  A    between atoms: C_1  and  C_31
REMARK    4  A    between atoms: C_13  and  C_36
REMARK    5  A    between atoms: C_14  and  C_15
REMARK    6  A    between atoms: C_21  and  O_22
REMARK    7  A    between atoms: O_22  and  C_23
REMARK    8  A    between atoms: C_23  and  C_24
REMARK    9  A    between atoms: C_30  and  C_31
REMARK   10  A    between atoms: C_31  and  C_37
REMARK   11  A    between atoms: C_35  and  C_43
REMARK   12  A    between atoms: C_35  and  C_44
REMARK                            x       y       z     vdW  Elec       q    Type
REMARK                         _______ _______ _______ _____ _____    ______ ____
ROOT
ATOM      1  C   UNL A   1     -25.399  -0.007  29.146  0.00  0.00    +0.046 C 
ENDROOT
BRANCH   1   6
ATOM      2  O   UNL A   1     -22.530   2.285  26.557  0.00  0.00    -0.172 OA
ATOM      3  C   UNL A   1     -21.796   0.362  28.632  0.00  0.00    +0.044 C 
ATOM      4  O   UNL A   1     -21.282   2.086  26.938  0.00  0.00    -0.330 OA
ATOM      5  C   UNL A   1     -24.527   1.363  27.256  0.00  0.00    +0.077 C 
ATOM      6  C   UNL A   1     -24.397   0.525  28.361  0.00  0.00    -0.034 C 
ATOM      7  C   UNL A   1     -21.026   1.132  27.788  0.00  0.00    +0.220 C 
ATOM      8  C   UNL A   1     -23.328   1.723  26.914  0.00  0.00    +0.204 C 
ATOM      9  C   UNL A   1     -23.122   0.160  28.919  0.00  0.00    -0.004 C 
BRANCH   5  10
ATOM     10  C   UNL A   1     -25.688   1.614  26.461  0.00  0.00    +0.022 C 
ATOM     11  C   UNL A   1     -26.250   2.920  26.395  0.00  0.00    +0.073 C 
ATOM     12  C   UNL A   1     -27.438   3.091  25.645  0.00  0.00    +0.106 C 
ATOM     13  N   UNL A   1     -28.075   2.089  25.003  0.00  0.00    -0.208 NA
ATOM     14  C   UNL A   1     -27.543   0.849  25.079  0.00  0.00    +0.253 C 
ATOM     15  C   UNL A   1     -26.354   0.576  25.777  0.00  0.00    +0.190 C 
ATOM     16  F   UNL A   1     -25.860  -0.681  25.795  0.00  0.00    -0.200 F 
BRANCH  11  17
ATOM     17  C   UNL A   1     -25.642   4.093  27.123  0.00  0.00    +0.266 C 
ATOM     18  N   UNL A   1     -25.614   5.252  26.449  0.00  0.00    -0.200 NA
ATOM     19  C   UNL A   1     -25.026   6.479  26.963  0.00  0.00    +0.139 C 
ATOM     20  O   UNL A   1     -25.143   3.966  28.243  0.00  0.00    -0.268 OA
ENDBRANCH  11  17
BRANCH  14  21
ATOM     21  O   UNL A   1     -28.193  -0.208  24.477  0.00  0.00    -0.456 OA
BRANCH  21  22
ATOM     22  C   UNL A   1     -29.460   0.005  23.866  0.00  0.00    +0.243 C 
BRANCH  22  23
ATOM     23  C   UNL A   1     -30.065  -1.377  23.573  0.00  0.00    +0.229 C 
ATOM     24  O   UNL A   1     -30.729  -1.878  24.721  0.00  0.00    -0.216 OA
ENDBRANCH  22  23
ENDBRANCH  21  22
ENDBRANCH  14  21
ENDBRANCH   5  10
ENDBRANCH   1   6
BRANCH   1  26
ATOM     25  C   UNL A   1     -28.265   2.386  29.623  0.00  0.00    +0.029 C 
ATOM     26  C   UNL A   1     -26.767   0.585  29.045  0.00  0.00    -0.018 C 
ATOM     27  C   UNL A   1     -27.884  -0.088  28.523  0.00  0.00    -0.008 C 
ATOM     28  I   UNL A   1     -28.457   4.239  30.588  0.00  0.00    -0.043 I 
ATOM     29  C   UNL A   1     -29.361   1.734  29.151  0.00  0.00    +0.002 C 
ATOM     30  C   UNL A   1     -29.163   0.471  28.621  0.00  0.00    -0.021 C 
ATOM     31  C   UNL A   1     -26.978   1.903  29.501  0.00  0.00    +0.002 C 
BRANCH  30  32
ATOM     32  C   UNL A   1     -30.364  -0.295  28.313  0.00  0.00    +0.047 C 
BRANCH  32  34
ATOM     33  N   UNL A   1     -32.370  -1.115  29.751  0.00  0.00    -0.131 NA
ATOM     34  C   UNL A   1     -31.370  -0.734  29.020  0.00  0.00    +0.114 C 
ENDBRANCH  32  34
ENDBRANCH  30  32
ENDBRANCH   1  26
BRANCH   1  35
ATOM     35  C   UNL A   1     -24.855  -1.012  30.143  0.00  0.00    +0.046 C 
BRANCH  35  36
ATOM     36  C   UNL A   1     -24.973  -2.505  29.788  0.00  0.00    -0.021 C 
ATOM     37  C   UNL A   1     -23.906  -3.173  29.146  0.00  0.00    -0.004 C 
ATOM     38  C   UNL A   1     -23.989  -4.549  28.853  0.00  0.00    -0.000 C 
ATOM     39  C   UNL A   1     -25.137  -5.280  29.205  0.00  0.00    -0.000 C 
ATOM     40  C   UNL A   1     -26.232  -4.611  29.784  0.00  0.00    -0.000 C 
ATOM     41  C   UNL A   1     -26.155  -3.232  30.065  0.00  0.00    -0.004 C 
ENDBRANCH  35  36
BRANCH  35  42
ATOM     42  C   UNL A   1     -25.387  -0.679  31.571  0.00  0.00    +0.077 C 
ATOM     43  C   UNL A   1     -25.189   0.773  32.028  0.00  0.00    +0.019 C 
ATOM     44  C   UNL A   1     -25.336   0.684  33.544  0.00  0.00    +0.020 C 
ATOM     45  C   UNL A   1     -24.829  -0.715  33.905  0.00  0.00    +0.089 C 
ATOM     46  N   UNL A   1     -24.758  -1.481  32.646  0.00  0.00    -0.219 NA
ENDBRANCH  35  42
ENDBRANCH   1  35
TORSDOF 12
