REMARK  Name = outputs/IAG933/test6/raw/output_7795_IAG933_linker_design_.xyz
REMARK  15 active torsions:
REMARK  status: ('A' for Active; 'I' for Inactive)
REMARK    1  A    between atoms: C_1  and  C_2
REMARK    2  A    between atoms: C_1  and  C_8
REMARK    3  A    between atoms: C_1  and  C_37
REMARK    4  A    between atoms: C_13  and  C_29
REMARK    5  A    between atoms: C_14  and  C_15
REMARK    6  A    between atoms: C_21  and  O_22
REMARK    7  A    between atoms: O_22  and  C_23
REMARK    8  A    between atoms: C_23  and  C_24
REMARK    9  A    between atoms: C_29  and  C_32
REMARK   10  A    between atoms: C_29  and  N_39
REMARK   11  A    between atoms: C_30  and  C_35
REMARK   12  A    between atoms: C_34  and  C_35
REMARK   13  A    between atoms: N_36  and  C_37
REMARK   14  A    between atoms: C_37  and  N_39
REMARK   15  A    between atoms: N_39  and  C_41
REMARK                            x       y       z     vdW  Elec       q    Type
REMARK                         _______ _______ _______ _____ _____    ______ ____
ROOT
ATOM      1  N   UNL A   1     -24.499   0.785  28.439  0.00  0.00    -0.226 NA
ENDROOT
BRANCH   1   3
ATOM      2  O   UNL A   1     -22.188   0.852  28.986  0.00  0.00    -0.201 OA
ATOM      3  C   UNL A   1     -23.495   1.091  29.486  0.00  0.00    +0.260 C 
ENDBRANCH   1   3
BRANCH   1   4
ATOM      4  C   UNL A   1     -24.441   1.254  27.241  0.00  0.00    +0.086 C 
BRANCH   4   5
ATOM      5  C   UNL A   1     -25.688   1.614  26.461  0.00  0.00    +0.030 C 
ATOM      6  C   UNL A   1     -26.250   2.920  26.395  0.00  0.00    +0.074 C 
ATOM      7  C   UNL A   1     -27.438   3.091  25.645  0.00  0.00    +0.106 C 
ATOM      8  N   UNL A   1     -28.075   2.089  25.003  0.00  0.00    -0.208 NA
ATOM      9  C   UNL A   1     -27.543   0.849  25.079  0.00  0.00    +0.253 C 
ATOM     10  C   UNL A   1     -26.354   0.576  25.777  0.00  0.00    +0.190 C 
ATOM     11  F   UNL A   1     -25.860  -0.681  25.795  0.00  0.00    -0.200 F 
BRANCH   6  12
ATOM     12  C   UNL A   1     -25.642   4.093  27.123  0.00  0.00    +0.266 C 
ATOM     13  N   UNL A   1     -25.614   5.252  26.449  0.00  0.00    -0.200 NA
ATOM     14  C   UNL A   1     -25.026   6.479  26.963  0.00  0.00    +0.139 C 
ATOM     15  O   UNL A   1     -25.143   3.966  28.243  0.00  0.00    -0.268 OA
ENDBRANCH   6  12
BRANCH   9  16
ATOM     16  O   UNL A   1     -28.193  -0.208  24.477  0.00  0.00    -0.456 OA
BRANCH  16  17
ATOM     17  C   UNL A   1     -29.460   0.005  23.866  0.00  0.00    +0.243 C 
BRANCH  17  18
ATOM     18  C   UNL A   1     -30.065  -1.377  23.573  0.00  0.00    +0.229 C 
ATOM     19  O   UNL A   1     -30.729  -1.878  24.721  0.00  0.00    -0.216 OA
ENDBRANCH  17  18
ENDBRANCH  16  17
ENDBRANCH   9  16
ENDBRANCH   4   5
BRANCH   4  20
ATOM     20  C   UNL A   1     -23.126   1.613  26.665  0.00  0.00    +0.021 C 
ATOM     21  C   UNL A   1     -22.774   2.516  25.540  0.00  0.00    +0.002 C 
ENDBRANCH   4  20
ENDBRANCH   1   4
BRANCH   1  22
ATOM     22  C   UNL A   1     -25.629  -0.027  29.092  0.00  0.00    +0.162 C 
BRANCH  22  25
ATOM     23  C   UNL A   1     -28.175   0.165  29.191  0.00  0.00    +0.276 C 
ATOM     24  O   UNL A   1     -28.366  -1.063  29.014  0.00  0.00    -0.271 OA
ATOM     25  N   UNL A   1     -26.928   0.778  28.956  0.00  0.00    -0.188 NA
BRANCH  23  27
ATOM     26  O   UNL A   1     -30.367   0.950  28.621  0.00  0.00    -0.210 OA
ATOM     27  C   UNL A   1     -29.327   0.919  29.578  0.00  0.00    +0.262 C 
BRANCH  27  28
ATOM     28  C   UNL A   1     -29.817   1.688  30.816  0.00  0.00    +0.224 C 
ATOM     29  O   UNL A   1     -29.331   3.048  30.778  0.00  0.00    -0.217 OA
ENDBRANCH  27  28
ENDBRANCH  23  27
ENDBRANCH  22  25
BRANCH  22  30
ATOM     30  C   UNL A   1     -24.855  -1.012  30.143  0.00  0.00    +0.074 C 
BRANCH  30  31
ATOM     31  C   UNL A   1     -24.973  -2.505  29.788  0.00  0.00    -0.018 C 
ATOM     32  C   UNL A   1     -23.906  -3.173  29.146  0.00  0.00    -0.004 C 
ATOM     33  C   UNL A   1     -23.989  -4.549  28.853  0.00  0.00    -0.000 C 
ATOM     34  C   UNL A   1     -25.137  -5.280  29.205  0.00  0.00    -0.000 C 
ATOM     35  C   UNL A   1     -26.232  -4.611  29.784  0.00  0.00    -0.000 C 
ATOM     36  C   UNL A   1     -26.155  -3.232  30.065  0.00  0.00    -0.004 C 
ENDBRANCH  30  31
BRANCH  30  37
ATOM     37  C   UNL A   1     -25.387  -0.679  31.571  0.00  0.00    +0.080 C 
ATOM     38  C   UNL A   1     -25.189   0.773  32.028  0.00  0.00    +0.019 C 
ATOM     39  C   UNL A   1     -25.336   0.684  33.544  0.00  0.00    +0.020 C 
ATOM     40  C   UNL A   1     -24.829  -0.715  33.905  0.00  0.00    +0.089 C 
ATOM     41  N   UNL A   1     -24.758  -1.481  32.646  0.00  0.00    -0.219 NA
ENDBRANCH  30  37
ENDBRANCH  22  30
ENDBRANCH   1  22
TORSDOF 15
