REMARK  Name = outputs/IAG933/test6/raw/output_7798_IAG933_linker_design_.xyz
REMARK  10 active torsions:
REMARK  status: ('A' for Active; 'I' for Inactive)
REMARK    1  A    between atoms: C_1  and  C_2
REMARK    2  A    between atoms: C_1  and  C_8
REMARK    3  A    between atoms: C_1  and  N_42
REMARK    4  A    between atoms: C_13  and  C_36
REMARK    5  A    between atoms: C_14  and  C_15
REMARK    6  A    between atoms: C_21  and  O_22
REMARK    7  A    between atoms: O_22  and  C_23
REMARK    8  A    between atoms: C_23  and  C_24
REMARK    9  A    between atoms: C_31  and  N_42
REMARK   10  A    between atoms: N_42  and  C_44
REMARK                            x       y       z     vdW  Elec       q    Type
REMARK                         _______ _______ _______ _____ _____    ______ ____
ROOT
ATOM      1  O   UNL A   1     -21.819   2.606  25.131  0.00  0.00    -0.135 OA
ATOM      2  C   UNL A   1     -23.194   2.105  25.317  0.00  0.00    +0.344 C 
ATOM      3  N   UNL A   1     -22.423  -0.788  29.198  0.00  0.00    -0.183 NA
ATOM      4  C   UNL A   1     -22.930   0.387  28.907  0.00  0.00    +0.153 C 
ATOM      5  F   UNL A   1     -23.961   1.825  24.338  0.00  0.00    -0.195 F 
ATOM      6  O   UNL A   1     -20.602   0.347  28.427  0.00  0.00    -0.330 OA
ATOM      7  C   UNL A   1     -23.357   1.744  26.682  0.00  0.00    +0.064 C 
ATOM      8  C   UNL A   1     -24.472   1.384  27.301  0.00  0.00    +0.095 C 
ATOM      9  C   UNL A   1     -21.958   1.864  27.050  0.00  0.00    +0.186 C 
ATOM     10  O   UNL A   1     -21.095   2.408  26.344  0.00  0.00    -0.333 OA
ATOM     11  O   UNL A   1     -24.435   1.778  29.651  0.00  0.00    -0.207 OA
ATOM     12  C   UNL A   1     -21.302  -0.631  29.306  0.00  0.00    +0.235 C 
ATOM     13  C   UNL A   1     -21.795   1.203  28.333  0.00  0.00    +0.196 C 
ATOM     14  C   UNL A   1     -24.325   0.831  28.703  0.00  0.00    +0.201 C 
ENDROOT
BRANCH   8  15
ATOM     15  C   UNL A   1     -25.688   1.614  26.461  0.00  0.00    +0.023 C 
ATOM     16  C   UNL A   1     -26.250   2.920  26.395  0.00  0.00    +0.073 C 
ATOM     17  C   UNL A   1     -27.438   3.091  25.645  0.00  0.00    +0.106 C 
ATOM     18  N   UNL A   1     -28.075   2.089  25.003  0.00  0.00    -0.208 NA
ATOM     19  C   UNL A   1     -27.543   0.849  25.079  0.00  0.00    +0.253 C 
ATOM     20  C   UNL A   1     -26.354   0.576  25.777  0.00  0.00    +0.190 C 
ATOM     21  F   UNL A   1     -25.860  -0.681  25.795  0.00  0.00    -0.200 F 
BRANCH  16  22
ATOM     22  C   UNL A   1     -25.642   4.093  27.123  0.00  0.00    +0.266 C 
ATOM     23  N   UNL A   1     -25.614   5.252  26.449  0.00  0.00    -0.200 NA
ATOM     24  C   UNL A   1     -25.026   6.479  26.963  0.00  0.00    +0.139 C 
ATOM     25  O   UNL A   1     -25.143   3.966  28.243  0.00  0.00    -0.268 OA
ENDBRANCH  16  22
BRANCH  19  26
ATOM     26  O   UNL A   1     -28.193  -0.208  24.477  0.00  0.00    -0.456 OA
BRANCH  26  27
ATOM     27  C   UNL A   1     -29.460   0.005  23.866  0.00  0.00    +0.243 C 
BRANCH  27  28
ATOM     28  C   UNL A   1     -30.065  -1.377  23.573  0.00  0.00    +0.229 C 
ATOM     29  O   UNL A   1     -30.729  -1.878  24.721  0.00  0.00    -0.216 OA
ENDBRANCH  27  28
ENDBRANCH  26  27
ENDBRANCH  19  26
ENDBRANCH   8  15
BRANCH  14  30
ATOM     30  N   UNL A   1     -25.225  -0.161  29.065  0.00  0.00    -0.217 NA
BRANCH  30  31
ATOM     31  C   UNL A   1     -26.459  -0.210  28.619  0.00  0.00    +0.261 C 
ATOM     32  O   UNL A   1     -27.390  -0.650  28.351  0.00  0.00    -0.201 OA
ENDBRANCH  30  31
BRANCH  30  33
ATOM     33  C   UNL A   1     -24.855  -1.012  30.143  0.00  0.00    +0.100 C 
BRANCH  33  34
ATOM     34  C   UNL A   1     -24.973  -2.505  29.788  0.00  0.00    -0.006 C 
ATOM     35  C   UNL A   1     -23.906  -3.173  29.146  0.00  0.00    -0.003 C 
ATOM     36  C   UNL A   1     -23.989  -4.549  28.853  0.00  0.00    -0.000 C 
ATOM     37  C   UNL A   1     -25.137  -5.280  29.205  0.00  0.00    -0.000 C 
ATOM     38  C   UNL A   1     -26.232  -4.611  29.784  0.00  0.00    -0.000 C 
ATOM     39  C   UNL A   1     -26.155  -3.232  30.065  0.00  0.00    -0.003 C 
ENDBRANCH  33  34
BRANCH  33  40
ATOM     40  C   UNL A   1     -25.387  -0.679  31.571  0.00  0.00    +0.092 C 
ATOM     41  C   UNL A   1     -25.189   0.773  32.028  0.00  0.00    +0.021 C 
ATOM     42  C   UNL A   1     -25.336   0.684  33.544  0.00  0.00    +0.020 C 
ATOM     43  C   UNL A   1     -24.829  -0.715  33.905  0.00  0.00    +0.089 C 
ATOM     44  N   UNL A   1     -24.758  -1.481  32.646  0.00  0.00    -0.218 NA
ENDBRANCH  33  40
ENDBRANCH  30  33
ENDBRANCH  14  30
TORSDOF 10
