MODEL 779
MODEL 1
REMARK VINA RESULT:    -5.693      0.000      0.000
REMARK INTER + INTRA:          -6.665
REMARK INTER:                  -6.359
REMARK INTRA:                  -0.306
REMARK UNBOUND:                -0.306
REMARK  Name = No_779-gen_results/8p0m/2024-11-27-11-27-31/
REMARK  2 active torsions:
REMARK  status: ('A' for Active; 'I' for Inactive)
REMARK    1  A    between atoms: C_2  and  C_3
REMARK    2  A    between atoms: C_7  and  C_12
REMARK                            x       y       z     vdW  Elec       q    Type
REMARK                         _______ _______ _______ _____ _____    ______ ____
ROOT
ATOM      1  C   UNL A   1     -24.517  -2.453  29.310  0.00  0.00    +0.006 A 
ATOM      2  C   UNL A   1     -23.867  -3.524  29.076  0.00  0.00    -0.002 A 
ATOM      3  C   UNL A   1     -24.582  -4.709  28.853  0.00  0.00    -0.000 A 
ATOM      4  C   UNL A   1     -25.911  -4.919  29.391  0.00  0.00    +0.005 A 
ATOM      5  C   UNL A   1     -26.549  -3.805  29.913  0.00  0.00    +0.056 A 
ATOM      6  C   UNL A   1     -25.900  -2.552  29.771  0.00  0.00    +0.003 A 
ENDROOT
BRANCH   1   8
ATOM      7  N   UNL A   1     -23.314  -0.807  28.801  0.00  0.00    -0.241 NA
ATOM      8  C   UNL A   1     -24.238  -1.309  28.645  0.00  0.00    +0.168 C 
ATOM      9  C   UNL A   1     -23.002   0.436  27.990  0.00  0.00    +0.195 C 
ATOM     10  N   UNL A   1     -23.997   0.822  27.229  0.00  0.00    -0.225 NA
ATOM     11  C   UNL A   1     -25.135  -0.711  27.575  0.00  0.00    +0.103 C 
ENDBRANCH   1   8
BRANCH   5  12
ATOM     12  C   UNL A   1     -27.910  -3.999  30.385  0.00  0.00    +0.284 C 
ATOM     13  N   UNL A   1     -28.353  -3.217  31.180  0.00  0.00    -0.084 NA
ATOM     14  O   UNL A   1     -28.760  -4.678  29.723  0.00  0.00    -0.267 OA
ENDBRANCH   5  12
TORSDOF 2
ENDMDL
ENDMDL
