MODEL 77
MODEL 1
REMARK VINA RESULT:    -4.441      0.000      0.000
REMARK INTER + INTRA:          -4.441
REMARK INTER:                  -4.441
REMARK INTRA:                   0.000
REMARK UNBOUND:                 0.000
REMARK  Name = No_77-gen_results/8p0m/2024-11-27-11-27-31/
REMARK  0 active torsions:
REMARK  status: ('A' for Active; 'I' for Inactive)
REMARK                            x       y       z     vdW  Elec       q    Type
REMARK                         _______ _______ _______ _____ _____    ______ ____
ROOT
ATOM      1  C   UNL A   1      -9.224  -9.235  19.918  0.00  0.00    +0.011 A 
ATOM      2  C   UNL A   1      -8.362  -9.797  19.689  0.00  0.00    +0.058 A 
ATOM      3  C   UNL A   1     -10.326  -9.293  18.945  0.00  0.00    +0.001 A 
ATOM      4  C   UNL A   1     -10.265 -10.180  17.832  0.00  0.00    +0.000 A 
ATOM      5  C   UNL A   1      -8.069 -10.823  18.651  0.00  0.00    +0.011 A 
ATOM      6  C   UNL A   1      -9.066 -10.898  17.724  0.00  0.00    +0.001 A 
ATOM      7 CL   UNL A   1      -6.998  -9.749  20.884  0.00  0.00    -0.082 Cl
ENDROOT
TORSDOF 0
ENDMDL
ENDMDL
