REMARK  Name = No_78-gen_results/8p0m/2024-11-27-11-27-31/
REMARK  1 active torsions:
REMARK  status: ('A' for Active; 'I' for Inactive)
REMARK    1  A    between atoms: C_3  and  C_7
REMARK                            x       y       z     vdW  Elec       q    Type
REMARK                         _______ _______ _______ _____ _____    ______ ____
ROOT
ATOM      1  C   UNL A   1     -25.696   1.950  28.476  0.00  0.00    +0.265 C 
ATOM      2  N   UNL A   1     -25.099   1.912  27.663  0.00  0.00    -0.272 N 
ATOM      3  C   UNL A   1     -24.808   1.155  26.835  0.00  0.00    +0.083 A 
ATOM      4  C   UNL A   1     -23.852   1.401  25.760  0.00  0.00    +0.021 A 
ATOM      5  C   UNL A   1     -24.326   3.097  27.169  0.00  0.00    +0.083 A 
ATOM      6  C   UNL A   1     -23.508   2.718  25.996  0.00  0.00    +0.021 A 
ATOM      7  O   UNL A   1     -25.032   2.407  29.731  0.00  0.00    -0.267 OA
ENDROOT
BRANCH   1  10
ATOM      8  C   UNL A   1     -28.016  -0.814  28.878  0.00  0.00    +0.000 A 
ATOM      9  C   UNL A   1     -27.064  -0.119  28.608  0.00  0.00    +0.005 A 
ATOM     10  C   UNL A   1     -26.876   1.133  28.913  0.00  0.00    +0.057 A 
ATOM     11  C   UNL A   1     -27.901   1.807  29.644  0.00  0.00    +0.005 A 
ATOM     12  C   UNL A   1     -28.945   1.039  30.036  0.00  0.00    +0.000 A 
ATOM     13  C   UNL A   1     -29.027  -0.289  29.705  0.00  0.00    +0.000 A 
ENDBRANCH   1  10
TORSDOF 1
