REMARK  Name = outputs/IAG933/test6/raw/output_780_IAG933_linker_design_.xyz
REMARK  13 active torsions:
REMARK  status: ('A' for Active; 'I' for Inactive)
REMARK    1  A    between atoms: C_1  and  C_2
REMARK    2  A    between atoms: C_1  and  C_8
REMARK    3  A    between atoms: C_1  and  C_34
REMARK    4  A    between atoms: C_13  and  C_33
REMARK    5  A    between atoms: C_14  and  C_15
REMARK    6  A    between atoms: C_21  and  O_22
REMARK    7  A    between atoms: O_22  and  C_23
REMARK    8  A    between atoms: C_23  and  C_24
REMARK    9  A    between atoms: C_29  and  O_37
REMARK   10  A    between atoms: C_30  and  C_31
REMARK   11  A    between atoms: C_32  and  C_34
REMARK   12  A    between atoms: C_32  and  C_42
REMARK   13  A    between atoms: C_32  and  N_45
REMARK                            x       y       z     vdW  Elec       q    Type
REMARK                         _______ _______ _______ _____ _____    ______ ____
ROOT
ATOM      1  C   UNL A   1     -24.201   1.089  29.070  0.00  0.00    +0.118 C 
ENDROOT
BRANCH   1   7
ATOM      2  C   UNL A   1     -22.171   2.128  25.489  0.00  0.00    -0.000 C 
ATOM      3  C   UNL A   1     -24.254   1.623  26.609  0.00  0.00    -0.017 C 
ATOM      4  C   UNL A   1     -21.501   2.042  26.718  0.00  0.00    -0.000 C 
ATOM      5  C   UNL A   1     -23.540   1.909  25.410  0.00  0.00    -0.004 C 
ATOM      6  C   UNL A   1     -22.207   1.691  27.898  0.00  0.00    -0.003 C 
ATOM      7  C   UNL A   1     -23.595   1.461  27.846  0.00  0.00    -0.006 C 
BRANCH   3   8
ATOM      8  C   UNL A   1     -25.688   1.614  26.461  0.00  0.00    +0.092 C 
ATOM      9  C   UNL A   1     -26.250   2.920  26.395  0.00  0.00    +0.059 C 
ATOM     10  C   UNL A   1     -27.438   3.091  25.645  0.00  0.00    +0.102 C 
ATOM     11  N   UNL A   1     -28.075   2.089  25.003  0.00  0.00    -0.212 NA
ATOM     12  C   UNL A   1     -27.543   0.849  25.079  0.00  0.00    +0.234 C 
ATOM     13  C   UNL A   1     -26.354   0.576  25.777  0.00  0.00    +0.244 C 
ATOM     14  F   UNL A   1     -25.860  -0.681  25.795  0.00  0.00    -0.227 F 
BRANCH   9  15
ATOM     15  C   UNL A   1     -25.642   4.093  27.123  0.00  0.00    +0.263 C 
ATOM     16  N   UNL A   1     -25.614   5.252  26.449  0.00  0.00    -0.200 NA
ATOM     17  C   UNL A   1     -25.026   6.479  26.963  0.00  0.00    +0.139 C 
ATOM     18  O   UNL A   1     -25.143   3.966  28.243  0.00  0.00    -0.269 OA
ENDBRANCH   9  15
BRANCH  12  19
ATOM     19  O   UNL A   1     -28.193  -0.208  24.477  0.00  0.00    -0.459 OA
BRANCH  19  20
ATOM     20  C   UNL A   1     -29.460   0.005  23.866  0.00  0.00    +0.242 C 
BRANCH  20  21
ATOM     21  C   UNL A   1     -30.065  -1.377  23.573  0.00  0.00    +0.229 C 
ATOM     22  O   UNL A   1     -30.729  -1.878  24.721  0.00  0.00    -0.216 OA
ENDBRANCH  20  21
ENDBRANCH  19  20
ENDBRANCH  12  19
ENDBRANCH   3   8
ENDBRANCH   1   7
BRANCH   1  25
ATOM     23  C   UNL A   1     -26.188   2.679  30.299  0.00  0.00    +0.260 C 
ATOM     24  O   UNL A   1     -27.287   2.634  29.908  0.00  0.00    -0.272 OA
ATOM     25  N   UNL A   1     -25.160   1.809  29.804  0.00  0.00    -0.201 NA
BRANCH  23  27
ATOM     26  C   UNL A   1     -25.183   6.302  31.725  0.00  0.00    +0.193 C 
ATOM     27  C   UNL A   1     -25.997   4.133  31.442  0.00  0.00    +0.157 C 
ATOM     28  C   UNL A   1     -26.003   5.491  30.901  0.00  0.00    +0.068 C 
ATOM     29  C   UNL A   1     -26.092   3.654  33.910  0.00  0.00    +0.115 C 
ATOM     30  C   UNL A   1     -24.773   5.452  32.820  0.00  0.00    +0.253 C 
ATOM     31  O   UNL A   1     -23.526   5.462  33.396  0.00  0.00    -0.272 OA
ATOM     32  N   UNL A   1     -25.516   4.335  32.807  0.00  0.00    -0.269 N 
BRANCH  26  33
ATOM     33  O   UNL A   1     -24.946   7.658  31.576  0.00  0.00    -0.344 OA
ATOM     34  C   UNL A   1     -25.689   8.669  32.282  0.00  0.00    +0.175 C 
ENDBRANCH  26  33
ENDBRANCH  23  27
ENDBRANCH   1  25
BRANCH   1  35
ATOM     35  C   UNL A   1     -23.634  -0.238  29.665  0.00  0.00    +0.032 C 
BRANCH  35  36
ATOM     36  C   UNL A   1     -24.855  -1.012  30.143  0.00  0.00    +0.040 C 
BRANCH  36  37
ATOM     37  C   UNL A   1     -24.973  -2.505  29.788  0.00  0.00    -0.021 C 
ATOM     38  C   UNL A   1     -23.906  -3.173  29.146  0.00  0.00    -0.004 C 
ATOM     39  C   UNL A   1     -23.989  -4.549  28.853  0.00  0.00    -0.000 C 
ATOM     40  C   UNL A   1     -25.137  -5.280  29.205  0.00  0.00    -0.000 C 
ATOM     41  C   UNL A   1     -26.232  -4.611  29.784  0.00  0.00    -0.000 C 
ATOM     42  C   UNL A   1     -26.155  -3.232  30.065  0.00  0.00    -0.004 C 
ENDBRANCH  36  37
BRANCH  36  43
ATOM     43  C   UNL A   1     -25.387  -0.679  31.571  0.00  0.00    +0.077 C 
ATOM     44  C   UNL A   1     -25.189   0.773  32.028  0.00  0.00    +0.019 C 
ATOM     45  C   UNL A   1     -25.336   0.684  33.544  0.00  0.00    +0.020 C 
ATOM     46  C   UNL A   1     -24.829  -0.715  33.905  0.00  0.00    +0.089 C 
ATOM     47  N   UNL A   1     -24.758  -1.481  32.646  0.00  0.00    -0.219 NA
ENDBRANCH  36  43
ENDBRANCH  35  36
ENDBRANCH   1  35
TORSDOF 13
