REMARK  Name = outputs/IAG933/test6/raw/output_7807_IAG933_linker_design_.xyz
REMARK  10 active torsions:
REMARK  status: ('A' for Active; 'I' for Inactive)
REMARK    1  A    between atoms: C_1  and  C_2
REMARK    2  A    between atoms: C_1  and  C_8
REMARK    3  A    between atoms: C_1  and  N_31
REMARK    4  A    between atoms: C_14  and  C_15
REMARK    5  A    between atoms: C_21  and  O_22
REMARK    6  A    between atoms: O_22  and  C_23
REMARK    7  A    between atoms: C_23  and  C_24
REMARK    8  A    between atoms: O_29  and  C_33
REMARK    9  A    between atoms: C_33  and  C_36
REMARK   10  A    between atoms: C_34  and  C_36
REMARK                            x       y       z     vdW  Elec       q    Type
REMARK                         _______ _______ _______ _____ _____    ______ ____
ROOT
ATOM      1  C   UNL A   1     -25.688   1.614  26.461  0.00  0.00    +0.060 C 
ATOM      2  C   UNL A   1     -26.250   2.920  26.395  0.00  0.00    +0.080 C 
ATOM      3  C   UNL A   1     -27.438   3.091  25.645  0.00  0.00    +0.107 C 
ATOM      4  N   UNL A   1     -28.075   2.089  25.003  0.00  0.00    -0.211 NA
ATOM      5  C   UNL A   1     -27.543   0.849  25.079  0.00  0.00    +0.239 C 
ATOM      6  C   UNL A   1     -26.354   0.576  25.777  0.00  0.00    +0.265 C 
ATOM      7  F   UNL A   1     -25.860  -0.681  25.795  0.00  0.00    -0.222 F 
ATOM      8  C   UNL A   1     -22.806  -0.318  29.665  0.00  0.00    +0.409 C 
ATOM      9  C   UNL A   1     -23.755   0.876  28.035  0.00  0.00    +0.072 C 
ATOM     10  N   UNL A   1     -24.031  -0.185  29.125  0.00  0.00    -0.219 N 
ATOM     11  C   UNL A   1     -22.364   1.300  27.827  0.00  0.00    +0.086 C 
ATOM     12  O   UNL A   1     -21.880  -0.995  29.043  0.00  0.00    -0.431 OA
ATOM     13  O   UNL A   1     -22.513   0.282  30.699  0.00  0.00    -0.226 OA
ATOM     14  F   UNL A   1     -20.160   1.948  28.028  0.00  0.00    -0.233 F 
ATOM     15  C   UNL A   1     -24.521   1.190  27.122  0.00  0.00    -0.092 C 
ATOM     16  C   UNL A   1     -20.785  -0.225  28.550  0.00  0.00    +0.245 C 
ATOM     17  C   UNL A   1     -21.029   1.129  28.162  0.00  0.00    +0.210 C 
ENDROOT
BRANCH   2  18
ATOM     18  C   UNL A   1     -25.642   4.093  27.123  0.00  0.00    +0.267 C 
ATOM     19  N   UNL A   1     -25.614   5.252  26.449  0.00  0.00    -0.200 NA
ATOM     20  C   UNL A   1     -25.026   6.479  26.963  0.00  0.00    +0.139 C 
ATOM     21  O   UNL A   1     -25.143   3.966  28.243  0.00  0.00    -0.268 OA
ENDBRANCH   2  18
BRANCH  10  22
ATOM     22  C   UNL A   1     -24.855  -1.012  30.143  0.00  0.00    +0.121 C 
BRANCH  22  23
ATOM     23  C   UNL A   1     -24.973  -2.505  29.788  0.00  0.00    -0.003 C 
ATOM     24  C   UNL A   1     -23.906  -3.173  29.146  0.00  0.00    -0.003 C 
ATOM     25  C   UNL A   1     -23.989  -4.549  28.853  0.00  0.00    -0.000 C 
ATOM     26  C   UNL A   1     -25.137  -5.280  29.205  0.00  0.00    -0.000 C 
ATOM     27  C   UNL A   1     -26.232  -4.611  29.784  0.00  0.00    -0.000 C 
ATOM     28  C   UNL A   1     -26.155  -3.232  30.065  0.00  0.00    -0.003 C 
ENDBRANCH  22  23
BRANCH  22  29
ATOM     29  C   UNL A   1     -25.387  -0.679  31.571  0.00  0.00    +0.096 C 
ATOM     30  C   UNL A   1     -25.189   0.773  32.028  0.00  0.00    +0.021 C 
ATOM     31  C   UNL A   1     -25.336   0.684  33.544  0.00  0.00    +0.020 C 
ATOM     32  C   UNL A   1     -24.829  -0.715  33.905  0.00  0.00    +0.089 C 
ATOM     33  N   UNL A   1     -24.758  -1.481  32.646  0.00  0.00    -0.217 NA
ENDBRANCH  22  29
ENDBRANCH  10  22
BRANCH   5  34
ATOM     34  O   UNL A   1     -28.193  -0.208  24.477  0.00  0.00    -0.458 OA
BRANCH  34  35
ATOM     35  C   UNL A   1     -29.460   0.005  23.866  0.00  0.00    +0.242 C 
BRANCH  35  36
ATOM     36  C   UNL A   1     -30.065  -1.377  23.573  0.00  0.00    +0.229 C 
ATOM     37  O   UNL A   1     -30.729  -1.878  24.721  0.00  0.00    -0.216 OA
ENDBRANCH  35  36
ENDBRANCH  34  35
ENDBRANCH   5  34
BRANCH  11  38
ATOM     38  C   UNL A   1     -22.267   2.100  26.775  0.00  0.00    +0.079 C 
BRANCH  38  39
ATOM     39  C   UNL A   1     -23.178   1.998  25.741  0.00  0.00    +0.315 C 
ATOM     40  F   UNL A   1     -23.464   3.189  25.288  0.00  0.00    -0.201 F 
BRANCH  39  41
ATOM     41  O   UNL A   1     -23.556   1.018  24.934  0.00  0.00    -0.146 OA
ATOM     42  F   UNL A   1     -22.942   1.226  23.754  0.00  0.00    -0.044 F 
ENDBRANCH  39  41
ENDBRANCH  38  39
ENDBRANCH  11  38
TORSDOF 10
