REMARK  Name = outputs/IAG933/test6/raw/output_7809_IAG933_linker_design_.xyz
REMARK  10 active torsions:
REMARK  status: ('A' for Active; 'I' for Inactive)
REMARK    1  A    between atoms: C_1  and  C_2
REMARK    2  A    between atoms: C_1  and  C_8
REMARK    3  A    between atoms: C_1  and  C_40
REMARK    4  A    between atoms: C_13  and  C_36
REMARK    5  A    between atoms: C_14  and  C_15
REMARK    6  A    between atoms: C_21  and  O_22
REMARK    7  A    between atoms: O_22  and  C_23
REMARK    8  A    between atoms: C_23  and  C_24
REMARK    9  A    between atoms: C_34  and  C_40
REMARK   10  A    between atoms: C_40  and  N_42
REMARK                            x       y       z     vdW  Elec       q    Type
REMARK                         _______ _______ _______ _____ _____    ______ ____
ROOT
ATOM      1  C   UNL A   1     -21.218   0.721  28.043  0.00  0.00    +0.166 C 
ATOM      2  C   UNL A   1     -23.369   1.976  25.471  0.00  0.00    +0.317 C 
ATOM      3  O   UNL A   1     -23.626   2.191  24.395  0.00  0.00    -0.250 OA
ATOM      4  C   UNL A   1     -21.121   1.653  26.886  0.00  0.00    +0.230 C 
ATOM      5  C   UNL A   1     -23.608   0.502  28.483  0.00  0.00    +0.053 C 
ATOM      6  C   UNL A   1     -22.445   0.171  28.546  0.00  0.00    +0.175 C 
ATOM      7  C   UNL A   1     -24.244   1.614  26.382  0.00  0.00    +0.107 C 
ATOM      8  C   UNL A   1     -23.848   1.382  27.496  0.00  0.00    +0.016 C 
ATOM      9  N   UNL A   1     -19.989   0.276  28.536  0.00  0.00    -0.126 NA
ATOM     10  O   UNL A   1     -22.107  -0.900  29.358  0.00  0.00    -0.221 OA
ATOM     11  O   UNL A   1     -21.925   2.113  25.749  0.00  0.00    -0.447 OA
ENDROOT
BRANCH   7  12
ATOM     12  C   UNL A   1     -25.688   1.614  26.461  0.00  0.00    +0.081 C 
ATOM     13  C   UNL A   1     -26.250   2.920  26.395  0.00  0.00    +0.055 C 
ATOM     14  C   UNL A   1     -27.438   3.091  25.645  0.00  0.00    +0.102 C 
ATOM     15  N   UNL A   1     -28.075   2.089  25.003  0.00  0.00    -0.212 NA
ATOM     16  C   UNL A   1     -27.543   0.849  25.079  0.00  0.00    +0.234 C 
ATOM     17  C   UNL A   1     -26.354   0.576  25.777  0.00  0.00    +0.240 C 
ATOM     18  F   UNL A   1     -25.860  -0.681  25.795  0.00  0.00    -0.227 F 
BRANCH  13  19
ATOM     19  C   UNL A   1     -25.642   4.093  27.123  0.00  0.00    +0.263 C 
ATOM     20  N   UNL A   1     -25.614   5.252  26.449  0.00  0.00    -0.200 NA
ATOM     21  C   UNL A   1     -25.026   6.479  26.963  0.00  0.00    +0.139 C 
ATOM     22  O   UNL A   1     -25.143   3.966  28.243  0.00  0.00    -0.269 OA
ENDBRANCH  13  19
BRANCH  16  23
ATOM     23  O   UNL A   1     -28.193  -0.208  24.477  0.00  0.00    -0.459 OA
BRANCH  23  24
ATOM     24  C   UNL A   1     -29.460   0.005  23.866  0.00  0.00    +0.242 C 
BRANCH  24  25
ATOM     25  C   UNL A   1     -30.065  -1.377  23.573  0.00  0.00    +0.229 C 
ATOM     26  O   UNL A   1     -30.729  -1.878  24.721  0.00  0.00    -0.216 OA
ENDBRANCH  24  25
ENDBRANCH  23  24
ENDBRANCH  16  23
ENDBRANCH   7  12
BRANCH   5  27
ATOM     27  C   UNL A   1     -24.663   0.108  29.197  0.00  0.00    +0.103 C 
BRANCH  27  31
ATOM     28  O   UNL A   1     -27.643  -0.194  28.873  0.00  0.00    -0.273 OA
ATOM     29  C   UNL A   1     -27.111   0.824  29.097  0.00  0.00    +0.242 C 
ATOM     30  C   UNL A   1     -27.636   2.053  29.771  0.00  0.00    +0.096 C 
ATOM     31  N   UNL A   1     -25.696   1.036  28.899  0.00  0.00    -0.207 NA
ENDBRANCH  27  31
BRANCH  27  32
ATOM     32  C   UNL A   1     -24.855  -1.012  30.143  0.00  0.00    +0.058 C 
BRANCH  32  33
ATOM     33  C   UNL A   1     -24.973  -2.505  29.788  0.00  0.00    -0.019 C 
ATOM     34  C   UNL A   1     -23.906  -3.173  29.146  0.00  0.00    -0.004 C 
ATOM     35  C   UNL A   1     -23.989  -4.549  28.853  0.00  0.00    -0.000 C 
ATOM     36  C   UNL A   1     -25.137  -5.280  29.205  0.00  0.00    -0.000 C 
ATOM     37  C   UNL A   1     -26.232  -4.611  29.784  0.00  0.00    -0.000 C 
ATOM     38  C   UNL A   1     -26.155  -3.232  30.065  0.00  0.00    -0.004 C 
ENDBRANCH  32  33
BRANCH  32  39
ATOM     39  C   UNL A   1     -25.387  -0.679  31.571  0.00  0.00    +0.079 C 
ATOM     40  C   UNL A   1     -25.189   0.773  32.028  0.00  0.00    +0.019 C 
ATOM     41  C   UNL A   1     -25.336   0.684  33.544  0.00  0.00    +0.020 C 
ATOM     42  C   UNL A   1     -24.829  -0.715  33.905  0.00  0.00    +0.089 C 
ATOM     43  N   UNL A   1     -24.758  -1.481  32.646  0.00  0.00    -0.219 NA
ENDBRANCH  32  39
ENDBRANCH  27  32
ENDBRANCH   5  27
TORSDOF 10
