MODEL 780
MODEL 1
REMARK VINA RESULT:    -5.300      0.000      0.000
REMARK INTER + INTRA:          -5.671
REMARK INTER:                  -5.610
REMARK INTRA:                  -0.061
REMARK UNBOUND:                -0.061
REMARK  Name = No_780-gen_results/8p0m/2024-11-27-11-27-31/
REMARK  1 active torsions:
REMARK  status: ('A' for Active; 'I' for Inactive)
REMARK    1  A    between atoms: C_2  and  C_5
REMARK                            x       y       z     vdW  Elec       q    Type
REMARK                         _______ _______ _______ _____ _____    ______ ____
ROOT
ATOM      1  C   UNL A   1     -23.952  -3.793  28.786  0.00  0.00    +0.005 A 
ATOM      2  C   UNL A   1     -24.423  -2.896  29.077  0.00  0.00    +0.055 A 
ATOM      3  C   UNL A   1     -24.763  -4.986  29.034  0.00  0.00    +0.000 A 
ATOM      4  C   UNL A   1     -26.022  -4.913  29.575  0.00  0.00    +0.000 A 
ATOM      5  C   UNL A   1     -26.522  -3.634  29.882  0.00  0.00    +0.000 A 
ATOM      6  C   UNL A   1     -25.740  -2.515  29.587  0.00  0.00    +0.005 A 
ENDROOT
BRANCH   2   7
ATOM      7  C   UNL A   1     -23.645  -1.572  28.811  0.00  0.00    +0.265 C 
ATOM      8  O   UNL A   1     -24.100  -0.567  28.267  0.00  0.00    -0.268 OA
ATOM      9  N   UNL A   1     -22.295  -1.443  29.183  0.00  0.00    -0.200 NA
ATOM     10  C   UNL A   1     -21.551  -0.292  28.868  0.00  0.00    +0.139 C 
ENDBRANCH   2   7
TORSDOF 1
ENDMDL
ENDMDL
