REMARK  Name = No_781-gen_results/8p0m/2024-11-27-11-27-31/
REMARK  5 active torsions:
REMARK  status: ('A' for Active; 'I' for Inactive)
REMARK    1  A    between atoms: C_3  and  C_8
REMARK    2  A    between atoms: C_6  and  O_7
REMARK    3  A    between atoms: O_7  and  C_14
REMARK    4  A    between atoms: C_15  and  C_17
REMARK    5  A    between atoms: C_29  and  C_32
REMARK                            x       y       z     vdW  Elec       q    Type
REMARK                         _______ _______ _______ _____ _____    ______ ____
ROOT
ATOM      1  C   UNL A   1     -30.126  -2.134  30.584  0.00  0.00    +0.148 A 
ATOM      2  C   UNL A   1     -30.573  -2.838  31.688  0.00  0.00    +0.114 A 
ATOM      3  C   UNL A   1     -31.752  -2.444  32.149  0.00  0.00    +0.010 A 
ATOM      4  C   UNL A   1     -32.448  -1.312  31.698  0.00  0.00    +0.005 A 
ATOM      5  C   UNL A   1     -31.890  -0.726  30.547  0.00  0.00    +0.053 A 
ATOM      6  C   UNL A   1     -30.710  -1.105  29.989  0.00  0.00    +0.019 A 
ATOM      7  C   UNL A   1     -32.593   0.519  29.947  0.00  0.00    +0.249 C 
ATOM      8  N   UNL A   1     -32.443   0.870  28.881  0.00  0.00    -0.277 N 
ATOM      9  C   UNL A   1     -32.928   1.929  28.362  0.00  0.00    +0.094 C 
ATOM     10  O   UNL A   1     -33.072   1.296  30.860  0.00  0.00    -0.270 OA
ATOM     11  C   UNL A   1     -32.390   2.422  27.230  0.00  0.00    +0.022 C 
ATOM     12  C   UNL A   1     -31.714   2.177  26.530  0.00  0.00    +0.015 C 
ATOM     13  C   UNL A   1     -31.040   0.810  26.899  0.00  0.00    +0.122 C 
ATOM     14  C   UNL A   1     -31.375   0.301  28.020  0.00  0.00    +0.091 C 
ATOM     15  C   UNL A   1     -30.618  -0.841  28.640  0.00  0.00    +0.050 C 
ENDROOT
BRANCH   2  16
ATOM     16  C   UNL A   1     -29.947  -3.946  32.302  0.00  0.00    +0.391 C 
ATOM     17  O   UNL A   1     -28.953  -3.916  32.685  0.00  0.00    -0.240 OA
ATOM     18  O   UNL A   1     -30.444  -5.131  31.819  0.00  0.00    -0.240 OA
ENDBRANCH   2  16
BRANCH  13  19
ATOM     19  C   UNL A   1     -29.958   0.257  26.010  0.00  0.00    +0.366 C 
ATOM     20  O   UNL A   1     -28.985   0.684  25.905  0.00  0.00    -0.246 OA
ATOM     21  O   UNL A   1     -30.433  -0.808  25.402  0.00  0.00    -0.246 OA
ENDBRANCH  13  19
BRANCH   1  22
ATOM     22  O   UNL A   1     -29.000  -2.701  30.115  0.00  0.00    -0.454 OA
BRANCH  22  28
ATOM     23  C   UNL A   1     -28.016  -0.814  28.878  0.00  0.00    +0.037 A 
ATOM     24  C   UNL A   1     -27.064  -0.119  28.608  0.00  0.00    +0.003 A 
ATOM     25  C   UNL A   1     -25.792  -0.430  29.076  0.00  0.00    +0.000 A 
ATOM     26  C   UNL A   1     -25.576  -1.565  29.936  0.00  0.00    +0.003 A 
ATOM     27  C   UNL A   1     -26.735  -2.300  30.217  0.00  0.00    +0.037 A 
ATOM     28  C   UNL A   1     -27.918  -1.954  29.763  0.00  0.00    +0.145 A 
BRANCH  25  29
ATOM     29  C   UNL A   1     -24.529   0.349  28.800  0.00  0.00    +0.000 A 
ATOM     30  C   UNL A   1     -23.344   0.006  29.166  0.00  0.00    +0.000 A 
ATOM     31  C   UNL A   1     -22.178   0.781  28.778  0.00  0.00    +0.000 A 
ATOM     32  C   UNL A   1     -22.322   1.750  27.773  0.00  0.00    +0.000 A 
ATOM     33  C   UNL A   1     -24.610   1.356  27.748  0.00  0.00    +0.000 A 
ATOM     34  C   UNL A   1     -23.515   2.034  27.307  0.00  0.00    +0.000 A 
ENDBRANCH  25  29
ENDBRANCH  22  28
ENDBRANCH   1  22
TORSDOF 5
