REMARK  Name = outputs/IAG933/test6/raw/output_7810_IAG933_linker_design_.xyz
REMARK  12 active torsions:
REMARK  status: ('A' for Active; 'I' for Inactive)
REMARK    1  A    between atoms: C_1  and  C_2
REMARK    2  A    between atoms: C_1  and  C_8
REMARK    3  A    between atoms: C_1  and  N_37
REMARK    4  A    between atoms: C_13  and  C_36
REMARK    5  A    between atoms: C_14  and  C_15
REMARK    6  A    between atoms: C_21  and  O_22
REMARK    7  A    between atoms: O_22  and  C_23
REMARK    8  A    between atoms: C_23  and  C_24
REMARK    9  A    between atoms: O_29  and  C_30
REMARK   10  A    between atoms: C_34  and  C_35
REMARK   11  A    between atoms: C_35  and  C_41
REMARK   12  A    between atoms: C_41  and  C_42
REMARK                            x       y       z     vdW  Elec       q    Type
REMARK                         _______ _______ _______ _____ _____    ______ ____
ROOT
ATOM      1  F   UNL A   1     -22.350   0.008  29.472  0.00  0.00    -0.212 F 
ATOM      2  C   UNL A   1     -23.461   1.274  27.734  0.00  0.00    +0.187 C 
ATOM      3  C   UNL A   1     -24.876   1.221  27.386  0.00  0.00    +0.003 C 
ATOM      4  N   UNL A   1     -24.809   0.001  29.259  0.00  0.00    -0.280 N 
ATOM      5  C   UNL A   1     -23.425   0.801  29.034  0.00  0.00    +0.269 C 
ATOM      6  C   UNL A   1     -25.570   0.447  28.441  0.00  0.00    +0.022 C 
ENDROOT
BRANCH   3   7
ATOM      7  C   UNL A   1     -25.688   1.614  26.461  0.00  0.00    +0.092 C 
ATOM      8  C   UNL A   1     -26.250   2.920  26.395  0.00  0.00    +0.059 C 
ATOM      9  C   UNL A   1     -27.438   3.091  25.645  0.00  0.00    +0.102 C 
ATOM     10  N   UNL A   1     -28.075   2.089  25.003  0.00  0.00    -0.212 NA
ATOM     11  C   UNL A   1     -27.543   0.849  25.079  0.00  0.00    +0.234 C 
ATOM     12  C   UNL A   1     -26.354   0.576  25.777  0.00  0.00    +0.244 C 
ATOM     13  F   UNL A   1     -25.860  -0.681  25.795  0.00  0.00    -0.227 F 
BRANCH   8  14
ATOM     14  C   UNL A   1     -25.642   4.093  27.123  0.00  0.00    +0.263 C 
ATOM     15  N   UNL A   1     -25.614   5.252  26.449  0.00  0.00    -0.200 NA
ATOM     16  C   UNL A   1     -25.026   6.479  26.963  0.00  0.00    +0.139 C 
ATOM     17  O   UNL A   1     -25.143   3.966  28.243  0.00  0.00    -0.269 OA
ENDBRANCH   8  14
BRANCH  11  18
ATOM     18  O   UNL A   1     -28.193  -0.208  24.477  0.00  0.00    -0.459 OA
BRANCH  18  19
ATOM     19  C   UNL A   1     -29.460   0.005  23.866  0.00  0.00    +0.242 C 
BRANCH  19  20
ATOM     20  C   UNL A   1     -30.065  -1.377  23.573  0.00  0.00    +0.229 C 
ATOM     21  O   UNL A   1     -30.729  -1.878  24.721  0.00  0.00    -0.216 OA
ENDBRANCH  19  20
ENDBRANCH  18  19
ENDBRANCH  11  18
ENDBRANCH   3   7
BRANCH   2  22
ATOM     22  O   UNL A   1     -22.497   1.786  27.015  0.00  0.00    -0.345 OA
ATOM     23  C   UNL A   1     -21.108   1.456  27.403  0.00  0.00    +0.175 C 
ENDBRANCH   2  22
BRANCH   4  24
ATOM     24  C   UNL A   1     -24.855  -1.012  30.143  0.00  0.00    +0.113 C 
BRANCH  24  25
ATOM     25  C   UNL A   1     -24.973  -2.505  29.788  0.00  0.00    -0.003 C 
ATOM     26  C   UNL A   1     -23.906  -3.173  29.146  0.00  0.00    -0.003 C 
ATOM     27  C   UNL A   1     -23.989  -4.549  28.853  0.00  0.00    -0.000 C 
ATOM     28  C   UNL A   1     -25.137  -5.280  29.205  0.00  0.00    -0.000 C 
ATOM     29  C   UNL A   1     -26.232  -4.611  29.784  0.00  0.00    -0.000 C 
ATOM     30  C   UNL A   1     -26.155  -3.232  30.065  0.00  0.00    -0.003 C 
ENDBRANCH  24  25
BRANCH  24  31
ATOM     31  C   UNL A   1     -25.387  -0.679  31.571  0.00  0.00    +0.095 C 
ATOM     32  C   UNL A   1     -25.189   0.773  32.028  0.00  0.00    +0.021 C 
ATOM     33  C   UNL A   1     -25.336   0.684  33.544  0.00  0.00    +0.020 C 
ATOM     34  C   UNL A   1     -24.829  -0.715  33.905  0.00  0.00    +0.089 C 
ATOM     35  N   UNL A   1     -24.758  -1.481  32.646  0.00  0.00    -0.217 NA
ENDBRANCH  24  31
ENDBRANCH   4  24
BRANCH   6  36
ATOM     36  C   UNL A   1     -27.078   0.043  28.681  0.00  0.00    +0.041 C 
BRANCH  36  37
ATOM     37  C   UNL A   1     -27.984   0.676  28.395  0.00  0.00    +0.006 C 
BRANCH  37  41
ATOM     38  C   UNL A   1     -30.014   1.957  28.020  0.00  0.00    +0.000 C 
ATOM     39  C   UNL A   1     -29.651   3.901  29.403  0.00  0.00    +0.000 C 
ATOM     40  C   UNL A   1     -28.809   2.736  29.917  0.00  0.00    +0.000 C 
ATOM     41  C   UNL A   1     -29.054   1.464  29.049  0.00  0.00    +0.000 C 
ATOM     42  C   UNL A   1     -30.119   3.397  28.112  0.00  0.00    +0.000 C 
ENDBRANCH  37  41
ENDBRANCH  36  37
ENDBRANCH   6  36
TORSDOF 12
