REMARK  Name = outputs/IAG933/test6/raw/output_7814_IAG933_linker_design_.xyz
REMARK  13 active torsions:
REMARK  status: ('A' for Active; 'I' for Inactive)
REMARK    1  A    between atoms: C_1  and  C_2
REMARK    2  A    between atoms: C_1  and  C_8
REMARK    3  A    between atoms: C_1  and  N_40
REMARK    4  A    between atoms: C_13  and  C_38
REMARK    5  A    between atoms: C_14  and  C_15
REMARK    6  A    between atoms: C_21  and  O_22
REMARK    7  A    between atoms: O_22  and  C_23
REMARK    8  A    between atoms: C_23  and  C_24
REMARK    9  A    between atoms: N_30  and  C_39
REMARK   10  A    between atoms: N_30  and  C_46
REMARK   11  A    between atoms: C_36  and  C_39
REMARK   12  A    between atoms: N_40  and  C_43
REMARK   13  A    between atoms: N_40  and  C_46
REMARK                            x       y       z     vdW  Elec       q    Type
REMARK                         _______ _______ _______ _____ _____    ______ ____
ROOT
ATOM      1  N   UNL A   1     -24.895   0.096  29.190  0.00  0.00    -0.288 N 
ENDROOT
BRANCH   1   8
ATOM      2 CL   UNL A   1     -22.736   2.452  25.064  0.00  0.00    -0.081 Cl
ATOM      3  C   UNL A   1     -21.738   1.709  27.297  0.00  0.00    +0.110 C 
ATOM      4  N   UNL A   1     -21.368   0.845  28.405  0.00  0.00    -0.240 NA
ATOM      5  C   UNL A   1     -22.415   0.162  29.057  0.00  0.00    +0.113 C 
ATOM      6  C   UNL A   1     -24.083   1.338  27.339  0.00  0.00    +0.029 C 
ATOM      7  C   UNL A   1     -22.906   1.819  26.753  0.00  0.00    +0.078 C 
ATOM      8  C   UNL A   1     -23.953   0.552  28.575  0.00  0.00    +0.069 C 
BRANCH   6   9
ATOM      9  C   UNL A   1     -25.688   1.614  26.461  0.00  0.00    +0.040 C 
ATOM     10  C   UNL A   1     -26.250   2.920  26.395  0.00  0.00    +0.077 C 
ATOM     11  C   UNL A   1     -27.438   3.091  25.645  0.00  0.00    +0.107 C 
ATOM     12  N   UNL A   1     -28.075   2.089  25.003  0.00  0.00    -0.208 NA
ATOM     13  C   UNL A   1     -27.543   0.849  25.079  0.00  0.00    +0.253 C 
ATOM     14  C   UNL A   1     -26.354   0.576  25.777  0.00  0.00    +0.193 C 
ATOM     15  F   UNL A   1     -25.860  -0.681  25.795  0.00  0.00    -0.199 F 
BRANCH  10  16
ATOM     16  C   UNL A   1     -25.642   4.093  27.123  0.00  0.00    +0.266 C 
ATOM     17  N   UNL A   1     -25.614   5.252  26.449  0.00  0.00    -0.200 NA
ATOM     18  C   UNL A   1     -25.026   6.479  26.963  0.00  0.00    +0.139 C 
ATOM     19  O   UNL A   1     -25.143   3.966  28.243  0.00  0.00    -0.268 OA
ENDBRANCH  10  16
BRANCH  13  20
ATOM     20  O   UNL A   1     -28.193  -0.208  24.477  0.00  0.00    -0.456 OA
BRANCH  20  21
ATOM     21  C   UNL A   1     -29.460   0.005  23.866  0.00  0.00    +0.243 C 
BRANCH  21  22
ATOM     22  C   UNL A   1     -30.065  -1.377  23.573  0.00  0.00    +0.229 C 
ATOM     23  O   UNL A   1     -30.729  -1.878  24.721  0.00  0.00    -0.216 OA
ENDBRANCH  21  22
ENDBRANCH  20  21
ENDBRANCH  13  20
ENDBRANCH   6   9
ENDBRANCH   1   8
BRANCH   1  24
ATOM     24  C   UNL A   1     -24.855  -1.012  30.143  0.00  0.00    +0.113 C 
BRANCH  24  25
ATOM     25  C   UNL A   1     -24.973  -2.505  29.788  0.00  0.00    -0.003 C 
ATOM     26  C   UNL A   1     -23.906  -3.173  29.146  0.00  0.00    -0.003 C 
ATOM     27  C   UNL A   1     -23.989  -4.549  28.853  0.00  0.00    -0.000 C 
ATOM     28  C   UNL A   1     -25.137  -5.280  29.205  0.00  0.00    -0.000 C 
ATOM     29  C   UNL A   1     -26.232  -4.611  29.784  0.00  0.00    -0.000 C 
ATOM     30  C   UNL A   1     -26.155  -3.232  30.065  0.00  0.00    -0.003 C 
ENDBRANCH  24  25
BRANCH  24  31
ATOM     31  C   UNL A   1     -25.387  -0.679  31.571  0.00  0.00    +0.095 C 
ATOM     32  C   UNL A   1     -25.189   0.773  32.028  0.00  0.00    +0.021 C 
ATOM     33  C   UNL A   1     -25.336   0.684  33.544  0.00  0.00    +0.020 C 
ATOM     34  C   UNL A   1     -24.829  -0.715  33.905  0.00  0.00    +0.089 C 
ATOM     35  N   UNL A   1     -24.758  -1.481  32.646  0.00  0.00    -0.217 NA
ENDBRANCH  24  31
ENDBRANCH   1  24
BRANCH   1  36
ATOM     36  C   UNL A   1     -25.827   0.883  29.045  0.00  0.00    +0.186 C 
BRANCH  36  37
ATOM     37  N   UNL A   1     -26.744   1.415  29.216  0.00  0.00    -0.164 NA
BRANCH  37  38
ATOM     38  C   UNL A   1     -27.858   0.355  29.414  0.00  0.00    +0.250 C 
ATOM     39  O   UNL A   1     -27.823  -0.952  29.085  0.00  0.00    -0.199 OA
BRANCH  38  43
ATOM     40  C   UNL A   1     -29.010   2.453  28.880  0.00  0.00    +0.001 C 
ATOM     41  N   UNL A   1     -32.044   3.318  26.942  0.00  0.00    -0.128 NA
ATOM     42  C   UNL A   1     -30.999   2.562  27.498  0.00  0.00    +0.089 C 
ATOM     43  C   UNL A   1     -29.068   1.051  28.845  0.00  0.00    +0.025 C 
ATOM     44  C   UNL A   1     -29.951   3.231  28.187  0.00  0.00    +0.018 C 
ATOM     45  C   UNL A   1     -30.083   0.392  28.147  0.00  0.00    +0.001 C 
ATOM     46  C   UNL A   1     -31.069   1.151  27.451  0.00  0.00    +0.018 C 
ENDBRANCH  38  43
ENDBRANCH  37  38
ENDBRANCH  36  37
ENDBRANCH   1  36
TORSDOF 13
