REMARK  Name = outputs/IAG933/test6/raw/output_7819_IAG933_linker_design_.xyz
REMARK  12 active torsions:
REMARK  status: ('A' for Active; 'I' for Inactive)
REMARK    1  A    between atoms: C_1  and  C_2
REMARK    2  A    between atoms: C_1  and  C_8
REMARK    3  A    between atoms: C_1  and  O_34
REMARK    4  A    between atoms: C_13  and  C_43
REMARK    5  A    between atoms: C_14  and  C_15
REMARK    6  A    between atoms: C_21  and  O_22
REMARK    7  A    between atoms: O_22  and  C_23
REMARK    8  A    between atoms: C_23  and  C_24
REMARK    9  A    between atoms: C_30  and  C_45
REMARK   10  A    between atoms: O_34  and  C_45
REMARK   11  A    between atoms: C_36  and  N_41
REMARK   12  A    between atoms: N_41  and  C_45
REMARK                            x       y       z     vdW  Elec       q    Type
REMARK                         _______ _______ _______ _____ _____    ______ ____
ROOT
ATOM      1  C   UNL A   1     -23.051   1.708  25.890  0.00  0.00    +0.162 C 
ATOM      2  C   UNL A   1     -24.113   0.906  28.241  0.00  0.00    +0.073 C 
ATOM      3  C   UNL A   1     -21.553   1.357  27.228  0.00  0.00    +0.029 C 
ATOM      4  C   UNL A   1     -21.680   0.776  28.291  0.00  0.00    -0.030 C 
ATOM      5  C   UNL A   1     -22.947   0.530  28.915  0.00  0.00    -0.027 C 
ATOM      6  C   UNL A   1     -21.590   1.928  25.956  0.00  0.00    +0.040 C 
ATOM      7  F   UNL A   1     -23.149   0.860  24.738  0.00  0.00    -0.237 F 
ATOM      8  C   UNL A   1     -24.312   1.258  26.832  0.00  0.00    +0.048 C 
ENDROOT
BRANCH   8   9
ATOM      9  C   UNL A   1     -25.688   1.614  26.461  0.00  0.00    +0.073 C 
ATOM     10  C   UNL A   1     -26.250   2.920  26.395  0.00  0.00    +0.055 C 
ATOM     11  C   UNL A   1     -27.438   3.091  25.645  0.00  0.00    +0.102 C 
ATOM     12  N   UNL A   1     -28.075   2.089  25.003  0.00  0.00    -0.212 NA
ATOM     13  C   UNL A   1     -27.543   0.849  25.079  0.00  0.00    +0.234 C 
ATOM     14  C   UNL A   1     -26.354   0.576  25.777  0.00  0.00    +0.240 C 
ATOM     15  F   UNL A   1     -25.860  -0.681  25.795  0.00  0.00    -0.227 F 
BRANCH  10  16
ATOM     16  C   UNL A   1     -25.642   4.093  27.123  0.00  0.00    +0.262 C 
ATOM     17  N   UNL A   1     -25.614   5.252  26.449  0.00  0.00    -0.200 NA
ATOM     18  C   UNL A   1     -25.026   6.479  26.963  0.00  0.00    +0.139 C 
ATOM     19  O   UNL A   1     -25.143   3.966  28.243  0.00  0.00    -0.269 OA
ENDBRANCH  10  16
BRANCH  13  20
ATOM     20  O   UNL A   1     -28.193  -0.208  24.477  0.00  0.00    -0.459 OA
BRANCH  20  21
ATOM     21  C   UNL A   1     -29.460   0.005  23.866  0.00  0.00    +0.242 C 
BRANCH  21  22
ATOM     22  C   UNL A   1     -30.065  -1.377  23.573  0.00  0.00    +0.229 C 
ATOM     23  O   UNL A   1     -30.729  -1.878  24.721  0.00  0.00    -0.216 OA
ENDBRANCH  21  22
ENDBRANCH  20  21
ENDBRANCH  13  20
ENDBRANCH   8   9
BRANCH   2  24
ATOM     24  C   UNL A   1     -25.198   1.030  29.080  0.00  0.00    +0.213 C 
BRANCH  24  25
ATOM     25  O   UNL A   1     -25.694  -0.331  29.209  0.00  0.00    -0.333 OA
BRANCH  25  26
ATOM     26  C   UNL A   1     -24.855  -1.012  30.143  0.00  0.00    +0.155 C 
BRANCH  26  27
ATOM     27  C   UNL A   1     -24.973  -2.505  29.788  0.00  0.00    +0.006 C 
ATOM     28  C   UNL A   1     -23.906  -3.173  29.146  0.00  0.00    -0.002 C 
ATOM     29  C   UNL A   1     -23.989  -4.549  28.853  0.00  0.00    -0.000 C 
ATOM     30  C   UNL A   1     -25.137  -5.280  29.205  0.00  0.00    -0.000 C 
ATOM     31  C   UNL A   1     -26.232  -4.611  29.784  0.00  0.00    -0.000 C 
ATOM     32  C   UNL A   1     -26.155  -3.232  30.065  0.00  0.00    -0.002 C 
ENDBRANCH  26  27
BRANCH  26  33
ATOM     33  C   UNL A   1     -25.387  -0.679  31.571  0.00  0.00    +0.104 C 
ATOM     34  C   UNL A   1     -25.189   0.773  32.028  0.00  0.00    +0.022 C 
ATOM     35  C   UNL A   1     -25.336   0.684  33.544  0.00  0.00    +0.020 C 
ATOM     36  C   UNL A   1     -24.829  -0.715  33.905  0.00  0.00    +0.089 C 
ATOM     37  N   UNL A   1     -24.758  -1.481  32.646  0.00  0.00    -0.217 NA
ENDBRANCH  26  33
ENDBRANCH  25  26
ENDBRANCH  24  25
BRANCH  24  38
ATOM     38  N   UNL A   1     -25.877   2.136  29.756  0.00  0.00    -0.207 NA
BRANCH  38  42
ATOM     39  C   UNL A   1     -28.720   3.588  31.026  0.00  0.00    +0.002 C 
ATOM     40  C   UNL A   1     -29.361   2.477  31.569  0.00  0.00    +0.003 C 
ATOM     41  C   UNL A   1     -28.207   0.997  30.047  0.00  0.00    +0.210 C 
ATOM     42  C   UNL A   1     -27.254   2.115  29.892  0.00  0.00    +0.107 C 
ATOM     43  C   UNL A   1     -29.168   1.206  31.034  0.00  0.00    +0.043 C 
ATOM     44  O   UNL A   1     -28.148  -0.125  29.289  0.00  0.00    -0.285 OA
ATOM     45  C   UNL A   1     -27.653   3.359  30.093  0.00  0.00    +0.019 C 
ENDBRANCH  38  42
ENDBRANCH  24  38
ENDBRANCH   2  24
TORSDOF 12
