MODEL 781
MODEL 1
REMARK VINA RESULT:    -8.152      0.000      0.000
REMARK INTER + INTRA:         -11.303
REMARK INTER:                 -10.534
REMARK INTRA:                  -0.768
REMARK UNBOUND:                -0.768
REMARK  Name = No_781-gen_results/8p0m/2024-11-27-11-27-31/
REMARK  5 active torsions:
REMARK  status: ('A' for Active; 'I' for Inactive)
REMARK    1  A    between atoms: C_3  and  C_8
REMARK    2  A    between atoms: C_6  and  O_7
REMARK    3  A    between atoms: O_7  and  C_14
REMARK    4  A    between atoms: C_15  and  C_17
REMARK    5  A    between atoms: C_29  and  C_32
REMARK                            x       y       z     vdW  Elec       q    Type
REMARK                         _______ _______ _______ _____ _____    ______ ____
ROOT
ATOM      1  C   UNL A   1     -27.377 -11.120   7.874  0.00  0.00    +0.148 A 
ATOM      2  C   UNL A   1     -27.067 -10.927   6.540  0.00  0.00    +0.114 A 
ATOM      3  C   UNL A   1     -27.467 -11.904   5.737  0.00  0.00    +0.010 A 
ATOM      4  C   UNL A   1     -28.013 -13.122   6.171  0.00  0.00    +0.005 A 
ATOM      5  C   UNL A   1     -28.305 -13.152   7.547  0.00  0.00    +0.053 A 
ATOM      6  C   UNL A   1     -27.968 -12.170   8.424  0.00  0.00    +0.019 A 
ATOM      7  C   UNL A   1     -28.934 -14.443   8.132  0.00  0.00    +0.249 C 
ATOM      8  N   UNL A   1     -29.497 -14.476   9.114  0.00  0.00    -0.277 N 
ATOM      9  C   UNL A   1     -29.961 -15.519   9.681  0.00  0.00    +0.094 C 
ATOM     10  O   UNL A   1     -28.458 -15.510   7.583  0.00  0.00    -0.270 OA
ATOM     11  C   UNL A   1     -30.274 -15.482  10.990  0.00  0.00    +0.022 C 
ATOM     12  C   UNL A   1     -30.352 -14.824  11.744  0.00  0.00    +0.015 C 
ATOM     13  C   UNL A   1     -29.930 -13.397  11.247  0.00  0.00    +0.122 C 
ATOM     14  C   UNL A   1     -29.489 -13.324  10.052  0.00  0.00    +0.091 C 
ATOM     15  C   UNL A   1     -28.787 -12.101   9.530  0.00  0.00    +0.050 C 
ENDROOT
BRANCH   2  16
ATOM     16  C   UNL A   1     -26.451  -9.794   5.964  0.00  0.00    +0.391 C 
ATOM     17  O   UNL A   1     -26.996  -9.019   5.475  0.00  0.00    -0.240 OA
ATOM     18  O   UNL A   1     -25.171 -10.075   5.554  0.00  0.00    -0.240 OA
ENDBRANCH   2  16
BRANCH  13  19
ATOM     19  C   UNL A   1     -29.928 -12.248  12.220  0.00  0.00    +0.366 C 
ATOM     20  O   UNL A   1     -29.087 -11.956  12.809  0.00  0.00    -0.246 OA
ATOM     21  O   UNL A   1     -31.125 -11.703  12.211  0.00  0.00    -0.246 OA
ENDBRANCH  13  19
BRANCH   1  22
ATOM     22  O   UNL A   1     -27.056 -10.018   8.574  0.00  0.00    -0.454 OA
BRANCH  22  28
ATOM     23  C   UNL A   1     -29.369  -9.181   8.483  0.00  0.00    +0.037 A 
ATOM     24  C   UNL A   1     -30.192  -8.341   8.764  0.00  0.00    +0.003 A 
ATOM     25  C   UNL A   1     -29.822  -7.149   9.378  0.00  0.00    +0.000 A 
ATOM     26  C   UNL A   1     -28.452  -6.897   9.741  0.00  0.00    +0.003 A 
ATOM     27  C   UNL A   1     -27.569  -7.931   9.401  0.00  0.00    +0.037 A 
ATOM     28  C   UNL A   1     -27.972  -9.046   8.836  0.00  0.00    +0.145 A 
BRANCH  25  29
ATOM     29  C   UNL A   1     -30.751  -6.025   9.766  0.00  0.00    +0.000 A 
ATOM     30  C   UNL A   1     -31.394  -5.935  10.877  0.00  0.00    +0.000 A 
ATOM     31  C   UNL A   1     -32.200  -4.769  11.194  0.00  0.00    +0.000 A 
ATOM     32  C   UNL A   1     -32.053  -3.619  10.402  0.00  0.00    +0.000 A 
ATOM     33  C   UNL A   1     -30.630  -4.793   8.993  0.00  0.00    +0.000 A 
ATOM     34  C   UNL A   1     -31.309  -3.661   9.322  0.00  0.00    +0.000 A 
ENDBRANCH  25  29
ENDBRANCH  22  28
ENDBRANCH   1  22
TORSDOF 5
ENDMDL
ENDMDL
