REMARK  Name = No_782-gen_results/8p0m/2024-11-27-11-27-31/
REMARK  11 active torsions:
REMARK  status: ('A' for Active; 'I' for Inactive)
REMARK    1  A    between atoms: C_3  and  C_7
REMARK    2  A    between atoms: C_7  and  C_15
REMARK    3  A    between atoms: C_8  and  C_9
REMARK    4  A    between atoms: C_15  and  C_16
REMARK    5  A    between atoms: C_16  and  C_17
REMARK    6  A    between atoms: C_16  and  C_29
REMARK    7  A    between atoms: C_17  and  C_18
REMARK    8  A    between atoms: C_18  and  C_20
REMARK    9  A    between atoms: C_21  and  C_22
REMARK   10  A    between atoms: C_22  and  C_23
REMARK   11  A    between atoms: C_29  and  C_30
REMARK                            x       y       z     vdW  Elec       q    Type
REMARK                         _______ _______ _______ _____ _____    ______ ____
ROOT
ATOM      1  C   UNL A   1     -23.974   0.637  27.591  0.00  0.00    +0.009 C 
ENDROOT
BRANCH   1   2
ATOM      2  C   UNL A   1     -25.088  -0.338  27.389  0.00  0.00    +0.028 C 
BRANCH   2   3
ATOM      3  C   UNL A   1     -26.399   0.295  27.228  0.00  0.00    -0.012 C 
ATOM      4  C   UNL A   1     -26.902   0.728  26.213  0.00  0.00    +0.054 C 
ATOM      5 CL   UNL A   1     -25.989   0.489  24.726  0.00  0.00    -0.083 Cl
BRANCH   3   8
ATOM      6  C   UNL A   1     -28.016  -0.814  28.878  0.00  0.00    -0.000 A 
ATOM      7  C   UNL A   1     -28.469  -0.785  29.829  0.00  0.00    -0.000 A 
ATOM      8  C   UNL A   1     -27.136   0.236  28.535  0.00  0.00    -0.003 A 
ATOM      9  C   UNL A   1     -26.875   1.282  29.398  0.00  0.00    -0.000 A 
ATOM     10  C   UNL A   1     -28.361   0.199  30.924  0.00  0.00    -0.000 A 
ATOM     11  C   UNL A   1     -27.528   1.223  30.636  0.00  0.00    -0.000 A 
ENDBRANCH   3   8
BRANCH   4  12
ATOM     12  C   UNL A   1     -28.229   1.259  26.197  0.00  0.00    +0.010 A 
ATOM     13  C   UNL A   1     -28.863   1.644  27.229  0.00  0.00    +0.001 A 
ATOM     14  C   UNL A   1     -30.185   2.371  26.960  0.00  0.00    +0.000 A 
ATOM     15  C   UNL A   1     -30.597   2.477  25.652  0.00  0.00    +0.000 A 
ATOM     16  C   UNL A   1     -28.657   1.690  24.854  0.00  0.00    +0.001 A 
ATOM     17  C   UNL A   1     -29.841   2.229  24.617  0.00  0.00    +0.000 A 
ENDBRANCH   4  12
ENDBRANCH   2   3
ENDBRANCH   1   2
BRANCH   1  18
ATOM     18  C   UNL A   1     -22.967   0.355  28.573  0.00  0.00    +0.005 C 
BRANCH  18  19
ATOM     19  C   UNL A   1     -23.127  -0.375  29.712  0.00  0.00    +0.026 C 
BRANCH  19  20
ATOM     20  C   UNL A   1     -23.580   0.208  30.672  0.00  0.00    -0.030 C 
ATOM     21  C   UNL A   1     -23.963   1.535  30.827  0.00  0.00    -0.026 C 
BRANCH  21  22
ATOM     22  C   UNL A   1     -24.530   2.105  32.025  0.00  0.00    +0.052 C 
BRANCH  22  23
ATOM     23  C   UNL A   1     -24.761   3.518  32.127  0.00  0.00    -0.018 A 
ATOM     24  C   UNL A   1     -25.081   4.132  33.330  0.00  0.00    -0.004 A 
ATOM     25  C   UNL A   1     -25.073   5.554  33.422  0.00  0.00    -0.000 A 
ATOM     26  C   UNL A   1     -24.703   6.325  32.289  0.00  0.00    -0.000 A 
ATOM     27  C   UNL A   1     -24.528   5.741  31.104  0.00  0.00    -0.000 A 
ATOM     28  C   UNL A   1     -24.431   4.387  31.040  0.00  0.00    -0.004 A 
ENDBRANCH  22  23
ENDBRANCH  21  22
ENDBRANCH  19  20
ENDBRANCH  18  19
ENDBRANCH   1  18
BRANCH   1  29
ATOM     29  C   UNL A   1     -23.842   1.785  26.753  0.00  0.00    +0.027 C 
BRANCH  29  30
ATOM     30  C   UNL A   1     -24.630   2.935  26.780  0.00  0.00    -0.022 A 
ATOM     31  C   UNL A   1     -24.398   4.067  26.030  0.00  0.00    -0.004 A 
ATOM     32  C   UNL A   1     -25.230   5.211  26.170  0.00  0.00    -0.000 A 
ATOM     33  C   UNL A   1     -26.087   5.279  27.327  0.00  0.00    -0.000 A 
ATOM     34  C   UNL A   1     -26.241   4.179  28.164  0.00  0.00    -0.000 A 
ATOM     35  C   UNL A   1     -25.462   3.141  27.966  0.00  0.00    -0.004 A 
ENDBRANCH  29  30
ENDBRANCH   1  29
TORSDOF 11
