REMARK  Name = outputs/IAG933/test6/raw/output_7822_IAG933_linker_design_.xyz
REMARK  14 active torsions:
REMARK  status: ('A' for Active; 'I' for Inactive)
REMARK    1  A    between atoms: C_1  and  C_2
REMARK    2  A    between atoms: C_1  and  C_8
REMARK    3  A    between atoms: C_1  and  C_35
REMARK    4  A    between atoms: C_13  and  N_32
REMARK    5  A    between atoms: C_14  and  C_15
REMARK    6  A    between atoms: C_21  and  O_22
REMARK    7  A    between atoms: O_22  and  C_23
REMARK    8  A    between atoms: C_23  and  C_24
REMARK    9  A    between atoms: C_29  and  C_33
REMARK   10  A    between atoms: N_32  and  C_33
REMARK   11  A    between atoms: N_32  and  C_35
REMARK   12  A    between atoms: N_34  and  C_37
REMARK   13  A    between atoms: C_35  and  N_40
REMARK   14  A    between atoms: C_37  and  N_40
REMARK                            x       y       z     vdW  Elec       q    Type
REMARK                         _______ _______ _______ _____ _____    ______ ____
ROOT
ATOM      1  C   UNL A   1     -25.559   0.112  29.095  0.00  0.00    +0.139 C 
ENDROOT
BRANCH   1   2
ATOM      2  C   UNL A   1     -24.855  -1.012  30.143  0.00  0.00    +0.070 C 
BRANCH   2   3
ATOM      3  C   UNL A   1     -24.973  -2.505  29.788  0.00  0.00    -0.018 C 
ATOM      4  C   UNL A   1     -23.906  -3.173  29.146  0.00  0.00    -0.004 C 
ATOM      5  C   UNL A   1     -23.989  -4.549  28.853  0.00  0.00    -0.000 C 
ATOM      6  C   UNL A   1     -25.137  -5.280  29.205  0.00  0.00    -0.000 C 
ATOM      7  C   UNL A   1     -26.232  -4.611  29.784  0.00  0.00    -0.000 C 
ATOM      8  C   UNL A   1     -26.155  -3.232  30.065  0.00  0.00    -0.004 C 
ENDBRANCH   2   3
BRANCH   2   9
ATOM      9  C   UNL A   1     -25.387  -0.679  31.571  0.00  0.00    +0.080 C 
ATOM     10  C   UNL A   1     -25.189   0.773  32.028  0.00  0.00    +0.019 C 
ATOM     11  C   UNL A   1     -25.336   0.684  33.544  0.00  0.00    +0.020 C 
ATOM     12  C   UNL A   1     -24.829  -0.715  33.905  0.00  0.00    +0.089 C 
ATOM     13  N   UNL A   1     -24.758  -1.481  32.646  0.00  0.00    -0.219 NA
ENDBRANCH   2   9
ENDBRANCH   1   2
BRANCH   1  14
ATOM     14  N   UNL A   1     -24.947   1.164  27.774  0.00  0.00    -0.248 NA
BRANCH  14  15
ATOM     15  C   UNL A   1     -25.688   1.614  26.461  0.00  0.00    +0.130 C 
ATOM     16  C   UNL A   1     -26.250   2.920  26.395  0.00  0.00    +0.070 C 
ATOM     17  C   UNL A   1     -27.438   3.091  25.645  0.00  0.00    +0.103 C 
ATOM     18  N   UNL A   1     -28.075   2.089  25.003  0.00  0.00    -0.212 NA
ATOM     19  C   UNL A   1     -27.543   0.849  25.079  0.00  0.00    +0.235 C 
ATOM     20  C   UNL A   1     -26.354   0.576  25.777  0.00  0.00    +0.255 C 
ATOM     21  F   UNL A   1     -25.860  -0.681  25.795  0.00  0.00    -0.225 F 
BRANCH  16  22
ATOM     22  C   UNL A   1     -25.642   4.093  27.123  0.00  0.00    +0.264 C 
ATOM     23  N   UNL A   1     -25.614   5.252  26.449  0.00  0.00    -0.200 NA
ATOM     24  C   UNL A   1     -25.026   6.479  26.963  0.00  0.00    +0.139 C 
ATOM     25  O   UNL A   1     -25.143   3.966  28.243  0.00  0.00    -0.269 OA
ENDBRANCH  16  22
BRANCH  19  26
ATOM     26  O   UNL A   1     -28.193  -0.208  24.477  0.00  0.00    -0.459 OA
BRANCH  26  27
ATOM     27  C   UNL A   1     -29.460   0.005  23.866  0.00  0.00    +0.242 C 
BRANCH  27  28
ATOM     28  C   UNL A   1     -30.065  -1.377  23.573  0.00  0.00    +0.229 C 
ATOM     29  O   UNL A   1     -30.729  -1.878  24.721  0.00  0.00    -0.216 OA
ENDBRANCH  27  28
ENDBRANCH  26  27
ENDBRANCH  19  26
ENDBRANCH  14  15
BRANCH  14  30
ATOM     30  C   UNL A   1     -23.623   1.908  27.105  0.00  0.00    +0.139 C 
BRANCH  30  32
ATOM     31  O   UNL A   1     -22.648   0.162  28.535  0.00  0.00    -0.295 OA
ATOM     32  C   UNL A   1     -22.496   1.083  27.734  0.00  0.00    +0.167 C 
ATOM     33  C   UNL A   1     -21.112   1.358  27.225  0.00  0.00    +0.074 C 
ENDBRANCH  30  32
ENDBRANCH  14  30
ENDBRANCH   1  14
BRANCH   1  34
ATOM     34  N   UNL A   1     -26.976  -0.539  29.169  0.00  0.00    -0.186 NA
BRANCH  34  35
ATOM     35  C   UNL A   1     -28.257  -0.834  29.354  0.00  0.00    +0.165 C 
BRANCH  35  37
ATOM     36  C   UNL A   1     -29.878   2.085  27.744  0.00  0.00    +0.017 C 
ATOM     37  N   UNL A   1     -29.326   0.066  28.857  0.00  0.00    -0.258 NA
ATOM     38  C   UNL A   1     -30.388  -0.567  28.114  0.00  0.00    +0.073 C 
ATOM     39  C   UNL A   1     -31.293   1.607  28.173  0.00  0.00    +0.003 C 
ATOM     40  C   UNL A   1     -28.834   1.187  28.328  0.00  0.00    +0.073 C 
ATOM     41  C   UNL A   1     -31.468   0.279  27.468  0.00  0.00    +0.017 C 
ENDBRANCH  35  37
ENDBRANCH  34  35
ENDBRANCH   1  34
TORSDOF 14
