REMARK  Name = outputs/IAG933/test6/raw/output_7823_IAG933_linker_design_.xyz
REMARK  12 active torsions:
REMARK  status: ('A' for Active; 'I' for Inactive)
REMARK    1  A    between atoms: C_1  and  C_2
REMARK    2  A    between atoms: C_1  and  C_8
REMARK    3  A    between atoms: C_1  and  N_30
REMARK    4  A    between atoms: C_13  and  C_33
REMARK    5  A    between atoms: C_14  and  C_15
REMARK    6  A    between atoms: C_21  and  O_22
REMARK    7  A    between atoms: O_22  and  C_23
REMARK    8  A    between atoms: C_23  and  C_24
REMARK    9  A    between atoms: C_29  and  C_37
REMARK   10  A    between atoms: C_29  and  C_42
REMARK   11  A    between atoms: C_32  and  C_35
REMARK   12  A    between atoms: C_36  and  C_37
REMARK                            x       y       z     vdW  Elec       q    Type
REMARK                         _______ _______ _______ _____ _____    ______ ____
ROOT
ATOM      1  N   UNL A   1     -24.761   0.077  29.254  0.00  0.00    -0.284 N 
ATOM      2  C   UNL A   1     -23.435   0.308  28.849  0.00  0.00    +0.063 C 
ATOM      3  C   UNL A   1     -24.953   1.171  27.466  0.00  0.00    -0.003 C 
ATOM      4  C   UNL A   1     -23.479   1.130  27.595  0.00  0.00    +0.023 C 
ATOM      5  C   UNL A   1     -25.654   0.604  28.506  0.00  0.00    +0.058 C 
ENDROOT
BRANCH   3   6
ATOM      6  C   UNL A   1     -25.688   1.614  26.461  0.00  0.00    +0.093 C 
ATOM      7  C   UNL A   1     -26.250   2.920  26.395  0.00  0.00    +0.059 C 
ATOM      8  C   UNL A   1     -27.438   3.091  25.645  0.00  0.00    +0.102 C 
ATOM      9  N   UNL A   1     -28.075   2.089  25.003  0.00  0.00    -0.212 NA
ATOM     10  C   UNL A   1     -27.543   0.849  25.079  0.00  0.00    +0.234 C 
ATOM     11  C   UNL A   1     -26.354   0.576  25.777  0.00  0.00    +0.244 C 
ATOM     12  F   UNL A   1     -25.860  -0.681  25.795  0.00  0.00    -0.227 F 
BRANCH   7  13
ATOM     13  C   UNL A   1     -25.642   4.093  27.123  0.00  0.00    +0.263 C 
ATOM     14  N   UNL A   1     -25.614   5.252  26.449  0.00  0.00    -0.200 NA
ATOM     15  C   UNL A   1     -25.026   6.479  26.963  0.00  0.00    +0.139 C 
ATOM     16  O   UNL A   1     -25.143   3.966  28.243  0.00  0.00    -0.269 OA
ENDBRANCH   7  13
BRANCH  10  17
ATOM     17  O   UNL A   1     -28.193  -0.208  24.477  0.00  0.00    -0.459 OA
BRANCH  17  18
ATOM     18  C   UNL A   1     -29.460   0.005  23.866  0.00  0.00    +0.242 C 
BRANCH  18  19
ATOM     19  C   UNL A   1     -30.065  -1.377  23.573  0.00  0.00    +0.229 C 
ATOM     20  O   UNL A   1     -30.729  -1.878  24.721  0.00  0.00    -0.216 OA
ENDBRANCH  18  19
ENDBRANCH  17  18
ENDBRANCH  10  17
ENDBRANCH   3   6
BRANCH   4  21
ATOM     21  C   UNL A   1     -22.459   1.481  26.796  0.00  0.00    +0.194 C 
ATOM     22 CL   UNL A   1     -22.604   1.708  25.037  0.00  0.00    -0.089 Cl
ATOM     23  N   UNL A   1     -21.145   1.760  27.391  0.00  0.00    -0.110 NA
ENDBRANCH   4  21
BRANCH   5  24
ATOM     24  C   UNL A   1     -27.092   0.258  28.745  0.00  0.00    +0.217 C 
ATOM     25  O   UNL A   1     -27.521  -0.894  28.211  0.00  0.00    -0.214 OA
BRANCH  24  27
ATOM     26  O   UNL A   1     -28.273   2.415  28.139  0.00  0.00    -0.220 OA
ATOM     27  C   UNL A   1     -28.289   1.153  28.577  0.00  0.00    +0.188 C 
BRANCH  27  29
ATOM     28  C   UNL A   1     -30.651   1.617  28.691  0.00  0.00    +0.003 C 
ATOM     29  C   UNL A   1     -29.627   0.546  28.555  0.00  0.00    +0.033 C 
ATOM     30  C   UNL A   1     -29.891  -0.219  27.266  0.00  0.00    +0.003 C 
ENDBRANCH  27  29
ENDBRANCH  24  27
ENDBRANCH   5  24
BRANCH   1  31
ATOM     31  C   UNL A   1     -24.855  -1.012  30.143  0.00  0.00    +0.115 C 
BRANCH  31  32
ATOM     32  C   UNL A   1     -24.973  -2.505  29.788  0.00  0.00    -0.003 C 
ATOM     33  C   UNL A   1     -23.906  -3.173  29.146  0.00  0.00    -0.003 C 
ATOM     34  C   UNL A   1     -23.989  -4.549  28.853  0.00  0.00    -0.000 C 
ATOM     35  C   UNL A   1     -25.137  -5.280  29.205  0.00  0.00    -0.000 C 
ATOM     36  C   UNL A   1     -26.232  -4.611  29.784  0.00  0.00    -0.000 C 
ATOM     37  C   UNL A   1     -26.155  -3.232  30.065  0.00  0.00    -0.003 C 
ENDBRANCH  31  32
BRANCH  31  38
ATOM     38  C   UNL A   1     -25.387  -0.679  31.571  0.00  0.00    +0.095 C 
ATOM     39  C   UNL A   1     -25.189   0.773  32.028  0.00  0.00    +0.021 C 
ATOM     40  C   UNL A   1     -25.336   0.684  33.544  0.00  0.00    +0.020 C 
ATOM     41  C   UNL A   1     -24.829  -0.715  33.905  0.00  0.00    +0.089 C 
ATOM     42  N   UNL A   1     -24.758  -1.481  32.646  0.00  0.00    -0.217 NA
ENDBRANCH  31  38
ENDBRANCH   1  31
TORSDOF 12
