REMARK  Name = outputs/IAG933/test6/raw/output_7827_IAG933_linker_design_.xyz
REMARK  15 active torsions:
REMARK  status: ('A' for Active; 'I' for Inactive)
REMARK    1  A    between atoms: C_1  and  C_2
REMARK    2  A    between atoms: C_1  and  C_8
REMARK    3  A    between atoms: C_9  and  C_36
REMARK    4  A    between atoms: C_13  and  N_34
REMARK    5  A    between atoms: C_14  and  C_15
REMARK    6  A    between atoms: C_21  and  O_22
REMARK    7  A    between atoms: O_22  and  C_23
REMARK    8  A    between atoms: C_23  and  C_24
REMARK    9  A    between atoms: C_28  and  O_37
REMARK   10  A    between atoms: C_28  and  C_42
REMARK   11  A    between atoms: C_30  and  C_42
REMARK   12  A    between atoms: C_36  and  O_37
REMARK   13  A    between atoms: C_36  and  C_43
REMARK   14  A    between atoms: C_38  and  C_39
REMARK   15  A    between atoms: C_39  and  C_43
REMARK                            x       y       z     vdW  Elec       q    Type
REMARK                         _______ _______ _______ _____ _____    ______ ____
ROOT
ATOM      1  O   UNL A   1     -23.856   1.119  29.931  0.00  0.00    -0.356 OA
ENDROOT
BRANCH   1   2
ATOM      2  C   UNL A   1     -22.566   1.649  29.425  0.00  0.00    +0.151 C 
BRANCH   2   4
ATOM      3  C   UNL A   1     -20.789   1.903  27.458  0.00  0.00    +0.012 C 
ATOM      4  C   UNL A   1     -22.189   1.460  27.883  0.00  0.00    +0.108 C 
BRANCH   4   5
ATOM      5  C   UNL A   1     -23.315   1.591  26.875  0.00  0.00    +0.248 C 
ATOM      6  N   UNL A   1     -24.616   1.401  27.308  0.00  0.00    -0.176 NA
ATOM      7  O   UNL A   1     -23.042   1.899  25.714  0.00  0.00    -0.273 OA
BRANCH   6   8
ATOM      8  C   UNL A   1     -25.688   1.614  26.461  0.00  0.00    +0.111 C 
ATOM      9  C   UNL A   1     -26.250   2.920  26.395  0.00  0.00    +0.092 C 
ATOM     10  C   UNL A   1     -27.438   3.091  25.645  0.00  0.00    +0.108 C 
ATOM     11  N   UNL A   1     -28.075   2.089  25.003  0.00  0.00    -0.208 NA
ATOM     12  C   UNL A   1     -27.543   0.849  25.079  0.00  0.00    +0.255 C 
ATOM     13  C   UNL A   1     -26.354   0.576  25.777  0.00  0.00    +0.208 C 
ATOM     14  F   UNL A   1     -25.860  -0.681  25.795  0.00  0.00    -0.198 F 
BRANCH   9  15
ATOM     15  C   UNL A   1     -25.642   4.093  27.123  0.00  0.00    +0.268 C 
ATOM     16  N   UNL A   1     -25.614   5.252  26.449  0.00  0.00    -0.200 NA
ATOM     17  C   UNL A   1     -25.026   6.479  26.963  0.00  0.00    +0.139 C 
ATOM     18  O   UNL A   1     -25.143   3.966  28.243  0.00  0.00    -0.268 OA
ENDBRANCH   9  15
BRANCH  12  19
ATOM     19  O   UNL A   1     -28.193  -0.208  24.477  0.00  0.00    -0.456 OA
BRANCH  19  20
ATOM     20  C   UNL A   1     -29.460   0.005  23.866  0.00  0.00    +0.243 C 
BRANCH  20  21
ATOM     21  C   UNL A   1     -30.065  -1.377  23.573  0.00  0.00    +0.229 C 
ATOM     22  O   UNL A   1     -30.729  -1.878  24.721  0.00  0.00    -0.216 OA
ENDBRANCH  20  21
ENDBRANCH  19  20
ENDBRANCH  12  19
ENDBRANCH   6   8
ENDBRANCH   4   5
ENDBRANCH   2   4
ENDBRANCH   1   2
BRANCH   1  23
ATOM     23  C   UNL A   1     -24.128   1.510  31.293  0.00  0.00    +0.117 C 
BRANCH  23  25
ATOM     24  C   UNL A   1     -25.387  -0.679  31.571  0.00  0.00    +0.080 C 
ATOM     25  C   UNL A   1     -25.189   0.773  32.028  0.00  0.00    +0.045 C 
ATOM     26  C   UNL A   1     -25.336   0.684  33.544  0.00  0.00    +0.023 C 
ATOM     27  C   UNL A   1     -24.829  -0.715  33.905  0.00  0.00    +0.089 C 
ATOM     28  N   UNL A   1     -24.758  -1.481  32.646  0.00  0.00    -0.219 NA
BRANCH  24  29
ATOM     29  C   UNL A   1     -24.855  -1.012  30.143  0.00  0.00    +0.044 C 
BRANCH  29  30
ATOM     30  C   UNL A   1     -24.973  -2.505  29.788  0.00  0.00    -0.021 C 
ATOM     31  C   UNL A   1     -23.906  -3.173  29.146  0.00  0.00    -0.004 C 
ATOM     32  C   UNL A   1     -23.989  -4.549  28.853  0.00  0.00    -0.000 C 
ATOM     33  C   UNL A   1     -25.137  -5.280  29.205  0.00  0.00    -0.000 C 
ATOM     34  C   UNL A   1     -26.232  -4.611  29.784  0.00  0.00    -0.000 C 
ATOM     35  C   UNL A   1     -26.155  -3.232  30.065  0.00  0.00    -0.004 C 
ENDBRANCH  29  30
ENDBRANCH  24  29
ENDBRANCH  23  25
BRANCH  23  36
ATOM     36  C   UNL A   1     -24.604   2.925  31.171  0.00  0.00    +0.032 C 
BRANCH  36  37
ATOM     37  C   UNL A   1     -25.502   3.375  32.300  0.00  0.00    +0.033 C 
BRANCH  37  42
ATOM     38  O   UNL A   1     -25.550   5.321  30.579  0.00  0.00    -0.226 OA
ATOM     39  C   UNL A   1     -27.816   6.268  31.990  0.00  0.00    +0.003 C 
ATOM     40  C   UNL A   1     -27.541   4.741  31.656  0.00  0.00    +0.030 C 
ATOM     41  C   UNL A   1     -25.707   5.668  33.049  0.00  0.00    +0.030 C 
ATOM     42  C   UNL A   1     -25.986   4.750  31.819  0.00  0.00    +0.127 C 
ATOM     43  C   UNL A   1     -26.636   6.865  32.812  0.00  0.00    +0.003 C 
ENDBRANCH  37  42
ENDBRANCH  36  37
ENDBRANCH  23  36
ENDBRANCH   1  23
TORSDOF 15
