REMARK  Name = outputs/IAG933/test6/raw/output_7829_IAG933_linker_design_.xyz
REMARK  6 active torsions:
REMARK  status: ('A' for Active; 'I' for Inactive)
REMARK    1  A    between atoms: C_1  and  C_2
REMARK    2  A    between atoms: C_13  and  C_41
REMARK    3  A    between atoms: C_14  and  C_15
REMARK    4  A    between atoms: C_21  and  O_22
REMARK    5  A    between atoms: O_22  and  C_23
REMARK    6  A    between atoms: C_23  and  C_24
REMARK                            x       y       z     vdW  Elec       q    Type
REMARK                         _______ _______ _______ _____ _____    ______ ____
ROOT
ATOM      1  C   UNL A   1     -24.855  -1.012  30.143  0.00  0.00    +0.100 C 
ATOM      2  C   UNL A   1     -25.387  -0.679  31.571  0.00  0.00    +0.100 C 
ATOM      3  C   UNL A   1     -25.189   0.773  32.028  0.00  0.00    +0.097 C 
ATOM      4  C   UNL A   1     -25.336   0.684  33.544  0.00  0.00    +0.029 C 
ATOM      5  C   UNL A   1     -24.829  -0.715  33.905  0.00  0.00    +0.089 C 
ATOM      6  N   UNL A   1     -24.758  -1.481  32.646  0.00  0.00    -0.217 NA
ATOM      7  C   UNL A   1     -22.725   2.200  26.323  0.00  0.00    +0.199 C 
ATOM      8  O   UNL A   1     -23.619   2.265  31.176  0.00  0.00    -0.273 OA
ATOM      9  C   UNL A   1     -22.465   0.963  28.133  0.00  0.00    +0.032 C 
ATOM     10  O   UNL A   1     -21.454   2.056  26.549  0.00  0.00    -0.440 OA
ATOM     11  N   UNL A   1     -25.398   1.781  29.813  0.00  0.00    -0.165 NA
ATOM     12  C   UNL A   1     -25.061   0.897  28.732  0.00  0.00    +0.259 C 
ATOM     13  C   UNL A   1     -23.397   1.440  27.252  0.00  0.00    +0.030 C 
ATOM     14  O   UNL A   1     -26.302   0.036  28.340  0.00  0.00    -0.185 OA
ATOM     15  C   UNL A   1     -21.206   1.358  27.702  0.00  0.00    +0.178 C 
ATOM     16  C   UNL A   1     -22.818   0.182  29.336  0.00  0.00    +0.106 C 
ATOM     17  C   UNL A   1     -24.700   1.729  30.991  0.00  0.00    +0.245 C 
ATOM     18  N   UNL A   1     -24.233  -0.129  29.208  0.00  0.00    -0.227 NA
ATOM     19 CL   UNL A   1     -23.321   3.058  25.035  0.00  0.00    -0.043 Cl
ATOM     20  C   UNL A   1     -24.701   1.255  27.440  0.00  0.00    +0.096 C 
ENDROOT
BRANCH  20  21
ATOM     21  C   UNL A   1     -25.688   1.614  26.461  0.00  0.00    +0.080 C 
ATOM     22  C   UNL A   1     -26.250   2.920  26.395  0.00  0.00    +0.055 C 
ATOM     23  C   UNL A   1     -27.438   3.091  25.645  0.00  0.00    +0.102 C 
ATOM     24  N   UNL A   1     -28.075   2.089  25.003  0.00  0.00    -0.212 NA
ATOM     25  C   UNL A   1     -27.543   0.849  25.079  0.00  0.00    +0.234 C 
ATOM     26  C   UNL A   1     -26.354   0.576  25.777  0.00  0.00    +0.240 C 
ATOM     27  F   UNL A   1     -25.860  -0.681  25.795  0.00  0.00    -0.227 F 
BRANCH  22  28
ATOM     28  C   UNL A   1     -25.642   4.093  27.123  0.00  0.00    +0.263 C 
ATOM     29  N   UNL A   1     -25.614   5.252  26.449  0.00  0.00    -0.200 NA
ATOM     30  C   UNL A   1     -25.026   6.479  26.963  0.00  0.00    +0.139 C 
ATOM     31  O   UNL A   1     -25.143   3.966  28.243  0.00  0.00    -0.269 OA
ENDBRANCH  22  28
BRANCH  25  32
ATOM     32  O   UNL A   1     -28.193  -0.208  24.477  0.00  0.00    -0.459 OA
BRANCH  32  33
ATOM     33  C   UNL A   1     -29.460   0.005  23.866  0.00  0.00    +0.242 C 
BRANCH  33  34
ATOM     34  C   UNL A   1     -30.065  -1.377  23.573  0.00  0.00    +0.229 C 
ATOM     35  O   UNL A   1     -30.729  -1.878  24.721  0.00  0.00    -0.216 OA
ENDBRANCH  33  34
ENDBRANCH  32  33
ENDBRANCH  25  32
ENDBRANCH  20  21
BRANCH   1  36
ATOM     36  C   UNL A   1     -24.973  -2.505  29.788  0.00  0.00    -0.006 C 
ATOM     37  C   UNL A   1     -23.906  -3.173  29.146  0.00  0.00    -0.003 C 
ATOM     38  C   UNL A   1     -23.989  -4.549  28.853  0.00  0.00    -0.000 C 
ATOM     39  C   UNL A   1     -25.137  -5.280  29.205  0.00  0.00    -0.000 C 
ATOM     40  C   UNL A   1     -26.232  -4.611  29.784  0.00  0.00    -0.000 C 
ATOM     41  C   UNL A   1     -26.155  -3.232  30.065  0.00  0.00    -0.003 C 
ENDBRANCH   1  36
TORSDOF 6
