MODEL 782
MODEL 1
REMARK VINA RESULT:    -7.228      0.000      0.000
REMARK INTER + INTRA:         -16.828
REMARK INTER:                 -11.875
REMARK INTRA:                  -4.952
REMARK UNBOUND:                -4.952
REMARK  Name = No_782-gen_results/8p0m/2024-11-27-11-27-31/
REMARK  11 active torsions:
REMARK  status: ('A' for Active; 'I' for Inactive)
REMARK    1  A    between atoms: C_3  and  C_7
REMARK    2  A    between atoms: C_7  and  C_15
REMARK    3  A    between atoms: C_8  and  C_9
REMARK    4  A    between atoms: C_15  and  C_16
REMARK    5  A    between atoms: C_16  and  C_17
REMARK    6  A    between atoms: C_16  and  C_29
REMARK    7  A    between atoms: C_17  and  C_18
REMARK    8  A    between atoms: C_18  and  C_20
REMARK    9  A    between atoms: C_21  and  C_22
REMARK   10  A    between atoms: C_22  and  C_23
REMARK   11  A    between atoms: C_29  and  C_30
REMARK                            x       y       z     vdW  Elec       q    Type
REMARK                         _______ _______ _______ _____ _____    ______ ____
ROOT
ATOM      1  C   UNL A   1     -23.147  -0.485  29.551  0.00  0.00    +0.009 C 
ENDROOT
BRANCH   1   2
ATOM      2  C   UNL A   1     -23.311   0.117  30.908  0.00  0.00    +0.028 C 
BRANCH   2   3
ATOM      3  C   UNL A   1     -24.706   0.206  31.345  0.00  0.00    -0.012 C 
ATOM      4  C   UNL A   1     -25.227  -0.329  32.301  0.00  0.00    +0.054 C 
ATOM      5 CL   UNL A   1     -24.161  -1.256  33.353  0.00  0.00    -0.083 Cl
BRANCH   3   8
ATOM      6  C   UNL A   1     -26.420   0.813  29.539  0.00  0.00    -0.000 A 
ATOM      7  C   UNL A   1     -26.895   1.577  28.990  0.00  0.00    -0.000 A 
ATOM      8  C   UNL A   1     -25.432   1.191  30.474  0.00  0.00    -0.003 A 
ATOM      9  C   UNL A   1     -25.076   2.511  30.669  0.00  0.00    -0.000 A 
ATOM     10  C   UNL A   1     -26.709   3.041  29.006  0.00  0.00    -0.000 A 
ATOM     11  C   UNL A   1     -25.769   3.446  29.889  0.00  0.00    -0.000 A 
ENDBRANCH   3   8
BRANCH   4  12
ATOM     12  C   UNL A   1     -26.594  -0.091  32.645  0.00  0.00    +0.010 A 
ATOM     13  C   UNL A   1     -27.037   1.000  33.122  0.00  0.00    +0.001 A 
ATOM     14  C   UNL A   1     -28.563   1.107  33.220  0.00  0.00    +0.000 A 
ATOM     15  C   UNL A   1     -29.302   0.005  32.858  0.00  0.00    +0.000 A 
ATOM     16  C   UNL A   1     -27.515  -1.071  32.041  0.00  0.00    +0.001 A 
ATOM     17  C   UNL A   1     -28.825  -1.024  32.212  0.00  0.00    +0.000 A 
ENDBRANCH   4  12
ENDBRANCH   2   3
ENDBRANCH   1   2
BRANCH   1  18
ATOM     18  C   UNL A   1     -21.872  -0.400  28.898  0.00  0.00    +0.005 C 
BRANCH  18  19
ATOM     19  C   UNL A   1     -21.347   0.696  28.284  0.00  0.00    +0.026 C 
BRANCH  19  20
ATOM     20  C   UNL A   1     -22.029   1.222  27.432  0.00  0.00    -0.030 C 
ATOM     21  C   UNL A   1     -23.069   2.137  27.543  0.00  0.00    -0.026 C 
BRANCH  21  22
ATOM     22  C   UNL A   1     -23.786   2.723  26.436  0.00  0.00    +0.052 C 
BRANCH  22  23
ATOM     23  C   UNL A   1     -24.898   2.039  25.839  0.00  0.00    -0.018 A 
ATOM     24  C   UNL A   1     -24.923   0.661  25.681  0.00  0.00    -0.004 A 
ATOM     25  C   UNL A   1     -26.134   0.015  25.298  0.00  0.00    -0.000 A 
ATOM     26  C   UNL A   1     -27.311   0.788  25.116  0.00  0.00    -0.000 A 
ATOM     27  C   UNL A   1     -27.252   2.119  25.136  0.00  0.00    -0.000 A 
ATOM     28  C   UNL A   1     -26.130   2.727  25.603  0.00  0.00    -0.004 A 
ENDBRANCH  22  23
ENDBRANCH  21  22
ENDBRANCH  19  20
ENDBRANCH  18  19
ENDBRANCH   1  18
BRANCH   1  29
ATOM     29  C   UNL A   1     -24.203  -1.229  28.945  0.00  0.00    +0.027 C 
BRANCH  29  30
ATOM     30  C   UNL A   1     -24.467  -2.589  29.105  0.00  0.00    -0.022 A 
ATOM     31  C   UNL A   1     -23.772  -3.605  28.487  0.00  0.00    -0.004 A 
ATOM     32  C   UNL A   1     -24.154  -4.961  28.673  0.00  0.00    -0.000 A 
ATOM     33  C   UNL A   1     -25.457  -5.219  29.233  0.00  0.00    -0.000 A 
ATOM     34  C   UNL A   1     -26.225  -4.184  29.756  0.00  0.00    -0.000 A 
ATOM     35  C   UNL A   1     -25.804  -2.954  29.576  0.00  0.00    -0.004 A 
ENDBRANCH  29  30
ENDBRANCH   1  29
TORSDOF 11
ENDMDL
ENDMDL
