REMARK  Name = outputs/IAG933/test6/raw/output_783_IAG933_linker_design_.xyz
REMARK  11 active torsions:
REMARK  status: ('A' for Active; 'I' for Inactive)
REMARK    1  A    between atoms: C_1  and  C_2
REMARK    2  A    between atoms: C_1  and  C_8
REMARK    3  A    between atoms: C_1  and  N_36
REMARK    4  A    between atoms: C_13  and  C_38
REMARK    5  A    between atoms: C_14  and  C_15
REMARK    6  A    between atoms: C_21  and  O_22
REMARK    7  A    between atoms: O_22  and  C_23
REMARK    8  A    between atoms: C_23  and  C_24
REMARK    9  A    between atoms: C_30  and  N_36
REMARK   10  A    between atoms: C_30  and  C_38
REMARK   11  A    between atoms: N_31  and  C_38
REMARK                            x       y       z     vdW  Elec       q    Type
REMARK                         _______ _______ _______ _____ _____    ______ ____
ROOT
ATOM      1  C   UNL A   1     -24.708   1.363  27.415  0.00  0.00    +0.107 C 
ENDROOT
BRANCH   1   4
ATOM      2  F   UNL A   1     -20.255   2.023  27.672  0.00  0.00    -0.193 F 
ATOM      3  C   UNL A   1     -21.363   1.702  27.211  0.00  0.00    +0.359 C 
ATOM      4  N   UNL A   1     -23.523   1.196  26.936  0.00  0.00    -0.224 N 
ATOM      5  O   UNL A   1     -22.458   0.019  28.692  0.00  0.00    -0.269 OA
ATOM      6  C   UNL A   1     -22.418   1.067  27.712  0.00  0.00    +0.292 C 
ATOM      7  F   UNL A   1     -23.284   0.861  24.616  0.00  0.00    -0.180 F 
ATOM      8  C   UNL A   1     -22.861   1.370  25.728  0.00  0.00    +0.369 C 
ATOM      9  O   UNL A   1     -21.639   1.870  25.877  0.00  0.00    -0.275 OA
ENDBRANCH   1   4
BRANCH   1  10
ATOM     10  C   UNL A   1     -25.688   1.614  26.461  0.00  0.00    +0.090 C 
ATOM     11  C   UNL A   1     -26.250   2.920  26.395  0.00  0.00    +0.057 C 
ATOM     12  C   UNL A   1     -27.438   3.091  25.645  0.00  0.00    +0.102 C 
ATOM     13  N   UNL A   1     -28.075   2.089  25.003  0.00  0.00    -0.212 NA
ATOM     14  C   UNL A   1     -27.543   0.849  25.079  0.00  0.00    +0.234 C 
ATOM     15  C   UNL A   1     -26.354   0.576  25.777  0.00  0.00    +0.242 C 
ATOM     16  F   UNL A   1     -25.860  -0.681  25.795  0.00  0.00    -0.227 F 
BRANCH  11  17
ATOM     17  C   UNL A   1     -25.642   4.093  27.123  0.00  0.00    +0.263 C 
ATOM     18  N   UNL A   1     -25.614   5.252  26.449  0.00  0.00    -0.200 NA
ATOM     19  C   UNL A   1     -25.026   6.479  26.963  0.00  0.00    +0.139 C 
ATOM     20  O   UNL A   1     -25.143   3.966  28.243  0.00  0.00    -0.269 OA
ENDBRANCH  11  17
BRANCH  14  21
ATOM     21  O   UNL A   1     -28.193  -0.208  24.477  0.00  0.00    -0.459 OA
BRANCH  21  22
ATOM     22  C   UNL A   1     -29.460   0.005  23.866  0.00  0.00    +0.242 C 
BRANCH  22  23
ATOM     23  C   UNL A   1     -30.065  -1.377  23.573  0.00  0.00    +0.229 C 
ATOM     24  O   UNL A   1     -30.729  -1.878  24.721  0.00  0.00    -0.216 OA
ENDBRANCH  22  23
ENDBRANCH  21  22
ENDBRANCH  14  21
ENDBRANCH   1  10
BRANCH   1  25
ATOM     25  C   UNL A   1     -25.035   1.226  28.806  0.00  0.00    +0.114 C 
BRANCH  25  27
ATOM     26  C   UNL A   1     -27.407   1.333  29.522  0.00  0.00    +0.095 C 
ATOM     27  N   UNL A   1     -25.254   0.192  29.299  0.00  0.00    -0.274 N 
ATOM     28  O   UNL A   1     -27.155  -0.718  28.386  0.00  0.00    -0.275 OA
ATOM     29  C   UNL A   1     -26.443   0.333  28.975  0.00  0.00    +0.226 C 
BRANCH  27  30
ATOM     30  C   UNL A   1     -24.855  -1.012  30.143  0.00  0.00    +0.114 C 
BRANCH  30  31
ATOM     31  C   UNL A   1     -24.973  -2.505  29.788  0.00  0.00    -0.003 C 
ATOM     32  C   UNL A   1     -23.906  -3.173  29.146  0.00  0.00    -0.003 C 
ATOM     33  C   UNL A   1     -23.989  -4.549  28.853  0.00  0.00    -0.000 C 
ATOM     34  C   UNL A   1     -25.137  -5.280  29.205  0.00  0.00    -0.000 C 
ATOM     35  C   UNL A   1     -26.232  -4.611  29.784  0.00  0.00    -0.000 C 
ATOM     36  C   UNL A   1     -26.155  -3.232  30.065  0.00  0.00    -0.003 C 
ENDBRANCH  30  31
BRANCH  30  37
ATOM     37  C   UNL A   1     -25.387  -0.679  31.571  0.00  0.00    +0.095 C 
ATOM     38  C   UNL A   1     -25.189   0.773  32.028  0.00  0.00    +0.021 C 
ATOM     39  C   UNL A   1     -25.336   0.684  33.544  0.00  0.00    +0.020 C 
ATOM     40  C   UNL A   1     -24.829  -0.715  33.905  0.00  0.00    +0.089 C 
ATOM     41  N   UNL A   1     -24.758  -1.481  32.646  0.00  0.00    -0.217 NA
ENDBRANCH  30  37
ENDBRANCH  27  30
ENDBRANCH  25  27
ENDBRANCH   1  25
TORSDOF 11
