REMARK  Name = outputs/IAG933/test6/raw/output_7833_IAG933_linker_design_.xyz
REMARK  9 active torsions:
REMARK  status: ('A' for Active; 'I' for Inactive)
REMARK    1  A    between atoms: C_1  and  C_2
REMARK    2  A    between atoms: C_1  and  C_8
REMARK    3  A    between atoms: C_1  and  N_28
REMARK    4  A    between atoms: C_13  and  C_38
REMARK    5  A    between atoms: C_14  and  C_15
REMARK    6  A    between atoms: C_21  and  O_22
REMARK    7  A    between atoms: O_22  and  C_23
REMARK    8  A    between atoms: C_23  and  C_24
REMARK    9  A    between atoms: N_28  and  C_44
REMARK                            x       y       z     vdW  Elec       q    Type
REMARK                         _______ _______ _______ _____ _____    ______ ____
ROOT
ATOM      1  C   UNL A   1     -23.265   1.984  26.300  0.00  0.00    +0.144 C 
ATOM      2  C   UNL A   1     -22.041   1.887  26.908  0.00  0.00    +0.059 C 
ATOM      3  F   UNL A   1     -23.366   2.662  25.022  0.00  0.00    -0.204 F 
ATOM      4  C   UNL A   1     -21.933   1.069  27.995  0.00  0.00    +0.144 C 
ATOM      5  C   UNL A   1     -24.346   1.379  26.998  0.00  0.00    +0.044 C 
ATOM      6  C   UNL A   1     -22.966   0.390  28.653  0.00  0.00    +0.045 C 
ATOM      7  F   UNL A   1     -20.757   1.007  28.421  0.00  0.00    -0.204 F 
ATOM      8  C   UNL A   1     -24.290   0.602  28.257  0.00  0.00    +0.060 C 
ENDROOT
BRANCH   8   9
ATOM      9  N   UNL A   1     -25.322   0.111  29.191  0.00  0.00    -0.239 N 
ATOM     10  C   UNL A   1     -26.661   0.445  29.202  0.00  0.00    +0.311 C 
ATOM     11  C   UNL A   1     -27.187   2.441  30.787  0.00  0.00    +0.095 C 
ATOM     12  O   UNL A   1     -27.222  -0.377  28.520  0.00  0.00    -0.252 OA
ATOM     13  C   UNL A   1     -29.048   4.021  28.374  0.00  0.00    +0.002 C 
ATOM     14  C   UNL A   1     -28.999   1.643  29.432  0.00  0.00    +0.095 C 
ATOM     15  C   UNL A   1     -28.096   3.661  30.572  0.00  0.00    +0.023 C 
ATOM     16  N   UNL A   1     -27.493   1.462  29.722  0.00  0.00    -0.264 N 
ATOM     17  C   UNL A   1     -29.201   3.202  29.620  0.00  0.00    +0.022 C 
BRANCH   9  18
ATOM     18  C   UNL A   1     -24.855  -1.012  30.143  0.00  0.00    +0.119 C 
BRANCH  18  19
ATOM     19  C   UNL A   1     -24.973  -2.505  29.788  0.00  0.00    -0.003 C 
ATOM     20  C   UNL A   1     -23.906  -3.173  29.146  0.00  0.00    -0.003 C 
ATOM     21  C   UNL A   1     -23.989  -4.549  28.853  0.00  0.00    -0.000 C 
ATOM     22  C   UNL A   1     -25.137  -5.280  29.205  0.00  0.00    -0.000 C 
ATOM     23  C   UNL A   1     -26.232  -4.611  29.784  0.00  0.00    -0.000 C 
ATOM     24  C   UNL A   1     -26.155  -3.232  30.065  0.00  0.00    -0.003 C 
ENDBRANCH  18  19
BRANCH  18  25
ATOM     25  C   UNL A   1     -25.387  -0.679  31.571  0.00  0.00    +0.096 C 
ATOM     26  C   UNL A   1     -25.189   0.773  32.028  0.00  0.00    +0.021 C 
ATOM     27  C   UNL A   1     -25.336   0.684  33.544  0.00  0.00    +0.020 C 
ATOM     28  C   UNL A   1     -24.829  -0.715  33.905  0.00  0.00    +0.089 C 
ATOM     29  N   UNL A   1     -24.758  -1.481  32.646  0.00  0.00    -0.217 NA
ENDBRANCH  18  25
ENDBRANCH   9  18
ENDBRANCH   8   9
BRANCH   5  30
ATOM     30  C   UNL A   1     -25.688   1.614  26.461  0.00  0.00    +0.042 C 
ATOM     31  C   UNL A   1     -26.250   2.920  26.395  0.00  0.00    +0.077 C 
ATOM     32  C   UNL A   1     -27.438   3.091  25.645  0.00  0.00    +0.107 C 
ATOM     33  N   UNL A   1     -28.075   2.089  25.003  0.00  0.00    -0.208 NA
ATOM     34  C   UNL A   1     -27.543   0.849  25.079  0.00  0.00    +0.253 C 
ATOM     35  C   UNL A   1     -26.354   0.576  25.777  0.00  0.00    +0.193 C 
ATOM     36  F   UNL A   1     -25.860  -0.681  25.795  0.00  0.00    -0.199 F 
BRANCH  31  37
ATOM     37  C   UNL A   1     -25.642   4.093  27.123  0.00  0.00    +0.266 C 
ATOM     38  N   UNL A   1     -25.614   5.252  26.449  0.00  0.00    -0.200 NA
ATOM     39  C   UNL A   1     -25.026   6.479  26.963  0.00  0.00    +0.139 C 
ATOM     40  O   UNL A   1     -25.143   3.966  28.243  0.00  0.00    -0.268 OA
ENDBRANCH  31  37
BRANCH  34  41
ATOM     41  O   UNL A   1     -28.193  -0.208  24.477  0.00  0.00    -0.456 OA
BRANCH  41  42
ATOM     42  C   UNL A   1     -29.460   0.005  23.866  0.00  0.00    +0.243 C 
BRANCH  42  43
ATOM     43  C   UNL A   1     -30.065  -1.377  23.573  0.00  0.00    +0.229 C 
ATOM     44  O   UNL A   1     -30.729  -1.878  24.721  0.00  0.00    -0.216 OA
ENDBRANCH  42  43
ENDBRANCH  41  42
ENDBRANCH  34  41
ENDBRANCH   5  30
TORSDOF 9
