REMARK  Name = outputs/IAG933/test6/raw/output_7834_IAG933_linker_design_.xyz
REMARK  15 active torsions:
REMARK  status: ('A' for Active; 'I' for Inactive)
REMARK    1  A    between atoms: C_1  and  C_2
REMARK    2  A    between atoms: C_1  and  C_8
REMARK    3  A    between atoms: C_1  and  C_45
REMARK    4  A    between atoms: C_13  and  C_44
REMARK    5  A    between atoms: C_14  and  C_15
REMARK    6  A    between atoms: C_21  and  O_22
REMARK    7  A    between atoms: O_22  and  C_23
REMARK    8  A    between atoms: C_23  and  C_24
REMARK    9  A    between atoms: C_29  and  C_32
REMARK   10  A    between atoms: C_29  and  C_42
REMARK   11  A    between atoms: C_31  and  C_32
REMARK   12  A    between atoms: C_31  and  C_44
REMARK   13  A    between atoms: C_31  and  C_45
REMARK   14  A    between atoms: C_40  and  C_41
REMARK   15  A    between atoms: C_41  and  C_45
REMARK                            x       y       z     vdW  Elec       q    Type
REMARK                         _______ _______ _______ _____ _____    ______ ____
ROOT
ATOM      1  C   UNL A   1     -25.353  -0.060  28.968  0.00  0.00    +0.018 C 
ENDROOT
BRANCH   1   2
ATOM      2  C   UNL A   1     -24.855  -1.012  30.143  0.00  0.00    +0.039 C 
BRANCH   2   3
ATOM      3  C   UNL A   1     -24.973  -2.505  29.788  0.00  0.00    -0.021 C 
ATOM      4  C   UNL A   1     -23.906  -3.173  29.146  0.00  0.00    -0.004 C 
ATOM      5  C   UNL A   1     -23.989  -4.549  28.853  0.00  0.00    -0.000 C 
ATOM      6  C   UNL A   1     -25.137  -5.280  29.205  0.00  0.00    -0.000 C 
ATOM      7  C   UNL A   1     -26.232  -4.611  29.784  0.00  0.00    -0.000 C 
ATOM      8  C   UNL A   1     -26.155  -3.232  30.065  0.00  0.00    -0.004 C 
ENDBRANCH   2   3
BRANCH   2   9
ATOM      9  C   UNL A   1     -25.387  -0.679  31.571  0.00  0.00    +0.077 C 
ATOM     10  C   UNL A   1     -25.189   0.773  32.028  0.00  0.00    +0.019 C 
ATOM     11  C   UNL A   1     -25.336   0.684  33.544  0.00  0.00    +0.020 C 
ATOM     12  C   UNL A   1     -24.829  -0.715  33.905  0.00  0.00    +0.089 C 
ATOM     13  N   UNL A   1     -24.758  -1.481  32.646  0.00  0.00    -0.219 NA
ENDBRANCH   2   9
ENDBRANCH   1   2
BRANCH   1  14
ATOM     14  C   UNL A   1     -24.178   0.818  28.475  0.00  0.00    +0.064 C 
BRANCH  14  15
ATOM     15  C   UNL A   1     -22.614   0.741  28.902  0.00  0.00    +0.166 C 
ATOM     16  O   UNL A   1     -22.239   0.032  29.899  0.00  0.00    -0.295 OA
BRANCH  15  17
ATOM     17  C   UNL A   1     -21.564   1.472  27.941  0.00  0.00    +0.169 C 
BRANCH  17  19
ATOM     18  N   UNL A   1     -21.464   2.156  25.696  0.00  0.00    -0.195 NA
ATOM     19  C   UNL A   1     -21.573   1.977  26.698  0.00  0.00    +0.081 C 
ENDBRANCH  17  19
ENDBRANCH  15  17
ENDBRANCH  14  15
BRANCH  14  20
ATOM     20  C   UNL A   1     -24.281   1.317  27.000  0.00  0.00    +0.036 C 
BRANCH  20  21
ATOM     21  C   UNL A   1     -25.688   1.614  26.461  0.00  0.00    +0.016 C 
ATOM     22  C   UNL A   1     -26.250   2.920  26.395  0.00  0.00    +0.073 C 
ATOM     23  C   UNL A   1     -27.438   3.091  25.645  0.00  0.00    +0.106 C 
ATOM     24  N   UNL A   1     -28.075   2.089  25.003  0.00  0.00    -0.208 NA
ATOM     25  C   UNL A   1     -27.543   0.849  25.079  0.00  0.00    +0.253 C 
ATOM     26  C   UNL A   1     -26.354   0.576  25.777  0.00  0.00    +0.189 C 
ATOM     27  F   UNL A   1     -25.860  -0.681  25.795  0.00  0.00    -0.200 F 
BRANCH  22  28
ATOM     28  C   UNL A   1     -25.642   4.093  27.123  0.00  0.00    +0.266 C 
ATOM     29  N   UNL A   1     -25.614   5.252  26.449  0.00  0.00    -0.200 NA
ATOM     30  C   UNL A   1     -25.026   6.479  26.963  0.00  0.00    +0.139 C 
ATOM     31  O   UNL A   1     -25.143   3.966  28.243  0.00  0.00    -0.268 OA
ENDBRANCH  22  28
BRANCH  25  32
ATOM     32  O   UNL A   1     -28.193  -0.208  24.477  0.00  0.00    -0.456 OA
BRANCH  32  33
ATOM     33  C   UNL A   1     -29.460   0.005  23.866  0.00  0.00    +0.243 C 
BRANCH  33  34
ATOM     34  C   UNL A   1     -30.065  -1.377  23.573  0.00  0.00    +0.229 C 
ATOM     35  O   UNL A   1     -30.729  -1.878  24.721  0.00  0.00    -0.216 OA
ENDBRANCH  33  34
ENDBRANCH  32  33
ENDBRANCH  25  32
ENDBRANCH  20  21
ENDBRANCH  14  20
ENDBRANCH   1  14
BRANCH   1  36
ATOM     36  C   UNL A   1     -26.812   0.093  28.648  0.00  0.00    +0.035 C 
BRANCH  36  44
ATOM     37  C   UNL A   1     -27.206   5.617  30.713  0.00  0.00    +0.346 C 
ATOM     38  C   UNL A   1     -27.785   3.370  30.750  0.00  0.00    +0.370 C 
ATOM     39  N   UNL A   1     -27.876   5.959  31.839  0.00  0.00    -0.016 NA
ATOM     40  N   UNL A   1     -26.703   4.442  30.627  0.00  0.00    +0.035 NA
ATOM     41  O   UNL A   1     -28.767   3.735  31.619  0.00  0.00    -0.391 OA
ATOM     42  C   UNL A   1     -26.888   6.630  29.674  0.00  0.00    +0.134 C 
ATOM     43  C   UNL A   1     -27.755   2.172  30.089  0.00  0.00    -0.023 C 
ATOM     44  C   UNL A   1     -27.634   1.086  29.410  0.00  0.00    +0.022 C 
ATOM     45  C   UNL A   1     -28.667   4.929  32.363  0.00  0.00    +0.481 C 
ENDBRANCH  36  44
ENDBRANCH   1  36
TORSDOF 15
