REMARK  Name = outputs/IAG933/test6/raw/output_7836_IAG933_linker_design_.xyz
REMARK  11 active torsions:
REMARK  status: ('A' for Active; 'I' for Inactive)
REMARK    1  A    between atoms: C_1  and  C_2
REMARK    2  A    between atoms: C_1  and  C_8
REMARK    3  A    between atoms: C_1  and  N_28
REMARK    4  A    between atoms: C_13  and  C_37
REMARK    5  A    between atoms: C_14  and  C_15
REMARK    6  A    between atoms: C_21  and  O_22
REMARK    7  A    between atoms: O_22  and  C_23
REMARK    8  A    between atoms: C_23  and  C_24
REMARK    9  A    between atoms: N_28  and  C_32
REMARK   10  A    between atoms: C_34  and  C_37
REMARK   11  A    between atoms: C_36  and  C_38
REMARK                            x       y       z     vdW  Elec       q    Type
REMARK                         _______ _______ _______ _____ _____    ______ ____
ROOT
ATOM      1  C   UNL A   1     -24.564   0.529  28.305  0.00  0.00    +0.073 C 
ATOM      2  C   UNL A   1     -24.492   1.272  27.194  0.00  0.00    +0.047 C 
ENDROOT
BRANCH   2   3
ATOM      3  C   UNL A   1     -25.688   1.614  26.461  0.00  0.00    +0.042 C 
ATOM      4  C   UNL A   1     -26.250   2.920  26.395  0.00  0.00    +0.077 C 
ATOM      5  C   UNL A   1     -27.438   3.091  25.645  0.00  0.00    +0.107 C 
ATOM      6  N   UNL A   1     -28.075   2.089  25.003  0.00  0.00    -0.208 NA
ATOM      7  C   UNL A   1     -27.543   0.849  25.079  0.00  0.00    +0.253 C 
ATOM      8  C   UNL A   1     -26.354   0.576  25.777  0.00  0.00    +0.193 C 
ATOM      9  F   UNL A   1     -25.860  -0.681  25.795  0.00  0.00    -0.199 F 
BRANCH   4  10
ATOM     10  C   UNL A   1     -25.642   4.093  27.123  0.00  0.00    +0.266 C 
ATOM     11  N   UNL A   1     -25.614   5.252  26.449  0.00  0.00    -0.200 NA
ATOM     12  C   UNL A   1     -25.026   6.479  26.963  0.00  0.00    +0.139 C 
ATOM     13  O   UNL A   1     -25.143   3.966  28.243  0.00  0.00    -0.268 OA
ENDBRANCH   4  10
BRANCH   7  14
ATOM     14  O   UNL A   1     -28.193  -0.208  24.477  0.00  0.00    -0.456 OA
BRANCH  14  15
ATOM     15  C   UNL A   1     -29.460   0.005  23.866  0.00  0.00    +0.243 C 
BRANCH  15  16
ATOM     16  C   UNL A   1     -30.065  -1.377  23.573  0.00  0.00    +0.229 C 
ATOM     17  O   UNL A   1     -30.729  -1.878  24.721  0.00  0.00    -0.216 OA
ENDBRANCH  15  16
ENDBRANCH  14  15
ENDBRANCH   7  14
ENDBRANCH   2   3
BRANCH   1  18
ATOM     18  N   UNL A   1     -25.441  -0.110  29.141  0.00  0.00    -0.217 N 
ATOM     19  O   UNL A   1     -27.519  -0.615  28.603  0.00  0.00    -0.222 OA
ATOM     20  O   UNL A   1     -27.069   1.284  29.550  0.00  0.00    -0.222 OA
ATOM     21  C   UNL A   1     -26.734   0.196  29.078  0.00  0.00    +0.451 C 
BRANCH  18  22
ATOM     22  C   UNL A   1     -24.855  -1.012  30.143  0.00  0.00    +0.121 C 
BRANCH  22  23
ATOM     23  C   UNL A   1     -24.973  -2.505  29.788  0.00  0.00    -0.003 C 
ATOM     24  C   UNL A   1     -23.906  -3.173  29.146  0.00  0.00    -0.003 C 
ATOM     25  C   UNL A   1     -23.989  -4.549  28.853  0.00  0.00    -0.000 C 
ATOM     26  C   UNL A   1     -25.137  -5.280  29.205  0.00  0.00    -0.000 C 
ATOM     27  C   UNL A   1     -26.232  -4.611  29.784  0.00  0.00    -0.000 C 
ATOM     28  C   UNL A   1     -26.155  -3.232  30.065  0.00  0.00    -0.003 C 
ENDBRANCH  22  23
BRANCH  22  29
ATOM     29  C   UNL A   1     -25.387  -0.679  31.571  0.00  0.00    +0.096 C 
ATOM     30  C   UNL A   1     -25.189   0.773  32.028  0.00  0.00    +0.021 C 
ATOM     31  C   UNL A   1     -25.336   0.684  33.544  0.00  0.00    +0.020 C 
ATOM     32  C   UNL A   1     -24.829  -0.715  33.905  0.00  0.00    +0.089 C 
ATOM     33  N   UNL A   1     -24.758  -1.481  32.646  0.00  0.00    -0.217 NA
ENDBRANCH  22  29
ENDBRANCH  18  22
ENDBRANCH   1  18
BRANCH   2  34
ATOM     34  C   UNL A   1     -23.235   1.766  26.672  0.00  0.00    +0.167 C 
ATOM     35  F   UNL A   1     -23.311   2.641  25.668  0.00  0.00    -0.202 F 
ATOM     36  C   UNL A   1     -22.080   1.503  27.233  0.00  0.00    +0.175 C 
ATOM     37  F   UNL A   1     -20.909   1.912  26.624  0.00  0.00    -0.204 F 
BRANCH  36  40
ATOM     38  C   UNL A   1     -20.362  -0.045  28.357  0.00  0.00    +0.043 C 
ATOM     39  O   UNL A   1     -22.398   0.337  29.426  0.00  0.00    -0.216 OA
ATOM     40  C   UNL A   1     -21.694   0.584  28.285  0.00  0.00    +0.204 C 
ENDBRANCH  36  40
ENDBRANCH   2  34
TORSDOF 11
