REMARK  Name = outputs/IAG933/test6/raw/output_7849_IAG933_linker_design_.xyz
REMARK  11 active torsions:
REMARK  status: ('A' for Active; 'I' for Inactive)
REMARK    1  A    between atoms: C_1  and  C_2
REMARK    2  A    between atoms: C_1  and  C_8
REMARK    3  A    between atoms: C_1  and  N_29
REMARK    4  A    between atoms: C_13  and  C_36
REMARK    5  A    between atoms: C_14  and  C_15
REMARK    6  A    between atoms: C_21  and  O_22
REMARK    7  A    between atoms: O_22  and  C_23
REMARK    8  A    between atoms: C_23  and  C_24
REMARK    9  A    between atoms: N_29  and  C_42
REMARK   10  A    between atoms: C_32  and  C_33
REMARK   11  A    between atoms: C_32  and  C_38
REMARK                            x       y       z     vdW  Elec       q    Type
REMARK                         _______ _______ _______ _____ _____    ______ ____
ROOT
ATOM      1  C   UNL A   1     -22.273   1.241  27.951  0.00  0.00    +0.015 C 
ATOM      2  F   UNL A   1     -22.516   0.202  30.089  0.00  0.00    -0.224 F 
ATOM      3  C   UNL A   1     -23.245   1.776  27.069  0.00  0.00    +0.017 C 
ATOM      4  C   UNL A   1     -24.544   1.299  27.283  0.00  0.00    +0.031 C 
ATOM      5  C   UNL A   1     -23.035   0.608  28.886  0.00  0.00    +0.235 C 
ATOM      6  C   UNL A   1     -24.395   0.550  28.463  0.00  0.00    +0.135 C 
ENDROOT
BRANCH   4   7
ATOM      7  C   UNL A   1     -25.688   1.614  26.461  0.00  0.00    +0.040 C 
ATOM      8  C   UNL A   1     -26.250   2.920  26.395  0.00  0.00    +0.077 C 
ATOM      9  C   UNL A   1     -27.438   3.091  25.645  0.00  0.00    +0.107 C 
ATOM     10  N   UNL A   1     -28.075   2.089  25.003  0.00  0.00    -0.208 NA
ATOM     11  C   UNL A   1     -27.543   0.849  25.079  0.00  0.00    +0.253 C 
ATOM     12  C   UNL A   1     -26.354   0.576  25.777  0.00  0.00    +0.193 C 
ATOM     13  F   UNL A   1     -25.860  -0.681  25.795  0.00  0.00    -0.199 F 
BRANCH   8  14
ATOM     14  C   UNL A   1     -25.642   4.093  27.123  0.00  0.00    +0.266 C 
ATOM     15  N   UNL A   1     -25.614   5.252  26.449  0.00  0.00    -0.200 NA
ATOM     16  C   UNL A   1     -25.026   6.479  26.963  0.00  0.00    +0.139 C 
ATOM     17  O   UNL A   1     -25.143   3.966  28.243  0.00  0.00    -0.268 OA
ENDBRANCH   8  14
BRANCH  11  18
ATOM     18  O   UNL A   1     -28.193  -0.208  24.477  0.00  0.00    -0.456 OA
BRANCH  18  19
ATOM     19  C   UNL A   1     -29.460   0.005  23.866  0.00  0.00    +0.243 C 
BRANCH  19  20
ATOM     20  C   UNL A   1     -30.065  -1.377  23.573  0.00  0.00    +0.229 C 
ATOM     21  O   UNL A   1     -30.729  -1.878  24.721  0.00  0.00    -0.216 OA
ENDBRANCH  19  20
ENDBRANCH  18  19
ENDBRANCH  11  18
ENDBRANCH   4   7
BRANCH   6  22
ATOM     22  N   UNL A   1     -25.338  -0.082  29.164  0.00  0.00    -0.205 N 
ATOM     23  C   UNL A   1     -26.821   0.121  28.960  0.00  0.00    +0.507 C 
ATOM     24  N   UNL A   1     -27.664  -0.780  28.720  0.00  0.00    +0.133 NA
ATOM     25  N   UNL A   1     -27.100   1.379  29.125  0.00  0.00    +0.133 NA
BRANCH  22  26
ATOM     26  C   UNL A   1     -24.855  -1.012  30.143  0.00  0.00    +0.185 C 
BRANCH  26  27
ATOM     27  C   UNL A   1     -24.973  -2.505  29.788  0.00  0.00    +0.015 C 
ATOM     28  C   UNL A   1     -23.906  -3.173  29.146  0.00  0.00    -0.001 C 
ATOM     29  C   UNL A   1     -23.989  -4.549  28.853  0.00  0.00    -0.000 C 
ATOM     30  C   UNL A   1     -25.137  -5.280  29.205  0.00  0.00    -0.000 C 
ATOM     31  C   UNL A   1     -26.232  -4.611  29.784  0.00  0.00    -0.000 C 
ATOM     32  C   UNL A   1     -26.155  -3.232  30.065  0.00  0.00    -0.001 C 
ENDBRANCH  26  27
BRANCH  26  33
ATOM     33  C   UNL A   1     -25.387  -0.679  31.571  0.00  0.00    +0.114 C 
ATOM     34  C   UNL A   1     -25.189   0.773  32.028  0.00  0.00    +0.023 C 
ATOM     35  C   UNL A   1     -25.336   0.684  33.544  0.00  0.00    +0.020 C 
ATOM     36  C   UNL A   1     -24.829  -0.715  33.905  0.00  0.00    +0.089 C 
ATOM     37  N   UNL A   1     -24.758  -1.481  32.646  0.00  0.00    -0.216 NA
ENDBRANCH  26  33
ENDBRANCH  22  26
ENDBRANCH   6  22
BRANCH   3  39
ATOM     38  F   UNL A   1     -23.904   3.304  25.455  0.00  0.00    -0.226 F 
ATOM     39  C   UNL A   1     -23.052   2.562  26.117  0.00  0.00    +0.249 C 
BRANCH  39  41
ATOM     40  F   UNL A   1     -20.774   2.423  25.643  0.00  0.00    -0.195 F 
ATOM     41  C   UNL A   1     -21.949   2.247  25.285  0.00  0.00    +0.355 C 
ATOM     42  F   UNL A   1     -22.328   1.540  24.258  0.00  0.00    -0.195 F 
ENDBRANCH  39  41
ENDBRANCH   3  39
TORSDOF 11
