MODEL 784
MODEL 1
REMARK VINA RESULT:    -6.938      0.000      0.000
REMARK INTER + INTRA:          -8.218
REMARK INTER:                  -7.749
REMARK INTRA:                  -0.469
REMARK UNBOUND:                -0.469
REMARK  Name = No_784-gen_results/8p0m/2024-11-27-11-27-31/
REMARK  2 active torsions:
REMARK  status: ('A' for Active; 'I' for Inactive)
REMARK    1  A    between atoms: C_2  and  C_10
REMARK    2  A    between atoms: C_5  and  C_7
REMARK                            x       y       z     vdW  Elec       q    Type
REMARK                         _______ _______ _______ _____ _____    ______ ____
ROOT
ATOM      1  C   UNL A   1     -29.639 -10.151  31.554  0.00  0.00    +0.000 A 
ATOM      2  C   UNL A   1     -29.445 -10.845  30.583  0.00  0.00    +0.000 A 
ATOM      3  C   UNL A   1     -28.495 -11.848  30.496  0.00  0.00    +0.000 A 
ATOM      4  C   UNL A   1     -27.707 -12.097  31.659  0.00  0.00    +0.007 A 
ATOM      5  C   UNL A   1     -28.050 -11.409  32.767  0.00  0.00    +0.080 A 
ATOM      6  C   UNL A   1     -29.047 -10.521  32.763  0.00  0.00    +0.007 A 
ENDROOT
BRANCH   2   7
ATOM      7  C   UNL A   1     -30.178 -10.564  29.193  0.00  0.00    +0.002 A 
ATOM      8  C   UNL A   1     -30.930  -9.878  29.009  0.00  0.00    +0.000 A 
ATOM      9  C   UNL A   1     -31.490  -9.506  27.971  0.00  0.00    +0.002 A 
ATOM     10  C   UNL A   1     -31.193 -10.143  26.684  0.00  0.00    +0.030 A 
ATOM     11  C   UNL A   1     -30.197 -11.052  26.798  0.00  0.00    +0.140 A 
ATOM     12  C   UNL A   1     -29.577 -11.353  28.073  0.00  0.00    +0.030 A 
ATOM     13  F   UNL A   1     -29.794 -11.687  25.694  0.00  0.00    -0.204 F 
ENDBRANCH   2   7
BRANCH   5  14
ATOM     14  C   UNL A   1     -27.246 -11.725  33.963  0.00  0.00    +0.388 C 
ATOM     15  O   UNL A   1     -26.796 -12.769  34.086  0.00  0.00    -0.241 OA
ATOM     16  O   UNL A   1     -26.876 -10.679  34.707  0.00  0.00    -0.241 OA
ENDBRANCH   5  14
TORSDOF 2
ENDMDL
ENDMDL
