REMARK  Name = outputs/IAG933/test6/raw/output_7860_IAG933_linker_design_.xyz
REMARK  13 active torsions:
REMARK  status: ('A' for Active; 'I' for Inactive)
REMARK    1  A    between atoms: C_1  and  C_2
REMARK    2  A    between atoms: C_1  and  C_8
REMARK    3  A    between atoms: C_9  and  C_36
REMARK    4  A    between atoms: C_13  and  C_34
REMARK    5  A    between atoms: C_14  and  C_15
REMARK    6  A    between atoms: C_21  and  O_22
REMARK    7  A    between atoms: O_22  and  C_23
REMARK    8  A    between atoms: C_23  and  C_24
REMARK    9  A    between atoms: N_29  and  C_36
REMARK   10  A    between atoms: N_29  and  C_43
REMARK   11  A    between atoms: O_30  and  C_31
REMARK   12  A    between atoms: C_36  and  C_37
REMARK   13  A    between atoms: N_40  and  C_46
REMARK                            x       y       z     vdW  Elec       q    Type
REMARK                         _______ _______ _______ _____ _____    ______ ____
ROOT
ATOM      1  C   UNL A   1     -26.097   1.690  31.118  0.00  0.00    +0.116 C 
ENDROOT
BRANCH   1   3
ATOM      2  C   UNL A   1     -24.822   5.040  32.068  0.00  0.00    +0.409 C 
ATOM      3  C   UNL A   1     -25.765   3.219  31.404  0.00  0.00    +0.206 C 
ATOM      4  O   UNL A   1     -23.794   5.654  32.079  0.00  0.00    -0.226 OA
ATOM      5  N   UNL A   1     -26.051   5.382  31.691  0.00  0.00    -0.217 N 
ATOM      6  O   UNL A   1     -24.822   3.630  32.343  0.00  0.00    -0.435 OA
ATOM      7  C   UNL A   1     -26.651   4.298  31.224  0.00  0.00    +0.147 C 
BRANCH   5  12
ATOM      8  C   UNL A   1     -26.387   7.908  32.380  0.00  0.00    +0.156 C 
ATOM      9  N   UNL A   1     -28.414   7.936  31.388  0.00  0.00    -0.259 NA
ATOM     10  C   UNL A   1     -27.475   8.716  31.928  0.00  0.00    +0.190 C 
ATOM     11  C   UNL A   1     -28.030   6.652  31.354  0.00  0.00    +0.111 C 
ATOM     12  C   UNL A   1     -26.707   6.601  31.847  0.00  0.00    +0.107 C 
BRANCH   8  13
ATOM     13  O   UNL A   1     -25.417   8.408  33.289  0.00  0.00    -0.472 OA
ATOM     14  C   UNL A   1     -25.505   9.863  33.669  0.00  0.00    +0.252 C 
ENDBRANCH   8  13
ENDBRANCH   5  12
ENDBRANCH   1   3
BRANCH   1  16
ATOM     15  C   UNL A   1     -25.387  -0.679  31.571  0.00  0.00    +0.079 C 
ATOM     16  C   UNL A   1     -25.189   0.773  32.028  0.00  0.00    +0.037 C 
ATOM     17  C   UNL A   1     -25.336   0.684  33.544  0.00  0.00    +0.022 C 
ATOM     18  C   UNL A   1     -24.829  -0.715  33.905  0.00  0.00    +0.089 C 
ATOM     19  N   UNL A   1     -24.758  -1.481  32.646  0.00  0.00    -0.219 NA
BRANCH  15  20
ATOM     20  C   UNL A   1     -24.855  -1.012  30.143  0.00  0.00    +0.044 C 
BRANCH  20  21
ATOM     21  C   UNL A   1     -24.973  -2.505  29.788  0.00  0.00    -0.021 C 
ATOM     22  C   UNL A   1     -23.906  -3.173  29.146  0.00  0.00    -0.004 C 
ATOM     23  C   UNL A   1     -23.989  -4.549  28.853  0.00  0.00    -0.000 C 
ATOM     24  C   UNL A   1     -25.137  -5.280  29.205  0.00  0.00    -0.000 C 
ATOM     25  C   UNL A   1     -26.232  -4.611  29.784  0.00  0.00    -0.000 C 
ATOM     26  C   UNL A   1     -26.155  -3.232  30.065  0.00  0.00    -0.004 C 
ENDBRANCH  20  21
ENDBRANCH  15  20
ENDBRANCH   1  16
BRANCH   1  27
ATOM     27  N   UNL A   1     -25.638   1.360  29.535  0.00  0.00    -0.214 NA
BRANCH  27  32
ATOM     28  C   UNL A   1     -21.970   1.839  27.092  0.00  0.00    +0.143 C 
ATOM     29  C   UNL A   1     -24.462   1.359  27.246  0.00  0.00    +0.156 C 
ATOM     30  C   UNL A   1     -21.940   0.861  28.301  0.00  0.00    +0.034 C 
ATOM     31  O   UNL A   1     -23.393   2.039  27.141  0.00  0.00    -0.350 OA
ATOM     32  C   UNL A   1     -24.485   0.917  28.851  0.00  0.00    +0.104 C 
ATOM     33  C   UNL A   1     -22.985   1.074  29.377  0.00  0.00    +0.023 C 
BRANCH  29  34
ATOM     34  C   UNL A   1     -25.688   1.614  26.461  0.00  0.00    +0.044 C 
ATOM     35  C   UNL A   1     -26.250   2.920  26.395  0.00  0.00    +0.075 C 
ATOM     36  C   UNL A   1     -27.438   3.091  25.645  0.00  0.00    +0.106 C 
ATOM     37  N   UNL A   1     -28.075   2.089  25.003  0.00  0.00    -0.208 NA
ATOM     38  C   UNL A   1     -27.543   0.849  25.079  0.00  0.00    +0.253 C 
ATOM     39  C   UNL A   1     -26.354   0.576  25.777  0.00  0.00    +0.191 C 
ATOM     40  F   UNL A   1     -25.860  -0.681  25.795  0.00  0.00    -0.200 F 
BRANCH  35  41
ATOM     41  C   UNL A   1     -25.642   4.093  27.123  0.00  0.00    +0.266 C 
ATOM     42  N   UNL A   1     -25.614   5.252  26.449  0.00  0.00    -0.200 NA
ATOM     43  C   UNL A   1     -25.026   6.479  26.963  0.00  0.00    +0.139 C 
ATOM     44  O   UNL A   1     -25.143   3.966  28.243  0.00  0.00    -0.268 OA
ENDBRANCH  35  41
BRANCH  38  45
ATOM     45  O   UNL A   1     -28.193  -0.208  24.477  0.00  0.00    -0.456 OA
BRANCH  45  46
ATOM     46  C   UNL A   1     -29.460   0.005  23.866  0.00  0.00    +0.243 C 
BRANCH  46  47
ATOM     47  C   UNL A   1     -30.065  -1.377  23.573  0.00  0.00    +0.229 C 
ATOM     48  O   UNL A   1     -30.729  -1.878  24.721  0.00  0.00    -0.216 OA
ENDBRANCH  46  47
ENDBRANCH  45  46
ENDBRANCH  38  45
ENDBRANCH  29  34
ENDBRANCH  27  32
ENDBRANCH   1  27
TORSDOF 13
