REMARK  Name = outputs/IAG933/test6/raw/output_7861_IAG933_linker_design_.xyz
REMARK  13 active torsions:
REMARK  status: ('A' for Active; 'I' for Inactive)
REMARK    1  A    between atoms: C_1  and  C_2
REMARK    2  A    between atoms: C_1  and  C_8
REMARK    3  A    between atoms: C_1  and  N_32
REMARK    4  A    between atoms: C_13  and  C_37
REMARK    5  A    between atoms: C_14  and  C_15
REMARK    6  A    between atoms: C_21  and  O_22
REMARK    7  A    between atoms: O_22  and  C_23
REMARK    8  A    between atoms: C_23  and  C_24
REMARK    9  A    between atoms: O_28  and  C_34
REMARK   10  A    between atoms: C_29  and  C_38
REMARK   11  A    between atoms: C_29  and  C_41
REMARK   12  A    between atoms: C_34  and  C_38
REMARK   13  A    between atoms: C_35  and  C_39
REMARK                            x       y       z     vdW  Elec       q    Type
REMARK                         _______ _______ _______ _____ _____    ______ ____
ROOT
ATOM      1  N   UNL A   1     -24.621  -0.024  29.236  0.00  0.00    -0.250 N 
ATOM      2  C   UNL A   1     -23.526   0.919  27.651  0.00  0.00    +0.124 A 
ATOM      3  C   UNL A   1     -24.940   1.093  27.451  0.00  0.00    +0.019 A 
ATOM      4  N   UNL A   1     -23.389   0.240  28.601  0.00  0.00    -0.170 NA
ATOM      5  C   UNL A   1     -25.597   0.564  28.481  0.00  0.00    +0.071 A 
ENDROOT
BRANCH   3   6
ATOM      6  C   UNL A   1     -25.688   1.614  26.461  0.00  0.00    +0.095 C 
ATOM      7  C   UNL A   1     -26.250   2.920  26.395  0.00  0.00    +0.059 C 
ATOM      8  C   UNL A   1     -27.438   3.091  25.645  0.00  0.00    +0.102 C 
ATOM      9  N   UNL A   1     -28.075   2.089  25.003  0.00  0.00    -0.212 NA
ATOM     10  C   UNL A   1     -27.543   0.849  25.079  0.00  0.00    +0.234 C 
ATOM     11  C   UNL A   1     -26.354   0.576  25.777  0.00  0.00    +0.244 C 
ATOM     12  F   UNL A   1     -25.860  -0.681  25.795  0.00  0.00    -0.227 F 
BRANCH   7  13
ATOM     13  C   UNL A   1     -25.642   4.093  27.123  0.00  0.00    +0.263 C 
ATOM     14  N   UNL A   1     -25.614   5.252  26.449  0.00  0.00    -0.200 NA
ATOM     15  C   UNL A   1     -25.026   6.479  26.963  0.00  0.00    +0.139 C 
ATOM     16  O   UNL A   1     -25.143   3.966  28.243  0.00  0.00    -0.269 OA
ENDBRANCH   7  13
BRANCH  10  17
ATOM     17  O   UNL A   1     -28.193  -0.208  24.477  0.00  0.00    -0.459 OA
BRANCH  17  18
ATOM     18  C   UNL A   1     -29.460   0.005  23.866  0.00  0.00    +0.242 C 
BRANCH  18  19
ATOM     19  C   UNL A   1     -30.065  -1.377  23.573  0.00  0.00    +0.229 C 
ATOM     20  O   UNL A   1     -30.729  -1.878  24.721  0.00  0.00    -0.216 OA
ENDBRANCH  18  19
ENDBRANCH  17  18
ENDBRANCH  10  17
ENDBRANCH   3   6
BRANCH   2  23
ATOM     21 CL   UNL A   1     -22.890   2.259  25.216  0.00  0.00    -0.070 Cl
ATOM     22  F   UNL A   1     -21.376   1.758  27.244  0.00  0.00    -0.213 F 
ATOM     23  C   UNL A   1     -22.528   1.615  26.796  0.00  0.00    +0.281 C 
ENDBRANCH   2  23
BRANCH   5  24
ATOM     24  C   UNL A   1     -27.008   0.504  28.764  0.00  0.00    +0.142 C 
ATOM     25  N   UNL A   1     -27.443  -0.315  29.732  0.00  0.00    -0.126 NA
BRANCH  24  26
ATOM     26  C   UNL A   1     -28.191   1.248  28.059  0.00  0.00    +0.135 C 
BRANCH  26  27
ATOM     27  C   UNL A   1     -29.289   0.333  28.557  0.00  0.00    +0.319 C 
ATOM     28  O   UNL A   1     -29.654  -0.596  27.872  0.00  0.00    -0.250 OA
BRANCH  27  29
ATOM     29  O   UNL A   1     -29.782   0.651  29.859  0.00  0.00    -0.444 OA
ATOM     30  C   UNL A   1     -30.071  -0.227  30.984  0.00  0.00    +0.256 C 
ENDBRANCH  27  29
ENDBRANCH  26  27
ENDBRANCH  24  26
ENDBRANCH   5  24
BRANCH   1  31
ATOM     31  C   UNL A   1     -24.855  -1.012  30.143  0.00  0.00    +0.143 C 
BRANCH  31  32
ATOM     32  C   UNL A   1     -24.973  -2.505  29.788  0.00  0.00    +0.001 C 
ATOM     33  C   UNL A   1     -23.906  -3.173  29.146  0.00  0.00    -0.002 C 
ATOM     34  C   UNL A   1     -23.989  -4.549  28.853  0.00  0.00    -0.000 C 
ATOM     35  C   UNL A   1     -25.137  -5.280  29.205  0.00  0.00    -0.000 C 
ATOM     36  C   UNL A   1     -26.232  -4.611  29.784  0.00  0.00    -0.000 C 
ATOM     37  C   UNL A   1     -26.155  -3.232  30.065  0.00  0.00    -0.002 C 
ENDBRANCH  31  32
BRANCH  31  38
ATOM     38  C   UNL A   1     -25.387  -0.679  31.571  0.00  0.00    +0.099 C 
ATOM     39  C   UNL A   1     -25.189   0.773  32.028  0.00  0.00    +0.021 C 
ATOM     40  C   UNL A   1     -25.336   0.684  33.544  0.00  0.00    +0.020 C 
ATOM     41  C   UNL A   1     -24.829  -0.715  33.905  0.00  0.00    +0.089 C 
ATOM     42  N   UNL A   1     -24.758  -1.481  32.646  0.00  0.00    -0.217 NA
ENDBRANCH  31  38
ENDBRANCH   1  31
TORSDOF 13
