MODEL 786
MODEL 1
REMARK VINA RESULT:    -6.232      0.000      0.000
REMARK INTER + INTRA:          -7.259
REMARK INTER:                  -6.961
REMARK INTRA:                  -0.297
REMARK UNBOUND:                -0.297
REMARK  Name = No_786-gen_results/8p0m/2024-11-27-11-27-31/
REMARK  2 active torsions:
REMARK  status: ('A' for Active; 'I' for Inactive)
REMARK    1  A    between atoms: C_1  and  C_2
REMARK    2  A    between atoms: C_5  and  C_11
REMARK                            x       y       z     vdW  Elec       q    Type
REMARK                         _______ _______ _______ _____ _____    ______ ____
ROOT
ATOM      1  C   UNL A   1     -24.009  -0.620  28.969  0.00  0.00    +0.054 A 
ATOM      2  C   UNL A   1     -25.385  -0.761  29.111  0.00  0.00    +0.005 A 
ATOM      3  C   UNL A   1     -26.115  -2.027  29.407  0.00  0.00    +0.005 A 
ATOM      4  C   UNL A   1     -25.330  -3.218  29.386  0.00  0.00    +0.057 A 
ATOM      5  C   UNL A   1     -23.945  -3.059  29.181  0.00  0.00    +0.005 A 
ATOM      6  C   UNL A   1     -23.338  -1.882  28.972  0.00  0.00    +0.005 A 
ENDROOT
BRANCH   1   7
ATOM      7  C   UNL A   1     -23.512   0.458  28.737  0.00  0.00    +0.249 C 
ATOM      8  O   UNL A   1     -22.851   1.203  29.604  0.00  0.00    -0.270 OA
ATOM      9  N   UNL A   1     -23.132   0.735  27.448  0.00  0.00    -0.268 N 
ATOM     10  C   UNL A   1     -22.378   1.888  27.036  0.00  0.00    +0.120 C 
ATOM     11  C   UNL A   1     -22.807   2.406  25.787  0.00  0.00    -0.007 C 
ATOM     12  C   UNL A   1     -23.878   1.878  25.343  0.00  0.00    -0.007 C 
ATOM     13  C   UNL A   1     -24.270   0.830  26.222  0.00  0.00    +0.120 C 
ENDBRANCH   1   7
BRANCH   4  14
ATOM     14  C   UNL A   1     -26.019  -4.457  29.644  0.00  0.00    +0.284 C 
ATOM     15  N   UNL A   1     -27.273  -4.459  29.802  0.00  0.00    -0.084 NA
ATOM     16  O   UNL A   1     -25.439  -5.605  29.586  0.00  0.00    -0.267 OA
ENDBRANCH   4  14
TORSDOF 2
ENDMDL
ENDMDL
