REMARK  Name = No_787-gen_results/8p0m/2024-11-27-11-27-31/
REMARK  9 active torsions:
REMARK  status: ('A' for Active; 'I' for Inactive)
REMARK    1  A    between atoms: C_2  and  C_4
REMARK    2  A    between atoms: C_4  and  C_5
REMARK    3  A    between atoms: C_5  and  C_6
REMARK    4  A    between atoms: C_6  and  C_7
REMARK    5  A    between atoms: C_7  and  C_8
REMARK    6  A    between atoms: C_10  and  C_14
REMARK    7  A    between atoms: C_14  and  N_15
REMARK    8  A    between atoms: N_18  and  C_19
REMARK    9  A    between atoms: C_20  and  C_27
REMARK                            x       y       z     vdW  Elec       q    Type
REMARK                         _______ _______ _______ _____ _____    ______ ____
ROOT
ATOM      1  C   UNL A   1     -26.654   1.156  26.116  0.00  0.00    -0.015 A 
ATOM      2  C   UNL A   1     -25.328   1.463  26.616  0.00  0.00    -0.005 A 
ATOM      3  C   UNL A   1     -24.209   1.549  25.804  0.00  0.00    +0.021 A 
ATOM      4  C   UNL A   1     -24.094   0.757  24.712  0.00  0.00    -0.001 A 
ATOM      5  C   UNL A   1     -25.385   0.236  24.238  0.00  0.00    -0.001 A 
ATOM      6  C   UNL A   1     -26.576   0.352  24.938  0.00  0.00    -0.004 A 
ENDROOT
BRANCH   1   7
ATOM      7  C   UNL A   1     -27.838   1.052  26.994  0.00  0.00    +0.099 C 
BRANCH   7   8
ATOM      8  C   UNL A   1     -29.051   0.706  26.502  0.00  0.00    +0.212 C 
ATOM      9  O   UNL A   1     -29.313   0.907  25.232  0.00  0.00    -0.288 OA
BRANCH   8  10
ATOM     10  C   UNL A   1     -29.941   0.259  27.439  0.00  0.00    +0.219 C 
ATOM     11  O   UNL A   1     -31.245   0.071  26.906  0.00  0.00    -0.288 OA
BRANCH  10  12
ATOM     12  C   UNL A   1     -29.807   0.189  28.663  0.00  0.00    +0.186 C 
BRANCH  12  14
ATOM     13  O   UNL A   1     -28.123  -1.335  28.487  0.00  0.00    -0.245 OA
ATOM     14  C   UNL A   1     -28.521  -0.436  29.078  0.00  0.00    +0.373 C 
ATOM     15  O   UNL A   1     -27.915   0.078  30.039  0.00  0.00    -0.245 OA
ENDBRANCH  12  14
ENDBRANCH  10  12
ENDBRANCH   8  10
ENDBRANCH   7   8
ENDBRANCH   1   7
BRANCH   3  16
ATOM     16  C   UNL A   1     -22.964   2.171  26.330  0.00  0.00    +0.247 C 
BRANCH  16  17
ATOM     17  N   UNL A   1     -22.225   1.669  27.276  0.00  0.00    -0.084 NA
ATOM     18  C   UNL A   1     -22.317   1.155  28.336  0.00  0.00    +0.500 C 
ATOM     19  N   UNL A   1     -21.312   0.556  28.954  0.00  0.00    +0.132 NA
ATOM     20  N   UNL A   1     -23.480   1.201  29.076  0.00  0.00    -0.063 NA
BRANCH  20  21
ATOM     21  C   UNL A   1     -23.680   0.620  30.317  0.00  0.00    +0.163 A 
ATOM     22  C   UNL A   1     -24.678   1.171  31.102  0.00  0.00    +0.106 A 
ATOM     23  C   UNL A   1     -25.195   0.427  32.211  0.00  0.00    +0.007 A 
ATOM     24  C   UNL A   1     -24.563  -0.829  32.457  0.00  0.00    +0.000 A 
ATOM     25  C   UNL A   1     -23.512  -1.262  31.724  0.00  0.00    +0.003 A 
ATOM     26  C   UNL A   1     -23.128  -0.596  30.577  0.00  0.00    +0.037 A 
BRANCH  22  27
ATOM     27  C   UNL A   1     -25.393   2.435  30.787  0.00  0.00    +0.421 C 
ATOM     28  F   UNL A   1     -25.537   2.658  29.634  0.00  0.00    -0.166 F 
ATOM     29  F   UNL A   1     -26.544   2.440  31.495  0.00  0.00    -0.166 F 
ATOM     30  F   UNL A   1     -24.671   3.461  31.386  0.00  0.00    -0.166 F 
ENDBRANCH  22  27
ENDBRANCH  20  21
ENDBRANCH  16  17
ENDBRANCH   3  16
TORSDOF 9
