REMARK  Name = outputs/IAG933/test6/raw/output_7871_IAG933_linker_design_.xyz
REMARK  11 active torsions:
REMARK  status: ('A' for Active; 'I' for Inactive)
REMARK    1  A    between atoms: C_1  and  C_2
REMARK    2  A    between atoms: C_1  and  C_8
REMARK    3  A    between atoms: C_1  and  N_44
REMARK    4  A    between atoms: C_13  and  C_31
REMARK    5  A    between atoms: C_14  and  C_15
REMARK    6  A    between atoms: C_21  and  O_22
REMARK    7  A    between atoms: O_22  and  C_23
REMARK    8  A    between atoms: C_23  and  C_24
REMARK    9  A    between atoms: C_30  and  O_36
REMARK   10  A    between atoms: C_32  and  C_41
REMARK   11  A    between atoms: O_36  and  C_40
REMARK                            x       y       z     vdW  Elec       q    Type
REMARK                         _______ _______ _______ _____ _____    ______ ____
ROOT
ATOM      1  C   UNL A   1     -24.651   1.241  27.328  0.00  0.00    +0.014 C 
ATOM      2  C   UNL A   1     -22.100   1.237  27.603  0.00  0.00    +0.138 C 
ATOM      3  C   UNL A   1     -21.961   0.658  28.884  0.00  0.00    +0.045 C 
ATOM      4  C   UNL A   1     -22.747  -0.160  29.491  0.00  0.00    +0.068 C 
ATOM      5  C   UNL A   1     -23.078   2.334  25.639  0.00  0.00    +0.033 C 
ATOM      6  F   UNL A   1     -20.932   1.514  27.121  0.00  0.00    -0.204 F 
ATOM      7  C   UNL A   1     -25.057   0.734  28.565  0.00  0.00    +0.052 C 
ATOM      8  C   UNL A   1     -23.286   1.556  26.883  0.00  0.00    +0.007 C 
ATOM      9  N   UNL A   1     -24.251  -0.117  29.360  0.00  0.00    -0.282 N 
ENDROOT
BRANCH   1  10
ATOM     10  C   UNL A   1     -25.688   1.614  26.461  0.00  0.00    +0.039 C 
ATOM     11  C   UNL A   1     -26.250   2.920  26.395  0.00  0.00    +0.077 C 
ATOM     12  C   UNL A   1     -27.438   3.091  25.645  0.00  0.00    +0.107 C 
ATOM     13  N   UNL A   1     -28.075   2.089  25.003  0.00  0.00    -0.208 NA
ATOM     14  C   UNL A   1     -27.543   0.849  25.079  0.00  0.00    +0.253 C 
ATOM     15  C   UNL A   1     -26.354   0.576  25.777  0.00  0.00    +0.193 C 
ATOM     16  F   UNL A   1     -25.860  -0.681  25.795  0.00  0.00    -0.199 F 
BRANCH  11  17
ATOM     17  C   UNL A   1     -25.642   4.093  27.123  0.00  0.00    +0.266 C 
ATOM     18  N   UNL A   1     -25.614   5.252  26.449  0.00  0.00    -0.200 NA
ATOM     19  C   UNL A   1     -25.026   6.479  26.963  0.00  0.00    +0.139 C 
ATOM     20  O   UNL A   1     -25.143   3.966  28.243  0.00  0.00    -0.268 OA
ENDBRANCH  11  17
BRANCH  14  21
ATOM     21  O   UNL A   1     -28.193  -0.208  24.477  0.00  0.00    -0.456 OA
BRANCH  21  22
ATOM     22  C   UNL A   1     -29.460   0.005  23.866  0.00  0.00    +0.243 C 
BRANCH  22  23
ATOM     23  C   UNL A   1     -30.065  -1.377  23.573  0.00  0.00    +0.229 C 
ATOM     24  O   UNL A   1     -30.729  -1.878  24.721  0.00  0.00    -0.216 OA
ENDBRANCH  22  23
ENDBRANCH  21  22
ENDBRANCH  14  21
ENDBRANCH   1  10
BRANCH   7  27
ATOM     25  C   UNL A   1     -26.845   2.158  30.029  0.00  0.00    +0.038 C 
ATOM     26  C   UNL A   1     -28.228   2.276  30.544  0.00  0.00    +0.139 C 
ATOM     27  C   UNL A   1     -26.414   1.016  29.160  0.00  0.00    +0.017 C 
ATOM     28  C   UNL A   1     -29.152   1.541  29.899  0.00  0.00    +0.037 C 
ATOM     29  C   UNL A   1     -28.821   0.389  29.196  0.00  0.00    +0.003 C 
ATOM     30  C   UNL A   1     -27.460   0.086  28.869  0.00  0.00    +0.001 C 
BRANCH  26  31
ATOM     31  O   UNL A   1     -28.920   2.866  31.656  0.00  0.00    -0.475 OA
BRANCH  31  33
ATOM     32  C   UNL A   1     -27.578   4.616  32.645  0.00  0.00    +0.051 C 
ATOM     33  C   UNL A   1     -28.211   3.231  32.819  0.00  0.00    +0.205 C 
ENDBRANCH  31  33
ENDBRANCH  26  31
ENDBRANCH   7  27
BRANCH   9  34
ATOM     34  C   UNL A   1     -24.855  -1.012  30.143  0.00  0.00    +0.116 C 
BRANCH  34  35
ATOM     35  C   UNL A   1     -24.973  -2.505  29.788  0.00  0.00    -0.003 C 
ATOM     36  C   UNL A   1     -23.906  -3.173  29.146  0.00  0.00    -0.003 C 
ATOM     37  C   UNL A   1     -23.989  -4.549  28.853  0.00  0.00    -0.000 C 
ATOM     38  C   UNL A   1     -25.137  -5.280  29.205  0.00  0.00    -0.000 C 
ATOM     39  C   UNL A   1     -26.232  -4.611  29.784  0.00  0.00    -0.000 C 
ATOM     40  C   UNL A   1     -26.155  -3.232  30.065  0.00  0.00    -0.003 C 
ENDBRANCH  34  35
BRANCH  34  41
ATOM     41  C   UNL A   1     -25.387  -0.679  31.571  0.00  0.00    +0.095 C 
ATOM     42  C   UNL A   1     -25.189   0.773  32.028  0.00  0.00    +0.021 C 
ATOM     43  C   UNL A   1     -25.336   0.684  33.544  0.00  0.00    +0.020 C 
ATOM     44  C   UNL A   1     -24.829  -0.715  33.905  0.00  0.00    +0.089 C 
ATOM     45  N   UNL A   1     -24.758  -1.481  32.646  0.00  0.00    -0.217 NA
ENDBRANCH  34  41
ENDBRANCH   9  34
TORSDOF 11
