REMARK  Name = outputs/IAG933/test6/raw/output_7877_IAG933_linker_design_.xyz
REMARK  13 active torsions:
REMARK  status: ('A' for Active; 'I' for Inactive)
REMARK    1  A    between atoms: C_1  and  C_2
REMARK    2  A    between atoms: C_1  and  C_8
REMARK    3  A    between atoms: C_1  and  N_37
REMARK    4  A    between atoms: C_13  and  C_41
REMARK    5  A    between atoms: C_14  and  C_15
REMARK    6  A    between atoms: C_21  and  O_22
REMARK    7  A    between atoms: O_22  and  C_23
REMARK    8  A    between atoms: C_23  and  C_24
REMARK    9  A    between atoms: O_28  and  C_36
REMARK   10  A    between atoms: C_29  and  C_32
REMARK   11  A    between atoms: C_29  and  C_39
REMARK   12  A    between atoms: C_33  and  N_37
REMARK   13  A    between atoms: C_36  and  N_37
REMARK                            x       y       z     vdW  Elec       q    Type
REMARK                         _______ _______ _______ _____ _____    ______ ____
ROOT
ATOM      1  F   UNL A   1     -21.201   2.056  27.835  0.00  0.00    -0.237 F 
ATOM      2  C   UNL A   1     -23.008   2.341  25.565  0.00  0.00    +0.003 C 
ATOM      3  C   UNL A   1     -24.475   1.052  29.233  0.00  0.00    +0.160 C 
ATOM      4  C   UNL A   1     -23.047   0.779  29.071  0.00  0.00    +0.081 C 
ATOM      5  C   UNL A   1     -22.360   1.283  27.969  0.00  0.00    +0.165 C 
ATOM      6  C   UNL A   1     -24.653   1.524  27.434  0.00  0.00    +0.068 C 
ATOM      7  C   UNL A   1     -23.217   1.614  26.815  0.00  0.00    +0.041 C 
ENDROOT
BRANCH   6   8
ATOM      8  C   UNL A   1     -25.688   1.614  26.461  0.00  0.00    +0.019 C 
ATOM      9  C   UNL A   1     -26.250   2.920  26.395  0.00  0.00    +0.073 C 
ATOM     10  C   UNL A   1     -27.438   3.091  25.645  0.00  0.00    +0.106 C 
ATOM     11  N   UNL A   1     -28.075   2.089  25.003  0.00  0.00    -0.208 NA
ATOM     12  C   UNL A   1     -27.543   0.849  25.079  0.00  0.00    +0.253 C 
ATOM     13  C   UNL A   1     -26.354   0.576  25.777  0.00  0.00    +0.189 C 
ATOM     14  F   UNL A   1     -25.860  -0.681  25.795  0.00  0.00    -0.200 F 
BRANCH   9  15
ATOM     15  C   UNL A   1     -25.642   4.093  27.123  0.00  0.00    +0.266 C 
ATOM     16  N   UNL A   1     -25.614   5.252  26.449  0.00  0.00    -0.200 NA
ATOM     17  C   UNL A   1     -25.026   6.479  26.963  0.00  0.00    +0.139 C 
ATOM     18  O   UNL A   1     -25.143   3.966  28.243  0.00  0.00    -0.268 OA
ENDBRANCH   9  15
BRANCH  12  19
ATOM     19  O   UNL A   1     -28.193  -0.208  24.477  0.00  0.00    -0.456 OA
BRANCH  19  20
ATOM     20  C   UNL A   1     -29.460   0.005  23.866  0.00  0.00    +0.243 C 
BRANCH  20  21
ATOM     21  C   UNL A   1     -30.065  -1.377  23.573  0.00  0.00    +0.229 C 
ATOM     22  O   UNL A   1     -30.729  -1.878  24.721  0.00  0.00    -0.216 OA
ENDBRANCH  20  21
ENDBRANCH  19  20
ENDBRANCH  12  19
ENDBRANCH   6   8
BRANCH   3  23
ATOM     23  O   UNL A   1     -24.605   2.234  30.000  0.00  0.00    -0.282 OA
ATOM     24 BR   UNL A   1     -25.327   3.385  31.329  0.00  0.00    +0.101 Br
ENDBRANCH   3  23
BRANCH   4  25
ATOM     25  C   UNL A   1     -22.261   0.030  29.788  0.00  0.00    +0.079 C 
BRANCH  25  26
ATOM     26  C   UNL A   1     -21.363  -0.640  29.341  0.00  0.00    +0.208 C 
ATOM     27  O   UNL A   1     -20.593  -0.423  28.375  0.00  0.00    -0.288 OA
ENDBRANCH  25  26
ENDBRANCH   4  25
BRANCH   3  28
ATOM     28  N   UNL A   1     -25.356  -0.161  29.164  0.00  0.00    -0.249 NA
BRANCH  28  30
ATOM     29  C   UNL A   1     -27.954  -0.244  28.867  0.00  0.00    +0.019 C 
ATOM     30  C   UNL A   1     -26.607  -0.655  28.642  0.00  0.00    +0.074 C 
ENDBRANCH  28  30
BRANCH  28  31
ATOM     31  C   UNL A   1     -24.855  -1.012  30.143  0.00  0.00    +0.098 C 
BRANCH  31  32
ATOM     32  C   UNL A   1     -24.973  -2.505  29.788  0.00  0.00    -0.006 C 
ATOM     33  C   UNL A   1     -23.906  -3.173  29.146  0.00  0.00    -0.003 C 
ATOM     34  C   UNL A   1     -23.989  -4.549  28.853  0.00  0.00    -0.000 C 
ATOM     35  C   UNL A   1     -25.137  -5.280  29.205  0.00  0.00    -0.000 C 
ATOM     36  C   UNL A   1     -26.232  -4.611  29.784  0.00  0.00    -0.000 C 
ATOM     37  C   UNL A   1     -26.155  -3.232  30.065  0.00  0.00    -0.003 C 
ENDBRANCH  31  32
BRANCH  31  38
ATOM     38  C   UNL A   1     -25.387  -0.679  31.571  0.00  0.00    +0.092 C 
ATOM     39  C   UNL A   1     -25.189   0.773  32.028  0.00  0.00    +0.021 C 
ATOM     40  C   UNL A   1     -25.336   0.684  33.544  0.00  0.00    +0.020 C 
ATOM     41  C   UNL A   1     -24.829  -0.715  33.905  0.00  0.00    +0.089 C 
ATOM     42  N   UNL A   1     -24.758  -1.481  32.646  0.00  0.00    -0.218 NA
ENDBRANCH  31  38
ENDBRANCH  28  31
ENDBRANCH   3  28
TORSDOF 13
