REMARK  Name = outputs/IAG933/test6/raw/output_7883_IAG933_linker_design_.xyz
REMARK  15 active torsions:
REMARK  status: ('A' for Active; 'I' for Inactive)
REMARK    1  A    between atoms: C_1  and  C_2
REMARK    2  A    between atoms: C_1  and  C_8
REMARK    3  A    between atoms: C_1  and  C_33
REMARK    4  A    between atoms: C_13  and  C_44
REMARK    5  A    between atoms: C_14  and  C_15
REMARK    6  A    between atoms: C_21  and  O_22
REMARK    7  A    between atoms: O_22  and  C_23
REMARK    8  A    between atoms: C_23  and  C_24
REMARK    9  A    between atoms: C_28  and  C_49
REMARK   10  A    between atoms: C_29  and  C_33
REMARK   11  A    between atoms: C_29  and  C_49
REMARK   12  A    between atoms: C_30  and  C_33
REMARK   13  A    between atoms: C_32  and  C_39
REMARK   14  A    between atoms: C_32  and  N_41
REMARK   15  A    between atoms: N_41  and  C_42
REMARK                            x       y       z     vdW  Elec       q    Type
REMARK                         _______ _______ _______ _____ _____    ______ ____
ROOT
ATOM      1  C   UNL A   1     -25.360   0.070  29.285  0.00  0.00    +0.007 C 
ENDROOT
BRANCH   1   2
ATOM      2  C   UNL A   1     -24.262   0.617  28.439  0.00  0.00    +0.015 C 
ATOM      3  C   UNL A   1     -21.935   0.883  27.004  0.00  0.00    +0.209 C 
ATOM      4  F   UNL A   1     -20.764   1.189  27.542  0.00  0.00    -0.225 F 
ATOM      5  S   UNL A   1     -23.041   2.287  26.715  0.00  0.00    -0.103 S 
ATOM      6  C   UNL A   1     -24.542   1.437  27.250  0.00  0.00    +0.075 C 
ATOM      7  C   UNL A   1     -22.824   0.481  29.121  0.00  0.00    +0.005 C 
ATOM      8  C   UNL A   1     -21.842   0.481  27.994  0.00  0.00    +0.047 C 
BRANCH   6   9
ATOM      9  C   UNL A   1     -25.688   1.614  26.461  0.00  0.00    +0.026 C 
ATOM     10  C   UNL A   1     -26.250   2.920  26.395  0.00  0.00    +0.073 C 
ATOM     11  C   UNL A   1     -27.438   3.091  25.645  0.00  0.00    +0.106 C 
ATOM     12  N   UNL A   1     -28.075   2.089  25.003  0.00  0.00    -0.208 NA
ATOM     13  C   UNL A   1     -27.543   0.849  25.079  0.00  0.00    +0.253 C 
ATOM     14  C   UNL A   1     -26.354   0.576  25.777  0.00  0.00    +0.190 C 
ATOM     15  F   UNL A   1     -25.860  -0.681  25.795  0.00  0.00    -0.200 F 
BRANCH  10  16
ATOM     16  C   UNL A   1     -25.642   4.093  27.123  0.00  0.00    +0.266 C 
ATOM     17  N   UNL A   1     -25.614   5.252  26.449  0.00  0.00    -0.200 NA
ATOM     18  C   UNL A   1     -25.026   6.479  26.963  0.00  0.00    +0.139 C 
ATOM     19  O   UNL A   1     -25.143   3.966  28.243  0.00  0.00    -0.268 OA
ENDBRANCH  10  16
BRANCH  13  20
ATOM     20  O   UNL A   1     -28.193  -0.208  24.477  0.00  0.00    -0.456 OA
BRANCH  20  21
ATOM     21  C   UNL A   1     -29.460   0.005  23.866  0.00  0.00    +0.243 C 
BRANCH  21  22
ATOM     22  C   UNL A   1     -30.065  -1.377  23.573  0.00  0.00    +0.229 C 
ATOM     23  O   UNL A   1     -30.729  -1.878  24.721  0.00  0.00    -0.216 OA
ENDBRANCH  21  22
ENDBRANCH  20  21
ENDBRANCH  13  20
ENDBRANCH   6   9
ENDBRANCH   1   2
BRANCH   1  24
ATOM     24  C   UNL A   1     -24.855  -1.012  30.143  0.00  0.00    +0.038 C 
BRANCH  24  25
ATOM     25  C   UNL A   1     -24.973  -2.505  29.788  0.00  0.00    -0.021 C 
ATOM     26  C   UNL A   1     -23.906  -3.173  29.146  0.00  0.00    -0.004 C 
ATOM     27  C   UNL A   1     -23.989  -4.549  28.853  0.00  0.00    -0.000 C 
ATOM     28  C   UNL A   1     -25.137  -5.280  29.205  0.00  0.00    -0.000 C 
ATOM     29  C   UNL A   1     -26.232  -4.611  29.784  0.00  0.00    -0.000 C 
ATOM     30  C   UNL A   1     -26.155  -3.232  30.065  0.00  0.00    -0.004 C 
ENDBRANCH  24  25
BRANCH  24  31
ATOM     31  C   UNL A   1     -25.387  -0.679  31.571  0.00  0.00    +0.077 C 
ATOM     32  C   UNL A   1     -25.189   0.773  32.028  0.00  0.00    +0.019 C 
ATOM     33  C   UNL A   1     -25.336   0.684  33.544  0.00  0.00    +0.020 C 
ATOM     34  C   UNL A   1     -24.829  -0.715  33.905  0.00  0.00    +0.089 C 
ATOM     35  N   UNL A   1     -24.758  -1.481  32.646  0.00  0.00    -0.219 NA
ENDBRANCH  24  31
ENDBRANCH   1  24
BRANCH   1  36
ATOM     36  C   UNL A   1     -26.802  -0.017  28.736  0.00  0.00    +0.010 C 
BRANCH  36  37
ATOM     37  C   UNL A   1     -27.398   1.455  29.043  0.00  0.00    +0.085 C 
BRANCH  37  38
ATOM     38  C   UNL A   1     -28.792   1.386  28.476  0.00  0.00    +0.226 C 
ATOM     39  O   UNL A   1     -29.271   0.339  28.064  0.00  0.00    -0.275 OA
ATOM     40  N   UNL A   1     -29.509   2.577  28.608  0.00  0.00    -0.273 N 
BRANCH  40  44
ATOM     41  C   UNL A   1     -31.322   3.724  25.549  0.00  0.00    +0.002 C 
ATOM     42  C   UNL A   1     -30.033   4.758  27.328  0.00  0.00    +0.020 C 
ATOM     43  C   UNL A   1     -30.983   5.121  26.118  0.00  0.00    +0.002 C 
ATOM     44  C   UNL A   1     -29.994   3.268  27.496  0.00  0.00    +0.076 C 
ATOM     45  C   UNL A   1     -30.906   2.559  26.472  0.00  0.00    +0.020 C 
ENDBRANCH  40  44
BRANCH  40  46
ATOM     46  C   UNL A   1     -29.721   2.960  29.959  0.00  0.00    +0.182 C 
BRANCH  46  47
ATOM     47  C   UNL A   1     -30.229   4.197  30.388  0.00  0.00    +0.281 C 
ATOM     48  N   UNL A   1     -29.818   4.781  31.566  0.00  0.00    -0.086 NA
ATOM     49  O   UNL A   1     -31.147   4.697  29.727  0.00  0.00    -0.270 OA
ENDBRANCH  46  47
ENDBRANCH  40  46
ENDBRANCH  37  38
ENDBRANCH  36  37
ENDBRANCH   1  36
TORSDOF 15
