REMARK  Name = outputs/IAG933/test6/raw/output_7886_IAG933_linker_design_.xyz
REMARK  11 active torsions:
REMARK  status: ('A' for Active; 'I' for Inactive)
REMARK    1  A    between atoms: C_1  and  C_2
REMARK    2  A    between atoms: C_1  and  C_8
REMARK    3  A    between atoms: C_1  and  C_29
REMARK    4  A    between atoms: C_13  and  C_42
REMARK    5  A    between atoms: C_14  and  C_15
REMARK    6  A    between atoms: C_21  and  O_22
REMARK    7  A    between atoms: O_22  and  C_23
REMARK    8  A    between atoms: C_23  and  C_24
REMARK    9  A    between atoms: C_32  and  N_35
REMARK   10  A    between atoms: C_32  and  C_43
REMARK   11  A    between atoms: N_39  and  C_43
REMARK                            x       y       z     vdW  Elec       q    Type
REMARK                         _______ _______ _______ _____ _____    ______ ____
ROOT
ATOM      1  C   UNL A   1     -21.690   1.462  27.860  0.00  0.00    +0.003 C 
ATOM      2  C   UNL A   1     -24.714  -0.062  29.241  0.00  0.00    +0.077 C 
ATOM      3  C   UNL A   1     -22.081   1.614  26.535  0.00  0.00    +0.146 C 
ATOM      4  C   UNL A   1     -23.396   1.376  26.116  0.00  0.00    +0.215 C 
ATOM      5  F   UNL A   1     -21.234   1.947  25.589  0.00  0.00    -0.206 F 
ATOM      6  C   UNL A   1     -24.055   0.899  28.552  0.00  0.00    +0.070 C 
ATOM      7  F   UNL A   1     -23.645   1.225  24.735  0.00  0.00    -0.230 F 
ATOM      8  N   UNL A   1     -25.197   1.686  29.497  0.00  0.00    -0.271 NA
ATOM      9  C   UNL A   1     -22.610   0.941  28.771  0.00  0.00    +0.044 C 
ATOM     10  C   UNL A   1     -24.422   1.294  27.039  0.00  0.00    +0.079 C 
ENDROOT
BRANCH  10  11
ATOM     11  C   UNL A   1     -25.688   1.614  26.461  0.00  0.00    +0.020 C 
ATOM     12  C   UNL A   1     -26.250   2.920  26.395  0.00  0.00    +0.073 C 
ATOM     13  C   UNL A   1     -27.438   3.091  25.645  0.00  0.00    +0.106 C 
ATOM     14  N   UNL A   1     -28.075   2.089  25.003  0.00  0.00    -0.208 NA
ATOM     15  C   UNL A   1     -27.543   0.849  25.079  0.00  0.00    +0.253 C 
ATOM     16  C   UNL A   1     -26.354   0.576  25.777  0.00  0.00    +0.189 C 
ATOM     17  F   UNL A   1     -25.860  -0.681  25.795  0.00  0.00    -0.200 F 
BRANCH  12  18
ATOM     18  C   UNL A   1     -25.642   4.093  27.123  0.00  0.00    +0.266 C 
ATOM     19  N   UNL A   1     -25.614   5.252  26.449  0.00  0.00    -0.200 NA
ATOM     20  C   UNL A   1     -25.026   6.479  26.963  0.00  0.00    +0.139 C 
ATOM     21  O   UNL A   1     -25.143   3.966  28.243  0.00  0.00    -0.268 OA
ENDBRANCH  12  18
BRANCH  15  22
ATOM     22  O   UNL A   1     -28.193  -0.208  24.477  0.00  0.00    -0.456 OA
BRANCH  22  23
ATOM     23  C   UNL A   1     -29.460   0.005  23.866  0.00  0.00    +0.243 C 
BRANCH  23  24
ATOM     24  C   UNL A   1     -30.065  -1.377  23.573  0.00  0.00    +0.229 C 
ATOM     25  O   UNL A   1     -30.729  -1.878  24.721  0.00  0.00    -0.216 OA
ENDBRANCH  23  24
ENDBRANCH  22  23
ENDBRANCH  15  22
ENDBRANCH  10  11
BRANCH   2  26
ATOM     26  C   UNL A   1     -24.855  -1.012  30.143  0.00  0.00    +0.054 C 
BRANCH  26  27
ATOM     27  C   UNL A   1     -24.973  -2.505  29.788  0.00  0.00    -0.020 C 
ATOM     28  C   UNL A   1     -23.906  -3.173  29.146  0.00  0.00    -0.004 C 
ATOM     29  C   UNL A   1     -23.989  -4.549  28.853  0.00  0.00    -0.000 C 
ATOM     30  C   UNL A   1     -25.137  -5.280  29.205  0.00  0.00    -0.000 C 
ATOM     31  C   UNL A   1     -26.232  -4.611  29.784  0.00  0.00    -0.000 C 
ATOM     32  C   UNL A   1     -26.155  -3.232  30.065  0.00  0.00    -0.004 C 
ENDBRANCH  26  27
BRANCH  26  33
ATOM     33  C   UNL A   1     -25.387  -0.679  31.571  0.00  0.00    +0.078 C 
ATOM     34  C   UNL A   1     -25.189   0.773  32.028  0.00  0.00    +0.019 C 
ATOM     35  C   UNL A   1     -25.336   0.684  33.544  0.00  0.00    +0.020 C 
ATOM     36  C   UNL A   1     -24.829  -0.715  33.905  0.00  0.00    +0.089 C 
ATOM     37  N   UNL A   1     -24.758  -1.481  32.646  0.00  0.00    -0.219 NA
ENDBRANCH  26  33
ENDBRANCH   2  26
BRANCH   8  38
ATOM     38  C   UNL A   1     -24.321   2.421  30.415  0.00  0.00    +0.096 C 
BRANCH  38  39
ATOM     39  C   UNL A   1     -24.843   3.736  31.054  0.00  0.00    +0.134 C 
BRANCH  39  40
ATOM     40  N   UNL A   1     -25.477   4.017  32.364  0.00  0.00    -0.184 NA
ATOM     41  N   UNL A   1     -26.697   5.758  31.355  0.00  0.00    -0.068 NA
ATOM     42  O   UNL A   1     -27.485   4.429  33.011  0.00  0.00    -0.247 OA
ATOM     43  C   UNL A   1     -26.560   4.723  32.286  0.00  0.00    +0.359 C 
ENDBRANCH  39  40
ENDBRANCH  38  39
ENDBRANCH   8  38
TORSDOF 11
