REMARK  Name = outputs/IAG933/test6/raw/output_7887_IAG933_linker_design_.xyz
REMARK  13 active torsions:
REMARK  status: ('A' for Active; 'I' for Inactive)
REMARK    1  A    between atoms: C_1  and  C_2
REMARK    2  A    between atoms: C_1  and  C_8
REMARK    3  A    between atoms: C_1  and  N_38
REMARK    4  A    between atoms: C_13  and  C_40
REMARK    5  A    between atoms: C_14  and  C_15
REMARK    6  A    between atoms: C_21  and  O_22
REMARK    7  A    between atoms: O_22  and  C_23
REMARK    8  A    between atoms: C_23  and  C_24
REMARK    9  A    between atoms: C_30  and  C_34
REMARK   10  A    between atoms: C_32  and  C_36
REMARK   11  A    between atoms: C_32  and  N_38
REMARK   12  A    between atoms: C_34  and  N_39
REMARK   13  A    between atoms: N_38  and  C_44
REMARK                            x       y       z     vdW  Elec       q    Type
REMARK                         _______ _______ _______ _____ _____    ______ ____
ROOT
ATOM      1  N   UNL A   1     -25.518  -0.095  29.058  0.00  0.00    -0.187 N 
ENDROOT
BRANCH   1   8
ATOM      2  C   UNL A   1     -23.139   1.549  26.633  0.00  0.00    +0.199 C 
ATOM      3  C   UNL A   1     -22.892   2.138  25.261  0.00  0.00    +0.053 C 
ATOM      4  C   UNL A   1     -22.129   0.778  28.639  0.00  0.00    +0.421 C 
ATOM      5  C   UNL A   1     -24.426   1.278  27.194  0.00  0.00    +0.102 C 
ATOM      6  O   UNL A   1     -22.017   1.244  27.350  0.00  0.00    -0.436 OA
ATOM      7  N   UNL A   1     -23.345   0.531  29.167  0.00  0.00    +0.005 NA
ATOM      8  C   UNL A   1     -24.499   0.607  28.454  0.00  0.00    +0.328 C 
BRANCH   5   9
ATOM      9  C   UNL A   1     -25.688   1.614  26.461  0.00  0.00    +0.045 C 
ATOM     10  C   UNL A   1     -26.250   2.920  26.395  0.00  0.00    +0.077 C 
ATOM     11  C   UNL A   1     -27.438   3.091  25.645  0.00  0.00    +0.107 C 
ATOM     12  N   UNL A   1     -28.075   2.089  25.003  0.00  0.00    -0.208 NA
ATOM     13  C   UNL A   1     -27.543   0.849  25.079  0.00  0.00    +0.253 C 
ATOM     14  C   UNL A   1     -26.354   0.576  25.777  0.00  0.00    +0.193 C 
ATOM     15  F   UNL A   1     -25.860  -0.681  25.795  0.00  0.00    -0.199 F 
BRANCH  10  16
ATOM     16  C   UNL A   1     -25.642   4.093  27.123  0.00  0.00    +0.266 C 
ATOM     17  N   UNL A   1     -25.614   5.252  26.449  0.00  0.00    -0.200 NA
ATOM     18  C   UNL A   1     -25.026   6.479  26.963  0.00  0.00    +0.139 C 
ATOM     19  O   UNL A   1     -25.143   3.966  28.243  0.00  0.00    -0.268 OA
ENDBRANCH  10  16
BRANCH  13  20
ATOM     20  O   UNL A   1     -28.193  -0.208  24.477  0.00  0.00    -0.456 OA
BRANCH  20  21
ATOM     21  C   UNL A   1     -29.460   0.005  23.866  0.00  0.00    +0.243 C 
BRANCH  21  22
ATOM     22  C   UNL A   1     -30.065  -1.377  23.573  0.00  0.00    +0.229 C 
ATOM     23  O   UNL A   1     -30.729  -1.878  24.721  0.00  0.00    -0.216 OA
ENDBRANCH  21  22
ENDBRANCH  20  21
ENDBRANCH  13  20
ENDBRANCH   5   9
ENDBRANCH   1   8
BRANCH   1  24
ATOM     24  C   UNL A   1     -24.855  -1.012  30.143  0.00  0.00    +0.199 C 
BRANCH  24  25
ATOM     25  C   UNL A   1     -24.973  -2.505  29.788  0.00  0.00    +0.021 C 
ATOM     26  C   UNL A   1     -23.906  -3.173  29.146  0.00  0.00    -0.000 C 
ATOM     27  C   UNL A   1     -23.989  -4.549  28.853  0.00  0.00    -0.000 C 
ATOM     28  C   UNL A   1     -25.137  -5.280  29.205  0.00  0.00    -0.000 C 
ATOM     29  C   UNL A   1     -26.232  -4.611  29.784  0.00  0.00    -0.000 C 
ATOM     30  C   UNL A   1     -26.155  -3.232  30.065  0.00  0.00    -0.000 C 
ENDBRANCH  24  25
BRANCH  24  31
ATOM     31  C   UNL A   1     -25.387  -0.679  31.571  0.00  0.00    +0.120 C 
ATOM     32  C   UNL A   1     -25.189   0.773  32.028  0.00  0.00    +0.023 C 
ATOM     33  C   UNL A   1     -25.336   0.684  33.544  0.00  0.00    +0.020 C 
ATOM     34  C   UNL A   1     -24.829  -0.715  33.905  0.00  0.00    +0.089 C 
ATOM     35  N   UNL A   1     -24.758  -1.481  32.646  0.00  0.00    -0.215 NA
ENDBRANCH  24  31
ENDBRANCH   1  24
BRANCH   1  36
ATOM     36  C   UNL A   1     -26.931  -0.314  28.722  0.00  0.00    +0.234 C 
BRANCH  36  39
ATOM     37  O   UNL A   1     -28.769   1.216  29.093  0.00  0.00    -0.281 OA
ATOM     38  C   UNL A   1     -27.905   2.809  30.491  0.00  0.00    +0.104 C 
ATOM     39  C   UNL A   1     -27.461   1.048  29.167  0.00  0.00    +0.185 C 
ATOM     40  C   UNL A   1     -26.820   2.276  29.845  0.00  0.00    +0.056 C 
ATOM     41  N   UNL A   1     -29.023   2.266  29.985  0.00  0.00    -0.166 NA
BRANCH  41  42
ATOM     42  C   UNL A   1     -30.471   2.489  30.122  0.00  0.00    +0.101 C 
BRANCH  42  43
ATOM     43  C   UNL A   1     -30.748   2.834  31.597  0.00  0.00    +0.020 C 
ATOM     44  C   UNL A   1     -29.808   3.722  32.426  0.00  0.00    +0.002 C 
ENDBRANCH  42  43
ENDBRANCH  41  42
ENDBRANCH  36  39
ENDBRANCH   1  36
TORSDOF 13
