REMARK  Name = outputs/IAG933/test6/raw/output_7888_IAG933_linker_design_.xyz
REMARK  9 active torsions:
REMARK  status: ('A' for Active; 'I' for Inactive)
REMARK    1  A    between atoms: C_1  and  C_2
REMARK    2  A    between atoms: C_1  and  C_8
REMARK    3  A    between atoms: C_1  and  N_36
REMARK    4  A    between atoms: C_13  and  C_31
REMARK    5  A    between atoms: C_14  and  C_15
REMARK    6  A    between atoms: C_21  and  O_22
REMARK    7  A    between atoms: O_22  and  C_23
REMARK    8  A    between atoms: C_23  and  C_24
REMARK    9  A    between atoms: C_39  and  C_43
REMARK                            x       y       z     vdW  Elec       q    Type
REMARK                         _______ _______ _______ _____ _____    ______ ____
ROOT
ATOM      1  O   UNL A   1     -19.285   0.898  28.556  0.00  0.00    -0.314 OA
ATOM      2  O   UNL A   1     -21.177   1.615  26.784  0.00  0.00    -0.422 OA
ATOM      3  C   UNL A   1     -24.765   1.208  27.495  0.00  0.00    +0.041 C 
ATOM      4  C   UNL A   1     -22.430   2.021  26.267  0.00  0.00    +0.319 C 
ATOM      5  C   UNL A   1     -20.559   0.404  28.747  0.00  0.00    +0.198 C 
ATOM      6  N   UNL A   1     -24.438  -0.030  29.276  0.00  0.00    -0.274 N 
ATOM      7  C   UNL A   1     -20.843   1.676  28.216  0.00  0.00    +0.319 C 
ATOM      8  C   UNL A   1     -21.425  -0.517  28.260  0.00  0.00    +0.121 C 
ATOM      9  C   UNL A   1     -22.995  -0.105  28.887  0.00  0.00    +0.229 C 
ATOM     10  C   UNL A   1     -25.275   0.768  28.783  0.00  0.00    +0.099 C 
ATOM     11  O   UNL A   1     -22.397   0.377  30.187  0.00  0.00    -0.275 OA
ATOM     12  C   UNL A   1     -23.470   1.311  27.102  0.00  0.00    +0.112 C 
ATOM     13  O   UNL A   1     -22.995   2.946  25.536  0.00  0.00    -0.250 OA
ENDROOT
BRANCH   3  14
ATOM     14  C   UNL A   1     -25.688   1.614  26.461  0.00  0.00    +0.073 C 
ATOM     15  C   UNL A   1     -26.250   2.920  26.395  0.00  0.00    +0.055 C 
ATOM     16  C   UNL A   1     -27.438   3.091  25.645  0.00  0.00    +0.102 C 
ATOM     17  N   UNL A   1     -28.075   2.089  25.003  0.00  0.00    -0.212 NA
ATOM     18  C   UNL A   1     -27.543   0.849  25.079  0.00  0.00    +0.234 C 
ATOM     19  C   UNL A   1     -26.354   0.576  25.777  0.00  0.00    +0.240 C 
ATOM     20  F   UNL A   1     -25.860  -0.681  25.795  0.00  0.00    -0.227 F 
BRANCH  15  21
ATOM     21  C   UNL A   1     -25.642   4.093  27.123  0.00  0.00    +0.262 C 
ATOM     22  N   UNL A   1     -25.614   5.252  26.449  0.00  0.00    -0.200 NA
ATOM     23  C   UNL A   1     -25.026   6.479  26.963  0.00  0.00    +0.139 C 
ATOM     24  O   UNL A   1     -25.143   3.966  28.243  0.00  0.00    -0.269 OA
ENDBRANCH  15  21
BRANCH  18  25
ATOM     25  O   UNL A   1     -28.193  -0.208  24.477  0.00  0.00    -0.459 OA
BRANCH  25  26
ATOM     26  C   UNL A   1     -29.460   0.005  23.866  0.00  0.00    +0.242 C 
BRANCH  26  27
ATOM     27  C   UNL A   1     -30.065  -1.377  23.573  0.00  0.00    +0.229 C 
ATOM     28  O   UNL A   1     -30.729  -1.878  24.721  0.00  0.00    -0.216 OA
ENDBRANCH  26  27
ENDBRANCH  25  26
ENDBRANCH  18  25
ENDBRANCH   3  14
BRANCH  10  33
ATOM     29  C   UNL A   1     -27.417  -0.485  28.552  0.00  0.00    -0.003 C 
ATOM     30  C   UNL A   1     -28.844  -0.600  28.501  0.00  0.00    -0.000 C 
ATOM     31  C   UNL A   1     -27.601   1.658  29.799  0.00  0.00    -0.003 C 
ATOM     32  C   UNL A   1     -29.015   1.498  29.824  0.00  0.00    -0.000 C 
ATOM     33  C   UNL A   1     -26.793   0.719  29.064  0.00  0.00    -0.004 C 
ATOM     34  C   UNL A   1     -29.637   0.405  29.140  0.00  0.00    -0.000 C 
ENDBRANCH  10  33
BRANCH   6  35
ATOM     35  C   UNL A   1     -24.855  -1.012  30.143  0.00  0.00    +0.114 C 
BRANCH  35  36
ATOM     36  C   UNL A   1     -24.973  -2.505  29.788  0.00  0.00    -0.003 C 
ATOM     37  C   UNL A   1     -23.906  -3.173  29.146  0.00  0.00    -0.003 C 
ATOM     38  C   UNL A   1     -23.989  -4.549  28.853  0.00  0.00    -0.000 C 
ATOM     39  C   UNL A   1     -25.137  -5.280  29.205  0.00  0.00    -0.000 C 
ATOM     40  C   UNL A   1     -26.232  -4.611  29.784  0.00  0.00    -0.000 C 
ATOM     41  C   UNL A   1     -26.155  -3.232  30.065  0.00  0.00    -0.003 C 
ENDBRANCH  35  36
BRANCH  35  42
ATOM     42  C   UNL A   1     -25.387  -0.679  31.571  0.00  0.00    +0.095 C 
ATOM     43  C   UNL A   1     -25.189   0.773  32.028  0.00  0.00    +0.021 C 
ATOM     44  C   UNL A   1     -25.336   0.684  33.544  0.00  0.00    +0.020 C 
ATOM     45  C   UNL A   1     -24.829  -0.715  33.905  0.00  0.00    +0.089 C 
ATOM     46  N   UNL A   1     -24.758  -1.481  32.646  0.00  0.00    -0.217 NA
ENDBRANCH  35  42
ENDBRANCH   6  35
TORSDOF 9
