MODEL 788
MODEL 1
REMARK VINA RESULT:    -6.699      0.000      0.000
REMARK INTER + INTRA:          -8.266
REMARK INTER:                  -7.874
REMARK INTRA:                  -0.392
REMARK UNBOUND:                -0.392
REMARK  Name = No_788-gen_results/8p0m/2024-11-27-11-27-31/
REMARK  3 active torsions:
REMARK  status: ('A' for Active; 'I' for Inactive)
REMARK    1  A    between atoms: C_3  and  O_11
REMARK    2  A    between atoms: C_5  and  C_8
REMARK    3  A    between atoms: O_11  and  C_12
REMARK                            x       y       z     vdW  Elec       q    Type
REMARK                         _______ _______ _______ _____ _____    ______ ____
ROOT
ATOM      1  F   UNL A   1     -26.791  -0.325  27.738  0.00  0.00    -0.201 F 
ATOM      2  C   UNL A   1     -25.660  -0.225  27.591  0.00  0.00    +0.174 A 
ATOM      3  C   UNL A   1     -24.889  -0.601  28.608  0.00  0.00    +0.173 A 
ATOM      4  C   UNL A   1     -23.545  -0.152  28.800  0.00  0.00    +0.046 A 
ATOM      5  C   UNL A   1     -22.961   0.648  27.728  0.00  0.00    +0.083 A 
ATOM      6  C   UNL A   1     -23.813   1.054  26.705  0.00  0.00    +0.009 A 
ATOM      7  C   UNL A   1     -25.065   0.751  26.685  0.00  0.00    +0.033 A 
ENDROOT
BRANCH   5   8
ATOM      8  C   UNL A   1     -21.571   1.004  27.821  0.00  0.00    +0.388 C 
ATOM      9  O   UNL A   1     -21.106   2.067  27.537  0.00  0.00    -0.241 OA
ATOM     10  O   UNL A   1     -20.903   0.097  28.541  0.00  0.00    -0.241 OA
ENDBRANCH   5   8
BRANCH   3  11
ATOM     11  O   UNL A   1     -25.323  -1.344  29.645  0.00  0.00    -0.451 OA
BRANCH  11  12
ATOM     12  C   UNL A   1     -25.263  -2.702  29.496  0.00  0.00    +0.145 A 
ATOM     13  C   UNL A   1     -26.074  -3.323  29.774  0.00  0.00    +0.037 A 
ATOM     14  C   UNL A   1     -26.108  -4.830  29.617  0.00  0.00    +0.003 A 
ATOM     15  C   UNL A   1     -25.041  -5.394  28.980  0.00  0.00    +0.000 A 
ATOM     16  C   UNL A   1     -24.108  -3.331  28.807  0.00  0.00    +0.037 A 
ATOM     17  C   UNL A   1     -24.031  -4.581  28.568  0.00  0.00    +0.003 A 
ENDBRANCH  11  12
ENDBRANCH   3  11
TORSDOF 3
ENDMDL
ENDMDL
