REMARK  Name = outputs/IAG933/test6/raw/output_789_IAG933_linker_design_.xyz
REMARK  16 active torsions:
REMARK  status: ('A' for Active; 'I' for Inactive)
REMARK    1  A    between atoms: C_1  and  C_2
REMARK    2  A    between atoms: C_1  and  C_8
REMARK    3  A    between atoms: C_1  and  N_37
REMARK    4  A    between atoms: C_13  and  C_43
REMARK    5  A    between atoms: C_14  and  C_15
REMARK    6  A    between atoms: C_21  and  O_22
REMARK    7  A    between atoms: O_22  and  C_23
REMARK    8  A    between atoms: C_23  and  C_24
REMARK    9  A    between atoms: C_30  and  N_37
REMARK   10  A    between atoms: C_32  and  C_33
REMARK   11  A    between atoms: C_32  and  C_40
REMARK   12  A    between atoms: C_33  and  C_42
REMARK   13  A    between atoms: O_34  and  C_42
REMARK   14  A    between atoms: C_36  and  C_42
REMARK   15  A    between atoms: N_37  and  C_45
REMARK   16  A    between atoms: C_40  and  C_45
REMARK                            x       y       z     vdW  Elec       q    Type
REMARK                         _______ _______ _______ _____ _____    ______ ____
ROOT
ATOM      1  N   UNL A   1     -25.193  -0.072  29.018  0.00  0.00    -0.304 N 
ENDROOT
BRANCH   1   3
ATOM      2  C   UNL A   1     -21.838   1.764  27.033  0.00  0.00    +0.011 C 
ATOM      3  C   UNL A   1     -24.115   0.533  28.321  0.00  0.00    +0.049 C 
ATOM      4  C   UNL A   1     -23.145   1.772  26.423  0.00  0.00    +0.059 C 
ATOM      5  C   UNL A   1     -21.748   1.116  28.297  0.00  0.00    +0.002 C 
ATOM      6 CL   UNL A   1     -23.160   2.296  24.826  0.00  0.00    -0.082 Cl
ATOM      7  C   UNL A   1     -24.265   1.294  27.078  0.00  0.00    +0.026 C 
ATOM      8  C   UNL A   1     -22.850   0.490  28.909  0.00  0.00    +0.015 C 
BRANCH   7   9
ATOM      9  C   UNL A   1     -25.688   1.614  26.461  0.00  0.00    +0.040 C 
ATOM     10  C   UNL A   1     -26.250   2.920  26.395  0.00  0.00    +0.077 C 
ATOM     11  C   UNL A   1     -27.438   3.091  25.645  0.00  0.00    +0.107 C 
ATOM     12  N   UNL A   1     -28.075   2.089  25.003  0.00  0.00    -0.208 NA
ATOM     13  C   UNL A   1     -27.543   0.849  25.079  0.00  0.00    +0.253 C 
ATOM     14  C   UNL A   1     -26.354   0.576  25.777  0.00  0.00    +0.193 C 
ATOM     15  F   UNL A   1     -25.860  -0.681  25.795  0.00  0.00    -0.199 F 
BRANCH  10  16
ATOM     16  C   UNL A   1     -25.642   4.093  27.123  0.00  0.00    +0.266 C 
ATOM     17  N   UNL A   1     -25.614   5.252  26.449  0.00  0.00    -0.200 NA
ATOM     18  C   UNL A   1     -25.026   6.479  26.963  0.00  0.00    +0.139 C 
ATOM     19  O   UNL A   1     -25.143   3.966  28.243  0.00  0.00    -0.268 OA
ENDBRANCH  10  16
BRANCH  13  20
ATOM     20  O   UNL A   1     -28.193  -0.208  24.477  0.00  0.00    -0.456 OA
BRANCH  20  21
ATOM     21  C   UNL A   1     -29.460   0.005  23.866  0.00  0.00    +0.243 C 
BRANCH  21  22
ATOM     22  C   UNL A   1     -30.065  -1.377  23.573  0.00  0.00    +0.229 C 
ATOM     23  O   UNL A   1     -30.729  -1.878  24.721  0.00  0.00    -0.216 OA
ENDBRANCH  21  22
ENDBRANCH  20  21
ENDBRANCH  13  20
ENDBRANCH   7   9
ENDBRANCH   1   3
BRANCH   1  24
ATOM     24  C   UNL A   1     -24.855  -1.012  30.143  0.00  0.00    +0.111 C 
BRANCH  24  25
ATOM     25  C   UNL A   1     -24.973  -2.505  29.788  0.00  0.00    -0.003 C 
ATOM     26  C   UNL A   1     -23.906  -3.173  29.146  0.00  0.00    -0.003 C 
ATOM     27  C   UNL A   1     -23.989  -4.549  28.853  0.00  0.00    -0.000 C 
ATOM     28  C   UNL A   1     -25.137  -5.280  29.205  0.00  0.00    -0.000 C 
ATOM     29  C   UNL A   1     -26.232  -4.611  29.784  0.00  0.00    -0.000 C 
ATOM     30  C   UNL A   1     -26.155  -3.232  30.065  0.00  0.00    -0.003 C 
ENDBRANCH  24  25
BRANCH  24  31
ATOM     31  C   UNL A   1     -25.387  -0.679  31.571  0.00  0.00    +0.095 C 
ATOM     32  C   UNL A   1     -25.189   0.773  32.028  0.00  0.00    +0.021 C 
ATOM     33  C   UNL A   1     -25.336   0.684  33.544  0.00  0.00    +0.020 C 
ATOM     34  C   UNL A   1     -24.829  -0.715  33.905  0.00  0.00    +0.089 C 
ATOM     35  N   UNL A   1     -24.758  -1.481  32.646  0.00  0.00    -0.217 NA
ENDBRANCH  24  31
ENDBRANCH   1  24
BRANCH   1  36
ATOM     36  C   UNL A   1     -26.575   0.477  28.875  0.00  0.00    +0.094 C 
BRANCH  36  37
ATOM     37  C   UNL A   1     -27.583  -0.494  28.856  0.00  0.00    +0.057 C 
BRANCH  37  38
ATOM     38  C   UNL A   1     -28.877   0.084  29.089  0.00  0.00    +0.186 C 
ATOM     39  O   UNL A   1     -28.969   1.229  29.761  0.00  0.00    -0.220 OA
BRANCH  38  41
ATOM     40  O   UNL A   1     -30.052  -1.037  27.385  0.00  0.00    -0.218 OA
ATOM     41  C   UNL A   1     -30.070  -0.672  28.733  0.00  0.00    +0.212 C 
BRANCH  41  42
ATOM     42  C   UNL A   1     -30.265  -1.700  29.941  0.00  0.00    +0.181 C 
BRANCH  42  43
ATOM     43  C   UNL A   1     -31.660  -2.260  29.783  0.00  0.00    +0.214 C 
ATOM     44  O   UNL A   1     -31.895  -3.376  30.580  0.00  0.00    -0.218 OA
ENDBRANCH  42  43
BRANCH  42  45
ATOM     45  O   UNL A   1     -29.532  -2.827  30.646  0.00  0.00    -0.348 OA
ATOM     46  C   UNL A   1     -29.573  -4.220  30.269  0.00  0.00    +0.174 C 
ENDBRANCH  42  45
ENDBRANCH  41  42
ENDBRANCH  38  41
ENDBRANCH  37  38
ENDBRANCH  36  37
ENDBRANCH   1  36
TORSDOF 16
