MODEL 789
MODEL 1
REMARK VINA RESULT:    -3.633      0.000      0.000
REMARK INTER + INTRA:          -4.096
REMARK INTER:                  -4.058
REMARK INTRA:                  -0.038
REMARK UNBOUND:                -0.038
REMARK  Name = No_789-gen_results/8p0m/2024-11-27-11-27-31/
REMARK  2 active torsions:
REMARK  status: ('A' for Active; 'I' for Inactive)
REMARK    1  A    between atoms: C_1  and  C_3
REMARK    2  A    between atoms: C_1  and  C_6
REMARK                            x       y       z     vdW  Elec       q    Type
REMARK                         _______ _______ _______ _____ _____    ______ ____
ROOT
ATOM      1  C   UNL A   1     -29.962 -13.315  20.530  0.00  0.00    +0.201 C 
ATOM      2 CL   UNL A   1     -29.329 -14.291  20.847  0.00  0.00    -0.101 Cl
ENDROOT
BRANCH   1   3
ATOM      3  C   UNL A   1     -29.149 -12.058  20.219  0.00  0.00    +0.381 C 
ATOM      4  O   UNL A   1     -29.735 -11.110  20.443  0.00  0.00    -0.244 OA
ATOM      5  O   UNL A   1     -28.019 -12.235  19.703  0.00  0.00    -0.244 OA
ENDBRANCH   1   3
BRANCH   1   6
ATOM      6  C   UNL A   1     -31.429 -13.158  20.910  0.00  0.00    +0.137 C 
ATOM      7  N   UNL A   1     -32.354 -13.530  20.281  0.00  0.00    -0.129 NA
ENDBRANCH   1   6
TORSDOF 2
ENDMDL
ENDMDL
