REMARK  Name = No_79-gen_results/8p0m/2024-11-27-11-27-31/
REMARK  2 active torsions:
REMARK  status: ('A' for Active; 'I' for Inactive)
REMARK    1  A    between atoms: C_3  and  C_5
REMARK    2  A    between atoms: N_4  and  C_11
REMARK                            x       y       z     vdW  Elec       q    Type
REMARK                         _______ _______ _______ _____ _____    ______ ____
ROOT
ATOM      1  O   UNL A   1     -28.123  -1.335  28.487  0.00  0.00    -0.274 OA
ATOM      2  C   UNL A   1     -28.521  -0.436  29.078  0.00  0.00    +0.237 C 
ATOM      3  C   UNL A   1     -28.589   0.592  28.946  0.00  0.00    +0.104 C 
ATOM      4  N   UNL A   1     -28.787  -0.887  30.487  0.00  0.00    -0.237 N 
ATOM      5  C   UNL A   1     -29.320   0.010  31.497  0.00  0.00    +0.054 A 
ATOM      6  C   UNL A   1     -30.072  -0.421  32.491  0.00  0.00    +0.015 A 
ATOM      7  C   UNL A   1     -30.513   0.516  33.408  0.00  0.00    +0.001 A 
ATOM      8  C   UNL A   1     -30.248   1.887  33.235  0.00  0.00    -0.000 A 
ATOM      9  C   UNL A   1     -29.508   2.316  32.147  0.00  0.00    -0.003 A 
ATOM     10  C   UNL A   1     -29.045   1.433  31.318  0.00  0.00    -0.007 A 
ATOM     11  C   UNL A   1     -28.928   1.759  29.744  0.00  0.00    +0.041 C 
ENDROOT
BRANCH   3  12
ATOM     12  C   UNL A   1     -27.784   1.282  27.987  0.00  0.00    -0.017 A 
ATOM     13  C   UNL A   1     -28.084   1.582  26.780  0.00  0.00    -0.004 A 
ATOM     14  C   UNL A   1     -27.121   2.013  25.712  0.00  0.00    -0.000 A 
ATOM     15  C   UNL A   1     -25.766   2.125  26.062  0.00  0.00    +0.001 A 
ATOM     16  C   UNL A   1     -25.378   1.775  27.417  0.00  0.00    +0.013 A 
ATOM     17  C   UNL A   1     -26.315   1.342  28.265  0.00  0.00    -0.024 A 
ATOM     18  C   UNL A   1     -23.953   1.897  27.733  0.00  0.00    +0.080 A 
ATOM     19  N   UNL A   1     -22.972   1.794  26.908  0.00  0.00    -0.224 NA
ATOM     20  C   UNL A   1     -23.575   1.165  29.035  0.00  0.00    +0.015 A 
ATOM     21  C   UNL A   1     -21.694   1.696  27.463  0.00  0.00    +0.199 A 
ATOM     22  C   UNL A   1     -24.494   1.302  30.151  0.00  0.00    +0.030 C 
ATOM     23  C   UNL A   1     -22.363   0.559  29.155  0.00  0.00    +0.098 A 
ATOM     24  N   UNL A   1     -21.395   0.889  28.363  0.00  0.00    -0.223 NA
ATOM     25  C   UNL A   1     -24.067   0.974  31.516  0.00  0.00    +0.005 C 
ATOM     26  C   UNL A   1     -25.899   1.528  29.821  0.00  0.00    +0.030 C 
ENDBRANCH   3  12
BRANCH   4  27
ATOM     27  C   UNL A   1     -28.721  -2.297  30.928  0.00  0.00    +0.060 A 
ATOM     28  C   UNL A   1     -27.684  -2.919  30.603  0.00  0.00    +0.045 A 
ATOM     29  C   UNL A   1     -27.678  -4.353  30.299  0.00  0.00    +0.141 A 
ATOM     30  F   UNL A   1     -26.589  -4.992  29.967  0.00  0.00    -0.204 F 
ATOM     31  C   UNL A   1     -28.902  -5.034  30.279  0.00  0.00    +0.030 A 
ATOM     32  C   UNL A   1     -30.135  -4.399  30.462  0.00  0.00    +0.004 A 
ATOM     33  C   UNL A   1     -30.024  -2.922  30.789  0.00  0.00    +0.015 A 
ENDBRANCH   4  27
TORSDOF 2
