REMARK  Name = outputs/IAG933/test6/raw/output_7904_IAG933_linker_design_.xyz
REMARK  14 active torsions:
REMARK  status: ('A' for Active; 'I' for Inactive)
REMARK    1  A    between atoms: C_1  and  C_2
REMARK    2  A    between atoms: C_1  and  C_8
REMARK    3  A    between atoms: C_1  and  C_31
REMARK    4  A    between atoms: C_13  and  C_32
REMARK    5  A    between atoms: C_14  and  C_15
REMARK    6  A    between atoms: C_21  and  O_22
REMARK    7  A    between atoms: O_22  and  C_23
REMARK    8  A    between atoms: C_23  and  C_24
REMARK    9  A    between atoms: C_28  and  C_38
REMARK   10  A    between atoms: C_28  and  C_42
REMARK   11  A    between atoms: C_31  and  C_35
REMARK   12  A    between atoms: C_31  and  C_42
REMARK   13  A    between atoms: C_37  and  C_38
REMARK   14  A    between atoms: C_37  and  C_41
REMARK                            x       y       z     vdW  Elec       q    Type
REMARK                         _______ _______ _______ _____ _____    ______ ____
ROOT
ATOM      1  C   UNL A   1     -23.028   0.197  28.835  0.00  0.00    -0.001 C 
ATOM      2  C   UNL A   1     -24.381   1.334  27.168  0.00  0.00    +0.040 C 
ATOM      3  F   UNL A   1     -20.944   2.374  26.914  0.00  0.00    -0.201 F 
ATOM      4  O   UNL A   1     -23.161   2.484  25.431  0.00  0.00    -0.284 OA
ATOM      5  C   UNL A   1     -24.296   0.562  28.365  0.00  0.00    -0.012 C 
ATOM      6  C   UNL A   1     -22.023   1.666  27.319  0.00  0.00    +0.179 C 
ATOM      7  C   UNL A   1     -23.193   1.859  26.638  0.00  0.00    +0.223 C 
ATOM      8  C   UNL A   1     -21.882   0.793  28.341  0.00  0.00    +0.033 C 
ENDROOT
BRANCH   2   9
ATOM      9  C   UNL A   1     -25.688   1.614  26.461  0.00  0.00    +0.041 C 
ATOM     10  C   UNL A   1     -26.250   2.920  26.395  0.00  0.00    +0.077 C 
ATOM     11  C   UNL A   1     -27.438   3.091  25.645  0.00  0.00    +0.107 C 
ATOM     12  N   UNL A   1     -28.075   2.089  25.003  0.00  0.00    -0.208 NA
ATOM     13  C   UNL A   1     -27.543   0.849  25.079  0.00  0.00    +0.253 C 
ATOM     14  C   UNL A   1     -26.354   0.576  25.777  0.00  0.00    +0.193 C 
ATOM     15  F   UNL A   1     -25.860  -0.681  25.795  0.00  0.00    -0.199 F 
BRANCH  10  16
ATOM     16  C   UNL A   1     -25.642   4.093  27.123  0.00  0.00    +0.266 C 
ATOM     17  N   UNL A   1     -25.614   5.252  26.449  0.00  0.00    -0.200 NA
ATOM     18  C   UNL A   1     -25.026   6.479  26.963  0.00  0.00    +0.139 C 
ATOM     19  O   UNL A   1     -25.143   3.966  28.243  0.00  0.00    -0.268 OA
ENDBRANCH  10  16
BRANCH  13  20
ATOM     20  O   UNL A   1     -28.193  -0.208  24.477  0.00  0.00    -0.456 OA
BRANCH  20  21
ATOM     21  C   UNL A   1     -29.460   0.005  23.866  0.00  0.00    +0.243 C 
BRANCH  21  22
ATOM     22  C   UNL A   1     -30.065  -1.377  23.573  0.00  0.00    +0.229 C 
ATOM     23  O   UNL A   1     -30.729  -1.878  24.721  0.00  0.00    -0.216 OA
ENDBRANCH  21  22
ENDBRANCH  20  21
ENDBRANCH  13  20
ENDBRANCH   2   9
BRANCH   5  24
ATOM     24  C   UNL A   1     -25.312   0.061  29.177  0.00  0.00    +0.085 C 
BRANCH  24  25
ATOM     25  C   UNL A   1     -26.641   0.437  29.138  0.00  0.00    +0.155 C 
ATOM     26  O   UNL A   1     -27.424  -0.434  28.961  0.00  0.00    -0.296 OA
BRANCH  25  27
ATOM     27  C   UNL A   1     -27.127   1.874  29.206  0.00  0.00    +0.065 C 
BRANCH  27  28
ATOM     28  C   UNL A   1     -28.194   2.652  30.019  0.00  0.00    +0.015 C 
BRANCH  28  29
ATOM     29  C   UNL A   1     -27.649   3.161  31.370  0.00  0.00    +0.084 C 
BRANCH  29  32
ATOM     30  O   UNL A   1     -27.110   5.124  29.983  0.00  0.00    -0.170 OA
ATOM     31  N   UNL A   1     -28.306   5.494  31.815  0.00  0.00    -0.069 NA
ATOM     32  C   UNL A   1     -27.278   4.699  31.267  0.00  0.00    +0.334 C 
ATOM     33  F   UNL A   1     -26.094   4.918  31.948  0.00  0.00    -0.186 F 
ENDBRANCH  29  32
ENDBRANCH  28  29
ENDBRANCH  27  28
ENDBRANCH  25  27
ENDBRANCH  24  25
BRANCH  24  34
ATOM     34  C   UNL A   1     -24.855  -1.012  30.143  0.00  0.00    +0.049 C 
BRANCH  34  35
ATOM     35  C   UNL A   1     -24.973  -2.505  29.788  0.00  0.00    -0.020 C 
ATOM     36  C   UNL A   1     -23.906  -3.173  29.146  0.00  0.00    -0.004 C 
ATOM     37  C   UNL A   1     -23.989  -4.549  28.853  0.00  0.00    -0.000 C 
ATOM     38  C   UNL A   1     -25.137  -5.280  29.205  0.00  0.00    -0.000 C 
ATOM     39  C   UNL A   1     -26.232  -4.611  29.784  0.00  0.00    -0.000 C 
ATOM     40  C   UNL A   1     -26.155  -3.232  30.065  0.00  0.00    -0.004 C 
ENDBRANCH  34  35
BRANCH  34  41
ATOM     41  C   UNL A   1     -25.387  -0.679  31.571  0.00  0.00    +0.077 C 
ATOM     42  C   UNL A   1     -25.189   0.773  32.028  0.00  0.00    +0.019 C 
ATOM     43  C   UNL A   1     -25.336   0.684  33.544  0.00  0.00    +0.020 C 
ATOM     44  C   UNL A   1     -24.829  -0.715  33.905  0.00  0.00    +0.089 C 
ATOM     45  N   UNL A   1     -24.758  -1.481  32.646  0.00  0.00    -0.219 NA
ENDBRANCH  34  41
ENDBRANCH  24  34
ENDBRANCH   5  24
TORSDOF 14
