REMARK  Name = outputs/IAG933/test6/raw/output_7906_IAG933_linker_design_.xyz
REMARK  10 active torsions:
REMARK  status: ('A' for Active; 'I' for Inactive)
REMARK    1  A    between atoms: C_1  and  C_2
REMARK    2  A    between atoms: C_1  and  C_8
REMARK    3  A    between atoms: C_1  and  N_41
REMARK    4  A    between atoms: C_13  and  C_37
REMARK    5  A    between atoms: C_14  and  C_15
REMARK    6  A    between atoms: C_21  and  O_22
REMARK    7  A    between atoms: O_22  and  C_23
REMARK    8  A    between atoms: C_23  and  C_24
REMARK    9  A    between atoms: C_28  and  C_34
REMARK   10  A    between atoms: C_30  and  O_39
REMARK                            x       y       z     vdW  Elec       q    Type
REMARK                         _______ _______ _______ _____ _____    ______ ____
ROOT
ATOM      1  C   UNL A   1     -25.512   0.725  28.682  0.00  0.00    +0.121 C 
ATOM      2  C   UNL A   1     -22.659   0.861  28.067  0.00  0.00    +0.188 C 
ATOM      3 CL   UNL A   1     -22.848   1.942  25.595  0.00  0.00    -0.086 Cl
ATOM      4  C   UNL A   1     -24.927   1.216  27.441  0.00  0.00    -0.007 C 
ATOM      5 CL   UNL A   1     -20.907   1.314  27.873  0.00  0.00    -0.099 Cl
ATOM      6  N   UNL A   1     -24.427  -0.060  29.262  0.00  0.00    -0.269 N 
ATOM      7  C   UNL A   1     -23.097   0.035  29.049  0.00  0.00    +0.246 C 
ATOM      8  O   UNL A   1     -22.304  -0.548  29.757  0.00  0.00    -0.273 OA
ATOM      9  C   UNL A   1     -23.346   1.305  27.082  0.00  0.00    +0.053 C 
ENDROOT
BRANCH   4  10
ATOM     10  C   UNL A   1     -25.688   1.614  26.461  0.00  0.00    +0.091 C 
ATOM     11  C   UNL A   1     -26.250   2.920  26.395  0.00  0.00    +0.059 C 
ATOM     12  C   UNL A   1     -27.438   3.091  25.645  0.00  0.00    +0.102 C 
ATOM     13  N   UNL A   1     -28.075   2.089  25.003  0.00  0.00    -0.212 NA
ATOM     14  C   UNL A   1     -27.543   0.849  25.079  0.00  0.00    +0.234 C 
ATOM     15  C   UNL A   1     -26.354   0.576  25.777  0.00  0.00    +0.244 C 
ATOM     16  F   UNL A   1     -25.860  -0.681  25.795  0.00  0.00    -0.227 F 
BRANCH  11  17
ATOM     17  C   UNL A   1     -25.642   4.093  27.123  0.00  0.00    +0.263 C 
ATOM     18  N   UNL A   1     -25.614   5.252  26.449  0.00  0.00    -0.200 NA
ATOM     19  C   UNL A   1     -25.026   6.479  26.963  0.00  0.00    +0.139 C 
ATOM     20  O   UNL A   1     -25.143   3.966  28.243  0.00  0.00    -0.269 OA
ENDBRANCH  11  17
BRANCH  14  21
ATOM     21  O   UNL A   1     -28.193  -0.208  24.477  0.00  0.00    -0.459 OA
BRANCH  21  22
ATOM     22  C   UNL A   1     -29.460   0.005  23.866  0.00  0.00    +0.242 C 
BRANCH  22  23
ATOM     23  C   UNL A   1     -30.065  -1.377  23.573  0.00  0.00    +0.229 C 
ATOM     24  O   UNL A   1     -30.729  -1.878  24.721  0.00  0.00    -0.216 OA
ENDBRANCH  22  23
ENDBRANCH  21  22
ENDBRANCH  14  21
ENDBRANCH   4  10
BRANCH   1  28
ATOM     25  C   UNL A   1     -28.360   0.351  29.360  0.00  0.00    +0.137 C 
ATOM     26  C   UNL A   1     -29.309   0.902  30.097  0.00  0.00    +0.037 C 
ATOM     27  C   UNL A   1     -29.136   2.009  30.815  0.00  0.00    +0.003 C 
ATOM     28  C   UNL A   1     -26.933   1.040  29.253  0.00  0.00    +0.034 C 
ATOM     29  C   UNL A   1     -27.993   2.711  30.646  0.00  0.00    -0.000 C 
ATOM     30  C   UNL A   1     -26.920   2.240  29.897  0.00  0.00    +0.001 C 
BRANCH  25  32
ATOM     31  C   UNL A   1     -30.089  -1.122  28.684  0.00  0.00    +0.253 C 
ATOM     32  O   UNL A   1     -28.666  -0.831  28.765  0.00  0.00    -0.472 OA
ENDBRANCH  25  32
ENDBRANCH   1  28
BRANCH   6  33
ATOM     33  C   UNL A   1     -24.855  -1.012  30.143  0.00  0.00    +0.114 C 
BRANCH  33  34
ATOM     34  C   UNL A   1     -24.973  -2.505  29.788  0.00  0.00    -0.003 C 
ATOM     35  C   UNL A   1     -23.906  -3.173  29.146  0.00  0.00    -0.003 C 
ATOM     36  C   UNL A   1     -23.989  -4.549  28.853  0.00  0.00    -0.000 C 
ATOM     37  C   UNL A   1     -25.137  -5.280  29.205  0.00  0.00    -0.000 C 
ATOM     38  C   UNL A   1     -26.232  -4.611  29.784  0.00  0.00    -0.000 C 
ATOM     39  C   UNL A   1     -26.155  -3.232  30.065  0.00  0.00    -0.003 C 
ENDBRANCH  33  34
BRANCH  33  40
ATOM     40  C   UNL A   1     -25.387  -0.679  31.571  0.00  0.00    +0.095 C 
ATOM     41  C   UNL A   1     -25.189   0.773  32.028  0.00  0.00    +0.021 C 
ATOM     42  C   UNL A   1     -25.336   0.684  33.544  0.00  0.00    +0.020 C 
ATOM     43  C   UNL A   1     -24.829  -0.715  33.905  0.00  0.00    +0.089 C 
ATOM     44  N   UNL A   1     -24.758  -1.481  32.646  0.00  0.00    -0.217 NA
ENDBRANCH  33  40
ENDBRANCH   6  33
TORSDOF 10
