REMARK  Name = outputs/IAG933/test6/raw/output_7908_IAG933_linker_design_.xyz
REMARK  13 active torsions:
REMARK  status: ('A' for Active; 'I' for Inactive)
REMARK    1  A    between atoms: C_1  and  C_2
REMARK    2  A    between atoms: C_1  and  C_8
REMARK    3  A    between atoms: C_1  and  N_33
REMARK    4  A    between atoms: C_13  and  C_38
REMARK    5  A    between atoms: C_14  and  C_15
REMARK    6  A    between atoms: C_21  and  O_22
REMARK    7  A    between atoms: O_22  and  C_23
REMARK    8  A    between atoms: C_23  and  C_24
REMARK    9  A    between atoms: C_28  and  N_33
REMARK   10  A    between atoms: C_29  and  C_37
REMARK   11  A    between atoms: N_33  and  C_42
REMARK   12  A    between atoms: C_34  and  C_42
REMARK   13  A    between atoms: C_38  and  C_42
REMARK                            x       y       z     vdW  Elec       q    Type
REMARK                         _______ _______ _______ _____ _____    ______ ____
ROOT
ATOM      1  C   UNL A   1     -24.238   0.637  28.244  0.00  0.00    +0.104 C 
ENDROOT
BRANCH   1   3
ATOM      2  C   UNL A   1     -23.223   1.752  26.356  0.00  0.00    +0.148 C 
ATOM      3  C   UNL A   1     -24.375   1.314  27.015  0.00  0.00    +0.025 C 
ATOM      4  F   UNL A   1     -23.243   2.349  25.187  0.00  0.00    -0.204 F 
BRANCH   3   5
ATOM      5  C   UNL A   1     -25.688   1.614  26.461  0.00  0.00    +0.038 C 
ATOM      6  C   UNL A   1     -26.250   2.920  26.395  0.00  0.00    +0.076 C 
ATOM      7  C   UNL A   1     -27.438   3.091  25.645  0.00  0.00    +0.107 C 
ATOM      8  N   UNL A   1     -28.075   2.089  25.003  0.00  0.00    -0.208 NA
ATOM      9  C   UNL A   1     -27.543   0.849  25.079  0.00  0.00    +0.253 C 
ATOM     10  C   UNL A   1     -26.354   0.576  25.777  0.00  0.00    +0.193 C 
ATOM     11  F   UNL A   1     -25.860  -0.681  25.795  0.00  0.00    -0.199 F 
BRANCH   6  12
ATOM     12  C   UNL A   1     -25.642   4.093  27.123  0.00  0.00    +0.266 C 
ATOM     13  N   UNL A   1     -25.614   5.252  26.449  0.00  0.00    -0.200 NA
ATOM     14  C   UNL A   1     -25.026   6.479  26.963  0.00  0.00    +0.139 C 
ATOM     15  O   UNL A   1     -25.143   3.966  28.243  0.00  0.00    -0.268 OA
ENDBRANCH   6  12
BRANCH   9  16
ATOM     16  O   UNL A   1     -28.193  -0.208  24.477  0.00  0.00    -0.456 OA
BRANCH  16  17
ATOM     17  C   UNL A   1     -29.460   0.005  23.866  0.00  0.00    +0.243 C 
BRANCH  17  18
ATOM     18  C   UNL A   1     -30.065  -1.377  23.573  0.00  0.00    +0.229 C 
ATOM     19  O   UNL A   1     -30.729  -1.878  24.721  0.00  0.00    -0.216 OA
ENDBRANCH  17  18
ENDBRANCH  16  17
ENDBRANCH   9  16
ENDBRANCH   3   5
BRANCH   2  20
ATOM     20  C   UNL A   1     -21.920   1.670  26.825  0.00  0.00    +0.114 C 
ATOM     21  O   UNL A   1     -20.405   0.959  28.370  0.00  0.00    -0.231 OA
ATOM     22  C   UNL A   1     -21.191   1.490  27.737  0.00  0.00    +0.136 C 
ENDBRANCH   2  20
ENDBRANCH   1   3
BRANCH   1  24
ATOM     23  N   UNL A   1     -22.352   0.013  29.934  0.00  0.00    -0.130 NA
ATOM     24  C   UNL A   1     -23.080   0.621  28.904  0.00  0.00    +0.130 C 
ENDBRANCH   1  24
BRANCH   1  25
ATOM     25  N   UNL A   1     -25.193  -0.020  29.072  0.00  0.00    -0.243 NA
BRANCH  25  26
ATOM     26  C   UNL A   1     -26.802   0.488  29.109  0.00  0.00    +0.177 C 
ATOM     27  O   UNL A   1     -27.548  -0.501  28.419  0.00  0.00    -0.341 OA
ATOM     28  C   UNL A   1     -27.943   1.513  29.679  0.00  0.00    +0.046 C 
ATOM     29  C   UNL A   1     -29.286   0.673  29.685  0.00  0.00    +0.036 C 
ATOM     30  C   UNL A   1     -29.008  -0.261  28.526  0.00  0.00    +0.144 C 
ATOM     31  C   UNL A   1     -28.158   2.809  28.805  0.00  0.00    +0.004 C 
ENDBRANCH  25  26
BRANCH  25  32
ATOM     32  C   UNL A   1     -24.855  -1.012  30.143  0.00  0.00    +0.098 C 
BRANCH  32  33
ATOM     33  C   UNL A   1     -24.973  -2.505  29.788  0.00  0.00    -0.006 C 
ATOM     34  C   UNL A   1     -23.906  -3.173  29.146  0.00  0.00    -0.003 C 
ATOM     35  C   UNL A   1     -23.989  -4.549  28.853  0.00  0.00    -0.000 C 
ATOM     36  C   UNL A   1     -25.137  -5.280  29.205  0.00  0.00    -0.000 C 
ATOM     37  C   UNL A   1     -26.232  -4.611  29.784  0.00  0.00    -0.000 C 
ATOM     38  C   UNL A   1     -26.155  -3.232  30.065  0.00  0.00    -0.003 C 
ENDBRANCH  32  33
BRANCH  32  39
ATOM     39  C   UNL A   1     -25.387  -0.679  31.571  0.00  0.00    +0.092 C 
ATOM     40  C   UNL A   1     -25.189   0.773  32.028  0.00  0.00    +0.021 C 
ATOM     41  C   UNL A   1     -25.336   0.684  33.544  0.00  0.00    +0.020 C 
ATOM     42  C   UNL A   1     -24.829  -0.715  33.905  0.00  0.00    +0.089 C 
ATOM     43  N   UNL A   1     -24.758  -1.481  32.646  0.00  0.00    -0.218 NA
ENDBRANCH  32  39
ENDBRANCH  25  32
ENDBRANCH   1  25
TORSDOF 13
