REMARK  Name = outputs/IAG933/test6/raw/output_7909_IAG933_linker_design_.xyz
REMARK  18 active torsions:
REMARK  status: ('A' for Active; 'I' for Inactive)
REMARK    1  A    between atoms: C_1  and  C_2
REMARK    2  A    between atoms: C_1  and  C_8
REMARK    3  A    between atoms: C_1  and  N_42
REMARK    4  A    between atoms: C_13  and  C_39
REMARK    5  A    between atoms: C_14  and  C_15
REMARK    6  A    between atoms: C_21  and  O_22
REMARK    7  A    between atoms: O_22  and  C_23
REMARK    8  A    between atoms: C_23  and  C_24
REMARK    9  A    between atoms: C_28  and  C_36
REMARK   10  A    between atoms: O_30  and  C_31
REMARK   11  A    between atoms: O_30  and  C_32
REMARK   12  A    between atoms: C_36  and  C_40
REMARK   13  A    between atoms: C_37  and  C_38
REMARK   14  A    between atoms: C_37  and  C_43
REMARK   15  A    between atoms: C_38  and  C_41
REMARK   16  A    between atoms: C_39  and  C_41
REMARK   17  A    between atoms: C_40  and  N_42
REMARK   18  A    between atoms: N_42  and  C_43
REMARK                            x       y       z     vdW  Elec       q    Type
REMARK                         _______ _______ _______ _____ _____    ______ ____
ROOT
ATOM      1  N   UNL A   1     -24.106   0.095  29.444  0.00  0.00    -0.268 NA
ENDROOT
BRANCH   1   2
ATOM      2  C   UNL A   1     -24.855  -1.012  30.143  0.00  0.00    +0.096 C 
BRANCH   2   3
ATOM      3  C   UNL A   1     -24.973  -2.505  29.788  0.00  0.00    -0.006 C 
ATOM      4  C   UNL A   1     -23.906  -3.173  29.146  0.00  0.00    -0.003 C 
ATOM      5  C   UNL A   1     -23.989  -4.549  28.853  0.00  0.00    -0.000 C 
ATOM      6  C   UNL A   1     -25.137  -5.280  29.205  0.00  0.00    -0.000 C 
ATOM      7  C   UNL A   1     -26.232  -4.611  29.784  0.00  0.00    -0.000 C 
ATOM      8  C   UNL A   1     -26.155  -3.232  30.065  0.00  0.00    -0.003 C 
ENDBRANCH   2   3
BRANCH   2   9
ATOM      9  C   UNL A   1     -25.387  -0.679  31.571  0.00  0.00    +0.092 C 
ATOM     10  C   UNL A   1     -25.189   0.773  32.028  0.00  0.00    +0.021 C 
ATOM     11  C   UNL A   1     -25.336   0.684  33.544  0.00  0.00    +0.020 C 
ATOM     12  C   UNL A   1     -24.829  -0.715  33.905  0.00  0.00    +0.089 C 
ATOM     13  N   UNL A   1     -24.758  -1.481  32.646  0.00  0.00    -0.218 NA
ENDBRANCH   2   9
ENDBRANCH   1   2
BRANCH   1  14
ATOM     14  C   UNL A   1     -25.209   0.731  28.942  0.00  0.00    +0.086 C 
BRANCH  14  15
ATOM     15  C   UNL A   1     -26.666   0.282  28.706  0.00  0.00    +0.096 C 
BRANCH  15  16
ATOM     16  C   UNL A   1     -27.969  -0.124  28.472  0.00  0.00    -0.060 C 
ATOM     17  C   UNL A   1     -29.458  -0.471  28.192  0.00  0.00    +0.056 C 
BRANCH  17  18
ATOM     18  O   UNL A   1     -30.610  -0.920  27.710  0.00  0.00    -0.282 OA
BRANCH  18  20
ATOM     19  C   UNL A   1     -31.057   1.461  28.304  0.00  0.00    +0.067 C 
ATOM     20  C   UNL A   1     -31.620   0.146  27.708  0.00  0.00    +0.180 C 
ATOM     21  C   UNL A   1     -31.951   1.669  29.538  0.00  0.00    +0.147 C 
ATOM     22  C   UNL A   1     -32.806  -0.284  28.600  0.00  0.00    +0.235 C 
ATOM     23  O   UNL A   1     -33.106   0.800  29.497  0.00  0.00    -0.336 OA
ATOM     24  N   UNL A   1     -34.009  -0.542  27.787  0.00  0.00    -0.097 NA
ENDBRANCH  18  20
ENDBRANCH  17  18
ENDBRANCH  15  16
ENDBRANCH  14  15
ENDBRANCH   1  14
BRANCH   1  25
ATOM     25  C   UNL A   1     -22.896   0.984  29.301  0.00  0.00    +0.072 C 
BRANCH  25  26
ATOM     26  C   UNL A   1     -21.810   0.555  28.301  0.00  0.00    +0.017 C 
BRANCH  26  27
ATOM     27  C   UNL A   1     -21.722   1.609  27.160  0.00  0.00    +0.001 C 
BRANCH  27  28
ATOM     28  C   UNL A   1     -23.004   2.427  26.892  0.00  0.00    +0.001 C 
BRANCH  28  29
ATOM     29  C   UNL A   1     -24.098   1.536  26.228  0.00  0.00    +0.008 C 
BRANCH  29  30
ATOM     30  C   UNL A   1     -25.688   1.614  26.461  0.00  0.00    +0.070 C 
ATOM     31  C   UNL A   1     -26.250   2.920  26.395  0.00  0.00    +0.055 C 
ATOM     32  C   UNL A   1     -27.438   3.091  25.645  0.00  0.00    +0.102 C 
ATOM     33  N   UNL A   1     -28.075   2.089  25.003  0.00  0.00    -0.212 NA
ATOM     34  C   UNL A   1     -27.543   0.849  25.079  0.00  0.00    +0.234 C 
ATOM     35  C   UNL A   1     -26.354   0.576  25.777  0.00  0.00    +0.240 C 
ATOM     36  F   UNL A   1     -25.860  -0.681  25.795  0.00  0.00    -0.227 F 
BRANCH  31  37
ATOM     37  C   UNL A   1     -25.642   4.093  27.123  0.00  0.00    +0.262 C 
ATOM     38  N   UNL A   1     -25.614   5.252  26.449  0.00  0.00    -0.200 NA
ATOM     39  C   UNL A   1     -25.026   6.479  26.963  0.00  0.00    +0.139 C 
ATOM     40  O   UNL A   1     -25.143   3.966  28.243  0.00  0.00    -0.269 OA
ENDBRANCH  31  37
BRANCH  34  41
ATOM     41  O   UNL A   1     -28.193  -0.208  24.477  0.00  0.00    -0.459 OA
BRANCH  41  42
ATOM     42  C   UNL A   1     -29.460   0.005  23.866  0.00  0.00    +0.242 C 
BRANCH  42  43
ATOM     43  C   UNL A   1     -30.065  -1.377  23.573  0.00  0.00    +0.229 C 
ATOM     44  O   UNL A   1     -30.729  -1.878  24.721  0.00  0.00    -0.216 OA
ENDBRANCH  42  43
ENDBRANCH  41  42
ENDBRANCH  34  41
ENDBRANCH  29  30
ENDBRANCH  28  29
ENDBRANCH  27  28
ENDBRANCH  26  27
ENDBRANCH  25  26
ENDBRANCH   1  25
TORSDOF 18
