MODEL 790
MODEL 1
REMARK VINA RESULT:    -7.226      0.000      0.000
REMARK INTER + INTRA:          -9.099
REMARK INTER:                  -8.494
REMARK INTRA:                  -0.605
REMARK UNBOUND:                -0.605
REMARK  Name = No_790-gen_results/8p0m/2024-11-27-11-27-31/
REMARK  3 active torsions:
REMARK  status: ('A' for Active; 'I' for Inactive)
REMARK    1  A    between atoms: C_3  and  C_4
REMARK    2  A    between atoms: C_10  and  C_13
REMARK    3  A    between atoms: N_14  and  C_16
REMARK                            x       y       z     vdW  Elec       q    Type
REMARK                         _______ _______ _______ _____ _____    ______ ____
ROOT
ATOM      1  C   UNL A   1     -10.565   1.425  36.722  0.00  0.00    +0.005 A 
ATOM      2  C   UNL A   1     -11.602   1.910  37.111  0.00  0.00    +0.000 A 
ATOM      3  C   UNL A   1     -12.607   2.268  36.219  0.00  0.00    +0.000 A 
ATOM      4  C   UNL A   1     -10.205   1.382  35.308  0.00  0.00    +0.055 A 
ATOM      5  C   UNL A   1     -11.172   1.615  34.352  0.00  0.00    +0.005 A 
ATOM      6  C   UNL A   1     -12.399   2.134  34.784  0.00  0.00    +0.000 A 
ENDROOT
BRANCH   3   7
ATOM      7  C   UNL A   1     -13.920   2.880  36.571  0.00  0.00    +0.000 A 
ATOM      8  C   UNL A   1     -14.252   2.890  37.958  0.00  0.00    +0.000 A 
ATOM      9  C   UNL A   1     -15.477   3.400  38.384  0.00  0.00    +0.000 A 
ATOM     10  C   UNL A   1     -16.410   3.750  37.385  0.00  0.00    +0.000 A 
ATOM     11  C   UNL A   1     -16.110   3.727  36.054  0.00  0.00    +0.000 A 
ATOM     12  C   UNL A   1     -14.828   3.230  35.608  0.00  0.00    +0.000 A 
ENDBRANCH   3   7
BRANCH   4  13
ATOM     13  C   UNL A   1      -8.912   0.855  34.836  0.00  0.00    +0.269 C 
ATOM     14  N   UNL A   1      -8.294  -0.009  35.497  0.00  0.00    -0.175 NA
ATOM     15  O   UNL A   1      -8.358   1.361  33.804  0.00  0.00    -0.268 OA
BRANCH  14  16
ATOM     16  C   UNL A   1      -7.012  -0.594  35.096  0.00  0.00    +0.074 A 
ATOM     17  C   UNL A   1      -6.964  -1.610  34.520  0.00  0.00    +0.017 A 
ATOM     18  C   UNL A   1      -5.772  -2.246  34.208  0.00  0.00    +0.001 A 
ATOM     19  C   UNL A   1      -4.568  -1.569  34.534  0.00  0.00    +0.000 A 
ATOM     20  C   UNL A   1      -4.640  -0.359  35.188  0.00  0.00    +0.001 A 
ATOM     21  C   UNL A   1      -5.844   0.156  35.546  0.00  0.00    +0.017 A 
ENDBRANCH  14  16
ENDBRANCH   4  13
TORSDOF 3
ENDMDL
ENDMDL
