REMARK  Name = outputs/IAG933/test6/raw/output_7910_IAG933_linker_design_.xyz
REMARK  14 active torsions:
REMARK  status: ('A' for Active; 'I' for Inactive)
REMARK    1  A    between atoms: C_1  and  C_2
REMARK    2  A    between atoms: C_1  and  C_8
REMARK    3  A    between atoms: C_1  and  C_29
REMARK    4  A    between atoms: C_13  and  N_41
REMARK    5  A    between atoms: C_14  and  C_15
REMARK    6  A    between atoms: C_21  and  O_22
REMARK    7  A    between atoms: O_22  and  C_23
REMARK    8  A    between atoms: C_23  and  C_24
REMARK    9  A    between atoms: C_28  and  C_29
REMARK   10  A    between atoms: C_28  and  C_39
REMARK   11  A    between atoms: C_29  and  N_34
REMARK   12  A    between atoms: N_34  and  N_41
REMARK   13  A    between atoms: C_35  and  C_40
REMARK   14  A    between atoms: C_36  and  N_41
REMARK                            x       y       z     vdW  Elec       q    Type
REMARK                         _______ _______ _______ _____ _____    ______ ____
ROOT
ATOM      1  N   UNL A   1     -24.673   1.107  27.262  0.00  0.00    -0.209 N 
ENDROOT
BRANCH   1   2
ATOM      2  C   UNL A   1     -25.688   1.614  26.461  0.00  0.00    +0.106 C 
ATOM      3  C   UNL A   1     -26.250   2.920  26.395  0.00  0.00    +0.092 C 
ATOM      4  C   UNL A   1     -27.438   3.091  25.645  0.00  0.00    +0.108 C 
ATOM      5  N   UNL A   1     -28.075   2.089  25.003  0.00  0.00    -0.208 NA
ATOM      6  C   UNL A   1     -27.543   0.849  25.079  0.00  0.00    +0.255 C 
ATOM      7  C   UNL A   1     -26.354   0.576  25.777  0.00  0.00    +0.208 C 
ATOM      8  F   UNL A   1     -25.860  -0.681  25.795  0.00  0.00    -0.198 F 
BRANCH   3   9
ATOM      9  C   UNL A   1     -25.642   4.093  27.123  0.00  0.00    +0.268 C 
ATOM     10  N   UNL A   1     -25.614   5.252  26.449  0.00  0.00    -0.200 NA
ATOM     11  C   UNL A   1     -25.026   6.479  26.963  0.00  0.00    +0.139 C 
ATOM     12  O   UNL A   1     -25.143   3.966  28.243  0.00  0.00    -0.268 OA
ENDBRANCH   3   9
BRANCH   6  13
ATOM     13  O   UNL A   1     -28.193  -0.208  24.477  0.00  0.00    -0.456 OA
BRANCH  13  14
ATOM     14  C   UNL A   1     -29.460   0.005  23.866  0.00  0.00    +0.243 C 
BRANCH  14  15
ATOM     15  C   UNL A   1     -30.065  -1.377  23.573  0.00  0.00    +0.229 C 
ATOM     16  O   UNL A   1     -30.729  -1.878  24.721  0.00  0.00    -0.216 OA
ENDBRANCH  14  15
ENDBRANCH  13  14
ENDBRANCH   6  13
ENDBRANCH   1   2
BRANCH   1  20
ATOM     17  C   UNL A   1     -21.276   2.031  26.270  0.00  0.00    +0.182 C 
ATOM     18  O   UNL A   1     -21.128   1.377  27.430  0.00  0.00    -0.439 OA
ATOM     19  C   UNL A   1     -22.328   0.939  27.787  0.00  0.00    +0.228 C 
ATOM     20  C   UNL A   1     -23.328   1.450  26.966  0.00  0.00    +0.116 C 
ATOM     21  C   UNL A   1     -22.721   2.159  25.958  0.00  0.00    +0.061 C 
BRANCH  19  23
ATOM     22  N   UNL A   1     -22.040  -0.241  29.917  0.00  0.00    -0.188 NA
ATOM     23  C   UNL A   1     -22.281   0.105  28.785  0.00  0.00    +0.140 C 
ENDBRANCH  19  23
ENDBRANCH   1  20
BRANCH   1  24
ATOM     24  N   UNL A   1     -25.049   0.085  28.062  0.00  0.00    -0.126 NA
BRANCH  24  25
ATOM     25  C   UNL A   1     -25.929  -0.224  29.182  0.00  0.00    +0.111 C 
BRANCH  25  26
ATOM     26  C   UNL A   1     -24.855  -1.012  30.143  0.00  0.00    +0.057 C 
BRANCH  26  27
ATOM     27  C   UNL A   1     -24.973  -2.505  29.788  0.00  0.00    -0.020 C 
ATOM     28  C   UNL A   1     -23.906  -3.173  29.146  0.00  0.00    -0.004 C 
ATOM     29  C   UNL A   1     -23.989  -4.549  28.853  0.00  0.00    -0.000 C 
ATOM     30  C   UNL A   1     -25.137  -5.280  29.205  0.00  0.00    -0.000 C 
ATOM     31  C   UNL A   1     -26.232  -4.611  29.784  0.00  0.00    -0.000 C 
ATOM     32  C   UNL A   1     -26.155  -3.232  30.065  0.00  0.00    -0.004 C 
ENDBRANCH  26  27
BRANCH  26  33
ATOM     33  C   UNL A   1     -25.387  -0.679  31.571  0.00  0.00    +0.078 C 
ATOM     34  C   UNL A   1     -25.189   0.773  32.028  0.00  0.00    +0.019 C 
ATOM     35  C   UNL A   1     -25.336   0.684  33.544  0.00  0.00    +0.020 C 
ATOM     36  C   UNL A   1     -24.829  -0.715  33.905  0.00  0.00    +0.089 C 
ATOM     37  N   UNL A   1     -24.758  -1.481  32.646  0.00  0.00    -0.219 NA
ENDBRANCH  26  33
ENDBRANCH  25  26
BRANCH  25  38
ATOM     38  C   UNL A   1     -27.013   1.014  29.313  0.00  0.00    +0.134 C 
BRANCH  38  41
ATOM     39  O   UNL A   1     -29.342   1.217  29.202  0.00  0.00    -0.246 OA
ATOM     40  O   UNL A   1     -28.510  -0.746  28.672  0.00  0.00    -0.246 OA
ATOM     41  C   UNL A   1     -28.341   0.458  29.061  0.00  0.00    +0.366 C 
ENDBRANCH  38  41
ENDBRANCH  25  38
ENDBRANCH  24  25
ENDBRANCH   1  24
TORSDOF 14
