REMARK  Name = outputs/IAG933/test6/raw/output_7914_IAG933_linker_design_.xyz
REMARK  13 active torsions:
REMARK  status: ('A' for Active; 'I' for Inactive)
REMARK    1  A    between atoms: C_1  and  C_2
REMARK    2  A    between atoms: C_1  and  C_8
REMARK    3  A    between atoms: C_1  and  N_36
REMARK    4  A    between atoms: C_13  and  N_29
REMARK    5  A    between atoms: C_14  and  C_15
REMARK    6  A    between atoms: C_21  and  O_22
REMARK    7  A    between atoms: O_22  and  C_23
REMARK    8  A    between atoms: C_23  and  C_24
REMARK    9  A    between atoms: N_29  and  C_40
REMARK   10  A    between atoms: C_32  and  C_40
REMARK   11  A    between atoms: N_33  and  C_39
REMARK   12  A    between atoms: N_35  and  C_39
REMARK   13  A    between atoms: C_38  and  C_40
REMARK                            x       y       z     vdW  Elec       q    Type
REMARK                         _______ _______ _______ _____ _____    ______ ____
ROOT
ATOM      1  N   UNL A   1     -24.547   1.320  27.219  0.00  0.00    -0.226 N 
ATOM      2  O   UNL A   1     -26.084   0.877  28.868  0.00  0.00    -0.250 OA
ATOM      3  C   UNL A   1     -24.959   0.678  28.526  0.00  0.00    +0.328 C 
ATOM      4  N   UNL A   1     -24.254  -0.095  29.356  0.00  0.00    -0.184 NA
ENDROOT
BRANCH   1   5
ATOM      5  C   UNL A   1     -25.688   1.614  26.461  0.00  0.00    +0.094 C 
ATOM      6  C   UNL A   1     -26.250   2.920  26.395  0.00  0.00    +0.090 C 
ATOM      7  C   UNL A   1     -27.438   3.091  25.645  0.00  0.00    +0.108 C 
ATOM      8  N   UNL A   1     -28.075   2.089  25.003  0.00  0.00    -0.208 NA
ATOM      9  C   UNL A   1     -27.543   0.849  25.079  0.00  0.00    +0.255 C 
ATOM     10  C   UNL A   1     -26.354   0.576  25.777  0.00  0.00    +0.207 C 
ATOM     11  F   UNL A   1     -25.860  -0.681  25.795  0.00  0.00    -0.198 F 
BRANCH   6  12
ATOM     12  C   UNL A   1     -25.642   4.093  27.123  0.00  0.00    +0.268 C 
ATOM     13  N   UNL A   1     -25.614   5.252  26.449  0.00  0.00    -0.200 NA
ATOM     14  C   UNL A   1     -25.026   6.479  26.963  0.00  0.00    +0.139 C 
ATOM     15  O   UNL A   1     -25.143   3.966  28.243  0.00  0.00    -0.268 OA
ENDBRANCH   6  12
BRANCH   9  16
ATOM     16  O   UNL A   1     -28.193  -0.208  24.477  0.00  0.00    -0.456 OA
BRANCH  16  17
ATOM     17  C   UNL A   1     -29.460   0.005  23.866  0.00  0.00    +0.243 C 
BRANCH  17  18
ATOM     18  C   UNL A   1     -30.065  -1.377  23.573  0.00  0.00    +0.229 C 
ATOM     19  O   UNL A   1     -30.729  -1.878  24.721  0.00  0.00    -0.216 OA
ENDBRANCH  17  18
ENDBRANCH  16  17
ENDBRANCH   9  16
ENDBRANCH   1   5
BRANCH   4  20
ATOM     20  C   UNL A   1     -24.855  -1.012  30.143  0.00  0.00    +0.135 C 
BRANCH  20  21
ATOM     21  C   UNL A   1     -24.973  -2.505  29.788  0.00  0.00    -0.001 C 
ATOM     22  C   UNL A   1     -23.906  -3.173  29.146  0.00  0.00    -0.003 C 
ATOM     23  C   UNL A   1     -23.989  -4.549  28.853  0.00  0.00    -0.000 C 
ATOM     24  C   UNL A   1     -25.137  -5.280  29.205  0.00  0.00    -0.000 C 
ATOM     25  C   UNL A   1     -26.232  -4.611  29.784  0.00  0.00    -0.000 C 
ATOM     26  C   UNL A   1     -26.155  -3.232  30.065  0.00  0.00    -0.003 C 
ENDBRANCH  20  21
BRANCH  20  27
ATOM     27  C   UNL A   1     -25.387  -0.679  31.571  0.00  0.00    +0.097 C 
ATOM     28  C   UNL A   1     -25.189   0.773  32.028  0.00  0.00    +0.021 C 
ATOM     29  C   UNL A   1     -25.336   0.684  33.544  0.00  0.00    +0.020 C 
ATOM     30  C   UNL A   1     -24.829  -0.715  33.905  0.00  0.00    +0.089 C 
ATOM     31  N   UNL A   1     -24.758  -1.481  32.646  0.00  0.00    -0.217 NA
ENDBRANCH  20  27
ENDBRANCH   4  20
BRANCH   1  32
ATOM     32  C   UNL A   1     -23.091   1.744  26.884  0.00  0.00    +0.213 C 
BRANCH  32  35
ATOM     33  O   UNL A   1     -23.772   1.617  24.667  0.00  0.00    -0.257 OA
ATOM     34  F   UNL A   1     -21.771   2.467  24.954  0.00  0.00    -0.161 F 
ATOM     35  C   UNL A   1     -22.895   2.006  25.413  0.00  0.00    +0.335 C 
ENDBRANCH  32  35
BRANCH  32  36
ATOM     36  C   UNL A   1     -21.557   1.761  27.355  0.00  0.00    +0.099 C 
ATOM     37  N   UNL A   1     -21.120   0.792  28.316  0.00  0.00    -0.252 NA
BRANCH  37  38
ATOM     38  C   UNL A   1     -21.895  -0.103  28.728  0.00  0.00    +0.215 C 
BRANCH  38  39
ATOM     39  N   UNL A   1     -22.054  -0.738  28.855  0.00  0.00    -0.192 NA
ATOM     40  C   UNL A   1     -22.941  -0.154  29.098  0.00  0.00    +0.110 C 
ENDBRANCH  38  39
ENDBRANCH  37  38
ENDBRANCH  32  36
ENDBRANCH   1  32
TORSDOF 13
