REMARK  Name = outputs/IAG933/test6/raw/output_7915_IAG933_linker_design_.xyz
REMARK  12 active torsions:
REMARK  status: ('A' for Active; 'I' for Inactive)
REMARK    1  A    between atoms: C_1  and  C_2
REMARK    2  A    between atoms: C_1  and  C_8
REMARK    3  A    between atoms: C_1  and  C_28
REMARK    4  A    between atoms: C_13  and  C_39
REMARK    5  A    between atoms: C_14  and  C_15
REMARK    6  A    between atoms: C_21  and  O_22
REMARK    7  A    between atoms: O_22  and  C_23
REMARK    8  A    between atoms: C_23  and  C_24
REMARK    9  A    between atoms: C_28  and  N_33
REMARK   10  A    between atoms: C_28  and  C_38
REMARK   11  A    between atoms: C_29  and  C_42
REMARK   12  A    between atoms: C_36  and  C_41
REMARK                            x       y       z     vdW  Elec       q    Type
REMARK                         _______ _______ _______ _____ _____    ______ ____
ROOT
ATOM      1 CL   UNL A   1     -22.734   2.509  25.391  0.00  0.00    -0.080 Cl
ATOM      2  C   UNL A   1     -22.365   1.235  27.712  0.00  0.00    +0.132 C 
ATOM      3  F   UNL A   1     -20.995   1.476  27.556  0.00  0.00    -0.208 F 
ATOM      4  C   UNL A   1     -22.999   0.406  28.712  0.00  0.00    +0.071 C 
ATOM      5  C   UNL A   1     -23.246   1.746  26.842  0.00  0.00    +0.081 C 
ATOM      6  C   UNL A   1     -24.434   0.598  28.395  0.00  0.00    -0.017 C 
ATOM      7  C   UNL A   1     -24.515   1.333  27.214  0.00  0.00    +0.009 C 
ENDROOT
BRANCH   7   8
ATOM      8  C   UNL A   1     -25.688   1.614  26.461  0.00  0.00    +0.038 C 
ATOM      9  C   UNL A   1     -26.250   2.920  26.395  0.00  0.00    +0.076 C 
ATOM     10  C   UNL A   1     -27.438   3.091  25.645  0.00  0.00    +0.107 C 
ATOM     11  N   UNL A   1     -28.075   2.089  25.003  0.00  0.00    -0.208 NA
ATOM     12  C   UNL A   1     -27.543   0.849  25.079  0.00  0.00    +0.253 C 
ATOM     13  C   UNL A   1     -26.354   0.576  25.777  0.00  0.00    +0.193 C 
ATOM     14  F   UNL A   1     -25.860  -0.681  25.795  0.00  0.00    -0.199 F 
BRANCH   9  15
ATOM     15  C   UNL A   1     -25.642   4.093  27.123  0.00  0.00    +0.266 C 
ATOM     16  N   UNL A   1     -25.614   5.252  26.449  0.00  0.00    -0.200 NA
ATOM     17  C   UNL A   1     -25.026   6.479  26.963  0.00  0.00    +0.139 C 
ATOM     18  O   UNL A   1     -25.143   3.966  28.243  0.00  0.00    -0.268 OA
ENDBRANCH   9  15
BRANCH  12  19
ATOM     19  O   UNL A   1     -28.193  -0.208  24.477  0.00  0.00    -0.456 OA
BRANCH  19  20
ATOM     20  C   UNL A   1     -29.460   0.005  23.866  0.00  0.00    +0.243 C 
BRANCH  20  21
ATOM     21  C   UNL A   1     -30.065  -1.377  23.573  0.00  0.00    +0.229 C 
ATOM     22  O   UNL A   1     -30.729  -1.878  24.721  0.00  0.00    -0.216 OA
ENDBRANCH  20  21
ENDBRANCH  19  20
ENDBRANCH  12  19
ENDBRANCH   7   8
BRANCH   4  24
ATOM     23  C   UNL A   1     -20.982  -0.530  29.144  0.00  0.00    +0.001 C 
ATOM     24  C   UNL A   1     -22.431  -0.267  29.569  0.00  0.00    +0.011 C 
ENDBRANCH   4  24
BRANCH   6  25
ATOM     25  C   UNL A   1     -25.415   0.011  29.139  0.00  0.00    +0.119 C 
BRANCH  25  27
ATOM     26  O   UNL A   1     -28.678  -0.568  29.187  0.00  0.00    -0.273 OA
ATOM     27  N   UNL A   1     -26.704   0.341  28.839  0.00  0.00    -0.203 NA
ATOM     28  C   UNL A   1     -28.030   0.455  29.256  0.00  0.00    +0.242 C 
BRANCH  28  29
ATOM     29  C   UNL A   1     -28.493   1.749  29.863  0.00  0.00    +0.087 C 
ATOM     30  C   UNL A   1     -29.980   1.938  29.626  0.00  0.00    +0.010 C 
ENDBRANCH  28  29
ENDBRANCH  25  27
BRANCH  25  31
ATOM     31  C   UNL A   1     -24.855  -1.012  30.143  0.00  0.00    +0.062 C 
BRANCH  31  32
ATOM     32  C   UNL A   1     -24.973  -2.505  29.788  0.00  0.00    -0.019 C 
ATOM     33  C   UNL A   1     -23.906  -3.173  29.146  0.00  0.00    -0.004 C 
ATOM     34  C   UNL A   1     -23.989  -4.549  28.853  0.00  0.00    -0.000 C 
ATOM     35  C   UNL A   1     -25.137  -5.280  29.205  0.00  0.00    -0.000 C 
ATOM     36  C   UNL A   1     -26.232  -4.611  29.784  0.00  0.00    -0.000 C 
ATOM     37  C   UNL A   1     -26.155  -3.232  30.065  0.00  0.00    -0.004 C 
ENDBRANCH  31  32
BRANCH  31  38
ATOM     38  C   UNL A   1     -25.387  -0.679  31.571  0.00  0.00    +0.079 C 
ATOM     39  C   UNL A   1     -25.189   0.773  32.028  0.00  0.00    +0.019 C 
ATOM     40  C   UNL A   1     -25.336   0.684  33.544  0.00  0.00    +0.020 C 
ATOM     41  C   UNL A   1     -24.829  -0.715  33.905  0.00  0.00    +0.089 C 
ATOM     42  N   UNL A   1     -24.758  -1.481  32.646  0.00  0.00    -0.219 NA
ENDBRANCH  31  38
ENDBRANCH  25  31
ENDBRANCH   6  25
TORSDOF 12
