REMARK  Name = outputs/IAG933/test6/raw/output_7916_IAG933_linker_design_.xyz
REMARK  8 active torsions:
REMARK  status: ('A' for Active; 'I' for Inactive)
REMARK    1  A    between atoms: C_1  and  C_2
REMARK    2  A    between atoms: C_13  and  C_35
REMARK    3  A    between atoms: C_14  and  C_15
REMARK    4  A    between atoms: C_21  and  O_22
REMARK    5  A    between atoms: O_22  and  C_23
REMARK    6  A    between atoms: C_23  and  C_24
REMARK    7  A    between atoms: N_34  and  C_36
REMARK    8  A    between atoms: C_42  and  C_44
REMARK                            x       y       z     vdW  Elec       q    Type
REMARK                         _______ _______ _______ _____ _____    ______ ____
ROOT
ATOM      1  N   UNL A   1     -22.076   0.981  29.576  0.00  0.00    -0.065 NA
ATOM      2  O   UNL A   1     -22.083   1.680  27.372  0.00  0.00    -0.420 OA
ATOM      3  N   UNL A   1     -24.112   0.971  28.150  0.00  0.00    -0.257 N 
ATOM      4  C   UNL A   1     -24.355   1.462  26.948  0.00  0.00    +0.118 C 
ATOM      5  C   UNL A   1     -23.015   1.729  26.331  0.00  0.00    +0.299 C 
ATOM      6  C   UNL A   1     -22.749   1.196  28.439  0.00  0.00    +0.347 C 
ATOM      7  F   UNL A   1     -22.658   2.061  25.075  0.00  0.00    -0.162 F 
ENDROOT
BRANCH   3  14
ATOM      8  C   UNL A   1     -24.855  -1.012  30.143  0.00  0.00    +0.057 C 
ATOM      9  C   UNL A   1     -25.387  -0.679  31.571  0.00  0.00    +0.079 C 
ATOM     10  C   UNL A   1     -25.189   0.773  32.028  0.00  0.00    +0.022 C 
ATOM     11  C   UNL A   1     -25.336   0.684  33.544  0.00  0.00    +0.021 C 
ATOM     12  C   UNL A   1     -24.829  -0.715  33.905  0.00  0.00    +0.089 C 
ATOM     13  N   UNL A   1     -24.758  -1.481  32.646  0.00  0.00    -0.219 NA
ATOM     14  C   UNL A   1     -25.055   0.074  29.005  0.00  0.00    +0.083 C 
ATOM     15  C   UNL A   1     -25.881   1.304  29.731  0.00  0.00    +0.025 C 
ATOM     16  C   UNL A   1     -26.016   1.822  31.202  0.00  0.00    +0.027 C 
BRANCH  16  23
ATOM     17  O   UNL A   1     -24.707   5.783  32.430  0.00  0.00    -0.466 OA
ATOM     18  C   UNL A   1     -25.634   5.659  31.445  0.00  0.00    +0.250 C 
ATOM     19  C   UNL A   1     -24.314   4.751  33.204  0.00  0.00    +0.172 C 
ATOM     20  C   UNL A   1     -24.759   3.485  32.847  0.00  0.00    +0.037 C 
ATOM     21  N   UNL A   1     -27.308   4.269  30.275  0.00  0.00    -0.129 NA
ATOM     22  C   UNL A   1     -26.195   4.383  31.130  0.00  0.00    +0.106 C 
ATOM     23  C   UNL A   1     -25.653   3.209  31.747  0.00  0.00    -0.003 C 
ENDBRANCH  16  23
BRANCH   8  24
ATOM     24  C   UNL A   1     -24.973  -2.505  29.788  0.00  0.00    -0.019 C 
ATOM     25  C   UNL A   1     -23.906  -3.173  29.146  0.00  0.00    -0.004 C 
ATOM     26  C   UNL A   1     -23.989  -4.549  28.853  0.00  0.00    -0.000 C 
ATOM     27  C   UNL A   1     -25.137  -5.280  29.205  0.00  0.00    -0.000 C 
ATOM     28  C   UNL A   1     -26.232  -4.611  29.784  0.00  0.00    -0.000 C 
ATOM     29  C   UNL A   1     -26.155  -3.232  30.065  0.00  0.00    -0.004 C 
ENDBRANCH   8  24
ENDBRANCH   3  14
BRANCH   4  30
ATOM     30  C   UNL A   1     -25.688   1.614  26.461  0.00  0.00    +0.057 C 
ATOM     31  C   UNL A   1     -26.250   2.920  26.395  0.00  0.00    +0.078 C 
ATOM     32  C   UNL A   1     -27.438   3.091  25.645  0.00  0.00    +0.107 C 
ATOM     33  N   UNL A   1     -28.075   2.089  25.003  0.00  0.00    -0.208 NA
ATOM     34  C   UNL A   1     -27.543   0.849  25.079  0.00  0.00    +0.253 C 
ATOM     35  C   UNL A   1     -26.354   0.576  25.777  0.00  0.00    +0.194 C 
ATOM     36  F   UNL A   1     -25.860  -0.681  25.795  0.00  0.00    -0.199 F 
BRANCH  31  37
ATOM     37  C   UNL A   1     -25.642   4.093  27.123  0.00  0.00    +0.267 C 
ATOM     38  N   UNL A   1     -25.614   5.252  26.449  0.00  0.00    -0.200 NA
ATOM     39  C   UNL A   1     -25.026   6.479  26.963  0.00  0.00    +0.139 C 
ATOM     40  O   UNL A   1     -25.143   3.966  28.243  0.00  0.00    -0.268 OA
ENDBRANCH  31  37
BRANCH  34  41
ATOM     41  O   UNL A   1     -28.193  -0.208  24.477  0.00  0.00    -0.456 OA
BRANCH  41  42
ATOM     42  C   UNL A   1     -29.460   0.005  23.866  0.00  0.00    +0.243 C 
BRANCH  42  43
ATOM     43  C   UNL A   1     -30.065  -1.377  23.573  0.00  0.00    +0.229 C 
ATOM     44  O   UNL A   1     -30.729  -1.878  24.721  0.00  0.00    -0.216 OA
ENDBRANCH  42  43
ENDBRANCH  41  42
ENDBRANCH  34  41
ENDBRANCH   4  30
TORSDOF 8
