REMARK  Name = outputs/IAG933/test6/raw/output_7917_IAG933_linker_design_.xyz
REMARK  12 active torsions:
REMARK  status: ('A' for Active; 'I' for Inactive)
REMARK    1  A    between atoms: C_1  and  C_2
REMARK    2  A    between atoms: C_1  and  C_8
REMARK    3  A    between atoms: C_1  and  N_37
REMARK    4  A    between atoms: C_13  and  C_29
REMARK    5  A    between atoms: C_14  and  C_15
REMARK    6  A    between atoms: C_21  and  O_22
REMARK    7  A    between atoms: O_22  and  C_23
REMARK    8  A    between atoms: C_23  and  C_24
REMARK    9  A    between atoms: C_29  and  C_36
REMARK   10  A    between atoms: C_29  and  C_44
REMARK   11  A    between atoms: C_30  and  O_31
REMARK   12  A    between atoms: N_37  and  C_44
REMARK                            x       y       z     vdW  Elec       q    Type
REMARK                         _______ _______ _______ _____ _____    ______ ____
ROOT
ATOM      1  C   UNL A   1     -27.364   0.757  29.331  0.00  0.00    -0.095 C 
ATOM      2  C   UNL A   1     -29.173   1.997  30.693  0.00  0.00    +0.158 C 
ATOM      3  N   UNL A   1     -29.907   0.308  31.837  0.00  0.00    -0.265 NA
ATOM      4  C   UNL A   1     -29.807   1.655  31.861  0.00  0.00    +0.107 C 
ATOM      5  C   UNL A   1     -30.689  -0.393  32.874  0.00  0.00    +0.090 C 
ATOM      6  C   UNL A   1     -29.340  -0.274  30.746  0.00  0.00    +0.105 C 
ATOM      7  C   UNL A   1     -28.750   0.781  30.132  0.00  0.00    +0.035 C 
ATOM      8  C   UNL A   1     -25.785   0.466  28.552  0.00  0.00    +0.081 C 
ENDROOT
BRANCH   2   9
ATOM      9  O   UNL A   1     -28.805   3.279  30.017  0.00  0.00    -0.347 OA
ATOM     10  C   UNL A   1     -27.492   3.923  30.403  0.00  0.00    +0.174 C 
ENDBRANCH   2   9
BRANCH   8  11
ATOM     11  C   UNL A   1     -24.803   1.171  27.469  0.00  0.00    +0.074 C 
BRANCH  11  12
ATOM     12  C   UNL A   1     -25.688   1.614  26.461  0.00  0.00    +0.080 C 
ATOM     13  C   UNL A   1     -26.250   2.920  26.395  0.00  0.00    +0.056 C 
ATOM     14  C   UNL A   1     -27.438   3.091  25.645  0.00  0.00    +0.102 C 
ATOM     15  N   UNL A   1     -28.075   2.089  25.003  0.00  0.00    -0.212 NA
ATOM     16  C   UNL A   1     -27.543   0.849  25.079  0.00  0.00    +0.234 C 
ATOM     17  C   UNL A   1     -26.354   0.576  25.777  0.00  0.00    +0.241 C 
ATOM     18  F   UNL A   1     -25.860  -0.681  25.795  0.00  0.00    -0.227 F 
BRANCH  13  19
ATOM     19  C   UNL A   1     -25.642   4.093  27.123  0.00  0.00    +0.263 C 
ATOM     20  N   UNL A   1     -25.614   5.252  26.449  0.00  0.00    -0.200 NA
ATOM     21  C   UNL A   1     -25.026   6.479  26.963  0.00  0.00    +0.139 C 
ATOM     22  O   UNL A   1     -25.143   3.966  28.243  0.00  0.00    -0.269 OA
ENDBRANCH  13  19
BRANCH  16  23
ATOM     23  O   UNL A   1     -28.193  -0.208  24.477  0.00  0.00    -0.459 OA
BRANCH  23  24
ATOM     24  C   UNL A   1     -29.460   0.005  23.866  0.00  0.00    +0.242 C 
BRANCH  24  25
ATOM     25  C   UNL A   1     -30.065  -1.377  23.573  0.00  0.00    +0.229 C 
ATOM     26  O   UNL A   1     -30.729  -1.878  24.721  0.00  0.00    -0.216 OA
ENDBRANCH  24  25
ENDBRANCH  23  24
ENDBRANCH  16  23
ENDBRANCH  11  12
BRANCH  11  29
ATOM     27  C   UNL A   1     -22.839   2.270  25.261  0.00  0.00    +0.038 C 
ATOM     28  S   UNL A   1     -21.002   1.853  27.244  0.00  0.00    -0.091 S 
ATOM     29  C   UNL A   1     -23.444   1.192  27.529  0.00  0.00    -0.014 C 
ATOM     30  C   UNL A   1     -21.440   0.918  28.614  0.00  0.00    +0.035 C 
ATOM     31  C   UNL A   1     -22.601   1.789  26.631  0.00  0.00    +0.004 C 
ATOM     32  C   UNL A   1     -22.726   0.592  28.605  0.00  0.00    +0.003 C 
ENDBRANCH  11  29
ENDBRANCH   8  11
BRANCH   8  33
ATOM     33  N   UNL A   1     -25.395  -0.339  29.100  0.00  0.00    -0.230 NA
BRANCH  33  34
ATOM     34  C   UNL A   1     -24.855  -1.012  30.143  0.00  0.00    +0.131 C 
BRANCH  34  35
ATOM     35  C   UNL A   1     -24.973  -2.505  29.788  0.00  0.00    -0.001 C 
ATOM     36  C   UNL A   1     -23.906  -3.173  29.146  0.00  0.00    -0.003 C 
ATOM     37  C   UNL A   1     -23.989  -4.549  28.853  0.00  0.00    -0.000 C 
ATOM     38  C   UNL A   1     -25.137  -5.280  29.205  0.00  0.00    -0.000 C 
ATOM     39  C   UNL A   1     -26.232  -4.611  29.784  0.00  0.00    -0.000 C 
ATOM     40  C   UNL A   1     -26.155  -3.232  30.065  0.00  0.00    -0.003 C 
ENDBRANCH  34  35
BRANCH  34  41
ATOM     41  C   UNL A   1     -25.387  -0.679  31.571  0.00  0.00    +0.097 C 
ATOM     42  C   UNL A   1     -25.189   0.773  32.028  0.00  0.00    +0.021 C 
ATOM     43  C   UNL A   1     -25.336   0.684  33.544  0.00  0.00    +0.020 C 
ATOM     44  C   UNL A   1     -24.829  -0.715  33.905  0.00  0.00    +0.089 C 
ATOM     45  N   UNL A   1     -24.758  -1.481  32.646  0.00  0.00    -0.217 NA
ENDBRANCH  34  41
ENDBRANCH  33  34
ENDBRANCH   8  33
TORSDOF 12
