MODEL 791
MODEL 1
REMARK VINA RESULT:    -5.898      0.000      0.000
REMARK INTER + INTRA:          -6.976
REMARK INTER:                  -6.587
REMARK INTRA:                  -0.389
REMARK UNBOUND:                -0.389
REMARK  Name = No_791-gen_results/8p0m/2024-11-27-11-27-31/
REMARK  2 active torsions:
REMARK  status: ('A' for Active; 'I' for Inactive)
REMARK    1  A    between atoms: C_1  and  C_2
REMARK    2  A    between atoms: C_5  and  C_10
REMARK                            x       y       z     vdW  Elec       q    Type
REMARK                         _______ _______ _______ _____ _____    ______ ____
ROOT
ATOM      1  C   UNL A   1     -24.108  -1.824  28.805  0.00  0.00    +0.071 A 
ATOM      2  C   UNL A   1     -24.884  -1.139  27.891  0.00  0.00    +0.004 A 
ATOM      3  C   UNL A   1     -24.532   0.116  27.253  0.00  0.00    +0.004 A 
ATOM      4  C   UNL A   1     -23.299   0.723  27.582  0.00  0.00    +0.071 A 
ATOM      5  C   UNL A   1     -22.474   0.011  28.524  0.00  0.00    +0.004 A 
ATOM      6  C   UNL A   1     -22.813  -1.196  29.088  0.00  0.00    +0.004 A 
ENDROOT
BRANCH   1   7
ATOM      7  C   UNL A   1     -24.409  -2.901  29.265  0.00  0.00    +0.419 C 
ATOM      8  F   UNL A   1     -24.158  -3.013  30.422  0.00  0.00    -0.166 F 
ATOM      9  F   UNL A   1     -25.698  -3.338  28.978  0.00  0.00    -0.166 F 
ATOM     10  F   UNL A   1     -23.642  -3.865  28.584  0.00  0.00    -0.166 F 
ENDBRANCH   1   7
BRANCH   4  11
ATOM     11  C   UNL A   1     -22.864   1.970  27.046  0.00  0.00    +0.419 C 
ATOM     12  F   UNL A   1     -23.489   2.957  27.428  0.00  0.00    -0.166 F 
ATOM     13  F   UNL A   1     -21.544   2.255  27.339  0.00  0.00    -0.166 F 
ATOM     14  F   UNL A   1     -22.866   1.958  25.677  0.00  0.00    -0.166 F 
ENDBRANCH   4  11
TORSDOF 2
ENDMDL
ENDMDL
