REMARK  Name = outputs/IAG933/test6/raw/output_792_IAG933_linker_design_.xyz
REMARK  13 active torsions:
REMARK  status: ('A' for Active; 'I' for Inactive)
REMARK    1  A    between atoms: C_1  and  C_2
REMARK    2  A    between atoms: C_1  and  C_8
REMARK    3  A    between atoms: C_1  and  C_47
REMARK    4  A    between atoms: C_13  and  C_42
REMARK    5  A    between atoms: C_14  and  C_15
REMARK    6  A    between atoms: C_21  and  O_22
REMARK    7  A    between atoms: O_22  and  C_23
REMARK    8  A    between atoms: C_23  and  C_24
REMARK    9  A    between atoms: N_36  and  C_41
REMARK   10  A    between atoms: C_37  and  C_47
REMARK   11  A    between atoms: C_39  and  C_42
REMARK   12  A    between atoms: C_42  and  N_44
REMARK   13  A    between atoms: N_44  and  C_47
REMARK                            x       y       z     vdW  Elec       q    Type
REMARK                         _______ _______ _______ _____ _____    ______ ____
ROOT
ATOM      1  C   UNL A   1     -25.258  -0.130  28.987  0.00  0.00    +0.156 C 
ENDROOT
BRANCH   1   4
ATOM      2  O   UNL A   1     -27.651  -0.510  28.458  0.00  0.00    -0.272 OA
ATOM      3  N   UNL A   1     -27.088   1.485  29.605  0.00  0.00    -0.205 NA
ATOM      4  C   UNL A   1     -26.783   0.237  29.013  0.00  0.00    +0.258 C 
BRANCH   3  11
ATOM      5  C   UNL A   1     -29.435   5.337  28.254  0.00  0.00    +0.090 C 
ATOM      6  C   UNL A   1     -29.087   3.551  29.944  0.00  0.00    +0.077 C 
ATOM      7  C   UNL A   1     -29.100   3.979  32.423  0.00  0.00    +0.002 C 
ATOM      8  C   UNL A   1     -27.749   3.224  32.285  0.00  0.00    +0.002 C 
ATOM      9  C   UNL A   1     -31.199   4.465  30.773  0.00  0.00    +0.019 C 
ATOM     10  C   UNL A   1     -28.113   1.876  31.656  0.00  0.00    +0.023 C 
ATOM     11  C   UNL A   1     -28.377   2.052  30.157  0.00  0.00    +0.110 C 
ATOM     12  N   UNL A   1     -29.961   4.052  28.802  0.00  0.00    -0.271 NA
ATOM     13  C   UNL A   1     -31.346   4.124  29.289  0.00  0.00    +0.072 C 
ATOM     14  C   UNL A   1     -29.992   3.630  31.195  0.00  0.00    +0.018 C 
ENDBRANCH   3  11
ENDBRANCH   1   4
BRANCH   1  15
ATOM     15  C   UNL A   1     -24.855  -1.012  30.143  0.00  0.00    +0.063 C 
BRANCH  15  16
ATOM     16  C   UNL A   1     -24.973  -2.505  29.788  0.00  0.00    -0.019 C 
ATOM     17  C   UNL A   1     -23.906  -3.173  29.146  0.00  0.00    -0.004 C 
ATOM     18  C   UNL A   1     -23.989  -4.549  28.853  0.00  0.00    -0.000 C 
ATOM     19  C   UNL A   1     -25.137  -5.280  29.205  0.00  0.00    -0.000 C 
ATOM     20  C   UNL A   1     -26.232  -4.611  29.784  0.00  0.00    -0.000 C 
ATOM     21  C   UNL A   1     -26.155  -3.232  30.065  0.00  0.00    -0.004 C 
ENDBRANCH  15  16
BRANCH  15  22
ATOM     22  C   UNL A   1     -25.387  -0.679  31.571  0.00  0.00    +0.079 C 
ATOM     23  C   UNL A   1     -25.189   0.773  32.028  0.00  0.00    +0.019 C 
ATOM     24  C   UNL A   1     -25.336   0.684  33.544  0.00  0.00    +0.020 C 
ATOM     25  C   UNL A   1     -24.829  -0.715  33.905  0.00  0.00    +0.089 C 
ATOM     26  N   UNL A   1     -24.758  -1.481  32.646  0.00  0.00    -0.219 NA
ENDBRANCH  15  22
ENDBRANCH   1  15
BRANCH   1  27
ATOM     27  N   UNL A   1     -24.723   1.225  28.837  0.00  0.00    -0.207 NA
BRANCH  27  28
ATOM     28  C   UNL A   1     -24.701   1.386  27.269  0.00  0.00    +0.100 C 
BRANCH  28  29
ATOM     29  C   UNL A   1     -25.688   1.614  26.461  0.00  0.00    +0.032 C 
ATOM     30  C   UNL A   1     -26.250   2.920  26.395  0.00  0.00    +0.074 C 
ATOM     31  C   UNL A   1     -27.438   3.091  25.645  0.00  0.00    +0.106 C 
ATOM     32  N   UNL A   1     -28.075   2.089  25.003  0.00  0.00    -0.208 NA
ATOM     33  C   UNL A   1     -27.543   0.849  25.079  0.00  0.00    +0.253 C 
ATOM     34  C   UNL A   1     -26.354   0.576  25.777  0.00  0.00    +0.190 C 
ATOM     35  F   UNL A   1     -25.860  -0.681  25.795  0.00  0.00    -0.200 F 
BRANCH  30  36
ATOM     36  C   UNL A   1     -25.642   4.093  27.123  0.00  0.00    +0.266 C 
ATOM     37  N   UNL A   1     -25.614   5.252  26.449  0.00  0.00    -0.200 NA
ATOM     38  C   UNL A   1     -25.026   6.479  26.963  0.00  0.00    +0.139 C 
ATOM     39  O   UNL A   1     -25.143   3.966  28.243  0.00  0.00    -0.268 OA
ENDBRANCH  30  36
BRANCH  33  40
ATOM     40  O   UNL A   1     -28.193  -0.208  24.477  0.00  0.00    -0.456 OA
BRANCH  40  41
ATOM     41  C   UNL A   1     -29.460   0.005  23.866  0.00  0.00    +0.243 C 
BRANCH  41  42
ATOM     42  C   UNL A   1     -30.065  -1.377  23.573  0.00  0.00    +0.229 C 
ATOM     43  O   UNL A   1     -30.729  -1.878  24.721  0.00  0.00    -0.216 OA
ENDBRANCH  41  42
ENDBRANCH  40  41
ENDBRANCH  33  40
ENDBRANCH  28  29
BRANCH  28  46
ATOM     44  C   UNL A   1     -21.177   1.982  27.429  0.00  0.00    +0.142 C 
ATOM     45  C   UNL A   1     -22.321   1.337  27.810  0.00  0.00    +0.036 C 
ATOM     46  C   UNL A   1     -23.364   1.652  26.910  0.00  0.00    +0.052 C 
ATOM     47  O   UNL A   1     -21.448   2.459  26.190  0.00  0.00    -0.354 OA
ATOM     48  C   UNL A   1     -22.731   2.312  25.714  0.00  0.00    +0.144 C 
ENDBRANCH  28  46
ENDBRANCH  27  28
ENDBRANCH   1  27
TORSDOF 13
