REMARK  Name = outputs/IAG933/test6/raw/output_7921_IAG933_linker_design_.xyz
REMARK  12 active torsions:
REMARK  status: ('A' for Active; 'I' for Inactive)
REMARK    1  A    between atoms: C_1  and  C_2
REMARK    2  A    between atoms: C_1  and  C_8
REMARK    3  A    between atoms: C_1  and  O_34
REMARK    4  A    between atoms: C_13  and  C_29
REMARK    5  A    between atoms: C_14  and  C_15
REMARK    6  A    between atoms: C_21  and  O_22
REMARK    7  A    between atoms: O_22  and  C_23
REMARK    8  A    between atoms: C_23  and  C_24
REMARK    9  A    between atoms: C_29  and  C_31
REMARK   10  A    between atoms: C_30  and  C_32
REMARK   11  A    between atoms: O_34  and  C_43
REMARK   12  A    between atoms: N_37  and  C_43
REMARK                            x       y       z     vdW  Elec       q    Type
REMARK                         _______ _______ _______ _____ _____    ______ ____
ROOT
ATOM      1  C   UNL A   1     -24.699   1.224  27.247  0.00  0.00    +0.033 C 
ATOM      2  C   UNL A   1     -25.092   0.502  28.372  0.00  0.00    +0.221 C 
ENDROOT
BRANCH   1   3
ATOM      3  C   UNL A   1     -25.688   1.614  26.461  0.00  0.00    +0.039 C 
ATOM      4  C   UNL A   1     -26.250   2.920  26.395  0.00  0.00    +0.076 C 
ATOM      5  C   UNL A   1     -27.438   3.091  25.645  0.00  0.00    +0.107 C 
ATOM      6  N   UNL A   1     -28.075   2.089  25.003  0.00  0.00    -0.208 NA
ATOM      7  C   UNL A   1     -27.543   0.849  25.079  0.00  0.00    +0.253 C 
ATOM      8  C   UNL A   1     -26.354   0.576  25.777  0.00  0.00    +0.193 C 
ATOM      9  F   UNL A   1     -25.860  -0.681  25.795  0.00  0.00    -0.199 F 
BRANCH   4  10
ATOM     10  C   UNL A   1     -25.642   4.093  27.123  0.00  0.00    +0.266 C 
ATOM     11  N   UNL A   1     -25.614   5.252  26.449  0.00  0.00    -0.200 NA
ATOM     12  C   UNL A   1     -25.026   6.479  26.963  0.00  0.00    +0.139 C 
ATOM     13  O   UNL A   1     -25.143   3.966  28.243  0.00  0.00    -0.268 OA
ENDBRANCH   4  10
BRANCH   7  14
ATOM     14  O   UNL A   1     -28.193  -0.208  24.477  0.00  0.00    -0.456 OA
BRANCH  14  15
ATOM     15  C   UNL A   1     -29.460   0.005  23.866  0.00  0.00    +0.243 C 
BRANCH  15  16
ATOM     16  C   UNL A   1     -30.065  -1.377  23.573  0.00  0.00    +0.229 C 
ATOM     17  O   UNL A   1     -30.729  -1.878  24.721  0.00  0.00    -0.216 OA
ENDBRANCH  15  16
ENDBRANCH  14  15
ENDBRANCH   7  14
ENDBRANCH   1   3
BRANCH   1  18
ATOM     18  C   UNL A   1     -23.269   1.505  26.955  0.00  0.00    +0.027 C 
ATOM     19  C   UNL A   1     -23.135   2.607  25.870  0.00  0.00    +0.005 C 
ATOM     20  C   UNL A   1     -22.066   1.355  27.903  0.00  0.00    +0.005 C 
ENDBRANCH   1  18
BRANCH   2  22
ATOM     21  C   UNL A   1     -27.193   0.614  29.612  0.00  0.00    +0.105 C 
ATOM     22  N   UNL A   1     -26.371   0.172  28.586  0.00  0.00    -0.210 NA
BRANCH  21  24
ATOM     23  C   UNL A   1     -30.541  -0.988  29.712  0.00  0.00    +0.128 C 
ATOM     24  C   UNL A   1     -28.626   0.432  29.955  0.00  0.00    +0.059 C 
ATOM     25  C   UNL A   1     -30.234   0.162  31.788  0.00  0.00    +0.002 C 
ATOM     26  C   UNL A   1     -29.318   0.953  31.116  0.00  0.00    +0.005 C 
ATOM     27  C   UNL A   1     -30.753  -0.903  31.081  0.00  0.00    +0.021 C 
ATOM     28  N   UNL A   1     -31.601  -1.376  28.852  0.00  0.00    -0.125 NA
ATOM     29  O   UNL A   1     -29.210  -0.535  27.827  0.00  0.00    -0.285 OA
ATOM     30  C   UNL A   1     -29.401  -0.485  29.157  0.00  0.00    +0.214 C 
ENDBRANCH  21  24
ENDBRANCH   2  22
BRANCH   2  31
ATOM     31  O   UNL A   1     -24.207  -0.095  29.198  0.00  0.00    -0.458 OA
BRANCH  31  32
ATOM     32  C   UNL A   1     -24.855  -1.012  30.143  0.00  0.00    +0.205 C 
BRANCH  32  33
ATOM     33  C   UNL A   1     -24.973  -2.505  29.788  0.00  0.00    +0.019 C 
ATOM     34  C   UNL A   1     -23.906  -3.173  29.146  0.00  0.00    -0.001 C 
ATOM     35  C   UNL A   1     -23.989  -4.549  28.853  0.00  0.00    -0.000 C 
ATOM     36  C   UNL A   1     -25.137  -5.280  29.205  0.00  0.00    -0.000 C 
ATOM     37  C   UNL A   1     -26.232  -4.611  29.784  0.00  0.00    -0.000 C 
ATOM     38  C   UNL A   1     -26.155  -3.232  30.065  0.00  0.00    -0.001 C 
ENDBRANCH  32  33
BRANCH  32  39
ATOM     39  C   UNL A   1     -25.387  -0.679  31.571  0.00  0.00    +0.117 C 
ATOM     40  C   UNL A   1     -25.189   0.773  32.028  0.00  0.00    +0.023 C 
ATOM     41  C   UNL A   1     -25.336   0.684  33.544  0.00  0.00    +0.020 C 
ATOM     42  C   UNL A   1     -24.829  -0.715  33.905  0.00  0.00    +0.089 C 
ATOM     43  N   UNL A   1     -24.758  -1.481  32.646  0.00  0.00    -0.215 NA
ENDBRANCH  32  39
ENDBRANCH  31  32
ENDBRANCH   2  31
TORSDOF 12
