REMARK  Name = outputs/IAG933/test6/raw/output_7923_IAG933_linker_design_.xyz
REMARK  19 active torsions:
REMARK  status: ('A' for Active; 'I' for Inactive)
REMARK    1  A    between atoms: C_1  and  C_2
REMARK    2  A    between atoms: C_1  and  C_8
REMARK    3  A    between atoms: C_1  and  N_38
REMARK    4  A    between atoms: C_13  and  C_41
REMARK    5  A    between atoms: C_14  and  C_15
REMARK    6  A    between atoms: C_21  and  O_22
REMARK    7  A    between atoms: O_22  and  C_23
REMARK    8  A    between atoms: C_23  and  C_24
REMARK    9  A    between atoms: N_28  and  C_34
REMARK   10  A    between atoms: C_30  and  C_48
REMARK   11  A    between atoms: C_31  and  C_32
REMARK   12  A    between atoms: C_32  and  O_42
REMARK   13  A    between atoms: C_34  and  C_50
REMARK   14  A    between atoms: C_37  and  N_38
REMARK   15  A    between atoms: C_37  and  C_41
REMARK   16  A    between atoms: C_37  and  C_48
REMARK   17  A    between atoms: C_40  and  O_42
REMARK   18  A    between atoms: C_41  and  N_47
REMARK   19  A    between atoms: C_43  and  N_47
REMARK                            x       y       z     vdW  Elec       q    Type
REMARK                         _______ _______ _______ _____ _____    ______ ____
ROOT
ATOM      1  C   UNL A   1     -26.457   0.792  28.716  0.00  0.00    +0.095 C 
ENDROOT
BRANCH   1   2
ATOM      2  C   UNL A   1     -28.075  -0.016  28.461  0.00  0.00    +0.051 C 
BRANCH   2   4
ATOM      3  O   UNL A   1     -30.520   0.093  28.194  0.00  0.00    -0.351 OA
ATOM      4  C   UNL A   1     -29.426   0.538  29.047  0.00  0.00    +0.149 C 
ATOM      5  C   UNL A   1     -30.392   1.450  27.795  0.00  0.00    +0.172 C 
ATOM      6  C   UNL A   1     -29.369   1.980  28.780  0.00  0.00    +0.172 C 
BRANCH   6   7
ATOM      7  O   UNL A   1     -28.946   2.673  30.025  0.00  0.00    -0.342 OA
BRANCH   7   8
ATOM      8  C   UNL A   1     -28.409   3.975  29.965  0.00  0.00    +0.229 C 
BRANCH   8  10
ATOM      9  N   UNL A   1     -27.083   5.100  31.880  0.00  0.00    -0.193 NA
ATOM     10  C   UNL A   1     -27.262   4.171  30.911  0.00  0.00    +0.272 C 
ATOM     11  O   UNL A   1     -26.128   3.635  30.534  0.00  0.00    -0.271 OA
BRANCH   9  12
ATOM     12  C   UNL A   1     -25.779   5.646  32.034  0.00  0.00    +0.203 C 
BRANCH  12  15
ATOM     13  N   UNL A   1     -25.792   4.516  34.192  0.00  0.00    -0.086 NA
ATOM     14  O   UNL A   1     -23.862   5.729  33.650  0.00  0.00    -0.270 OA
ATOM     15  C   UNL A   1     -25.037   5.330  33.253  0.00  0.00    +0.283 C 
ENDBRANCH  12  15
ENDBRANCH   9  12
ENDBRANCH   8  10
ENDBRANCH   7   8
ENDBRANCH   6   7
ENDBRANCH   2   4
ENDBRANCH   1   2
BRANCH   1  16
ATOM     16  C   UNL A   1     -25.115   1.156  27.709  0.00  0.00    +0.115 C 
BRANCH  16  17
ATOM     17  C   UNL A   1     -25.688   1.614  26.461  0.00  0.00    +0.091 C 
ATOM     18  C   UNL A   1     -26.250   2.920  26.395  0.00  0.00    +0.057 C 
ATOM     19  C   UNL A   1     -27.438   3.091  25.645  0.00  0.00    +0.102 C 
ATOM     20  N   UNL A   1     -28.075   2.089  25.003  0.00  0.00    -0.212 NA
ATOM     21  C   UNL A   1     -27.543   0.849  25.079  0.00  0.00    +0.234 C 
ATOM     22  C   UNL A   1     -26.354   0.576  25.777  0.00  0.00    +0.242 C 
ATOM     23  F   UNL A   1     -25.860  -0.681  25.795  0.00  0.00    -0.227 F 
BRANCH  18  24
ATOM     24  C   UNL A   1     -25.642   4.093  27.123  0.00  0.00    +0.263 C 
ATOM     25  N   UNL A   1     -25.614   5.252  26.449  0.00  0.00    -0.200 NA
ATOM     26  C   UNL A   1     -25.026   6.479  26.963  0.00  0.00    +0.139 C 
ATOM     27  O   UNL A   1     -25.143   3.966  28.243  0.00  0.00    -0.269 OA
ENDBRANCH  18  24
BRANCH  21  28
ATOM     28  O   UNL A   1     -28.193  -0.208  24.477  0.00  0.00    -0.459 OA
BRANCH  28  29
ATOM     29  C   UNL A   1     -29.460   0.005  23.866  0.00  0.00    +0.242 C 
BRANCH  29  30
ATOM     30  C   UNL A   1     -30.065  -1.377  23.573  0.00  0.00    +0.229 C 
ATOM     31  O   UNL A   1     -30.729  -1.878  24.721  0.00  0.00    -0.216 OA
ENDBRANCH  29  30
ENDBRANCH  28  29
ENDBRANCH  21  28
ENDBRANCH  16  17
BRANCH  16  35
ATOM     32  O   UNL A   1     -21.367   1.737  27.413  0.00  0.00    -0.256 OA
ATOM     33 CL   UNL A   1     -22.861   2.458  25.534  0.00  0.00    -0.021 Cl
ATOM     34  C   UNL A   1     -22.632   1.917  27.046  0.00  0.00    +0.322 C 
ATOM     35  N   UNL A   1     -23.688   1.191  27.843  0.00  0.00    -0.184 N 
BRANCH  35  37
ATOM     36  N   UNL A   1     -22.479  -0.185  29.585  0.00  0.00    -0.174 NA
ATOM     37  C   UNL A   1     -23.072   0.386  28.690  0.00  0.00    +0.177 C 
ENDBRANCH  35  37
ENDBRANCH  16  35
ENDBRANCH   1  16
BRANCH   1  38
ATOM     38  N   UNL A   1     -25.900  -0.392  29.326  0.00  0.00    -0.213 NA
BRANCH  38  39
ATOM     39  C   UNL A   1     -24.855  -1.012  30.143  0.00  0.00    +0.111 C 
BRANCH  39  40
ATOM     40  C   UNL A   1     -24.973  -2.505  29.788  0.00  0.00    -0.005 C 
ATOM     41  C   UNL A   1     -23.906  -3.173  29.146  0.00  0.00    -0.003 C 
ATOM     42  C   UNL A   1     -23.989  -4.549  28.853  0.00  0.00    -0.000 C 
ATOM     43  C   UNL A   1     -25.137  -5.280  29.205  0.00  0.00    -0.000 C 
ATOM     44  C   UNL A   1     -26.232  -4.611  29.784  0.00  0.00    -0.000 C 
ATOM     45  C   UNL A   1     -26.155  -3.232  30.065  0.00  0.00    -0.003 C 
ENDBRANCH  39  40
BRANCH  39  46
ATOM     46  C   UNL A   1     -25.387  -0.679  31.571  0.00  0.00    +0.093 C 
ATOM     47  C   UNL A   1     -25.189   0.773  32.028  0.00  0.00    +0.021 C 
ATOM     48  C   UNL A   1     -25.336   0.684  33.544  0.00  0.00    +0.020 C 
ATOM     49  C   UNL A   1     -24.829  -0.715  33.905  0.00  0.00    +0.089 C 
ATOM     50  N   UNL A   1     -24.758  -1.481  32.646  0.00  0.00    -0.218 NA
ENDBRANCH  39  46
ENDBRANCH  38  39
ENDBRANCH   1  38
TORSDOF 19
