REMARK  Name = outputs/IAG933/test6/raw/output_7924_IAG933_linker_design_.xyz
REMARK  11 active torsions:
REMARK  status: ('A' for Active; 'I' for Inactive)
REMARK    1  A    between atoms: C_1  and  C_2
REMARK    2  A    between atoms: C_1  and  C_8
REMARK    3  A    between atoms: C_1  and  N_40
REMARK    4  A    between atoms: C_13  and  N_32
REMARK    5  A    between atoms: C_14  and  C_15
REMARK    6  A    between atoms: C_21  and  O_22
REMARK    7  A    between atoms: O_22  and  C_23
REMARK    8  A    between atoms: C_23  and  C_24
REMARK    9  A    between atoms: C_30  and  N_40
REMARK   10  A    between atoms: C_33  and  N_40
REMARK   11  A    between atoms: C_33  and  C_43
REMARK                            x       y       z     vdW  Elec       q    Type
REMARK                         _______ _______ _______ _____ _____    ______ ____
ROOT
ATOM      1  N   UNL A   1     -26.017  -0.110  29.277  0.00  0.00    -0.267 NA
ENDROOT
BRANCH   1   3
ATOM      2  C   UNL A   1     -30.086   3.644  28.778  0.00  0.00    +0.162 C 
ATOM      3  C   UNL A   1     -27.545   0.090  29.586  0.00  0.00    +0.081 C 
ATOM      4  O   UNL A   1     -30.163   2.865  30.008  0.00  0.00    -0.272 OA
ATOM      5  C   UNL A   1     -28.913   1.452  27.915  0.00  0.00    +0.077 C 
ATOM      6  O   UNL A   1     -30.298  -0.462  27.325  0.00  0.00    -0.296 OA
ATOM      7  C   UNL A   1     -28.349  -0.807  28.656  0.00  0.00    +0.082 C 
ATOM      8  C   UNL A   1     -29.230  -0.016  27.754  0.00  0.00    +0.153 C 
ATOM      9  S   UNL A   1     -28.863   2.393  30.525  0.00  0.00    +0.175 S 
ATOM     10  O   UNL A   1     -29.078   2.021  31.852  0.00  0.00    -0.114 OA
ATOM     11  F   UNL A   1     -27.946   3.213  30.292  0.00  0.00    -0.130 F 
ATOM     12  C   UNL A   1     -29.944   2.569  27.645  0.00  0.00    +0.042 C 
ATOM     13  C   UNL A   1     -28.463   1.366  29.459  0.00  0.00    +0.133 C 
ENDBRANCH   1   3
BRANCH   1  14
ATOM     14  C   UNL A   1     -24.855  -1.012  30.143  0.00  0.00    +0.096 C 
BRANCH  14  15
ATOM     15  C   UNL A   1     -24.973  -2.505  29.788  0.00  0.00    -0.006 C 
ATOM     16  C   UNL A   1     -23.906  -3.173  29.146  0.00  0.00    -0.003 C 
ATOM     17  C   UNL A   1     -23.989  -4.549  28.853  0.00  0.00    -0.000 C 
ATOM     18  C   UNL A   1     -25.137  -5.280  29.205  0.00  0.00    -0.000 C 
ATOM     19  C   UNL A   1     -26.232  -4.611  29.784  0.00  0.00    -0.000 C 
ATOM     20  C   UNL A   1     -26.155  -3.232  30.065  0.00  0.00    -0.003 C 
ENDBRANCH  14  15
BRANCH  14  21
ATOM     21  C   UNL A   1     -25.387  -0.679  31.571  0.00  0.00    +0.092 C 
ATOM     22  C   UNL A   1     -25.189   0.773  32.028  0.00  0.00    +0.021 C 
ATOM     23  C   UNL A   1     -25.336   0.684  33.544  0.00  0.00    +0.020 C 
ATOM     24  C   UNL A   1     -24.829  -0.715  33.905  0.00  0.00    +0.089 C 
ATOM     25  N   UNL A   1     -24.758  -1.481  32.646  0.00  0.00    -0.218 NA
ENDBRANCH  14  21
ENDBRANCH   1  14
BRANCH   1  26
ATOM     26  C   UNL A   1     -25.094   0.312  28.439  0.00  0.00    +0.107 C 
BRANCH  26  31
ATOM     27  C   UNL A   1     -21.913   1.683  27.577  0.00  0.00    +0.108 C 
ATOM     28  N   UNL A   1     -24.200   1.417  26.833  0.00  0.00    -0.252 NA
ATOM     29  C   UNL A   1     -22.789   2.022  26.504  0.00  0.00    +0.092 C 
ATOM     30  N   UNL A   1     -22.684   0.438  28.306  0.00  0.00    -0.201 NA
ATOM     31  C   UNL A   1     -24.113   0.682  27.850  0.00  0.00    +0.148 C 
BRANCH  28  32
ATOM     32  C   UNL A   1     -25.688   1.614  26.461  0.00  0.00    +0.129 C 
ATOM     33  C   UNL A   1     -26.250   2.920  26.395  0.00  0.00    +0.070 C 
ATOM     34  C   UNL A   1     -27.438   3.091  25.645  0.00  0.00    +0.103 C 
ATOM     35  N   UNL A   1     -28.075   2.089  25.003  0.00  0.00    -0.212 NA
ATOM     36  C   UNL A   1     -27.543   0.849  25.079  0.00  0.00    +0.235 C 
ATOM     37  C   UNL A   1     -26.354   0.576  25.777  0.00  0.00    +0.255 C 
ATOM     38  F   UNL A   1     -25.860  -0.681  25.795  0.00  0.00    -0.225 F 
BRANCH  33  39
ATOM     39  C   UNL A   1     -25.642   4.093  27.123  0.00  0.00    +0.264 C 
ATOM     40  N   UNL A   1     -25.614   5.252  26.449  0.00  0.00    -0.200 NA
ATOM     41  C   UNL A   1     -25.026   6.479  26.963  0.00  0.00    +0.139 C 
ATOM     42  O   UNL A   1     -25.143   3.966  28.243  0.00  0.00    -0.269 OA
ENDBRANCH  33  39
BRANCH  36  43
ATOM     43  O   UNL A   1     -28.193  -0.208  24.477  0.00  0.00    -0.459 OA
BRANCH  43  44
ATOM     44  C   UNL A   1     -29.460   0.005  23.866  0.00  0.00    +0.242 C 
BRANCH  44  45
ATOM     45  C   UNL A   1     -30.065  -1.377  23.573  0.00  0.00    +0.229 C 
ATOM     46  O   UNL A   1     -30.729  -1.878  24.721  0.00  0.00    -0.216 OA
ENDBRANCH  44  45
ENDBRANCH  43  44
ENDBRANCH  36  43
ENDBRANCH  28  32
ENDBRANCH  26  31
ENDBRANCH   1  26
TORSDOF 11
