REMARK  Name = outputs/IAG933/test6/raw/output_7934_IAG933_linker_design_.xyz
REMARK  13 active torsions:
REMARK  status: ('A' for Active; 'I' for Inactive)
REMARK    1  A    between atoms: C_1  and  C_2
REMARK    2  A    between atoms: C_1  and  C_8
REMARK    3  A    between atoms: C_1  and  C_45
REMARK    4  A    between atoms: C_13  and  C_37
REMARK    5  A    between atoms: C_14  and  C_15
REMARK    6  A    between atoms: C_21  and  O_22
REMARK    7  A    between atoms: O_22  and  C_23
REMARK    8  A    between atoms: C_23  and  C_24
REMARK    9  A    between atoms: C_28  and  O_31
REMARK   10  A    between atoms: N_30  and  C_45
REMARK   11  A    between atoms: O_31  and  O_33
REMARK   12  A    between atoms: C_35  and  C_40
REMARK   13  A    between atoms: C_39  and  C_45
REMARK                            x       y       z     vdW  Elec       q    Type
REMARK                         _______ _______ _______ _____ _____    ______ ____
ROOT
ATOM      1  C   UNL A   1     -24.873  -0.109  28.799  0.00  0.00    +0.125 C 
ENDROOT
BRANCH   1   4
ATOM      2  C   UNL A   1     -23.196   2.061  25.998  0.00  0.00    +0.136 C 
ATOM      3  C   UNL A   1     -24.259   1.488  26.753  0.00  0.00    +0.012 C 
ATOM      4  C   UNL A   1     -23.962   0.791  27.948  0.00  0.00    +0.024 C 
ATOM      5  C   UNL A   1     -22.684   0.958  28.334  0.00  0.00    +0.138 C 
ATOM      6  C   UNL A   1     -21.624   1.536  27.663  0.00  0.00    +0.032 C 
ATOM      7  F   UNL A   1     -22.394   0.339  29.512  0.00  0.00    -0.204 F 
ATOM      8  C   UNL A   1     -21.878   2.084  26.426  0.00  0.00    +0.032 C 
ATOM      9  F   UNL A   1     -23.381   2.628  24.785  0.00  0.00    -0.204 F 
BRANCH   3  10
ATOM     10  C   UNL A   1     -25.688   1.614  26.461  0.00  0.00    +0.094 C 
ATOM     11  C   UNL A   1     -26.250   2.920  26.395  0.00  0.00    +0.059 C 
ATOM     12  C   UNL A   1     -27.438   3.091  25.645  0.00  0.00    +0.102 C 
ATOM     13  N   UNL A   1     -28.075   2.089  25.003  0.00  0.00    -0.212 NA
ATOM     14  C   UNL A   1     -27.543   0.849  25.079  0.00  0.00    +0.234 C 
ATOM     15  C   UNL A   1     -26.354   0.576  25.777  0.00  0.00    +0.244 C 
ATOM     16  F   UNL A   1     -25.860  -0.681  25.795  0.00  0.00    -0.227 F 
BRANCH  11  17
ATOM     17  C   UNL A   1     -25.642   4.093  27.123  0.00  0.00    +0.263 C 
ATOM     18  N   UNL A   1     -25.614   5.252  26.449  0.00  0.00    -0.200 NA
ATOM     19  C   UNL A   1     -25.026   6.479  26.963  0.00  0.00    +0.139 C 
ATOM     20  O   UNL A   1     -25.143   3.966  28.243  0.00  0.00    -0.269 OA
ENDBRANCH  11  17
BRANCH  14  21
ATOM     21  O   UNL A   1     -28.193  -0.208  24.477  0.00  0.00    -0.459 OA
BRANCH  21  22
ATOM     22  C   UNL A   1     -29.460   0.005  23.866  0.00  0.00    +0.242 C 
BRANCH  22  23
ATOM     23  C   UNL A   1     -30.065  -1.377  23.573  0.00  0.00    +0.229 C 
ATOM     24  O   UNL A   1     -30.729  -1.878  24.721  0.00  0.00    -0.216 OA
ENDBRANCH  22  23
ENDBRANCH  21  22
ENDBRANCH  14  21
ENDBRANCH   3  10
ENDBRANCH   1   4
BRANCH   1  25
ATOM     25  N   UNL A   1     -26.025   0.807  29.063  0.00  0.00    -0.199 NA
ATOM     26  C   UNL A   1     -27.304   0.516  29.502  0.00  0.00    +0.265 C 
ATOM     27  O   UNL A   1     -27.935  -0.501  29.212  0.00  0.00    -0.268 OA
BRANCH  26  32
ATOM     28  C   UNL A   1     -27.864   3.949  31.441  0.00  0.00    +0.183 C 
ATOM     29  C   UNL A   1     -27.463   2.954  30.480  0.00  0.00    +0.045 C 
ATOM     30  C   UNL A   1     -28.916   1.234  31.460  0.00  0.00    +0.005 C 
ATOM     31  C   UNL A   1     -28.867   3.529  32.373  0.00  0.00    +0.041 C 
ATOM     32  C   UNL A   1     -27.918   1.610  30.502  0.00  0.00    +0.058 C 
ATOM     33  C   UNL A   1     -29.395   2.195  32.415  0.00  0.00    +0.003 C 
BRANCH  28  34
ATOM     34  O   UNL A   1     -27.340   5.293  31.511  0.00  0.00    -0.333 OA
BRANCH  34  35
ATOM     35  O   UNL A   1     -27.505   6.005  32.744  0.00  0.00    -0.170 OA
ATOM     36  C   UNL A   1     -28.957   6.340  32.982  0.00  0.00    +0.232 C 
ENDBRANCH  34  35
ENDBRANCH  28  34
ENDBRANCH  26  32
ENDBRANCH   1  25
BRANCH   1  37
ATOM     37  C   UNL A   1     -24.855  -1.012  30.143  0.00  0.00    +0.062 C 
BRANCH  37  38
ATOM     38  C   UNL A   1     -24.973  -2.505  29.788  0.00  0.00    -0.019 C 
ATOM     39  C   UNL A   1     -23.906  -3.173  29.146  0.00  0.00    -0.004 C 
ATOM     40  C   UNL A   1     -23.989  -4.549  28.853  0.00  0.00    -0.000 C 
ATOM     41  C   UNL A   1     -25.137  -5.280  29.205  0.00  0.00    -0.000 C 
ATOM     42  C   UNL A   1     -26.232  -4.611  29.784  0.00  0.00    -0.000 C 
ATOM     43  C   UNL A   1     -26.155  -3.232  30.065  0.00  0.00    -0.004 C 
ENDBRANCH  37  38
BRANCH  37  44
ATOM     44  C   UNL A   1     -25.387  -0.679  31.571  0.00  0.00    +0.079 C 
ATOM     45  C   UNL A   1     -25.189   0.773  32.028  0.00  0.00    +0.019 C 
ATOM     46  C   UNL A   1     -25.336   0.684  33.544  0.00  0.00    +0.020 C 
ATOM     47  C   UNL A   1     -24.829  -0.715  33.905  0.00  0.00    +0.089 C 
ATOM     48  N   UNL A   1     -24.758  -1.481  32.646  0.00  0.00    -0.219 NA
ENDBRANCH  37  44
ENDBRANCH   1  37
TORSDOF 13
