REMARK  Name = outputs/IAG933/test6/raw/output_7937_IAG933_linker_design_.xyz
REMARK  8 active torsions:
REMARK  status: ('A' for Active; 'I' for Inactive)
REMARK    1  A    between atoms: C_1  and  C_2
REMARK    2  A    between atoms: C_1  and  C_8
REMARK    3  A    between atoms: C_9  and  N_31
REMARK    4  A    between atoms: C_21  and  O_22
REMARK    5  A    between atoms: O_22  and  C_23
REMARK    6  A    between atoms: C_23  and  C_24
REMARK    7  A    between atoms: C_29  and  C_32
REMARK    8  A    between atoms: C_30  and  CA_44
REMARK                            x       y       z     vdW  Elec       q    Type
REMARK                         _______ _______ _______ _____ _____    ______ ____
ROOT
ATOM      1  N   UNL A   1     -25.772   1.791  31.148  0.00  0.00    -0.244 NA
ATOM      2  C   UNL A   1     -24.905   2.981  30.652  0.00  0.00    +0.226 C 
ATOM      3  C   UNL A   1     -26.401   5.887  31.132  0.00  0.00    +0.038 C 
ATOM      4  N   UNL A   1     -27.589   3.765  32.195  0.00  0.00    -0.214 NA
ATOM      5  C   UNL A   1     -26.121   5.040  33.612  0.00  0.00    +0.160 C 
ATOM      6  C   UNL A   1     -25.933   6.712  32.295  0.00  0.00    +0.142 C 
ATOM      7  C   UNL A   1     -27.039   1.881  30.421  0.00  0.00    +0.095 C 
ATOM      8  O   UNL A   1     -23.712   2.879  31.195  0.00  0.00    -0.201 OA
ATOM      9  O   UNL A   1     -25.134   5.900  33.255  0.00  0.00    -0.352 OA
ATOM     10  CA  UNL A   1     -27.831   3.106  30.918  0.00  0.00    +0.122 C 
ATOM     11  C   UNL A   1     -25.477   4.519  31.346  0.00  0.00    +0.071 C 
ATOM     12  C   UNL A   1     -26.248   4.094  32.592  0.00  0.00    +0.107 C 
ENDROOT
BRANCH   2  25
ATOM     13  C   UNL A   1     -25.688   1.614  26.461  0.00  0.00    +0.021 C 
ATOM     14  C   UNL A   1     -26.250   2.920  26.395  0.00  0.00    +0.054 C 
ATOM     15  C   UNL A   1     -25.642   4.093  27.123  0.00  0.00    +0.223 C 
ATOM     16  N   UNL A   1     -25.614   5.252  26.449  0.00  0.00    -0.236 NA
ATOM     17  C   UNL A   1     -25.026   6.479  26.963  0.00  0.00    +0.155 C 
ATOM     18  O   UNL A   1     -25.143   3.966  28.243  0.00  0.00    -0.437 OA
ATOM     19  C   UNL A   1     -27.438   3.091  25.645  0.00  0.00    +0.159 C 
ATOM     20  N   UNL A   1     -28.075   2.089  25.003  0.00  0.00    -0.234 NA
ATOM     21  C   UNL A   1     -27.543   0.849  25.079  0.00  0.00    +0.234 C 
ATOM     22  C   UNL A   1     -26.354   0.576  25.777  0.00  0.00    +0.258 C 
ATOM     23  F   UNL A   1     -25.860  -0.681  25.795  0.00  0.00    -0.222 F 
ATOM     24  C   UNL A   1     -23.849   2.085  28.137  0.00  0.00    +0.034 C 
ATOM     25  C   UNL A   1     -24.876   2.944  29.141  0.00  0.00    +0.166 C 
ATOM     26  C   UNL A   1     -22.181   2.068  25.417  0.00  0.00    -0.000 C 
ATOM     27  C   UNL A   1     -24.257   1.784  26.742  0.00  0.00    +0.002 C 
ATOM     28  C   UNL A   1     -22.548   1.850  28.533  0.00  0.00    +0.003 C 
ATOM     29  C   UNL A   1     -23.552   1.912  25.555  0.00  0.00    -0.000 C 
ATOM     30  C   UNL A   1     -21.264   2.071  26.406  0.00  0.00    +0.000 C 
ATOM     31  C   UNL A   1     -21.366   1.861  27.757  0.00  0.00    +0.000 C 
BRANCH  21  32
ATOM     32  O   UNL A   1     -28.193  -0.208  24.477  0.00  0.00    -0.459 OA
BRANCH  32  33
ATOM     33  C   UNL A   1     -29.460   0.005  23.866  0.00  0.00    +0.242 C 
BRANCH  33  34
ATOM     34  C   UNL A   1     -30.065  -1.377  23.573  0.00  0.00    +0.229 C 
ATOM     35  O   UNL A   1     -30.729  -1.878  24.721  0.00  0.00    -0.216 OA
ENDBRANCH  33  34
ENDBRANCH  32  33
ENDBRANCH  21  32
ENDBRANCH   2  25
BRANCH   1  37
ATOM     36  C   UNL A   1     -25.387  -0.679  31.571  0.00  0.00    +0.092 C 
ATOM     37  C   UNL A   1     -25.189   0.773  32.028  0.00  0.00    +0.078 C 
ATOM     38  C   UNL A   1     -25.336   0.684  33.544  0.00  0.00    +0.036 C 
ATOM     39  C   UNL A   1     -24.829  -0.715  33.905  0.00  0.00    +0.090 C 
ATOM     40  N   UNL A   1     -24.758  -1.481  32.646  0.00  0.00    -0.218 NA
BRANCH  36  41
ATOM     41  C   UNL A   1     -24.855  -1.012  30.143  0.00  0.00    +0.045 C 
BRANCH  41  42
ATOM     42  C   UNL A   1     -24.973  -2.505  29.788  0.00  0.00    -0.021 C 
ATOM     43  C   UNL A   1     -23.906  -3.173  29.146  0.00  0.00    -0.004 C 
ATOM     44  C   UNL A   1     -23.989  -4.549  28.853  0.00  0.00    -0.000 C 
ATOM     45  C   UNL A   1     -25.137  -5.280  29.205  0.00  0.00    -0.000 C 
ATOM     46  C   UNL A   1     -26.232  -4.611  29.784  0.00  0.00    -0.000 C 
ATOM     47  C   UNL A   1     -26.155  -3.232  30.065  0.00  0.00    -0.004 C 
ENDBRANCH  41  42
ENDBRANCH  36  41
ENDBRANCH   1  37
BRANCH  10  48
ATOM     48  C   UNL A   1     -29.253   2.610  31.034  0.00  0.00    +0.201 C 
ATOM     49  O   UNL A   1     -29.364   1.527  31.909  0.00  0.00    -0.219 OA
ENDBRANCH  10  48
TORSDOF 8
