REMARK  Name = outputs/IAG933/test6/raw/output_7938_IAG933_linker_design_.xyz
REMARK  15 active torsions:
REMARK  status: ('A' for Active; 'I' for Inactive)
REMARK    1  A    between atoms: C_1  and  C_2
REMARK    2  A    between atoms: C_1  and  C_8
REMARK    3  A    between atoms: C_9  and  S_30
REMARK    4  A    between atoms: C_13  and  C_28
REMARK    5  A    between atoms: C_14  and  C_15
REMARK    6  A    between atoms: C_21  and  O_22
REMARK    7  A    between atoms: O_22  and  C_23
REMARK    8  A    between atoms: C_23  and  C_24
REMARK    9  A    between atoms: N_29  and  S_30
REMARK   10  A    between atoms: N_29  and  C_39
REMARK   11  A    between atoms: S_30  and  N_37
REMARK   12  A    between atoms: C_33  and  C_35
REMARK   13  A    between atoms: N_36  and  C_41
REMARK   14  A    between atoms: N_37  and  C_44
REMARK   15  A    between atoms: C_41  and  C_44
REMARK                            x       y       z     vdW  Elec       q    Type
REMARK                         _______ _______ _______ _____ _____    ______ ____
ROOT
ATOM      1  N   UNL A   1     -24.684   1.435  29.163  0.00  0.00    -0.161 NA
ENDROOT
BRANCH   1   4
ATOM      2  C   UNL A   1     -24.258   1.639  26.700  0.00  0.00    +0.001 C 
ATOM      3  C   UNL A   1     -21.519   1.770  27.021  0.00  0.00    +0.001 C 
ATOM      4  C   UNL A   1     -23.759   1.544  28.019  0.00  0.00    +0.076 C 
ATOM      5  C   UNL A   1     -22.054   1.989  25.751  0.00  0.00    -0.000 C 
ATOM      6  C   UNL A   1     -23.425   1.909  25.579  0.00  0.00    -0.003 C 
ATOM      7  C   UNL A   1     -22.343   1.522  28.127  0.00  0.00    +0.017 C 
BRANCH   2   8
ATOM      8  C   UNL A   1     -25.688   1.614  26.461  0.00  0.00    +0.094 C 
ATOM      9  C   UNL A   1     -26.250   2.920  26.395  0.00  0.00    +0.059 C 
ATOM     10  C   UNL A   1     -27.438   3.091  25.645  0.00  0.00    +0.102 C 
ATOM     11  N   UNL A   1     -28.075   2.089  25.003  0.00  0.00    -0.212 NA
ATOM     12  C   UNL A   1     -27.543   0.849  25.079  0.00  0.00    +0.234 C 
ATOM     13  C   UNL A   1     -26.354   0.576  25.777  0.00  0.00    +0.244 C 
ATOM     14  F   UNL A   1     -25.860  -0.681  25.795  0.00  0.00    -0.227 F 
BRANCH   9  15
ATOM     15  C   UNL A   1     -25.642   4.093  27.123  0.00  0.00    +0.263 C 
ATOM     16  N   UNL A   1     -25.614   5.252  26.449  0.00  0.00    -0.200 NA
ATOM     17  C   UNL A   1     -25.026   6.479  26.963  0.00  0.00    +0.139 C 
ATOM     18  O   UNL A   1     -25.143   3.966  28.243  0.00  0.00    -0.269 OA
ENDBRANCH   9  15
BRANCH  12  19
ATOM     19  O   UNL A   1     -28.193  -0.208  24.477  0.00  0.00    -0.459 OA
BRANCH  19  20
ATOM     20  C   UNL A   1     -29.460   0.005  23.866  0.00  0.00    +0.242 C 
BRANCH  20  21
ATOM     21  C   UNL A   1     -30.065  -1.377  23.573  0.00  0.00    +0.229 C 
ATOM     22  O   UNL A   1     -30.729  -1.878  24.721  0.00  0.00    -0.216 OA
ENDBRANCH  20  21
ENDBRANCH  19  20
ENDBRANCH  12  19
ENDBRANCH   2   8
ENDBRANCH   1   4
BRANCH   1  23
ATOM     23  S   UNL A   1     -24.437   1.814  30.921  0.00  0.00    +0.075 S 
ATOM     24  O   UNL A   1     -22.965   1.987  30.990  0.00  0.00    -0.136 OA
BRANCH  23  26
ATOM     25  C   UNL A   1     -25.387  -0.679  31.571  0.00  0.00    +0.091 C 
ATOM     26  C   UNL A   1     -25.189   0.773  32.028  0.00  0.00    +0.107 C 
ATOM     27  C   UNL A   1     -25.336   0.684  33.544  0.00  0.00    +0.035 C 
ATOM     28  C   UNL A   1     -24.829  -0.715  33.905  0.00  0.00    +0.090 C 
ATOM     29  N   UNL A   1     -24.758  -1.481  32.646  0.00  0.00    -0.218 NA
BRANCH  25  30
ATOM     30  C   UNL A   1     -24.855  -1.012  30.143  0.00  0.00    +0.045 C 
BRANCH  30  31
ATOM     31  C   UNL A   1     -24.973  -2.505  29.788  0.00  0.00    -0.021 C 
ATOM     32  C   UNL A   1     -23.906  -3.173  29.146  0.00  0.00    -0.004 C 
ATOM     33  C   UNL A   1     -23.989  -4.549  28.853  0.00  0.00    -0.000 C 
ATOM     34  C   UNL A   1     -25.137  -5.280  29.205  0.00  0.00    -0.000 C 
ATOM     35  C   UNL A   1     -26.232  -4.611  29.784  0.00  0.00    -0.000 C 
ATOM     36  C   UNL A   1     -26.155  -3.232  30.065  0.00  0.00    -0.004 C 
ENDBRANCH  30  31
ENDBRANCH  25  30
ENDBRANCH  23  26
BRANCH  23  37
ATOM     37  N   UNL A   1     -25.425   3.049  31.555  0.00  0.00    -0.137 NA
BRANCH  37  38
ATOM     38  C   UNL A   1     -25.022   4.461  31.519  0.00  0.00    +0.127 C 
BRANCH  38  39
ATOM     39  C   UNL A   1     -24.280   4.953  32.753  0.00  0.00    +0.135 C 
BRANCH  39  42
ATOM     40  O   UNL A   1     -25.953   7.130  33.065  0.00  0.00    -0.267 OA
ATOM     41  C   UNL A   1     -25.298   6.696  34.075  0.00  0.00    +0.286 C 
ATOM     42  N   UNL A   1     -24.518   5.615  33.870  0.00  0.00    -0.199 NA
BRANCH  41  44
ATOM     43  N   UNL A   1     -25.487   6.966  35.682  0.00  0.00    -0.141 NA
ATOM     44  C   UNL A   1     -25.324   7.228  34.813  0.00  0.00    +0.181 C 
ENDBRANCH  41  44
ENDBRANCH  39  42
ENDBRANCH  38  39
ENDBRANCH  37  38
ENDBRANCH  23  37
ENDBRANCH   1  23
TORSDOF 15
