MODEL 793
MODEL 1
REMARK VINA RESULT:    -6.415      0.000      0.000
REMARK INTER + INTRA:          -9.401
REMARK INTER:                  -8.665
REMARK INTRA:                  -0.736
REMARK UNBOUND:                -0.736
REMARK  Name = No_793-gen_results/8p0m/2024-11-27-11-27-31/
REMARK  6 active torsions:
REMARK  status: ('A' for Active; 'I' for Inactive)
REMARK    1  A    between atoms: C_3  and  O_11
REMARK    2  A    between atoms: C_5  and  C_8
REMARK    3  A    between atoms: O_11  and  C_12
REMARK    4  A    between atoms: C_12  and  C_14
REMARK    5  A    between atoms: C_14  and  C_15
REMARK    6  A    between atoms: C_15  and  C_16
REMARK                            x       y       z     vdW  Elec       q    Type
REMARK                         _______ _______ _______ _____ _____    ______ ____
ROOT
ATOM      1  O   UNL A   1     -25.159   0.907  26.911  0.00  0.00    -0.457 OA
ENDROOT
BRANCH   1   4
ATOM      2 CL   UNL A   1     -22.658   1.784  27.693  0.00  0.00    -0.079 Cl
ATOM      3  C   UNL A   1     -23.120   0.537  27.984  0.00  0.00    +0.092 A 
ATOM      4  C   UNL A   1     -24.316   0.164  27.659  0.00  0.00    +0.155 A 
ATOM      5  C   UNL A   1     -24.932  -1.111  28.030  0.00  0.00    +0.045 A 
ATOM      6  C   UNL A   1     -24.152  -1.992  28.819  0.00  0.00    +0.083 A 
ATOM      7  C   UNL A   1     -22.897  -1.553  29.223  0.00  0.00    +0.008 A 
ATOM      8  C   UNL A   1     -22.398  -0.334  28.883  0.00  0.00    +0.015 A 
BRANCH   6   9
ATOM      9  C   UNL A   1     -24.701  -3.279  29.233  0.00  0.00    +0.388 C 
ATOM     10  O   UNL A   1     -25.779  -3.351  29.670  0.00  0.00    -0.241 OA
ATOM     11  O   UNL A   1     -23.886  -4.332  29.037  0.00  0.00    -0.241 OA
ENDBRANCH   6   9
ENDBRANCH   1   4
BRANCH   1  12
ATOM     12  C   UNL A   1     -25.594   0.466  25.728  0.00  0.00    +0.123 C 
ATOM     13  C   UNL A   1     -24.691   0.358  24.738  0.00  0.00    +0.036 C 
BRANCH  12  14
ATOM     14  C   UNL A   1     -26.954   0.380  25.317  0.00  0.00    +0.069 C 
BRANCH  14  15
ATOM     15  C   UNL A   1     -27.410   0.622  23.952  0.00  0.00    +0.036 C 
BRANCH  15  16
ATOM     16  C   UNL A   1     -28.771   0.211  23.758  0.00  0.00    -0.003 A 
ATOM     17  C   UNL A   1     -29.016  -1.137  23.649  0.00  0.00    -0.001 A 
ATOM     18  C   UNL A   1     -30.386  -1.520  23.647  0.00  0.00    +0.020 A 
ATOM     19  C   UNL A   1     -31.393  -0.581  23.431  0.00  0.00    +0.099 A 
ATOM     20  C   UNL A   1     -29.830   1.102  23.535  0.00  0.00    +0.095 A 
ATOM     21  N   UNL A   1     -31.059   0.696  23.290  0.00  0.00    -0.243 NA
ENDBRANCH  15  16
ENDBRANCH  14  15
ENDBRANCH  12  14
ENDBRANCH   1  12
TORSDOF 6
ENDMDL
ENDMDL
