REMARK  Name = outputs/IAG933/test6/raw/output_794_IAG933_linker_design_.xyz
REMARK  12 active torsions:
REMARK  status: ('A' for Active; 'I' for Inactive)
REMARK    1  A    between atoms: C_1  and  C_2
REMARK    2  A    between atoms: C_1  and  C_8
REMARK    3  A    between atoms: C_1  and  C_32
REMARK    4  A    between atoms: C_13  and  C_35
REMARK    5  A    between atoms: C_14  and  C_15
REMARK    6  A    between atoms: C_21  and  O_22
REMARK    7  A    between atoms: O_22  and  C_23
REMARK    8  A    between atoms: C_23  and  C_24
REMARK    9  A    between atoms: N_29  and  C_32
REMARK   10  A    between atoms: C_30  and  C_32
REMARK   11  A    between atoms: C_35  and  N_42
REMARK   12  A    between atoms: C_37  and  N_42
REMARK                            x       y       z     vdW  Elec       q    Type
REMARK                         _______ _______ _______ _____ _____    ______ ____
ROOT
ATOM      1  C   UNL A   1     -24.820   0.543  28.324  0.00  0.00    +0.012 C 
ATOM      2  C   UNL A   1     -24.585   1.198  27.241  0.00  0.00    +0.067 C 
ENDROOT
BRANCH   2   3
ATOM      3  C   UNL A   1     -25.688   1.614  26.461  0.00  0.00    +0.053 C 
ATOM      4  C   UNL A   1     -26.250   2.920  26.395  0.00  0.00    +0.078 C 
ATOM      5  C   UNL A   1     -27.438   3.091  25.645  0.00  0.00    +0.107 C 
ATOM      6  N   UNL A   1     -28.075   2.089  25.003  0.00  0.00    -0.208 NA
ATOM      7  C   UNL A   1     -27.543   0.849  25.079  0.00  0.00    +0.253 C 
ATOM      8  C   UNL A   1     -26.354   0.576  25.777  0.00  0.00    +0.194 C 
ATOM      9  F   UNL A   1     -25.860  -0.681  25.795  0.00  0.00    -0.199 F 
BRANCH   4  10
ATOM     10  C   UNL A   1     -25.642   4.093  27.123  0.00  0.00    +0.267 C 
ATOM     11  N   UNL A   1     -25.614   5.252  26.449  0.00  0.00    -0.200 NA
ATOM     12  C   UNL A   1     -25.026   6.479  26.963  0.00  0.00    +0.139 C 
ATOM     13  O   UNL A   1     -25.143   3.966  28.243  0.00  0.00    -0.268 OA
ENDBRANCH   4  10
BRANCH   7  14
ATOM     14  O   UNL A   1     -28.193  -0.208  24.477  0.00  0.00    -0.456 OA
BRANCH  14  15
ATOM     15  C   UNL A   1     -29.460   0.005  23.866  0.00  0.00    +0.243 C 
BRANCH  15  16
ATOM     16  C   UNL A   1     -30.065  -1.377  23.573  0.00  0.00    +0.229 C 
ATOM     17  O   UNL A   1     -30.729  -1.878  24.721  0.00  0.00    -0.216 OA
ENDBRANCH  15  16
ENDBRANCH  14  15
ENDBRANCH   7  14
ENDBRANCH   2   3
BRANCH   2  19
ATOM     18 CL   UNL A   1     -23.206   2.457  25.374  0.00  0.00    +0.007 Cl
ATOM     19  N   UNL A   1     -23.426   1.469  26.772  0.00  0.00    -0.211 N 
BRANCH  19  23
ATOM     20  C   UNL A   1     -21.174   1.434  27.507  0.00  0.00    +0.248 C 
ATOM     21  O   UNL A   1     -20.290   0.720  28.164  0.00  0.00    -0.466 OA
ATOM     22  C   UNL A   1     -20.933  -0.245  28.815  0.00  0.00    +0.173 C 
ATOM     23  C   UNL A   1     -22.491   0.950  27.639  0.00  0.00    +0.088 C 
ATOM     24  C   UNL A   1     -22.646   0.124  28.524  0.00  0.00    +0.019 C 
ATOM     25  C   UNL A   1     -21.898  -0.742  29.204  0.00  0.00    +0.041 C 
ENDBRANCH  19  23
ENDBRANCH   2  19
BRANCH   1  26
ATOM     26  C   UNL A   1     -25.777  -0.030  29.267  0.00  0.00    +0.124 C 
BRANCH  26  28
ATOM     27  O   UNL A   1     -28.232  -0.524  28.270  0.00  0.00    -0.273 OA
ATOM     28  N   UNL A   1     -27.020   0.890  29.398  0.00  0.00    -0.202 NA
ATOM     29  C   UNL A   1     -28.228   0.402  29.051  0.00  0.00    +0.242 C 
ATOM     30  C   UNL A   1     -29.507   1.053  29.573  0.00  0.00    +0.096 C 
ENDBRANCH  26  28
BRANCH  26  31
ATOM     31  C   UNL A   1     -24.855  -1.012  30.143  0.00  0.00    +0.062 C 
BRANCH  31  32
ATOM     32  C   UNL A   1     -24.973  -2.505  29.788  0.00  0.00    -0.019 C 
ATOM     33  C   UNL A   1     -23.906  -3.173  29.146  0.00  0.00    -0.004 C 
ATOM     34  C   UNL A   1     -23.989  -4.549  28.853  0.00  0.00    -0.000 C 
ATOM     35  C   UNL A   1     -25.137  -5.280  29.205  0.00  0.00    -0.000 C 
ATOM     36  C   UNL A   1     -26.232  -4.611  29.784  0.00  0.00    -0.000 C 
ATOM     37  C   UNL A   1     -26.155  -3.232  30.065  0.00  0.00    -0.004 C 
ENDBRANCH  31  32
BRANCH  31  38
ATOM     38  C   UNL A   1     -25.387  -0.679  31.571  0.00  0.00    +0.079 C 
ATOM     39  C   UNL A   1     -25.189   0.773  32.028  0.00  0.00    +0.019 C 
ATOM     40  C   UNL A   1     -25.336   0.684  33.544  0.00  0.00    +0.020 C 
ATOM     41  C   UNL A   1     -24.829  -0.715  33.905  0.00  0.00    +0.089 C 
ATOM     42  N   UNL A   1     -24.758  -1.481  32.646  0.00  0.00    -0.219 NA
ENDBRANCH  31  38
ENDBRANCH  26  31
ENDBRANCH   1  26
TORSDOF 12
