REMARK  Name = outputs/IAG933/test6/raw/output_7941_IAG933_linker_design_.xyz
REMARK  16 active torsions:
REMARK  status: ('A' for Active; 'I' for Inactive)
REMARK    1  A    between atoms: C_1  and  C_2
REMARK    2  A    between atoms: C_1  and  C_8
REMARK    3  A    between atoms: C_9  and  C_34
REMARK    4  A    between atoms: C_13  and  C_32
REMARK    5  A    between atoms: C_14  and  C_15
REMARK    6  A    between atoms: C_21  and  O_22
REMARK    7  A    between atoms: O_22  and  C_23
REMARK    8  A    between atoms: C_23  and  C_24
REMARK    9  A    between atoms: C_32  and  N_36
REMARK   10  A    between atoms: N_33  and  C_34
REMARK   11  A    between atoms: N_33  and  C_40
REMARK   12  A    between atoms: C_34  and  C_41
REMARK   13  A    between atoms: N_36  and  C_42
REMARK   14  A    between atoms: C_39  and  O_43
REMARK   15  A    between atoms: C_40  and  C_42
REMARK   16  A    between atoms: C_41  and  O_43
REMARK                            x       y       z     vdW  Elec       q    Type
REMARK                         _______ _______ _______ _____ _____    ______ ____
ROOT
ATOM      1  N   UNL A   1     -23.802   2.196  30.485  0.00  0.00    -0.207 NA
ENDROOT
BRANCH   1   2
ATOM      2  C   UNL A   1     -24.840   2.083  31.349  0.00  0.00    +0.173 C 
BRANCH   2   4
ATOM      3  C   UNL A   1     -25.387  -0.679  31.571  0.00  0.00    +0.079 C 
ATOM      4  C   UNL A   1     -25.189   0.773  32.028  0.00  0.00    +0.045 C 
ATOM      5  C   UNL A   1     -25.336   0.684  33.544  0.00  0.00    +0.022 C 
ATOM      6  C   UNL A   1     -24.829  -0.715  33.905  0.00  0.00    +0.089 C 
ATOM      7  N   UNL A   1     -24.758  -1.481  32.646  0.00  0.00    -0.219 NA
BRANCH   3   8
ATOM      8  C   UNL A   1     -24.855  -1.012  30.143  0.00  0.00    +0.044 C 
BRANCH   8   9
ATOM      9  C   UNL A   1     -24.973  -2.505  29.788  0.00  0.00    -0.021 C 
ATOM     10  C   UNL A   1     -23.906  -3.173  29.146  0.00  0.00    -0.004 C 
ATOM     11  C   UNL A   1     -23.989  -4.549  28.853  0.00  0.00    -0.000 C 
ATOM     12  C   UNL A   1     -25.137  -5.280  29.205  0.00  0.00    -0.000 C 
ATOM     13  C   UNL A   1     -26.232  -4.611  29.784  0.00  0.00    -0.000 C 
ATOM     14  C   UNL A   1     -26.155  -3.232  30.065  0.00  0.00    -0.004 C 
ENDBRANCH   8   9
ENDBRANCH   3   8
ENDBRANCH   2   4
BRANCH   2  16
ATOM     15  O   UNL A   1     -24.929   3.536  33.262  0.00  0.00    -0.248 OA
ATOM     16  C   UNL A   1     -24.961   3.437  31.994  0.00  0.00    +0.337 C 
BRANCH  16  17
ATOM     17  O   UNL A   1     -25.113   4.544  31.298  0.00  0.00    -0.423 OA
BRANCH  17  22
ATOM     18  C   UNL A   1     -25.018   7.966  32.683  0.00  0.00    +0.003 C 
ATOM     19  C   UNL A   1     -26.970   6.789  33.581  0.00  0.00    +0.003 C 
ATOM     20  C   UNL A   1     -26.080   7.891  33.609  0.00  0.00    +0.000 C 
ATOM     21  C   UNL A   1     -24.751   6.829  31.873  0.00  0.00    +0.038 C 
ATOM     22  C   UNL A   1     -25.541   5.678  31.970  0.00  0.00    +0.148 C 
ATOM     23  C   UNL A   1     -26.726   5.701  32.722  0.00  0.00    +0.038 C 
ENDBRANCH  17  22
ENDBRANCH  16  17
ENDBRANCH   2  16
ENDBRANCH   1   2
BRANCH   1  24
ATOM     24  C   UNL A   1     -22.932   1.280  29.866  0.00  0.00    +0.111 C 
BRANCH  24  25
ATOM     25  C   UNL A   1     -22.387   0.846  28.505  0.00  0.00    +0.115 C 
BRANCH  25  28
ATOM     26  C   UNL A   1     -22.514   1.954  26.594  0.00  0.00    +0.393 C 
ATOM     27  F   UNL A   1     -21.237   2.008  26.927  0.00  0.00    -0.143 F 
ATOM     28  N   UNL A   1     -23.354   1.508  27.498  0.00  0.00    -0.251 N 
ATOM     29  O   UNL A   1     -22.719   2.161  25.386  0.00  0.00    -0.236 OA
BRANCH  28  30
ATOM     30  C   UNL A   1     -24.683   1.144  27.516  0.00  0.00    +0.104 C 
BRANCH  30  31
ATOM     31  C   UNL A   1     -25.688   1.614  26.461  0.00  0.00    +0.090 C 
ATOM     32  C   UNL A   1     -26.250   2.920  26.395  0.00  0.00    +0.057 C 
ATOM     33  C   UNL A   1     -27.438   3.091  25.645  0.00  0.00    +0.102 C 
ATOM     34  N   UNL A   1     -28.075   2.089  25.003  0.00  0.00    -0.212 NA
ATOM     35  C   UNL A   1     -27.543   0.849  25.079  0.00  0.00    +0.234 C 
ATOM     36  C   UNL A   1     -26.354   0.576  25.777  0.00  0.00    +0.242 C 
ATOM     37  F   UNL A   1     -25.860  -0.681  25.795  0.00  0.00    -0.227 F 
BRANCH  32  38
ATOM     38  C   UNL A   1     -25.642   4.093  27.123  0.00  0.00    +0.263 C 
ATOM     39  N   UNL A   1     -25.614   5.252  26.449  0.00  0.00    -0.200 NA
ATOM     40  C   UNL A   1     -25.026   6.479  26.963  0.00  0.00    +0.139 C 
ATOM     41  O   UNL A   1     -25.143   3.966  28.243  0.00  0.00    -0.269 OA
ENDBRANCH  32  38
BRANCH  35  42
ATOM     42  O   UNL A   1     -28.193  -0.208  24.477  0.00  0.00    -0.459 OA
BRANCH  42  43
ATOM     43  C   UNL A   1     -29.460   0.005  23.866  0.00  0.00    +0.242 C 
BRANCH  43  44
ATOM     44  C   UNL A   1     -30.065  -1.377  23.573  0.00  0.00    +0.229 C 
ATOM     45  O   UNL A   1     -30.729  -1.878  24.721  0.00  0.00    -0.216 OA
ENDBRANCH  43  44
ENDBRANCH  42  43
ENDBRANCH  35  42
ENDBRANCH  30  31
ENDBRANCH  28  30
ENDBRANCH  25  28
ENDBRANCH  24  25
ENDBRANCH   1  24
TORSDOF 16
