REMARK  Name = outputs/IAG933/test6/raw/output_7942_IAG933_linker_design_.xyz
REMARK  10 active torsions:
REMARK  status: ('A' for Active; 'I' for Inactive)
REMARK    1  A    between atoms: C_1  and  C_2
REMARK    2  A    between atoms: C_1  and  C_8
REMARK    3  A    between atoms: C_9  and  C_44
REMARK    4  A    between atoms: C_13  and  C_29
REMARK    5  A    between atoms: C_14  and  C_15
REMARK    6  A    between atoms: C_21  and  O_22
REMARK    7  A    between atoms: O_22  and  C_23
REMARK    8  A    between atoms: C_23  and  C_24
REMARK    9  A    between atoms: N_31  and  C_44
REMARK   10  A    between atoms: C_39  and  C_44
REMARK                            x       y       z     vdW  Elec       q    Type
REMARK                         _______ _______ _______ _____ _____    ______ ____
ROOT
ATOM      1  C   UNL A   1     -24.992   1.174  28.880  0.00  0.00    +0.169 C 
ATOM      2  C   UNL A   1     -24.366   1.645  26.670  0.00  0.00    +0.044 C 
ATOM      3  C   UNL A   1     -22.111   2.181  26.028  0.00  0.00    +0.006 C 
ATOM      4  N   UNL A   1     -25.014   1.886  30.105  0.00  0.00    -0.251 NA
ATOM      5  C   UNL A   1     -21.704   1.492  27.230  0.00  0.00    +0.059 C 
ATOM      6  N   UNL A   1     -23.946   1.288  27.858  0.00  0.00    -0.220 N 
ATOM      7  C   UNL A   1     -22.706   0.921  28.049  0.00  0.00    +0.258 C 
ATOM      8  O   UNL A   1     -22.502  -0.007  28.965  0.00  0.00    -0.269 OA
ATOM      9  C   UNL A   1     -23.488   2.160  25.714  0.00  0.00    +0.011 C 
ENDROOT
BRANCH   2  10
ATOM     10  C   UNL A   1     -25.688   1.614  26.461  0.00  0.00    +0.106 C 
ATOM     11  C   UNL A   1     -26.250   2.920  26.395  0.00  0.00    +0.060 C 
ATOM     12  C   UNL A   1     -27.438   3.091  25.645  0.00  0.00    +0.102 C 
ATOM     13  N   UNL A   1     -28.075   2.089  25.003  0.00  0.00    -0.212 NA
ATOM     14  C   UNL A   1     -27.543   0.849  25.079  0.00  0.00    +0.234 C 
ATOM     15  C   UNL A   1     -26.354   0.576  25.777  0.00  0.00    +0.245 C 
ATOM     16  F   UNL A   1     -25.860  -0.681  25.795  0.00  0.00    -0.227 F 
BRANCH  11  17
ATOM     17  C   UNL A   1     -25.642   4.093  27.123  0.00  0.00    +0.263 C 
ATOM     18  N   UNL A   1     -25.614   5.252  26.449  0.00  0.00    -0.200 NA
ATOM     19  C   UNL A   1     -25.026   6.479  26.963  0.00  0.00    +0.139 C 
ATOM     20  O   UNL A   1     -25.143   3.966  28.243  0.00  0.00    -0.269 OA
ENDBRANCH  11  17
BRANCH  14  21
ATOM     21  O   UNL A   1     -28.193  -0.208  24.477  0.00  0.00    -0.459 OA
BRANCH  21  22
ATOM     22  C   UNL A   1     -29.460   0.005  23.866  0.00  0.00    +0.242 C 
BRANCH  22  23
ATOM     23  C   UNL A   1     -30.065  -1.377  23.573  0.00  0.00    +0.229 C 
ATOM     24  O   UNL A   1     -30.729  -1.878  24.721  0.00  0.00    -0.216 OA
ENDBRANCH  22  23
ENDBRANCH  21  22
ENDBRANCH  14  21
ENDBRANCH   2  10
BRANCH   4  25
ATOM     25  C   UNL A   1     -25.888   1.990  31.363  0.00  0.00    +0.131 C 
BRANCH  25  30
ATOM     26  O   UNL A   1     -28.915  -0.384  28.530  0.00  0.00    -0.287 OA
ATOM     27  O   UNL A   1     -28.476   3.442  32.584  0.00  0.00    -0.287 OA
ATOM     28  C   UNL A   1     -29.956   1.050  30.206  0.00  0.00    +0.045 C 
ATOM     29  C   UNL A   1     -29.825   2.032  31.216  0.00  0.00    +0.045 C 
ATOM     30  C   UNL A   1     -27.382   1.857  30.995  0.00  0.00    +0.042 C 
ATOM     31  C   UNL A   1     -28.865   0.559  29.535  0.00  0.00    +0.196 C 
ATOM     32  C   UNL A   1     -28.572   2.459  31.630  0.00  0.00    +0.194 C 
ATOM     33  C   UNL A   1     -27.596   1.082  29.870  0.00  0.00    +0.043 C 
ENDBRANCH  25  30
BRANCH  25  35
ATOM     34  C   UNL A   1     -25.387  -0.679  31.571  0.00  0.00    +0.079 C 
ATOM     35  C   UNL A   1     -25.189   0.773  32.028  0.00  0.00    +0.045 C 
ATOM     36  C   UNL A   1     -25.336   0.684  33.544  0.00  0.00    +0.022 C 
ATOM     37  C   UNL A   1     -24.829  -0.715  33.905  0.00  0.00    +0.089 C 
ATOM     38  N   UNL A   1     -24.758  -1.481  32.646  0.00  0.00    -0.219 NA
BRANCH  34  39
ATOM     39  C   UNL A   1     -24.855  -1.012  30.143  0.00  0.00    +0.044 C 
BRANCH  39  40
ATOM     40  C   UNL A   1     -24.973  -2.505  29.788  0.00  0.00    -0.021 C 
ATOM     41  C   UNL A   1     -23.906  -3.173  29.146  0.00  0.00    -0.004 C 
ATOM     42  C   UNL A   1     -23.989  -4.549  28.853  0.00  0.00    -0.000 C 
ATOM     43  C   UNL A   1     -25.137  -5.280  29.205  0.00  0.00    -0.000 C 
ATOM     44  C   UNL A   1     -26.232  -4.611  29.784  0.00  0.00    -0.000 C 
ATOM     45  C   UNL A   1     -26.155  -3.232  30.065  0.00  0.00    -0.004 C 
ENDBRANCH  39  40
ENDBRANCH  34  39
ENDBRANCH  25  35
ENDBRANCH   4  25
TORSDOF 10
