REMARK  Name = outputs/IAG933/test6/raw/output_7948_IAG933_linker_design_.xyz
REMARK  15 active torsions:
REMARK  status: ('A' for Active; 'I' for Inactive)
REMARK    1  A    between atoms: C_1  and  C_2
REMARK    2  A    between atoms: C_1  and  C_8
REMARK    3  A    between atoms: C_1  and  N_34
REMARK    4  A    between atoms: C_13  and  C_42
REMARK    5  A    between atoms: C_14  and  C_15
REMARK    6  A    between atoms: C_21  and  O_22
REMARK    7  A    between atoms: O_22  and  C_23
REMARK    8  A    between atoms: C_23  and  C_24
REMARK    9  A    between atoms: N_28  and  C_58
REMARK   10  A    between atoms: N_34  and  C_54
REMARK   11  A    between atoms: N_34  and  C_61
REMARK   12  A    between atoms: C_36  and  C_59
REMARK   13  A    between atoms: C_40  and  C_52
REMARK   14  A    between atoms: C_52  and  C_56
REMARK   15  A    between atoms: C_54  and  C_64
REMARK                            x       y       z     vdW  Elec       q    Type
REMARK                         _______ _______ _______ _____ _____    ______ ____
ROOT
ATOM      1  N   UNL A   1     -25.090  -0.135  28.879  0.00  0.00    -0.267 NA
ENDROOT
BRANCH   1   7
ATOM      2  C   UNL A   1     -21.637   0.831  27.750  0.00  0.00    +0.001 C 
ATOM      3  C   UNL A   1     -22.117   2.003  26.905  0.00  0.00    +0.000 C 
ATOM      4  C   UNL A   1     -24.419   1.438  27.061  0.00  0.00    +0.040 C 
ATOM      5  C   UNL A   1     -22.693   0.395  28.770  0.00  0.00    +0.016 C 
ATOM      6  C   UNL A   1     -23.358   1.580  26.084  0.00  0.00    +0.006 C 
ATOM      7  C   UNL A   1     -24.086   0.856  28.352  0.00  0.00    +0.062 C 
BRANCH   4   8
ATOM      8  C   UNL A   1     -25.688   1.614  26.461  0.00  0.00    +0.017 C 
ATOM      9  C   UNL A   1     -26.250   2.920  26.395  0.00  0.00    +0.073 C 
ATOM     10  C   UNL A   1     -27.438   3.091  25.645  0.00  0.00    +0.106 C 
ATOM     11  N   UNL A   1     -28.075   2.089  25.003  0.00  0.00    -0.208 NA
ATOM     12  C   UNL A   1     -27.543   0.849  25.079  0.00  0.00    +0.253 C 
ATOM     13  C   UNL A   1     -26.354   0.576  25.777  0.00  0.00    +0.189 C 
ATOM     14  F   UNL A   1     -25.860  -0.681  25.795  0.00  0.00    -0.200 F 
BRANCH   9  15
ATOM     15  C   UNL A   1     -25.642   4.093  27.123  0.00  0.00    +0.266 C 
ATOM     16  N   UNL A   1     -25.614   5.252  26.449  0.00  0.00    -0.200 NA
ATOM     17  C   UNL A   1     -25.026   6.479  26.963  0.00  0.00    +0.139 C 
ATOM     18  O   UNL A   1     -25.143   3.966  28.243  0.00  0.00    -0.268 OA
ENDBRANCH   9  15
BRANCH  12  19
ATOM     19  O   UNL A   1     -28.193  -0.208  24.477  0.00  0.00    -0.456 OA
BRANCH  19  20
ATOM     20  C   UNL A   1     -29.460   0.005  23.866  0.00  0.00    +0.243 C 
BRANCH  20  21
ATOM     21  C   UNL A   1     -30.065  -1.377  23.573  0.00  0.00    +0.229 C 
ATOM     22  O   UNL A   1     -30.729  -1.878  24.721  0.00  0.00    -0.216 OA
ENDBRANCH  20  21
ENDBRANCH  19  20
ENDBRANCH  12  19
ENDBRANCH   4   8
ENDBRANCH   1   7
BRANCH   1  23
ATOM     23  C   UNL A   1     -24.855  -1.012  30.143  0.00  0.00    +0.097 C 
BRANCH  23  24
ATOM     24  C   UNL A   1     -24.973  -2.505  29.788  0.00  0.00    -0.006 C 
ATOM     25  C   UNL A   1     -23.906  -3.173  29.146  0.00  0.00    -0.003 C 
ATOM     26  C   UNL A   1     -23.989  -4.549  28.853  0.00  0.00    -0.000 C 
ATOM     27  C   UNL A   1     -25.137  -5.280  29.205  0.00  0.00    -0.000 C 
ATOM     28  C   UNL A   1     -26.232  -4.611  29.784  0.00  0.00    -0.000 C 
ATOM     29  C   UNL A   1     -26.155  -3.232  30.065  0.00  0.00    -0.003 C 
ENDBRANCH  23  24
BRANCH  23  30
ATOM     30  C   UNL A   1     -25.387  -0.679  31.571  0.00  0.00    +0.092 C 
ATOM     31  C   UNL A   1     -25.189   0.773  32.028  0.00  0.00    +0.021 C 
ATOM     32  C   UNL A   1     -25.336   0.684  33.544  0.00  0.00    +0.020 C 
ATOM     33  C   UNL A   1     -24.829  -0.715  33.905  0.00  0.00    +0.089 C 
ATOM     34  N   UNL A   1     -24.758  -1.481  32.646  0.00  0.00    -0.218 NA
ENDBRANCH  23  30
ENDBRANCH   1  23
BRANCH   1  35
ATOM     35  C   UNL A   1     -26.242   0.541  29.406  0.00  0.00    +0.097 C 
BRANCH  35  43
ATOM     36  C   UNL A   1     -28.194   1.455  29.354  0.00  0.00    +0.127 C 
ATOM     37  C   UNL A   1     -31.235   0.956  27.398  0.00  0.00    +0.030 C 
ATOM     38  C   UNL A   1     -27.559  -0.507  28.822  0.00  0.00    -0.005 C 
ATOM     39  N   UNL A   1     -29.315   1.111  28.609  0.00  0.00    -0.306 N 
ATOM     40  C   UNL A   1     -30.911  -0.507  27.822  0.00  0.00    +0.070 C 
ATOM     41  C   UNL A   1     -30.185   1.896  27.888  0.00  0.00    +0.091 C 
ATOM     42  C   UNL A   1     -29.621  -0.178  28.277  0.00  0.00    +0.027 C 
ATOM     43  C   UNL A   1     -27.219   0.503  29.248  0.00  0.00    -0.008 C 
ATOM     44  C   UNL A   1     -28.663  -1.248  28.270  0.00  0.00    +0.010 C 
BRANCH  36  46
ATOM     45  O   UNL A   1     -26.609   2.830  30.576  0.00  0.00    -0.216 OA
ATOM     46  C   UNL A   1     -27.988   2.543  30.467  0.00  0.00    +0.195 C 
BRANCH  46  58
ATOM     47  C   UNL A   1     -32.128   2.014  31.598  0.00  0.00    -0.022 C 
ATOM     48  C   UNL A   1     -30.816   1.974  31.009  0.00  0.00    +0.048 C 
ATOM     49  C   UNL A   1     -36.462   4.378  33.505  0.00  0.00    +0.015 C 
ATOM     50  C   UNL A   1     -30.061   2.792  31.855  0.00  0.00    -0.037 C 
ATOM     51  C   UNL A   1     -33.511   3.374  32.993  0.00  0.00    -0.003 C 
ATOM     52  C   UNL A   1     -35.220   5.255  33.714  0.00  0.00    +0.001 C 
ATOM     53  C   UNL A   1     -34.610   2.582  32.627  0.00  0.00    +0.013 C 
ATOM     54  C   UNL A   1     -30.899   3.263  32.927  0.00  0.00    +0.048 C 
ATOM     55  C   UNL A   1     -33.805   4.682  33.701  0.00  0.00    -0.000 C 
ATOM     56  C   UNL A   1     -33.242   1.392  31.083  0.00  0.00    -0.004 C 
ATOM     57  C   UNL A   1     -32.185   2.976  32.603  0.00  0.00    -0.022 C 
ATOM     58  C   UNL A   1     -28.663   3.028  31.691  0.00  0.00    +0.000 C 
ATOM     59  C   UNL A   1     -36.150   2.945  32.995  0.00  0.00    +0.048 C 
ATOM     60  C   UNL A   1     -34.404   1.538  31.749  0.00  0.00    +0.001 C 
BRANCH  59  61
ATOM     61  N   UNL A   1     -36.961   1.971  34.007  0.00  0.00    -0.304 N 
ATOM     62  C   UNL A   1     -36.115   0.834  33.952  0.00  0.00    +0.112 C 
ATOM     63  C   UNL A   1     -38.408   1.812  33.467  0.00  0.00    +0.112 C 
ENDBRANCH  59  61
ENDBRANCH  46  58
ENDBRANCH  36  46
BRANCH  40  65
ATOM     64  O   UNL A   1     -32.021  -1.335  29.778  0.00  0.00    -0.220 OA
ATOM     65  C   UNL A   1     -31.460  -1.842  28.590  0.00  0.00    +0.188 C 
ENDBRANCH  40  65
ENDBRANCH  35  43
ENDBRANCH   1  35
TORSDOF 15
