REMARK  Name = outputs/IAG933/test6/raw/output_7949_IAG933_linker_design_.xyz
REMARK  8 active torsions:
REMARK  status: ('A' for Active; 'I' for Inactive)
REMARK    1  A    between atoms: C_1  and  C_2
REMARK    2  A    between atoms: C_1  and  C_8
REMARK    3  A    between atoms: C_1  and  C_28
REMARK    4  A    between atoms: C_13  and  C_36
REMARK    5  A    between atoms: C_14  and  C_15
REMARK    6  A    between atoms: C_21  and  O_22
REMARK    7  A    between atoms: O_22  and  C_23
REMARK    8  A    between atoms: C_23  and  C_24
REMARK                            x       y       z     vdW  Elec       q    Type
REMARK                         _______ _______ _______ _____ _____    ______ ____
ROOT
ATOM      1  C   UNL A   1     -24.412   0.002  29.214  0.00  0.00    +0.068 C 
ATOM      2  C   UNL A   1     -26.553   0.485  28.841  0.00  0.00    +0.451 C 
ATOM      3  O   UNL A   1     -27.024  -0.514  28.377  0.00  0.00    -0.222 OA
ATOM      4  C   UNL A   1     -22.598   1.002  27.873  0.00  0.00    +0.093 C 
ATOM      5  F   UNL A   1     -22.174  -0.337  29.836  0.00  0.00    -0.203 F 
ATOM      6  C   UNL A   1     -21.275   1.693  27.319  0.00  0.00    +0.290 C 
ATOM      7  F   UNL A   1     -20.228   1.592  28.013  0.00  0.00    -0.163 F 
ATOM      8  N   UNL A   1     -25.249   0.682  28.427  0.00  0.00    -0.217 N 
ATOM      9  C   UNL A   1     -24.699   1.321  27.288  0.00  0.00    +0.134 C 
ATOM     10  O   UNL A   1     -27.149   1.271  29.528  0.00  0.00    -0.222 OA
ATOM     11  C   UNL A   1     -22.757   2.091  25.739  0.00  0.00    +0.180 C 
ATOM     12  C   UNL A   1     -23.443   1.456  26.887  0.00  0.00    +0.046 C 
ATOM     13  O   UNL A   1     -21.443   2.222  26.084  0.00  0.00    -0.426 OA
ATOM     14  C   UNL A   1     -22.944   0.283  28.989  0.00  0.00    +0.155 C 
ENDROOT
BRANCH   9  15
ATOM     15  C   UNL A   1     -25.688   1.614  26.461  0.00  0.00    +0.038 C 
ATOM     16  C   UNL A   1     -26.250   2.920  26.395  0.00  0.00    +0.074 C 
ATOM     17  C   UNL A   1     -27.438   3.091  25.645  0.00  0.00    +0.106 C 
ATOM     18  N   UNL A   1     -28.075   2.089  25.003  0.00  0.00    -0.208 NA
ATOM     19  C   UNL A   1     -27.543   0.849  25.079  0.00  0.00    +0.253 C 
ATOM     20  C   UNL A   1     -26.354   0.576  25.777  0.00  0.00    +0.191 C 
ATOM     21  F   UNL A   1     -25.860  -0.681  25.795  0.00  0.00    -0.200 F 
BRANCH  16  22
ATOM     22  C   UNL A   1     -25.642   4.093  27.123  0.00  0.00    +0.266 C 
ATOM     23  N   UNL A   1     -25.614   5.252  26.449  0.00  0.00    -0.200 NA
ATOM     24  C   UNL A   1     -25.026   6.479  26.963  0.00  0.00    +0.139 C 
ATOM     25  O   UNL A   1     -25.143   3.966  28.243  0.00  0.00    -0.268 OA
ENDBRANCH  16  22
BRANCH  19  26
ATOM     26  O   UNL A   1     -28.193  -0.208  24.477  0.00  0.00    -0.456 OA
BRANCH  26  27
ATOM     27  C   UNL A   1     -29.460   0.005  23.866  0.00  0.00    +0.243 C 
BRANCH  27  28
ATOM     28  C   UNL A   1     -30.065  -1.377  23.573  0.00  0.00    +0.229 C 
ATOM     29  O   UNL A   1     -30.729  -1.878  24.721  0.00  0.00    -0.216 OA
ENDBRANCH  27  28
ENDBRANCH  26  27
ENDBRANCH  19  26
ENDBRANCH   9  15
BRANCH   1  30
ATOM     30  C   UNL A   1     -24.855  -1.012  30.143  0.00  0.00    +0.077 C 
BRANCH  30  31
ATOM     31  C   UNL A   1     -24.973  -2.505  29.788  0.00  0.00    -0.016 C 
ATOM     32  C   UNL A   1     -23.906  -3.173  29.146  0.00  0.00    -0.004 C 
ATOM     33  C   UNL A   1     -23.989  -4.549  28.853  0.00  0.00    -0.000 C 
ATOM     34  C   UNL A   1     -25.137  -5.280  29.205  0.00  0.00    -0.000 C 
ATOM     35  C   UNL A   1     -26.232  -4.611  29.784  0.00  0.00    -0.000 C 
ATOM     36  C   UNL A   1     -26.155  -3.232  30.065  0.00  0.00    -0.004 C 
ENDBRANCH  30  31
BRANCH  30  37
ATOM     37  C   UNL A   1     -25.387  -0.679  31.571  0.00  0.00    +0.082 C 
ATOM     38  C   UNL A   1     -25.189   0.773  32.028  0.00  0.00    +0.020 C 
ATOM     39  C   UNL A   1     -25.336   0.684  33.544  0.00  0.00    +0.020 C 
ATOM     40  C   UNL A   1     -24.829  -0.715  33.905  0.00  0.00    +0.089 C 
ATOM     41  N   UNL A   1     -24.758  -1.481  32.646  0.00  0.00    -0.219 NA
ENDBRANCH  30  37
ENDBRANCH   1  30
TORSDOF 8
