MODEL 794
MODEL 1
REMARK VINA RESULT:    -5.341      0.000      0.000
REMARK INTER + INTRA:          -5.874
REMARK INTER:                  -5.654
REMARK INTRA:                  -0.220
REMARK UNBOUND:                -0.220
REMARK  Name = No_794-gen_results/8p0m/2024-11-27-11-27-31/
REMARK  1 active torsions:
REMARK  status: ('A' for Active; 'I' for Inactive)
REMARK    1  A    between atoms: C_3  and  C_4
REMARK                            x       y       z     vdW  Elec       q    Type
REMARK                         _______ _______ _______ _____ _____    ______ ____
ROOT
ATOM      1  C   UNL A   1      -8.439  -9.758  19.781  0.00  0.00    +0.004 A 
ATOM      2  C   UNL A   1      -7.746  -9.071  20.181  0.00  0.00    -0.000 A 
ATOM      3  C   UNL A   1      -8.693  -9.703  18.393  0.00  0.00    +0.071 A 
ATOM      4  C   UNL A   1      -6.960  -8.000  19.544  0.00  0.00    -0.000 A 
ATOM      5  C   UNL A   1      -7.163  -7.885  18.169  0.00  0.00    -0.000 A 
ATOM      6  C   UNL A   1      -7.996  -8.759  17.547  0.00  0.00    +0.004 A 
ENDROOT
BRANCH   3   7
ATOM      7  C   UNL A   1      -9.554 -10.665  17.656  0.00  0.00    +0.419 C 
ATOM      8  F   UNL A   1      -9.181 -11.741  17.922  0.00  0.00    -0.166 F 
ATOM      9  F   UNL A   1     -10.847 -10.460  17.951  0.00  0.00    -0.166 F 
ATOM     10  F   UNL A   1      -9.372 -10.513  16.297  0.00  0.00    -0.166 F 
ENDBRANCH   3   7
TORSDOF 1
ENDMDL
ENDMDL
