REMARK  Name = outputs/IAG933/test6/raw/output_7950_IAG933_linker_design_.xyz
REMARK  12 active torsions:
REMARK  status: ('A' for Active; 'I' for Inactive)
REMARK    1  A    between atoms: C_1  and  C_2
REMARK    2  A    between atoms: C_1  and  C_8
REMARK    3  A    between atoms: C_1  and  O_46
REMARK    4  A    between atoms: C_13  and  N_41
REMARK    5  A    between atoms: C_14  and  C_15
REMARK    6  A    between atoms: C_21  and  O_22
REMARK    7  A    between atoms: O_22  and  C_23
REMARK    8  A    between atoms: C_23  and  C_24
REMARK    9  A    between atoms: C_24  and  O_25
REMARK   10  A    between atoms: O_25  and  C_35
REMARK   11  A    between atoms: N_41  and  C_51
REMARK   12  A    between atoms: C_42  and  O_46
REMARK                            x       y       z     vdW  Elec       q    Type
REMARK                         _______ _______ _______ _____ _____    ______ ____
ROOT
ATOM      1  C   UNL A   1     -25.688   1.614  26.461  0.00  0.00    +0.142 C 
ATOM      2  C   UNL A   1     -26.250   2.920  26.395  0.00  0.00    +0.071 C 
ATOM      3  C   UNL A   1     -27.438   3.091  25.645  0.00  0.00    +0.103 C 
ATOM      4  N   UNL A   1     -28.075   2.089  25.003  0.00  0.00    -0.212 NA
ATOM      5  C   UNL A   1     -27.543   0.849  25.079  0.00  0.00    +0.236 C 
ATOM      6  C   UNL A   1     -26.354   0.576  25.777  0.00  0.00    +0.256 C 
ATOM      7  F   UNL A   1     -25.860  -0.681  25.795  0.00  0.00    -0.225 F 
ENDROOT
BRANCH   2   8
ATOM      8  C   UNL A   1     -25.642   4.093  27.123  0.00  0.00    +0.264 C 
ATOM      9  N   UNL A   1     -25.614   5.252  26.449  0.00  0.00    -0.200 NA
ATOM     10  C   UNL A   1     -25.026   6.479  26.963  0.00  0.00    +0.139 C 
ATOM     11  O   UNL A   1     -25.143   3.966  28.243  0.00  0.00    -0.269 OA
ENDBRANCH   2   8
BRANCH   5  12
ATOM     12  O   UNL A   1     -28.193  -0.208  24.477  0.00  0.00    -0.457 OA
BRANCH  12  13
ATOM     13  C   UNL A   1     -29.460   0.005  23.866  0.00  0.00    +0.254 C 
BRANCH  13  14
ATOM     14  C   UNL A   1     -30.065  -1.377  23.573  0.00  0.00    +0.256 C 
BRANCH  14  15
ATOM     15  O   UNL A   1     -30.729  -1.878  24.721  0.00  0.00    -0.443 OA
BRANCH  15  21
ATOM     16  C   UNL A   1     -29.858   0.692  29.822  0.00  0.00    +0.003 C 
ATOM     17  C   UNL A   1     -31.949  -1.920  27.273  0.00  0.00    +0.140 A 
ATOM     18  C   UNL A   1     -30.724  -0.074  27.686  0.00  0.00    +0.150 A 
ATOM     19  C   UNL A   1     -32.355  -3.437  30.536  0.00  0.00    +0.006 C 
ATOM     20  C   UNL A   1     -31.402  -1.036  28.379  0.00  0.00    +0.052 A 
ATOM     21  C   UNL A   1     -31.459  -1.393  25.893  0.00  0.00    +0.312 A 
ATOM     22  C   UNL A   1     -31.327  -1.156  29.834  0.00  0.00    -0.018 C 
ATOM     23  C   UNL A   1     -32.226  -4.440  28.066  0.00  0.00    +0.112 C 
ATOM     24  C   UNL A   1     -31.751  -4.423  29.501  0.00  0.00    +0.024 C 
ATOM     25  C   UNL A   1     -31.919  -2.178  30.786  0.00  0.00    +0.027 C 
ATOM     26  N   UNL A   1     -32.468  -3.232  27.418  0.00  0.00    -0.232 NA
ATOM     27  C   UNL A   1     -30.492  -0.329  30.510  0.00  0.00    -0.004 C 
ATOM     28  O   UNL A   1     -30.792  -0.153  26.273  0.00  0.00    -0.423 OA
ATOM     29  C   UNL A   1     -29.986   0.850  28.434  0.00  0.00    +0.038 C 
ENDBRANCH  15  21
ENDBRANCH  14  15
ENDBRANCH  13  14
ENDBRANCH  12  13
ENDBRANCH   5  12
BRANCH   1  30
ATOM     30  N   UNL A   1     -25.708   1.123  27.575  0.00  0.00    -0.210 NA
BRANCH  30  38
ATOM     31  C   UNL A   1     -22.370   0.262  29.208  0.00  0.00    +0.002 C 
ATOM     32  C   UNL A   1     -23.437   1.122  26.644  0.00  0.00    +0.056 C 
ATOM     33  C   UNL A   1     -21.893   1.450  26.980  0.00  0.00    +0.184 C 
ATOM     34  C   UNL A   1     -21.401   0.758  28.123  0.00  0.00    +0.006 C 
ATOM     35  C   UNL A   1     -23.832   0.696  29.198  0.00  0.00    +0.153 C 
ATOM     36  C   UNL A   1     -23.748   1.917  25.615  0.00  0.00    +0.005 C 
ATOM     37  F   UNL A   1     -21.748   2.107  25.642  0.00  0.00    -0.232 F 
ATOM     38  C   UNL A   1     -24.279   1.185  27.939  0.00  0.00    +0.107 C 
BRANCH  35  39
ATOM     39  O   UNL A   1     -24.950   0.124  29.466  0.00  0.00    -0.347 OA
BRANCH  39  40
ATOM     40  C   UNL A   1     -24.855  -1.012  30.143  0.00  0.00    +0.154 C 
BRANCH  40  41
ATOM     41  C   UNL A   1     -24.973  -2.505  29.788  0.00  0.00    +0.006 C 
ATOM     42  C   UNL A   1     -23.906  -3.173  29.146  0.00  0.00    -0.002 C 
ATOM     43  C   UNL A   1     -23.989  -4.549  28.853  0.00  0.00    -0.000 C 
ATOM     44  C   UNL A   1     -25.137  -5.280  29.205  0.00  0.00    -0.000 C 
ATOM     45  C   UNL A   1     -26.232  -4.611  29.784  0.00  0.00    -0.000 C 
ATOM     46  C   UNL A   1     -26.155  -3.232  30.065  0.00  0.00    -0.002 C 
ENDBRANCH  40  41
BRANCH  40  47
ATOM     47  C   UNL A   1     -25.387  -0.679  31.571  0.00  0.00    +0.104 C 
ATOM     48  C   UNL A   1     -25.189   0.773  32.028  0.00  0.00    +0.022 C 
ATOM     49  C   UNL A   1     -25.336   0.684  33.544  0.00  0.00    +0.020 C 
ATOM     50  C   UNL A   1     -24.829  -0.715  33.905  0.00  0.00    +0.089 C 
ATOM     51  N   UNL A   1     -24.758  -1.481  32.646  0.00  0.00    -0.217 NA
ENDBRANCH  40  47
ENDBRANCH  39  40
ENDBRANCH  35  39
ENDBRANCH  30  38
ENDBRANCH   1  30
TORSDOF 12
