REMARK  Name = outputs/IAG933/test6/raw/output_7951_IAG933_linker_design_.xyz
REMARK  12 active torsions:
REMARK  status: ('A' for Active; 'I' for Inactive)
REMARK    1  A    between atoms: C_1  and  C_2
REMARK    2  A    between atoms: C_1  and  C_8
REMARK    3  A    between atoms: C_1  and  C_41
REMARK    4  A    between atoms: C_14  and  C_15
REMARK    5  A    between atoms: C_15  and  O_18
REMARK    6  A    between atoms: O_18  and  C_38
REMARK    7  A    between atoms: C_21  and  O_22
REMARK    8  A    between atoms: O_22  and  C_23
REMARK    9  A    between atoms: C_23  and  C_24
REMARK   10  A    between atoms: C_33  and  C_41
REMARK   11  A    between atoms: N_40  and  C_41
REMARK   12  A    between atoms: N_40  and  C_43
REMARK                            x       y       z     vdW  Elec       q    Type
REMARK                         _______ _______ _______ _____ _____    ______ ____
ROOT
ATOM      1  O   UNL A   1     -25.490   3.388  30.345  0.00  0.00    -0.426 OA
ATOM      2  C   UNL A   1     -28.000   3.997  30.676  0.00  0.00    +0.214 C 
ATOM      3  O   UNL A   1     -28.224   3.083  29.585  0.00  0.00    -0.468 OA
ATOM      4  C   UNL A   1     -27.115   5.117  30.138  0.00  0.00    +0.139 C 
ATOM      5  C   UNL A   1     -25.858   4.441  29.451  0.00  0.00    +0.346 C 
ATOM      6  C   UNL A   1     -27.309   1.948  29.579  0.00  0.00    +0.227 C 
ATOM      7  C   UNL A   1     -25.875   2.217  29.883  0.00  0.00    +0.251 C 
ENDROOT
BRANCH   5   8
ATOM      8  O   UNL A   1     -25.143   3.966  28.243  0.00  0.00    -0.426 OA
BRANCH   8   9
ATOM      9  C   UNL A   1     -25.642   4.093  27.123  0.00  0.00    +0.225 C 
ATOM     10  N   UNL A   1     -25.614   5.252  26.449  0.00  0.00    -0.236 NA
ATOM     11  C   UNL A   1     -25.026   6.479  26.963  0.00  0.00    +0.155 C 
BRANCH   9  13
ATOM     12  C   UNL A   1     -25.688   1.614  26.461  0.00  0.00    +0.041 C 
ATOM     13  C   UNL A   1     -26.250   2.920  26.395  0.00  0.00    +0.074 C 
ATOM     14  C   UNL A   1     -27.438   3.091  25.645  0.00  0.00    +0.107 C 
ATOM     15  N   UNL A   1     -28.075   2.089  25.003  0.00  0.00    -0.208 NA
ATOM     16  C   UNL A   1     -27.543   0.849  25.079  0.00  0.00    +0.253 C 
ATOM     17  C   UNL A   1     -26.354   0.576  25.777  0.00  0.00    +0.193 C 
ATOM     18  F   UNL A   1     -25.860  -0.681  25.795  0.00  0.00    -0.199 F 
BRANCH  16  19
ATOM     19  O   UNL A   1     -28.193  -0.208  24.477  0.00  0.00    -0.456 OA
BRANCH  19  20
ATOM     20  C   UNL A   1     -29.460   0.005  23.866  0.00  0.00    +0.243 C 
BRANCH  20  21
ATOM     21  C   UNL A   1     -30.065  -1.377  23.573  0.00  0.00    +0.229 C 
ATOM     22  O   UNL A   1     -30.729  -1.878  24.721  0.00  0.00    -0.216 OA
ENDBRANCH  20  21
ENDBRANCH  19  20
ENDBRANCH  16  19
ENDBRANCH   9  13
ENDBRANCH   8   9
ENDBRANCH   5   8
BRANCH   7  23
ATOM     23  N   UNL A   1     -25.004   1.347  29.615  0.00  0.00    -0.200 NA
BRANCH  23  24
ATOM     24  C   UNL A   1     -24.403   0.153  29.343  0.00  0.00    +0.123 C 
BRANCH  24  30
ATOM     25  C   UNL A   1     -20.852   0.644  28.413  0.00  0.00    +0.001 C 
ATOM     26  C   UNL A   1     -21.908   0.034  29.062  0.00  0.00    -0.003 C 
ATOM     27  C   UNL A   1     -21.076   1.521  27.344  0.00  0.00    +0.011 C 
ATOM     28 CL   UNL A   1     -22.558   2.637  25.427  0.00  0.00    -0.082 Cl
ATOM     29  C   UNL A   1     -23.439   1.183  27.564  0.00  0.00    +0.009 C 
ATOM     30  C   UNL A   1     -23.212   0.384  28.660  0.00  0.00    -0.001 C 
ATOM     31  C   UNL A   1     -22.355   1.732  26.894  0.00  0.00    +0.057 C 
ENDBRANCH  24  30
BRANCH  24  32
ATOM     32  C   UNL A   1     -24.855  -1.012  30.143  0.00  0.00    +0.062 C 
BRANCH  32  33
ATOM     33  C   UNL A   1     -24.973  -2.505  29.788  0.00  0.00    -0.019 C 
ATOM     34  C   UNL A   1     -23.906  -3.173  29.146  0.00  0.00    -0.004 C 
ATOM     35  C   UNL A   1     -23.989  -4.549  28.853  0.00  0.00    -0.000 C 
ATOM     36  C   UNL A   1     -25.137  -5.280  29.205  0.00  0.00    -0.000 C 
ATOM     37  C   UNL A   1     -26.232  -4.611  29.784  0.00  0.00    -0.000 C 
ATOM     38  C   UNL A   1     -26.155  -3.232  30.065  0.00  0.00    -0.004 C 
ENDBRANCH  32  33
BRANCH  32  39
ATOM     39  C   UNL A   1     -25.387  -0.679  31.571  0.00  0.00    +0.079 C 
ATOM     40  C   UNL A   1     -25.189   0.773  32.028  0.00  0.00    +0.019 C 
ATOM     41  C   UNL A   1     -25.336   0.684  33.544  0.00  0.00    +0.020 C 
ATOM     42  C   UNL A   1     -24.829  -0.715  33.905  0.00  0.00    +0.089 C 
ATOM     43  N   UNL A   1     -24.758  -1.481  32.646  0.00  0.00    -0.219 NA
ENDBRANCH  32  39
ENDBRANCH  24  32
ENDBRANCH  23  24
ENDBRANCH   7  23
TORSDOF 12
