REMARK  Name = outputs/IAG933/test6/raw/output_7955_IAG933_linker_design_.xyz
REMARK  7 active torsions:
REMARK  status: ('A' for Active; 'I' for Inactive)
REMARK    1  A    between atoms: C_1  and  C_2
REMARK    2  A    between atoms: C_1  and  C_8
REMARK    3  A    between atoms: C_1  and  C_28
REMARK    4  A    between atoms: C_21  and  O_22
REMARK    5  A    between atoms: O_22  and  C_23
REMARK    6  A    between atoms: C_23  and  C_24
REMARK    7  A    between atoms: C_36  and  C_45
REMARK                            x       y       z     vdW  Elec       q    Type
REMARK                         _______ _______ _______ _____ _____    ______ ____
ROOT
ATOM      1  C   UNL A   1     -25.688   1.614  26.461  0.00  0.00    +0.028 C 
ATOM      2  C   UNL A   1     -26.250   2.920  26.395  0.00  0.00    +0.071 C 
ATOM      3  C   UNL A   1     -25.642   4.093  27.123  0.00  0.00    +0.228 C 
ATOM      4  N   UNL A   1     -25.614   5.252  26.449  0.00  0.00    -0.235 NA
ATOM      5  C   UNL A   1     -25.026   6.479  26.963  0.00  0.00    +0.155 C 
ATOM      6  O   UNL A   1     -25.143   3.966  28.243  0.00  0.00    -0.422 OA
ATOM      7  C   UNL A   1     -27.438   3.091  25.645  0.00  0.00    +0.106 C 
ATOM      8  N   UNL A   1     -28.075   2.089  25.003  0.00  0.00    -0.208 NA
ATOM      9  C   UNL A   1     -27.543   0.849  25.079  0.00  0.00    +0.253 C 
ATOM     10  C   UNL A   1     -26.354   0.576  25.777  0.00  0.00    +0.190 C 
ATOM     11  F   UNL A   1     -25.860  -0.681  25.795  0.00  0.00    -0.200 F 
ATOM     12  C   UNL A   1     -24.132  -0.002  29.206  0.00  0.00    +0.077 C 
ATOM     13  O   UNL A   1     -23.276   2.412  25.621  0.00  0.00    -0.249 OA
ATOM     14  O   UNL A   1     -22.080   1.919  27.441  0.00  0.00    -0.388 OA
ATOM     15  N   UNL A   1     -22.547  -0.294  29.934  0.00  0.00    -0.146 NA
ATOM     16  C   UNL A   1     -25.278   3.621  29.689  0.00  0.00    +0.223 C 
ATOM     17  C   UNL A   1     -23.281   1.856  26.864  0.00  0.00    +0.329 C 
ATOM     18  C   UNL A   1     -24.531   1.577  27.288  0.00  0.00    +0.147 C 
ATOM     19  C   UNL A   1     -21.808   0.828  28.277  0.00  0.00    +0.363 C 
ATOM     20  C   UNL A   1     -24.951   1.168  28.734  0.00  0.00    +0.127 C 
ATOM     21  N   UNL A   1     -25.142   2.160  29.786  0.00  0.00    -0.241 NA
ATOM     22  C   UNL A   1     -22.813   0.179  29.126  0.00  0.00    +0.158 C 
ATOM     23  O   UNL A   1     -20.650   0.377  28.288  0.00  0.00    -0.243 OA
ENDROOT
BRANCH  16  29
ATOM     24  O   UNL A   1     -27.054   5.572  29.765  0.00  0.00    -0.101 OA
ATOM     25  N   UNL A   1     -26.379   5.981  30.897  0.00  0.00    +0.047 NA
ATOM     26  C   UNL A   1     -27.482   3.517  30.591  0.00  0.00    +0.213 C 
ATOM     27  N   UNL A   1     -26.651   5.180  32.062  0.00  0.00    -0.090 NA
ATOM     28  O   UNL A   1     -27.898   4.509  30.012  0.00  0.00    -0.198 OA
ATOM     29  C   UNL A   1     -26.242   3.942  31.274  0.00  0.00    +0.203 C 
ENDBRANCH  16  29
BRANCH  12  30
ATOM     30  C   UNL A   1     -24.855  -1.012  30.143  0.00  0.00    +0.046 C 
BRANCH  30  31
ATOM     31  C   UNL A   1     -24.973  -2.505  29.788  0.00  0.00    -0.021 C 
ATOM     32  C   UNL A   1     -23.906  -3.173  29.146  0.00  0.00    -0.004 C 
ATOM     33  C   UNL A   1     -23.989  -4.549  28.853  0.00  0.00    -0.000 C 
ATOM     34  C   UNL A   1     -25.137  -5.280  29.205  0.00  0.00    -0.000 C 
ATOM     35  C   UNL A   1     -26.232  -4.611  29.784  0.00  0.00    -0.000 C 
ATOM     36  C   UNL A   1     -26.155  -3.232  30.065  0.00  0.00    -0.004 C 
ENDBRANCH  30  31
BRANCH  30  37
ATOM     37  C   UNL A   1     -25.387  -0.679  31.571  0.00  0.00    +0.077 C 
ATOM     38  C   UNL A   1     -25.189   0.773  32.028  0.00  0.00    +0.019 C 
ATOM     39  C   UNL A   1     -25.336   0.684  33.544  0.00  0.00    +0.020 C 
ATOM     40  C   UNL A   1     -24.829  -0.715  33.905  0.00  0.00    +0.089 C 
ATOM     41  N   UNL A   1     -24.758  -1.481  32.646  0.00  0.00    -0.219 NA
ENDBRANCH  30  37
ENDBRANCH  12  30
BRANCH   9  42
ATOM     42  O   UNL A   1     -28.193  -0.208  24.477  0.00  0.00    -0.456 OA
BRANCH  42  43
ATOM     43  C   UNL A   1     -29.460   0.005  23.866  0.00  0.00    +0.243 C 
BRANCH  43  44
ATOM     44  C   UNL A   1     -30.065  -1.377  23.573  0.00  0.00    +0.229 C 
ATOM     45  O   UNL A   1     -30.729  -1.878  24.721  0.00  0.00    -0.216 OA
ENDBRANCH  43  44
ENDBRANCH  42  43
ENDBRANCH   9  42
TORSDOF 7
