REMARK  Name = outputs/IAG933/test6/raw/output_7956_IAG933_linker_design_.xyz
REMARK  10 active torsions:
REMARK  status: ('A' for Active; 'I' for Inactive)
REMARK    1  A    between atoms: C_1  and  C_2
REMARK    2  A    between atoms: C_1  and  C_8
REMARK    3  A    between atoms: C_1  and  C_35
REMARK    4  A    between atoms: C_21  and  O_22
REMARK    5  A    between atoms: O_22  and  C_23
REMARK    6  A    between atoms: C_23  and  C_24
REMARK    7  A    between atoms: C_33  and  C_41
REMARK    8  A    between atoms: C_33  and  C_48
REMARK    9  A    between atoms: C_38  and  C_48
REMARK   10  A    between atoms: C_43  and  C_44
REMARK                            x       y       z     vdW  Elec       q    Type
REMARK                         _______ _______ _______ _____ _____    ______ ____
ROOT
ATOM      1  C   UNL A   1     -25.688   1.614  26.461  0.00  0.00    +0.074 C 
ATOM      2  C   UNL A   1     -26.250   2.920  26.395  0.00  0.00    +0.053 C 
ATOM      3  C   UNL A   1     -25.642   4.093  27.123  0.00  0.00    +0.223 C 
ATOM      4  N   UNL A   1     -25.614   5.252  26.449  0.00  0.00    -0.236 NA
ATOM      5  C   UNL A   1     -25.026   6.479  26.963  0.00  0.00    +0.155 C 
ATOM      6  O   UNL A   1     -25.143   3.966  28.243  0.00  0.00    -0.439 OA
ATOM      7  C   UNL A   1     -27.438   3.091  25.645  0.00  0.00    +0.102 C 
ATOM      8  N   UNL A   1     -28.075   2.089  25.003  0.00  0.00    -0.212 NA
ATOM      9  C   UNL A   1     -27.543   0.849  25.079  0.00  0.00    +0.234 C 
ATOM     10  C   UNL A   1     -26.354   0.576  25.777  0.00  0.00    +0.240 C 
ATOM     11  F   UNL A   1     -25.860  -0.681  25.795  0.00  0.00    -0.227 F 
ATOM     12  O   UNL A   1     -28.338   4.696  32.776  0.00  0.00    -0.273 OA
ATOM     13  O   UNL A   1     -24.421  -0.318  27.902  0.00  0.00    -0.459 OA
ATOM     14  N   UNL A   1     -25.348   1.392  29.326  0.00  0.00    -0.226 NA
ATOM     15  C   UNL A   1     -25.559   3.914  29.513  0.00  0.00    +0.152 C 
ATOM     16  C   UNL A   1     -24.876   0.021  29.122  0.00  0.00    +0.202 C 
ATOM     17  C   UNL A   1     -24.206   1.595  26.430  0.00  0.00    +0.059 C 
ATOM     18  N   UNL A   1     -27.993   3.484  30.991  0.00  0.00    -0.142 NA
ATOM     19  C   UNL A   1     -26.159   4.811  31.874  0.00  0.00    +0.103 C 
ATOM     20  C   UNL A   1     -27.509   4.359  31.919  0.00  0.00    +0.252 C 
ATOM     21  C   UNL A   1     -26.043   2.684  29.765  0.00  0.00    +0.240 C 
ATOM     22  O   UNL A   1     -27.697   1.261  31.085  0.00  0.00    -0.270 OA
ATOM     23  C   UNL A   1     -23.522   1.195  27.552  0.00  0.00    +0.224 C 
ATOM     24  C   UNL A   1     -25.488   4.964  30.572  0.00  0.00    +0.018 C 
ATOM     25  C   UNL A   1     -27.290   2.387  30.642  0.00  0.00    +0.278 C 
ENDROOT
BRANCH  23  27
ATOM     26  C   UNL A   1     -21.141   1.816  27.462  0.00  0.00    +0.076 C 
ATOM     27  C   UNL A   1     -22.262   1.191  28.133  0.00  0.00    +0.191 C 
ATOM     28  O   UNL A   1     -22.156   0.808  29.324  0.00  0.00    -0.292 OA
ENDBRANCH  23  27
BRANCH  16  29
ATOM     29  C   UNL A   1     -24.855  -1.012  30.143  0.00  0.00    +0.114 C 
BRANCH  29  30
ATOM     30  C   UNL A   1     -24.973  -2.505  29.788  0.00  0.00    -0.012 C 
ATOM     31  C   UNL A   1     -23.906  -3.173  29.146  0.00  0.00    -0.004 C 
ATOM     32  C   UNL A   1     -23.989  -4.549  28.853  0.00  0.00    -0.000 C 
ATOM     33  C   UNL A   1     -25.137  -5.280  29.205  0.00  0.00    -0.000 C 
ATOM     34  C   UNL A   1     -26.232  -4.611  29.784  0.00  0.00    -0.000 C 
ATOM     35  C   UNL A   1     -26.155  -3.232  30.065  0.00  0.00    -0.004 C 
ENDBRANCH  29  30
BRANCH  29  36
ATOM     36  C   UNL A   1     -25.387  -0.679  31.571  0.00  0.00    +0.086 C 
ATOM     37  C   UNL A   1     -25.189   0.773  32.028  0.00  0.00    +0.020 C 
ATOM     38  C   UNL A   1     -25.336   0.684  33.544  0.00  0.00    +0.020 C 
ATOM     39  C   UNL A   1     -24.829  -0.715  33.905  0.00  0.00    +0.089 C 
ATOM     40  N   UNL A   1     -24.758  -1.481  32.646  0.00  0.00    -0.219 NA
ENDBRANCH  29  36
ENDBRANCH  16  29
BRANCH   9  41
ATOM     41  O   UNL A   1     -28.193  -0.208  24.477  0.00  0.00    -0.459 OA
BRANCH  41  42
ATOM     42  C   UNL A   1     -29.460   0.005  23.866  0.00  0.00    +0.242 C 
BRANCH  42  43
ATOM     43  C   UNL A   1     -30.065  -1.377  23.573  0.00  0.00    +0.229 C 
ATOM     44  O   UNL A   1     -30.729  -1.878  24.721  0.00  0.00    -0.216 OA
ENDBRANCH  42  43
ENDBRANCH  41  42
ENDBRANCH   9  41
BRANCH  19  45
ATOM     45  C   UNL A   1     -25.232   4.855  33.093  0.00  0.00    +0.015 C 
BRANCH  45  46
ATOM     46  C   UNL A   1     -25.682   4.046  34.322  0.00  0.00    +0.021 C 
BRANCH  46  48
ATOM     47  N   UNL A   1     -24.725   6.062  35.283  0.00  0.00    -0.131 NA
ATOM     48  C   UNL A   1     -25.676   4.977  35.564  0.00  0.00    +0.109 C 
ENDBRANCH  46  48
ENDBRANCH  45  46
ENDBRANCH  19  45
TORSDOF 10
