REMARK  Name = outputs/IAG933/test6/raw/output_7957_IAG933_linker_design_.xyz
REMARK  13 active torsions:
REMARK  status: ('A' for Active; 'I' for Inactive)
REMARK    1  A    between atoms: C_1  and  C_2
REMARK    2  A    between atoms: C_1  and  C_8
REMARK    3  A    between atoms: C_1  and  C_42
REMARK    4  A    between atoms: C_13  and  C_37
REMARK    5  A    between atoms: C_14  and  C_15
REMARK    6  A    between atoms: C_21  and  O_22
REMARK    7  A    between atoms: O_22  and  C_23
REMARK    8  A    between atoms: C_23  and  C_24
REMARK    9  A    between atoms: C_31  and  C_32
REMARK   10  A    between atoms: C_31  and  C_41
REMARK   11  A    between atoms: C_32  and  C_42
REMARK   12  A    between atoms: C_33  and  C_43
REMARK   13  A    between atoms: C_34  and  C_42
REMARK                            x       y       z     vdW  Elec       q    Type
REMARK                         _______ _______ _______ _____ _____    ______ ____
ROOT
ATOM      1  C   UNL A   1     -24.453   0.579  28.383  0.00  0.00    -0.026 C 
ATOM      2  C   UNL A   1     -23.262   0.256  28.716  0.00  0.00    +0.134 C 
ATOM      3  C   UNL A   1     -21.793   1.455  27.214  0.00  0.00    +0.001 C 
ATOM      4  C   UNL A   1     -24.447   1.274  27.188  0.00  0.00    -0.017 C 
ATOM      5  C   UNL A   1     -21.535   0.665  28.346  0.00  0.00    +0.076 C 
ATOM      6  N   UNL A   1     -22.247  -0.071  29.143  0.00  0.00    -0.232 NA
ATOM      7  C   UNL A   1     -23.084   1.667  26.603  0.00  0.00    +0.110 C 
ENDROOT
BRANCH   4   8
ATOM      8  C   UNL A   1     -25.688   1.614  26.461  0.00  0.00    +0.034 C 
ATOM      9  C   UNL A   1     -26.250   2.920  26.395  0.00  0.00    +0.076 C 
ATOM     10  C   UNL A   1     -27.438   3.091  25.645  0.00  0.00    +0.107 C 
ATOM     11  N   UNL A   1     -28.075   2.089  25.003  0.00  0.00    -0.208 NA
ATOM     12  C   UNL A   1     -27.543   0.849  25.079  0.00  0.00    +0.253 C 
ATOM     13  C   UNL A   1     -26.354   0.576  25.777  0.00  0.00    +0.193 C 
ATOM     14  F   UNL A   1     -25.860  -0.681  25.795  0.00  0.00    -0.199 F 
BRANCH   9  15
ATOM     15  C   UNL A   1     -25.642   4.093  27.123  0.00  0.00    +0.266 C 
ATOM     16  N   UNL A   1     -25.614   5.252  26.449  0.00  0.00    -0.200 NA
ATOM     17  C   UNL A   1     -25.026   6.479  26.963  0.00  0.00    +0.139 C 
ATOM     18  O   UNL A   1     -25.143   3.966  28.243  0.00  0.00    -0.268 OA
ENDBRANCH   9  15
BRANCH  12  19
ATOM     19  O   UNL A   1     -28.193  -0.208  24.477  0.00  0.00    -0.456 OA
BRANCH  19  20
ATOM     20  C   UNL A   1     -29.460   0.005  23.866  0.00  0.00    +0.243 C 
BRANCH  20  21
ATOM     21  C   UNL A   1     -30.065  -1.377  23.573  0.00  0.00    +0.229 C 
ATOM     22  O   UNL A   1     -30.729  -1.878  24.721  0.00  0.00    -0.216 OA
ENDBRANCH  20  21
ENDBRANCH  19  20
ENDBRANCH  12  19
ENDBRANCH   4   8
BRANCH   7  25
ATOM     23  O   UNL A   1     -21.603   2.004  24.908  0.00  0.00    -0.183 OA
ATOM     24  F   UNL A   1     -23.663   2.109  24.381  0.00  0.00    -0.200 F 
ATOM     25  C   UNL A   1     -22.928   2.485  25.436  0.00  0.00    +0.318 C 
ENDBRANCH   7  25
BRANCH   1  26
ATOM     26  C   UNL A   1     -25.655   0.106  29.271  0.00  0.00    +0.028 C 
BRANCH  26  27
ATOM     27  C   UNL A   1     -24.855  -1.012  30.143  0.00  0.00    +0.042 C 
BRANCH  27  28
ATOM     28  C   UNL A   1     -24.973  -2.505  29.788  0.00  0.00    -0.021 C 
ATOM     29  C   UNL A   1     -23.906  -3.173  29.146  0.00  0.00    -0.004 C 
ATOM     30  C   UNL A   1     -23.989  -4.549  28.853  0.00  0.00    -0.000 C 
ATOM     31  C   UNL A   1     -25.137  -5.280  29.205  0.00  0.00    -0.000 C 
ATOM     32  C   UNL A   1     -26.232  -4.611  29.784  0.00  0.00    -0.000 C 
ATOM     33  C   UNL A   1     -26.155  -3.232  30.065  0.00  0.00    -0.004 C 
ENDBRANCH  27  28
BRANCH  27  34
ATOM     34  C   UNL A   1     -25.387  -0.679  31.571  0.00  0.00    +0.077 C 
ATOM     35  C   UNL A   1     -25.189   0.773  32.028  0.00  0.00    +0.019 C 
ATOM     36  C   UNL A   1     -25.336   0.684  33.544  0.00  0.00    +0.020 C 
ATOM     37  C   UNL A   1     -24.829  -0.715  33.905  0.00  0.00    +0.089 C 
ATOM     38  N   UNL A   1     -24.758  -1.481  32.646  0.00  0.00    -0.219 NA
ENDBRANCH  27  34
ENDBRANCH  26  27
BRANCH  26  39
ATOM     39  C   UNL A   1     -26.949   1.171  29.424  0.00  0.00    +0.040 C 
BRANCH  39  41
ATOM     40  O   UNL A   1     -28.227  -0.847  28.931  0.00  0.00    -0.220 OA
ATOM     41  C   UNL A   1     -28.361   0.461  29.467  0.00  0.00    +0.185 C 
BRANCH  41  43
ATOM     42  O   UNL A   1     -29.836   1.686  30.877  0.00  0.00    -0.218 OA
ATOM     43  C   UNL A   1     -29.098   0.469  30.816  0.00  0.00    +0.215 C 
ENDBRANCH  41  43
ENDBRANCH  39  41
ENDBRANCH  26  39
ENDBRANCH   1  26
TORSDOF 13
