REMARK  Name = outputs/IAG933/test6/raw/output_7958_IAG933_linker_design_.xyz
REMARK  12 active torsions:
REMARK  status: ('A' for Active; 'I' for Inactive)
REMARK    1  A    between atoms: C_1  and  C_2
REMARK    2  A    between atoms: C_1  and  C_8
REMARK    3  A    between atoms: C_1  and  C_28
REMARK    4  A    between atoms: C_13  and  C_31
REMARK    5  A    between atoms: C_14  and  C_15
REMARK    6  A    between atoms: C_21  and  O_22
REMARK    7  A    between atoms: O_22  and  C_23
REMARK    8  A    between atoms: C_23  and  C_24
REMARK    9  A    between atoms: C_28  and  N_34
REMARK   10  A    between atoms: C_28  and  N_37
REMARK   11  A    between atoms: C_29  and  C_45
REMARK   12  A    between atoms: C_31  and  N_37
REMARK                            x       y       z     vdW  Elec       q    Type
REMARK                         _______ _______ _______ _____ _____    ______ ____
ROOT
ATOM      1  C   UNL A   1     -25.380  -0.050  29.119  0.00  0.00    +0.192 C 
ENDROOT
BRANCH   1   3
ATOM      2  C   UNL A   1     -27.954  -0.420  29.236  0.00  0.00    +0.262 C 
ATOM      3  N   UNL A   1     -26.709  -0.017  28.667  0.00  0.00    -0.181 NA
ATOM      4  O   UNL A   1     -28.103  -1.250  30.128  0.00  0.00    -0.269 OA
BRANCH   2  11
ATOM      5  C   UNL A   1     -32.514  -0.803  28.283  0.00  0.00    +0.032 C 
ATOM      6  C   UNL A   1     -29.943  -0.853  27.875  0.00  0.00    +0.060 C 
ATOM      7  O   UNL A   1     -31.227   1.348  27.559  0.00  0.00    -0.351 OA
ATOM      8  C   UNL A   1     -31.326  -0.132  27.556  0.00  0.00    +0.120 C 
ATOM      9  C   UNL A   1     -29.241   1.620  28.741  0.00  0.00    +0.006 C 
ATOM     10  C   UNL A   1     -30.194   2.122  28.015  0.00  0.00    +0.168 C 
ATOM     11  C   UNL A   1     -29.047   0.260  28.624  0.00  0.00    +0.033 C 
ENDBRANCH   2  11
ENDBRANCH   1   3
BRANCH   1  12
ATOM     12  C   UNL A   1     -24.855  -1.012  30.143  0.00  0.00    +0.079 C 
BRANCH  12  13
ATOM     13  C   UNL A   1     -24.973  -2.505  29.788  0.00  0.00    -0.018 C 
ATOM     14  C   UNL A   1     -23.906  -3.173  29.146  0.00  0.00    -0.004 C 
ATOM     15  C   UNL A   1     -23.989  -4.549  28.853  0.00  0.00    -0.000 C 
ATOM     16  C   UNL A   1     -25.137  -5.280  29.205  0.00  0.00    -0.000 C 
ATOM     17  C   UNL A   1     -26.232  -4.611  29.784  0.00  0.00    -0.000 C 
ATOM     18  C   UNL A   1     -26.155  -3.232  30.065  0.00  0.00    -0.004 C 
ENDBRANCH  12  13
BRANCH  12  19
ATOM     19  C   UNL A   1     -25.387  -0.679  31.571  0.00  0.00    +0.080 C 
ATOM     20  C   UNL A   1     -25.189   0.773  32.028  0.00  0.00    +0.019 C 
ATOM     21  C   UNL A   1     -25.336   0.684  33.544  0.00  0.00    +0.020 C 
ATOM     22  C   UNL A   1     -24.829  -0.715  33.905  0.00  0.00    +0.089 C 
ATOM     23  N   UNL A   1     -24.758  -1.481  32.646  0.00  0.00    -0.219 NA
ENDBRANCH  12  19
ENDBRANCH   1  12
BRANCH   1  24
ATOM     24  N   UNL A   1     -24.489   0.764  28.727  0.00  0.00    -0.217 NA
BRANCH  24  26
ATOM     25  C   UNL A   1     -23.376   1.505  27.049  0.00  0.00    +0.061 C 
ATOM     26  C   UNL A   1     -24.540   1.286  27.462  0.00  0.00    +0.069 C 
ATOM     27  C   UNL A   1     -22.272   1.467  28.082  0.00  0.00    +0.174 C 
ATOM     28  C   UNL A   1     -22.862   1.806  26.260  0.00  0.00    +0.302 C 
ATOM     29  F   UNL A   1     -22.656   1.568  24.870  0.00  0.00    -0.199 F 
ATOM     30  O   UNL A   1     -21.634   1.873  26.982  0.00  0.00    -0.319 OA
BRANCH  26  31
ATOM     31  C   UNL A   1     -25.688   1.614  26.461  0.00  0.00    +0.053 C 
ATOM     32  C   UNL A   1     -26.250   2.920  26.395  0.00  0.00    +0.078 C 
ATOM     33  C   UNL A   1     -27.438   3.091  25.645  0.00  0.00    +0.107 C 
ATOM     34  N   UNL A   1     -28.075   2.089  25.003  0.00  0.00    -0.208 NA
ATOM     35  C   UNL A   1     -27.543   0.849  25.079  0.00  0.00    +0.253 C 
ATOM     36  C   UNL A   1     -26.354   0.576  25.777  0.00  0.00    +0.194 C 
ATOM     37  F   UNL A   1     -25.860  -0.681  25.795  0.00  0.00    -0.199 F 
BRANCH  32  38
ATOM     38  C   UNL A   1     -25.642   4.093  27.123  0.00  0.00    +0.267 C 
ATOM     39  N   UNL A   1     -25.614   5.252  26.449  0.00  0.00    -0.200 NA
ATOM     40  C   UNL A   1     -25.026   6.479  26.963  0.00  0.00    +0.139 C 
ATOM     41  O   UNL A   1     -25.143   3.966  28.243  0.00  0.00    -0.268 OA
ENDBRANCH  32  38
BRANCH  35  42
ATOM     42  O   UNL A   1     -28.193  -0.208  24.477  0.00  0.00    -0.456 OA
BRANCH  42  43
ATOM     43  C   UNL A   1     -29.460   0.005  23.866  0.00  0.00    +0.243 C 
BRANCH  43  44
ATOM     44  C   UNL A   1     -30.065  -1.377  23.573  0.00  0.00    +0.229 C 
ATOM     45  O   UNL A   1     -30.729  -1.878  24.721  0.00  0.00    -0.216 OA
ENDBRANCH  43  44
ENDBRANCH  42  43
ENDBRANCH  35  42
ENDBRANCH  26  31
ENDBRANCH  24  26
ENDBRANCH   1  24
TORSDOF 12
