REMARK  Name = No_796-gen_results/8p0m/2024-11-27-11-27-31/
REMARK  4 active torsions:
REMARK  status: ('A' for Active; 'I' for Inactive)
REMARK    1  A    between atoms: C_1  and  C_2
REMARK    2  A    between atoms: C_1  and  C_8
REMARK    3  A    between atoms: C_5  and  C_11
REMARK    4  A    between atoms: C_7  and  C_15
REMARK                            x       y       z     vdW  Elec       q    Type
REMARK                         _______ _______ _______ _____ _____    ______ ____
ROOT
ATOM      1  C   UNL A   1     -27.064  -0.119  28.608  0.00  0.00    -0.010 A 
ATOM      2  C   UNL A   1     -25.765  -0.390  29.036  0.00  0.00    -0.004 A 
ATOM      3  C   UNL A   1     -24.552   0.406  28.765  0.00  0.00    +0.004 A 
ATOM      4  C   UNL A   1     -24.696   1.448  27.799  0.00  0.00    +0.057 A 
ATOM      5  C   UNL A   1     -25.976   1.725  27.308  0.00  0.00    +0.008 A 
ATOM      6  C   UNL A   1     -27.072   1.013  27.654  0.00  0.00    +0.047 A 
ENDROOT
BRANCH   4   7
ATOM      7  C   UNL A   1     -23.499   2.236  27.502  0.00  0.00    +0.284 C 
ATOM      8  N   UNL A   1     -23.610   3.172  26.623  0.00  0.00    -0.084 NA
ATOM      9  O   UNL A   1     -22.332   1.915  27.887  0.00  0.00    -0.267 OA
ENDBRANCH   4   7
BRANCH   6  10
ATOM     10  C   UNL A   1     -28.384   1.286  27.049  0.00  0.00    +0.253 C 
ATOM     11 CL   UNL A   1     -28.767   1.313  26.094  0.00  0.00    -0.038 Cl
ATOM     12  O   UNL A   1     -29.259   1.445  28.237  0.00  0.00    -0.274 OA
ENDBRANCH   6  10
BRANCH   1  13
ATOM     13  C   UNL A   1     -28.016  -0.814  28.878  0.00  0.00    +0.130 C 
BRANCH  13  14
ATOM     14  C   UNL A   1     -28.618  -0.469  30.221  0.00  0.00    +0.402 C 
ATOM     15  F   UNL A   1     -28.402   0.444  30.799  0.00  0.00    -0.170 F 
ATOM     16  F   UNL A   1     -30.029  -0.806  30.199  0.00  0.00    -0.170 F 
ATOM     17  F   UNL A   1     -28.153  -1.629  31.040  0.00  0.00    -0.170 F 
ENDBRANCH  13  14
ENDBRANCH   1  13
TORSDOF 4
