REMARK  Name = outputs/IAG933/test6/raw/output_7961_IAG933_linker_design_.xyz
REMARK  9 active torsions:
REMARK  status: ('A' for Active; 'I' for Inactive)
REMARK    1  A    between atoms: C_1  and  C_2
REMARK    2  A    between atoms: C_13  and  C_35
REMARK    3  A    between atoms: C_14  and  C_15
REMARK    4  A    between atoms: C_21  and  O_22
REMARK    5  A    between atoms: O_22  and  C_23
REMARK    6  A    between atoms: C_23  and  C_24
REMARK    7  A    between atoms: C_30  and  N_33
REMARK    8  A    between atoms: C_35  and  N_37
REMARK    9  A    between atoms: C_39  and  C_40
REMARK                            x       y       z     vdW  Elec       q    Type
REMARK                         _______ _______ _______ _____ _____    ______ ____
ROOT
ATOM      1  C   UNL A   1     -23.434   0.174  28.516  0.00  0.00    +0.124 C 
ATOM      2  C   UNL A   1     -21.504   1.482  27.417  0.00  0.00    +0.208 C 
ATOM      3  O   UNL A   1     -19.763   0.239  28.780  0.00  0.00    -0.220 OA
ATOM      4  O   UNL A   1     -20.339   2.419  27.215  0.00  0.00    -0.218 OA
ATOM      5  N   UNL A   1     -23.632   1.134  27.523  0.00  0.00    -0.247 NA
ATOM      6  C   UNL A   1     -21.980  -0.173  29.099  0.00  0.00    +0.069 C 
ATOM      7  C   UNL A   1     -22.717   1.513  26.762  0.00  0.00    +0.196 C 
ATOM      8  C   UNL A   1     -20.930   0.180  28.162  0.00  0.00    +0.187 C 
ENDROOT
BRANCH   1  17
ATOM      9  C   UNL A   1     -24.855  -1.012  30.143  0.00  0.00    +0.099 C 
ATOM     10  C   UNL A   1     -25.387  -0.679  31.571  0.00  0.00    +0.092 C 
ATOM     11  C   UNL A   1     -25.189   0.773  32.028  0.00  0.00    +0.023 C 
ATOM     12  C   UNL A   1     -25.336   0.684  33.544  0.00  0.00    +0.020 C 
ATOM     13  C   UNL A   1     -24.829  -0.715  33.905  0.00  0.00    +0.089 C 
ATOM     14  N   UNL A   1     -24.758  -1.481  32.646  0.00  0.00    -0.218 NA
ATOM     15  C   UNL A   1     -24.735   1.695  29.850  0.00  0.00    +0.214 C 
ATOM     16  O   UNL A   1     -26.051   1.883  29.335  0.00  0.00    -0.205 OA
ATOM     17  N   UNL A   1     -24.461   0.278  29.589  0.00  0.00    -0.233 NA
ATOM     18  C   UNL A   1     -24.387   1.857  31.304  0.00  0.00    +0.052 C 
BRANCH   9  19
ATOM     19  C   UNL A   1     -24.973  -2.505  29.788  0.00  0.00    -0.006 C 
ATOM     20  C   UNL A   1     -23.906  -3.173  29.146  0.00  0.00    -0.003 C 
ATOM     21  C   UNL A   1     -23.989  -4.549  28.853  0.00  0.00    -0.000 C 
ATOM     22  C   UNL A   1     -25.137  -5.280  29.205  0.00  0.00    -0.000 C 
ATOM     23  C   UNL A   1     -26.232  -4.611  29.784  0.00  0.00    -0.000 C 
ATOM     24  C   UNL A   1     -26.155  -3.232  30.065  0.00  0.00    -0.003 C 
ENDBRANCH   9  19
ENDBRANCH   1  17
BRANCH   7  26
ATOM     25  O   UNL A   1     -23.466   3.320  25.082  0.00  0.00    -0.244 OA
ATOM     26  C   UNL A   1     -23.042   1.978  25.438  0.00  0.00    +0.382 C 
ATOM     27  O   UNL A   1     -23.015   1.147  24.455  0.00  0.00    -0.244 OA
ENDBRANCH   7  26
BRANCH   5  28
ATOM     28  C   UNL A   1     -24.401   1.263  27.176  0.00  0.00    +0.103 C 
BRANCH  28  29
ATOM     29  C   UNL A   1     -25.688   1.614  26.461  0.00  0.00    +0.032 C 
ATOM     30  C   UNL A   1     -26.250   2.920  26.395  0.00  0.00    +0.074 C 
ATOM     31  C   UNL A   1     -27.438   3.091  25.645  0.00  0.00    +0.106 C 
ATOM     32  N   UNL A   1     -28.075   2.089  25.003  0.00  0.00    -0.208 NA
ATOM     33  C   UNL A   1     -27.543   0.849  25.079  0.00  0.00    +0.253 C 
ATOM     34  C   UNL A   1     -26.354   0.576  25.777  0.00  0.00    +0.190 C 
ATOM     35  F   UNL A   1     -25.860  -0.681  25.795  0.00  0.00    -0.200 F 
BRANCH  30  36
ATOM     36  C   UNL A   1     -25.642   4.093  27.123  0.00  0.00    +0.266 C 
ATOM     37  N   UNL A   1     -25.614   5.252  26.449  0.00  0.00    -0.200 NA
ATOM     38  C   UNL A   1     -25.026   6.479  26.963  0.00  0.00    +0.139 C 
ATOM     39  O   UNL A   1     -25.143   3.966  28.243  0.00  0.00    -0.268 OA
ENDBRANCH  30  36
BRANCH  33  40
ATOM     40  O   UNL A   1     -28.193  -0.208  24.477  0.00  0.00    -0.456 OA
BRANCH  40  41
ATOM     41  C   UNL A   1     -29.460   0.005  23.866  0.00  0.00    +0.243 C 
BRANCH  41  42
ATOM     42  C   UNL A   1     -30.065  -1.377  23.573  0.00  0.00    +0.229 C 
ATOM     43  O   UNL A   1     -30.729  -1.878  24.721  0.00  0.00    -0.216 OA
ENDBRANCH  41  42
ENDBRANCH  40  41
ENDBRANCH  33  40
ENDBRANCH  28  29
ENDBRANCH   5  28
TORSDOF 9
