REMARK  Name = outputs/IAG933/test6/raw/output_7963_IAG933_linker_design_.xyz
REMARK  14 active torsions:
REMARK  status: ('A' for Active; 'I' for Inactive)
REMARK    1  A    between atoms: C_1  and  C_2
REMARK    2  A    between atoms: C_1  and  C_8
REMARK    3  A    between atoms: C_1  and  C_31
REMARK    4  A    between atoms: C_14  and  C_15
REMARK    5  A    between atoms: C_15  and  O_18
REMARK    6  A    between atoms: O_18  and  C_33
REMARK    7  A    between atoms: C_21  and  O_22
REMARK    8  A    between atoms: O_22  and  C_23
REMARK    9  A    between atoms: C_23  and  C_24
REMARK   10  A    between atoms: N_28  and  C_32
REMARK   11  A    between atoms: C_30  and  C_33
REMARK   12  A    between atoms: C_35  and  C_40
REMARK   13  A    between atoms: C_37  and  C_43
REMARK   14  A    between atoms: O_38  and  C_40
REMARK                            x       y       z     vdW  Elec       q    Type
REMARK                         _______ _______ _______ _____ _____    ______ ____
ROOT
ATOM      1  N   UNL A   1     -24.915   2.144  29.956  0.00  0.00    -0.215 NA
ATOM      2  C   UNL A   1     -25.472   3.380  29.359  0.00  0.00    +0.207 C 
ENDROOT
BRANCH   2   4
ATOM      3  C   UNL A   1     -28.824   4.791  31.975  0.00  0.00    +0.000 C 
ATOM      4  C   UNL A   1     -26.463   4.133  30.182  0.00  0.00    +0.079 C 
ATOM      5  C   UNL A   1     -27.280   5.240  32.230  0.00  0.00    +0.001 C 
ATOM      6  C   UNL A   1     -27.888   3.659  29.598  0.00  0.00    +0.038 C 
ATOM      7  C   UNL A   1     -26.293   4.092  31.736  0.00  0.00    +0.009 C 
ATOM      8  C   UNL A   1     -29.021   4.500  30.371  0.00  0.00    +0.003 C 
BRANCH   6   9
ATOM      9  C   UNL A   1     -28.197   2.052  29.680  0.00  0.00    +0.143 C 
BRANCH   9  11
ATOM     10  C   UNL A   1     -28.832  -0.258  29.319  0.00  0.00    +0.174 C 
ATOM     11  O   UNL A   1     -27.645   0.591  29.297  0.00  0.00    -0.351 OA
ENDBRANCH   9  11
ENDBRANCH   6   9
ENDBRANCH   2   4
BRANCH   1  13
ATOM     12  C   UNL A   1     -23.865  -0.126  29.472  0.00  0.00    +0.001 C 
ATOM     13  C   UNL A   1     -23.995   1.319  29.296  0.00  0.00    +0.081 C 
ATOM     14  C   UNL A   1     -22.466   1.216  27.382  0.00  0.00    +0.044 C 
ATOM     15  C   UNL A   1     -22.818  -0.690  28.786  0.00  0.00    -0.002 C 
ATOM     16  C   UNL A   1     -22.177  -0.080  27.768  0.00  0.00    +0.008 C 
ATOM     17  C   UNL A   1     -23.195   1.907  28.344  0.00  0.00    +0.027 C 
BRANCH  14  18
ATOM     18  C   UNL A   1     -22.177   1.662  26.148  0.00  0.00    -0.051 C 
ATOM     19  C   UNL A   1     -22.205   2.129  24.959  0.00  0.00    -0.009 C 
ENDBRANCH  14  18
BRANCH  12  20
ATOM     20  C   UNL A   1     -24.855  -1.012  30.143  0.00  0.00    +0.062 C 
BRANCH  20  21
ATOM     21  C   UNL A   1     -24.973  -2.505  29.788  0.00  0.00    -0.017 C 
ATOM     22  C   UNL A   1     -23.906  -3.173  29.146  0.00  0.00    -0.004 C 
ATOM     23  C   UNL A   1     -23.989  -4.549  28.853  0.00  0.00    -0.000 C 
ATOM     24  C   UNL A   1     -25.137  -5.280  29.205  0.00  0.00    -0.000 C 
ATOM     25  C   UNL A   1     -26.232  -4.611  29.784  0.00  0.00    -0.000 C 
ATOM     26  C   UNL A   1     -26.155  -3.232  30.065  0.00  0.00    -0.004 C 
ENDBRANCH  20  21
BRANCH  20  27
ATOM     27  C   UNL A   1     -25.387  -0.679  31.571  0.00  0.00    +0.081 C 
ATOM     28  C   UNL A   1     -25.189   0.773  32.028  0.00  0.00    +0.019 C 
ATOM     29  C   UNL A   1     -25.336   0.684  33.544  0.00  0.00    +0.020 C 
ATOM     30  C   UNL A   1     -24.829  -0.715  33.905  0.00  0.00    +0.089 C 
ATOM     31  N   UNL A   1     -24.758  -1.481  32.646  0.00  0.00    -0.219 NA
ENDBRANCH  20  27
ENDBRANCH  12  20
ENDBRANCH   1  13
BRANCH   2  32
ATOM     32  O   UNL A   1     -25.143   3.966  28.243  0.00  0.00    -0.423 OA
BRANCH  32  33
ATOM     33  C   UNL A   1     -25.642   4.093  27.123  0.00  0.00    +0.228 C 
ATOM     34  N   UNL A   1     -25.614   5.252  26.449  0.00  0.00    -0.235 NA
ATOM     35  C   UNL A   1     -25.026   6.479  26.963  0.00  0.00    +0.155 C 
BRANCH  33  37
ATOM     36  C   UNL A   1     -25.688   1.614  26.461  0.00  0.00    +0.041 C 
ATOM     37  C   UNL A   1     -26.250   2.920  26.395  0.00  0.00    +0.075 C 
ATOM     38  C   UNL A   1     -27.438   3.091  25.645  0.00  0.00    +0.107 C 
ATOM     39  N   UNL A   1     -28.075   2.089  25.003  0.00  0.00    -0.208 NA
ATOM     40  C   UNL A   1     -27.543   0.849  25.079  0.00  0.00    +0.253 C 
ATOM     41  C   UNL A   1     -26.354   0.576  25.777  0.00  0.00    +0.193 C 
ATOM     42  F   UNL A   1     -25.860  -0.681  25.795  0.00  0.00    -0.199 F 
BRANCH  40  43
ATOM     43  O   UNL A   1     -28.193  -0.208  24.477  0.00  0.00    -0.456 OA
BRANCH  43  44
ATOM     44  C   UNL A   1     -29.460   0.005  23.866  0.00  0.00    +0.243 C 
BRANCH  44  45
ATOM     45  C   UNL A   1     -30.065  -1.377  23.573  0.00  0.00    +0.229 C 
ATOM     46  O   UNL A   1     -30.729  -1.878  24.721  0.00  0.00    -0.216 OA
ENDBRANCH  44  45
ENDBRANCH  43  44
ENDBRANCH  40  43
ENDBRANCH  33  37
ENDBRANCH  32  33
ENDBRANCH   2  32
TORSDOF 14
