REMARK  Name = outputs/IAG933/test6/raw/output_7964_IAG933_linker_design_.xyz
REMARK  13 active torsions:
REMARK  status: ('A' for Active; 'I' for Inactive)
REMARK    1  A    between atoms: C_1  and  C_2
REMARK    2  A    between atoms: C_1  and  C_8
REMARK    3  A    between atoms: C_1  and  O_29
REMARK    4  A    between atoms: C_14  and  C_15
REMARK    5  A    between atoms: C_15  and  O_18
REMARK    6  A    between atoms: O_18  and  C_31
REMARK    7  A    between atoms: C_21  and  O_22
REMARK    8  A    between atoms: O_22  and  C_23
REMARK    9  A    between atoms: C_23  and  C_24
REMARK   10  A    between atoms: O_29  and  C_36
REMARK   11  A    between atoms: C_31  and  O_38
REMARK   12  A    between atoms: C_31  and  C_42
REMARK   13  A    between atoms: C_34  and  O_38
REMARK                            x       y       z     vdW  Elec       q    Type
REMARK                         _______ _______ _______ _____ _____    ______ ____
ROOT
ATOM      1  C   UNL A   1     -25.944   3.280  29.227  0.00  0.00    +0.367 C 
ENDROOT
BRANCH   1   6
ATOM      2  C   UNL A   1     -26.173   5.327  33.441  0.00  0.00    -0.021 C 
ATOM      3  C   UNL A   1     -27.625   3.834  31.026  0.00  0.00    -0.001 C 
ATOM      4  C   UNL A   1     -27.438   4.712  33.391  0.00  0.00    +0.052 C 
ATOM      5  C   UNL A   1     -25.235   5.427  32.410  0.00  0.00    -0.004 C 
ATOM      6  C   UNL A   1     -26.294   4.088  30.500  0.00  0.00    +0.061 C 
ATOM      7  C   UNL A   1     -28.128   4.167  32.292  0.00  0.00    -0.021 C 
ATOM      8  C   UNL A   1     -25.295   4.848  31.149  0.00  0.00    +0.003 C 
ENDBRANCH   1   6
BRANCH   1   9
ATOM      9  O   UNL A   1     -25.143   3.966  28.243  0.00  0.00    -0.423 OA
BRANCH   9  10
ATOM     10  C   UNL A   1     -25.642   4.093  27.123  0.00  0.00    +0.225 C 
ATOM     11  N   UNL A   1     -25.614   5.252  26.449  0.00  0.00    -0.236 NA
ATOM     12  C   UNL A   1     -25.026   6.479  26.963  0.00  0.00    +0.155 C 
BRANCH  10  14
ATOM     13  C   UNL A   1     -25.688   1.614  26.461  0.00  0.00    +0.041 C 
ATOM     14  C   UNL A   1     -26.250   2.920  26.395  0.00  0.00    +0.074 C 
ATOM     15  C   UNL A   1     -27.438   3.091  25.645  0.00  0.00    +0.107 C 
ATOM     16  N   UNL A   1     -28.075   2.089  25.003  0.00  0.00    -0.208 NA
ATOM     17  C   UNL A   1     -27.543   0.849  25.079  0.00  0.00    +0.253 C 
ATOM     18  C   UNL A   1     -26.354   0.576  25.777  0.00  0.00    +0.193 C 
ATOM     19  F   UNL A   1     -25.860  -0.681  25.795  0.00  0.00    -0.199 F 
BRANCH  17  20
ATOM     20  O   UNL A   1     -28.193  -0.208  24.477  0.00  0.00    -0.456 OA
BRANCH  20  21
ATOM     21  C   UNL A   1     -29.460   0.005  23.866  0.00  0.00    +0.243 C 
BRANCH  21  22
ATOM     22  C   UNL A   1     -30.065  -1.377  23.573  0.00  0.00    +0.229 C 
ATOM     23  O   UNL A   1     -30.729  -1.878  24.721  0.00  0.00    -0.216 OA
ENDBRANCH  21  22
ENDBRANCH  20  21
ENDBRANCH  17  20
ENDBRANCH  10  14
ENDBRANCH   9  10
ENDBRANCH   1   9
BRANCH   1  24
ATOM     24  O   UNL A   1     -25.215   1.968  29.353  0.00  0.00    -0.437 OA
BRANCH  24  29
ATOM     25  C   UNL A   1     -21.819   0.370  28.822  0.00  0.00    +0.042 C 
ATOM     26  C   UNL A   1     -23.321   2.393  27.634  0.00  0.00    +0.070 C 
ATOM     27  C   UNL A   1     -22.089   2.005  27.085  0.00  0.00    +0.143 C 
ATOM     28  C   UNL A   1     -21.276   1.081  27.726  0.00  0.00    +0.033 C 
ATOM     29  C   UNL A   1     -23.919   1.699  28.739  0.00  0.00    +0.179 C 
ATOM     30  F   UNL A   1     -21.678   2.472  25.884  0.00  0.00    -0.204 F 
ATOM     31  C   UNL A   1     -23.172   0.615  29.228  0.00  0.00    +0.173 C 
BRANCH  31  32
ATOM     32  O   UNL A   1     -23.729  -0.221  30.131  0.00  0.00    -0.470 OA
BRANCH  32  33
ATOM     33  C   UNL A   1     -24.855  -1.012  30.143  0.00  0.00    +0.204 C 
BRANCH  33  34
ATOM     34  C   UNL A   1     -24.973  -2.505  29.788  0.00  0.00    +0.019 C 
ATOM     35  C   UNL A   1     -23.906  -3.173  29.146  0.00  0.00    -0.001 C 
ATOM     36  C   UNL A   1     -23.989  -4.549  28.853  0.00  0.00    -0.000 C 
ATOM     37  C   UNL A   1     -25.137  -5.280  29.205  0.00  0.00    -0.000 C 
ATOM     38  C   UNL A   1     -26.232  -4.611  29.784  0.00  0.00    -0.000 C 
ATOM     39  C   UNL A   1     -26.155  -3.232  30.065  0.00  0.00    -0.001 C 
ENDBRANCH  33  34
BRANCH  33  40
ATOM     40  C   UNL A   1     -25.387  -0.679  31.571  0.00  0.00    +0.117 C 
ATOM     41  C   UNL A   1     -25.189   0.773  32.028  0.00  0.00    +0.023 C 
ATOM     42  C   UNL A   1     -25.336   0.684  33.544  0.00  0.00    +0.020 C 
ATOM     43  C   UNL A   1     -24.829  -0.715  33.905  0.00  0.00    +0.089 C 
ATOM     44  N   UNL A   1     -24.758  -1.481  32.646  0.00  0.00    -0.215 NA
ENDBRANCH  33  40
ENDBRANCH  32  33
ENDBRANCH  31  32
ENDBRANCH  24  29
ENDBRANCH   1  24
TORSDOF 13
