REMARK  Name = outputs/IAG933/test6/raw/output_7966_IAG933_linker_design_.xyz
REMARK  17 active torsions:
REMARK  status: ('A' for Active; 'I' for Inactive)
REMARK    1  A    between atoms: C_1  and  C_2
REMARK    2  A    between atoms: C_1  and  C_8
REMARK    3  A    between atoms: C_1  and  N_40
REMARK    4  A    between atoms: C_13  and  C_36
REMARK    5  A    between atoms: C_14  and  C_15
REMARK    6  A    between atoms: C_21  and  O_22
REMARK    7  A    between atoms: O_22  and  C_23
REMARK    8  A    between atoms: C_23  and  C_24
REMARK    9  A    between atoms: C_28  and  C_29
REMARK   10  A    between atoms: C_29  and  C_41
REMARK   11  A    between atoms: C_34  and  O_38
REMARK   12  A    between atoms: C_37  and  N_40
REMARK   13  A    between atoms: C_37  and  C_41
REMARK   14  A    between atoms: O_38  and  C_44
REMARK   15  A    between atoms: C_39  and  C_44
REMARK   16  A    between atoms: N_40  and  C_42
REMARK   17  A    between atoms: C_43  and  C_44
REMARK                            x       y       z     vdW  Elec       q    Type
REMARK                         _______ _______ _______ _____ _____    ______ ____
ROOT
ATOM      1  C   UNL A   1     -24.541   1.274  27.306  0.00  0.00    +0.044 C 
ATOM      2  C   UNL A   1     -24.543   0.787  28.770  0.00  0.00    +0.065 C 
ATOM      3  C   UNL A   1     -23.606   1.818  28.159  0.00  0.00    +0.060 C 
ENDROOT
BRANCH   1   4
ATOM      4  C   UNL A   1     -25.688   1.614  26.461  0.00  0.00    +0.017 C 
ATOM      5  C   UNL A   1     -26.250   2.920  26.395  0.00  0.00    +0.073 C 
ATOM      6  C   UNL A   1     -27.438   3.091  25.645  0.00  0.00    +0.106 C 
ATOM      7  N   UNL A   1     -28.075   2.089  25.003  0.00  0.00    -0.208 NA
ATOM      8  C   UNL A   1     -27.543   0.849  25.079  0.00  0.00    +0.253 C 
ATOM      9  C   UNL A   1     -26.354   0.576  25.777  0.00  0.00    +0.189 C 
ATOM     10  F   UNL A   1     -25.860  -0.681  25.795  0.00  0.00    -0.200 F 
BRANCH   5  11
ATOM     11  C   UNL A   1     -25.642   4.093  27.123  0.00  0.00    +0.266 C 
ATOM     12  N   UNL A   1     -25.614   5.252  26.449  0.00  0.00    -0.200 NA
ATOM     13  C   UNL A   1     -25.026   6.479  26.963  0.00  0.00    +0.139 C 
ATOM     14  O   UNL A   1     -25.143   3.966  28.243  0.00  0.00    -0.268 OA
ENDBRANCH   5  11
BRANCH   8  15
ATOM     15  O   UNL A   1     -28.193  -0.208  24.477  0.00  0.00    -0.456 OA
BRANCH  15  16
ATOM     16  C   UNL A   1     -29.460   0.005  23.866  0.00  0.00    +0.243 C 
BRANCH  16  17
ATOM     17  C   UNL A   1     -30.065  -1.377  23.573  0.00  0.00    +0.229 C 
ATOM     18  O   UNL A   1     -30.729  -1.878  24.721  0.00  0.00    -0.216 OA
ENDBRANCH  16  17
ENDBRANCH  15  16
ENDBRANCH   8  15
ENDBRANCH   1   4
BRANCH   3  19
ATOM     19  C   UNL A   1     -22.290   1.118  27.853  0.00  0.00    +0.238 C 
BRANCH  19  22
ATOM     20  O   UNL A   1     -20.053   0.184  28.199  0.00  0.00    -0.243 OA
ATOM     21  O   UNL A   1     -22.039  -0.503  29.429  0.00  0.00    -0.243 OA
ATOM     22  C   UNL A   1     -21.440   0.227  28.504  0.00  0.00    +0.393 C 
ENDBRANCH  19  22
BRANCH  19  23
ATOM     23  O   UNL A   1     -21.660   1.760  26.808  0.00  0.00    -0.255 OA
BRANCH  23  25
ATOM     24  N   UNL A   1     -23.068   2.433  24.962  0.00  0.00    -0.164 NA
ATOM     25  C   UNL A   1     -22.438   2.084  25.858  0.00  0.00    +0.229 C 
ENDBRANCH  23  25
ENDBRANCH  19  23
ENDBRANCH   3  19
BRANCH   2  26
ATOM     26  N   UNL A   1     -25.464  -0.071  29.190  0.00  0.00    -0.270 NA
BRANCH  26  27
ATOM     27  C   UNL A   1     -24.855  -1.012  30.143  0.00  0.00    +0.096 C 
BRANCH  27  28
ATOM     28  C   UNL A   1     -24.973  -2.505  29.788  0.00  0.00    -0.006 C 
ATOM     29  C   UNL A   1     -23.906  -3.173  29.146  0.00  0.00    -0.003 C 
ATOM     30  C   UNL A   1     -23.989  -4.549  28.853  0.00  0.00    -0.000 C 
ATOM     31  C   UNL A   1     -25.137  -5.280  29.205  0.00  0.00    -0.000 C 
ATOM     32  C   UNL A   1     -26.232  -4.611  29.784  0.00  0.00    -0.000 C 
ATOM     33  C   UNL A   1     -26.155  -3.232  30.065  0.00  0.00    -0.003 C 
ENDBRANCH  27  28
BRANCH  27  34
ATOM     34  C   UNL A   1     -25.387  -0.679  31.571  0.00  0.00    +0.092 C 
ATOM     35  C   UNL A   1     -25.189   0.773  32.028  0.00  0.00    +0.021 C 
ATOM     36  C   UNL A   1     -25.336   0.684  33.544  0.00  0.00    +0.020 C 
ATOM     37  C   UNL A   1     -24.829  -0.715  33.905  0.00  0.00    +0.089 C 
ATOM     38  N   UNL A   1     -24.758  -1.481  32.646  0.00  0.00    -0.218 NA
ENDBRANCH  27  34
ENDBRANCH  26  27
BRANCH  26  39
ATOM     39  C   UNL A   1     -26.834  -0.319  28.840  0.00  0.00    +0.073 C 
BRANCH  39  40
ATOM     40  C   UNL A   1     -27.771   0.847  28.865  0.00  0.00    +0.022 C 
BRANCH  40  41
ATOM     41  C   UNL A   1     -27.574   1.969  29.886  0.00  0.00    +0.031 C 
BRANCH  41  42
ATOM     42  C   UNL A   1     -28.719   2.238  30.896  0.00  0.00    +0.019 C 
ATOM     43  C   UNL A   1     -28.598   3.481  31.797  0.00  0.00    +0.230 C 
ATOM     44  O   UNL A   1     -29.431   3.516  32.949  0.00  0.00    -0.283 OA
ENDBRANCH  41  42
ENDBRANCH  40  41
ENDBRANCH  39  40
ENDBRANCH  26  39
ENDBRANCH   2  26
TORSDOF 17
