MODEL 796
MODEL 1
REMARK VINA RESULT:    -6.100      0.000      0.000
REMARK INTER + INTRA:          -7.865
REMARK INTER:                  -7.527
REMARK INTRA:                  -0.339
REMARK UNBOUND:                -0.339
REMARK  Name = No_796-gen_results/8p0m/2024-11-27-11-27-31/
REMARK  4 active torsions:
REMARK  status: ('A' for Active; 'I' for Inactive)
REMARK    1  A    between atoms: C_1  and  C_2
REMARK    2  A    between atoms: C_1  and  C_8
REMARK    3  A    between atoms: C_5  and  C_11
REMARK    4  A    between atoms: C_7  and  C_15
REMARK                            x       y       z     vdW  Elec       q    Type
REMARK                         _______ _______ _______ _____ _____    ______ ____
ROOT
ATOM      1  C   UNL A   1     -25.179   0.809  26.564  0.00  0.00    -0.010 A 
ATOM      2  C   UNL A   1     -25.183  -0.372  27.304  0.00  0.00    -0.004 A 
ATOM      3  C   UNL A   1     -24.183  -0.805  28.300  0.00  0.00    +0.004 A 
ATOM      4  C   UNL A   1     -22.989  -0.023  28.361  0.00  0.00    +0.057 A 
ATOM      5  C   UNL A   1     -22.924   1.148  27.600  0.00  0.00    +0.008 A 
ATOM      6  C   UNL A   1     -23.908   1.543  26.761  0.00  0.00    +0.047 A 
ENDROOT
BRANCH   4   7
ATOM      7  C   UNL A   1     -21.976  -0.448  29.328  0.00  0.00    +0.284 C 
ATOM      8  N   UNL A   1     -20.853  -0.874  28.861  0.00  0.00    -0.084 NA
ATOM      9  O   UNL A   1     -22.214  -0.626  30.563  0.00  0.00    -0.267 OA
ENDBRANCH   4   7
BRANCH   6  10
ATOM     10  C   UNL A   1     -23.761   2.738  25.917  0.00  0.00    +0.253 C 
ATOM     11 CL   UNL A   1     -24.179   3.678  25.887  0.00  0.00    -0.038 Cl
ATOM     12  O   UNL A   1     -22.647   2.358  25.013  0.00  0.00    -0.274 OA
ENDBRANCH   6  10
BRANCH   1  13
ATOM     13  C   UNL A   1     -26.041   1.104  25.769  0.00  0.00    +0.130 C 
BRANCH  13  14
ATOM     14  C   UNL A   1     -26.147   0.105  24.639  0.00  0.00    +0.402 C 
ATOM     15  F   UNL A   1     -26.367  -0.968  24.757  0.00  0.00    -0.170 F 
ATOM     16  F   UNL A   1     -26.877   0.717  23.545  0.00  0.00    -0.170 F 
ATOM     17  F   UNL A   1     -24.780   0.212  24.046  0.00  0.00    -0.170 F 
ENDBRANCH  13  14
ENDBRANCH   1  13
TORSDOF 4
ENDMDL
ENDMDL
