REMARK  Name = No_797-gen_results/8p0m/2024-11-27-11-27-31/
REMARK  4 active torsions:
REMARK  status: ('A' for Active; 'I' for Inactive)
REMARK    1  A    between atoms: C_2  and  O_7
REMARK    2  A    between atoms: O_7  and  C_8
REMARK    3  A    between atoms: C_8  and  C_9
REMARK    4  A    between atoms: C_9  and  C_10
REMARK                            x       y       z     vdW  Elec       q    Type
REMARK                         _______ _______ _______ _____ _____    ______ ____
ROOT
ATOM      1  C   UNL A   1     -26.616   1.899  27.627  0.00  0.00    +0.170 C 
ATOM      2  C   UNL A   1     -27.474   3.154  27.359  0.00  0.00    +0.048 C 
ENDROOT
BRANCH   1   3
ATOM      3  O   UNL A   1     -27.123   1.023  27.850  0.00  0.00    -0.479 OA
BRANCH   3   5
ATOM      4  C   UNL A   1     -28.016  -0.814  28.878  0.00  0.00    +0.037 A 
ATOM      5  C   UNL A   1     -27.064  -0.119  28.608  0.00  0.00    +0.138 A 
ATOM      6  C   UNL A   1     -25.792  -0.430  29.076  0.00  0.00    +0.037 A 
ATOM      7  C   UNL A   1     -25.576  -1.565  29.936  0.00  0.00    +0.003 A 
ATOM      8  C   UNL A   1     -26.735  -2.300  30.217  0.00  0.00    +0.000 A 
ATOM      9  C   UNL A   1     -27.918  -1.954  29.763  0.00  0.00    +0.003 A 
ENDBRANCH   3   5
ENDBRANCH   1   3
BRANCH   1  10
ATOM     10  C   UNL A   1     -25.410   1.829  26.787  0.00  0.00    +0.071 C 
BRANCH  10  11
ATOM     11  C   UNL A   1     -24.208   1.552  27.467  0.00  0.00    +0.001 A 
ATOM     12  C   UNL A   1     -23.479   2.725  28.052  0.00  0.00    +0.095 A 
ATOM     13  C   UNL A   1     -23.637   0.266  27.500  0.00  0.00    -0.001 A 
ATOM     14  C   UNL A   1     -22.319   0.428  28.296  0.00  0.00    +0.020 A 
ATOM     15  N   UNL A   1     -22.332   2.575  28.747  0.00  0.00    -0.243 NA
ATOM     16  C   UNL A   1     -21.776   1.445  28.877  0.00  0.00    +0.099 A 
ENDBRANCH  10  11
ENDBRANCH   1  10
TORSDOF 4
