REMARK  Name = outputs/IAG933/test6/raw/output_7978_IAG933_linker_design_.xyz
REMARK  9 active torsions:
REMARK  status: ('A' for Active; 'I' for Inactive)
REMARK    1  A    between atoms: C_1  and  C_2
REMARK    2  A    between atoms: C_1  and  C_8
REMARK    3  A    between atoms: C_1  and  N_41
REMARK    4  A    between atoms: C_13  and  C_29
REMARK    5  A    between atoms: C_14  and  C_15
REMARK    6  A    between atoms: C_21  and  O_22
REMARK    7  A    between atoms: O_22  and  C_23
REMARK    8  A    between atoms: C_23  and  C_24
REMARK    9  A    between atoms: C_40  and  N_41
REMARK                            x       y       z     vdW  Elec       q    Type
REMARK                         _______ _______ _______ _____ _____    ______ ____
ROOT
ATOM      1  C   UNL A   1     -24.324   1.437  26.949  0.00  0.00    +0.068 C 
ATOM      2  C   UNL A   1     -21.883   1.894  26.679  0.00  0.00    +0.031 C 
ATOM      3  C   UNL A   1     -21.617   1.202  27.845  0.00  0.00    +0.024 C 
ATOM      4  F   UNL A   1     -23.449   2.618  25.077  0.00  0.00    -0.204 F 
ATOM      5  N   UNL A   1     -22.358  -0.067  29.892  0.00  0.00    -0.124 NA
ATOM      6  C   UNL A   1     -23.248   1.969  26.209  0.00  0.00    +0.143 C 
ATOM      7  C   UNL A   1     -24.028   0.701  28.188  0.00  0.00    +0.158 C 
ATOM      8  C   UNL A   1     -22.701   0.634  28.558  0.00  0.00    +0.126 C 
ENDROOT
BRANCH   7  15
ATOM      9  C   UNL A   1     -27.866   2.479  29.183  0.00  0.00    +0.342 C 
ATOM     10  C   UNL A   1     -28.923   0.372  28.582  0.00  0.00    +0.089 C 
ATOM     11  C   UNL A   1     -27.593  -0.166  28.294  0.00  0.00    +0.135 C 
ATOM     12  C   UNL A   1     -26.578   0.546  29.000  0.00  0.00    +0.302 C 
ATOM     13  N   UNL A   1     -26.663   1.848  29.380  0.00  0.00    -0.050 NA
ATOM     14  C   UNL A   1     -30.345   2.387  29.296  0.00  0.00    +0.093 C 
ATOM     15  N   UNL A   1     -25.116  -0.049  28.876  0.00  0.00    -0.171 N 
ATOM     16  N   UNL A   1     -28.996   1.750  29.008  0.00  0.00    -0.226 NA
BRANCH  15  17
ATOM     17  C   UNL A   1     -24.855  -1.012  30.143  0.00  0.00    +0.203 C 
BRANCH  17  18
ATOM     18  C   UNL A   1     -24.973  -2.505  29.788  0.00  0.00    +0.022 C 
ATOM     19  C   UNL A   1     -23.906  -3.173  29.146  0.00  0.00    -0.000 C 
ATOM     20  C   UNL A   1     -23.989  -4.549  28.853  0.00  0.00    -0.000 C 
ATOM     21  C   UNL A   1     -25.137  -5.280  29.205  0.00  0.00    -0.000 C 
ATOM     22  C   UNL A   1     -26.232  -4.611  29.784  0.00  0.00    -0.000 C 
ATOM     23  C   UNL A   1     -26.155  -3.232  30.065  0.00  0.00    -0.000 C 
ENDBRANCH  17  18
BRANCH  17  24
ATOM     24  C   UNL A   1     -25.387  -0.679  31.571  0.00  0.00    +0.120 C 
ATOM     25  C   UNL A   1     -25.189   0.773  32.028  0.00  0.00    +0.023 C 
ATOM     26  C   UNL A   1     -25.336   0.684  33.544  0.00  0.00    +0.020 C 
ATOM     27  C   UNL A   1     -24.829  -0.715  33.905  0.00  0.00    +0.089 C 
ATOM     28  N   UNL A   1     -24.758  -1.481  32.646  0.00  0.00    -0.215 NA
ENDBRANCH  17  24
ENDBRANCH  15  17
ENDBRANCH   7  15
BRANCH   1  29
ATOM     29  C   UNL A   1     -25.688   1.614  26.461  0.00  0.00    +0.044 C 
ATOM     30  C   UNL A   1     -26.250   2.920  26.395  0.00  0.00    +0.077 C 
ATOM     31  C   UNL A   1     -27.438   3.091  25.645  0.00  0.00    +0.107 C 
ATOM     32  N   UNL A   1     -28.075   2.089  25.003  0.00  0.00    -0.208 NA
ATOM     33  C   UNL A   1     -27.543   0.849  25.079  0.00  0.00    +0.253 C 
ATOM     34  C   UNL A   1     -26.354   0.576  25.777  0.00  0.00    +0.193 C 
ATOM     35  F   UNL A   1     -25.860  -0.681  25.795  0.00  0.00    -0.199 F 
BRANCH  30  36
ATOM     36  C   UNL A   1     -25.642   4.093  27.123  0.00  0.00    +0.266 C 
ATOM     37  N   UNL A   1     -25.614   5.252  26.449  0.00  0.00    -0.200 NA
ATOM     38  C   UNL A   1     -25.026   6.479  26.963  0.00  0.00    +0.139 C 
ATOM     39  O   UNL A   1     -25.143   3.966  28.243  0.00  0.00    -0.268 OA
ENDBRANCH  30  36
BRANCH  33  40
ATOM     40  O   UNL A   1     -28.193  -0.208  24.477  0.00  0.00    -0.456 OA
BRANCH  40  41
ATOM     41  C   UNL A   1     -29.460   0.005  23.866  0.00  0.00    +0.243 C 
BRANCH  41  42
ATOM     42  C   UNL A   1     -30.065  -1.377  23.573  0.00  0.00    +0.229 C 
ATOM     43  O   UNL A   1     -30.729  -1.878  24.721  0.00  0.00    -0.216 OA
ENDBRANCH  41  42
ENDBRANCH  40  41
ENDBRANCH  33  40
ENDBRANCH   1  29
TORSDOF 9
