MODEL 797
MODEL 1
REMARK VINA RESULT:    -6.132      0.000      0.000
REMARK INTER + INTRA:          -8.180
REMARK INTER:                  -7.566
REMARK INTRA:                  -0.614
REMARK UNBOUND:                -0.614
REMARK  Name = No_797-gen_results/8p0m/2024-11-27-11-27-31/
REMARK  4 active torsions:
REMARK  status: ('A' for Active; 'I' for Inactive)
REMARK    1  A    between atoms: C_2  and  O_7
REMARK    2  A    between atoms: O_7  and  C_8
REMARK    3  A    between atoms: C_8  and  C_9
REMARK    4  A    between atoms: C_9  and  C_10
REMARK                            x       y       z     vdW  Elec       q    Type
REMARK                         _______ _______ _______ _____ _____    ______ ____
ROOT
ATOM      1  C   UNL A   1     -24.757  -0.498  30.253  0.00  0.00    +0.170 C 
ATOM      2  C   UNL A   1     -25.092  -0.177  31.725  0.00  0.00    +0.048 C 
ENDROOT
BRANCH   1   3
ATOM      3  O   UNL A   1     -25.228  -1.320  29.833  0.00  0.00    -0.479 OA
BRANCH   3   5
ATOM      4  C   UNL A   1     -24.085  -3.109  28.983  0.00  0.00    +0.037 A 
ATOM      5  C   UNL A   1     -25.060  -2.648  29.530  0.00  0.00    +0.138 A 
ATOM      6  C   UNL A   1     -26.130  -3.458  29.892  0.00  0.00    +0.037 A 
ATOM      7  C   UNL A   1     -26.131  -4.865  29.586  0.00  0.00    +0.003 A 
ATOM      8  C   UNL A   1     -24.975  -5.310  28.932  0.00  0.00    +0.000 A 
ATOM      9  C   UNL A   1     -23.997  -4.500  28.595  0.00  0.00    +0.003 A 
ENDBRANCH   3   5
ENDBRANCH   1   3
BRANCH   1  10
ATOM     10  C   UNL A   1     -24.554   0.703  29.428  0.00  0.00    +0.071 C 
BRANCH  10  11
ATOM     11  C   UNL A   1     -23.297   0.808  28.802  0.00  0.00    +0.001 A 
ATOM     12  C   UNL A   1     -22.195  -0.045  29.357  0.00  0.00    +0.095 A 
ATOM     13  C   UNL A   1     -23.032   1.750  27.790  0.00  0.00    -0.001 A 
ATOM     14  C   UNL A   1     -21.538   1.553  27.434  0.00  0.00    +0.020 A 
ATOM     15  N   UNL A   1     -20.957  -0.045  28.820  0.00  0.00    -0.243 NA
ATOM     16  C   UNL A   1     -20.645   0.729  27.868  0.00  0.00    +0.099 A 
ENDBRANCH  10  11
ENDBRANCH   1  10
TORSDOF 4
ENDMDL
ENDMDL
