REMARK  Name = outputs/IAG933/test6/raw/output_798_IAG933_linker_design_.xyz
REMARK  9 active torsions:
REMARK  status: ('A' for Active; 'I' for Inactive)
REMARK    1  A    between atoms: C_1  and  C_2
REMARK    2  A    between atoms: C_13  and  C_29
REMARK    3  A    between atoms: C_14  and  C_15
REMARK    4  A    between atoms: C_21  and  O_22
REMARK    5  A    between atoms: O_22  and  C_23
REMARK    6  A    between atoms: C_23  and  C_24
REMARK    7  A    between atoms: C_31  and  C_44
REMARK    8  A    between atoms: C_33  and  C_44
REMARK    9  A    between atoms: C_43  and  C_46
REMARK                            x       y       z     vdW  Elec       q    Type
REMARK                         _______ _______ _______ _____ _____    ______ ____
ROOT
ATOM      1  C   UNL A   1     -24.855  -1.012  30.143  0.00  0.00    +0.057 C 
ATOM      2  C   UNL A   1     -25.387  -0.679  31.571  0.00  0.00    +0.080 C 
ATOM      3  C   UNL A   1     -25.189   0.773  32.028  0.00  0.00    +0.034 C 
ATOM      4  C   UNL A   1     -25.336   0.684  33.544  0.00  0.00    +0.022 C 
ATOM      5  C   UNL A   1     -24.829  -0.715  33.905  0.00  0.00    +0.089 C 
ATOM      6  N   UNL A   1     -24.758  -1.481  32.646  0.00  0.00    -0.219 NA
ATOM      7  C   UNL A   1     -24.991   0.051  29.079  0.00  0.00    +0.113 C 
ATOM      8  N   UNL A   1     -25.431   1.385  29.568  0.00  0.00    -0.217 NA
ATOM      9  C   UNL A   1     -25.859   1.773  30.954  0.00  0.00    +0.075 C 
ENDROOT
BRANCH   9  17
ATOM     10  C   UNL A   1     -27.521   4.775  31.090  0.00  0.00    +0.016 C 
ATOM     11  C   UNL A   1     -27.151   3.542  33.204  0.00  0.00    +0.016 C 
ATOM     12  N   UNL A   1     -25.538   5.276  32.717  0.00  0.00    -0.274 NA
ATOM     13  C   UNL A   1     -26.363   4.279  32.080  0.00  0.00    +0.047 C 
ATOM     14  C   UNL A   1     -24.357   4.564  33.126  0.00  0.00    +0.072 C 
ATOM     15  C   UNL A   1     -26.195   6.023  33.831  0.00  0.00    +0.090 C 
ATOM     16  C   UNL A   1     -24.109   3.539  31.939  0.00  0.00    +0.020 C 
ATOM     17  C   UNL A   1     -25.519   3.327  31.197  0.00  0.00    +0.031 C 
ENDBRANCH   9  17
BRANCH   1  18
ATOM     18  C   UNL A   1     -24.973  -2.505  29.788  0.00  0.00    -0.020 C 
ATOM     19  C   UNL A   1     -23.906  -3.173  29.146  0.00  0.00    -0.004 C 
ATOM     20  C   UNL A   1     -23.989  -4.549  28.853  0.00  0.00    -0.000 C 
ATOM     21  C   UNL A   1     -25.137  -5.280  29.205  0.00  0.00    -0.000 C 
ATOM     22  C   UNL A   1     -26.232  -4.611  29.784  0.00  0.00    -0.000 C 
ATOM     23  C   UNL A   1     -26.155  -3.232  30.065  0.00  0.00    -0.004 C 
ENDBRANCH   1  18
BRANCH   7  25
ATOM     24  O   UNL A   1     -22.522   0.021  29.542  0.00  0.00    -0.216 OA
ATOM     25  C   UNL A   1     -23.539   0.109  28.493  0.00  0.00    +0.197 C 
BRANCH  25  28
ATOM     26  O   UNL A   1     -22.194   2.313  25.994  0.00  0.00    -0.324 OA
ATOM     27  C   UNL A   1     -24.232   1.614  26.644  0.00  0.00    +0.108 A 
ATOM     28  C   UNL A   1     -23.384   1.081  27.510  0.00  0.00    +0.092 A 
ATOM     29  N   UNL A   1     -23.545   2.296  25.665  0.00  0.00    -0.078 NA
ATOM     30  F   UNL A   1     -20.968   1.489  27.840  0.00  0.00    -0.161 F 
ATOM     31  C   UNL A   1     -22.109   1.626  27.130  0.00  0.00    +0.313 A 
BRANCH  27  32
ATOM     32  C   UNL A   1     -25.688   1.614  26.461  0.00  0.00    +0.113 C 
ATOM     33  C   UNL A   1     -26.250   2.920  26.395  0.00  0.00    +0.060 C 
ATOM     34  C   UNL A   1     -27.438   3.091  25.645  0.00  0.00    +0.102 C 
ATOM     35  N   UNL A   1     -28.075   2.089  25.003  0.00  0.00    -0.212 NA
ATOM     36  C   UNL A   1     -27.543   0.849  25.079  0.00  0.00    +0.234 C 
ATOM     37  C   UNL A   1     -26.354   0.576  25.777  0.00  0.00    +0.246 C 
ATOM     38  F   UNL A   1     -25.860  -0.681  25.795  0.00  0.00    -0.227 F 
BRANCH  33  39
ATOM     39  C   UNL A   1     -25.642   4.093  27.123  0.00  0.00    +0.263 C 
ATOM     40  N   UNL A   1     -25.614   5.252  26.449  0.00  0.00    -0.200 NA
ATOM     41  C   UNL A   1     -25.026   6.479  26.963  0.00  0.00    +0.139 C 
ATOM     42  O   UNL A   1     -25.143   3.966  28.243  0.00  0.00    -0.269 OA
ENDBRANCH  33  39
BRANCH  36  43
ATOM     43  O   UNL A   1     -28.193  -0.208  24.477  0.00  0.00    -0.459 OA
BRANCH  43  44
ATOM     44  C   UNL A   1     -29.460   0.005  23.866  0.00  0.00    +0.242 C 
BRANCH  44  45
ATOM     45  C   UNL A   1     -30.065  -1.377  23.573  0.00  0.00    +0.229 C 
ATOM     46  O   UNL A   1     -30.729  -1.878  24.721  0.00  0.00    -0.216 OA
ENDBRANCH  44  45
ENDBRANCH  43  44
ENDBRANCH  36  43
ENDBRANCH  27  32
ENDBRANCH  25  28
ENDBRANCH   7  25
TORSDOF 9
