REMARK  Name = outputs/IAG933/test6/raw/output_7980_IAG933_linker_design_.xyz
REMARK  10 active torsions:
REMARK  status: ('A' for Active; 'I' for Inactive)
REMARK    1  A    between atoms: C_1  and  C_2
REMARK    2  A    between atoms: C_1  and  C_8
REMARK    3  A    between atoms: C_1  and  N_39
REMARK    4  A    between atoms: C_13  and  C_36
REMARK    5  A    between atoms: C_14  and  C_15
REMARK    6  A    between atoms: C_21  and  O_22
REMARK    7  A    between atoms: O_22  and  C_23
REMARK    8  A    between atoms: C_23  and  C_24
REMARK    9  A    between atoms: N_39  and  C_41
REMARK   10  A    between atoms: N_39  and  C_42
REMARK                            x       y       z     vdW  Elec       q    Type
REMARK                         _______ _______ _______ _____ _____    ______ ____
ROOT
ATOM      1  C   UNL A   1     -22.793   0.444  28.780  0.00  0.00    +0.231 C 
ATOM      2  O   UNL A   1     -22.421  -0.011  29.975  0.00  0.00    -0.286 OA
ATOM      3  F   UNL A   1     -23.424   2.087  24.951  0.00  0.00    -0.163 F 
ATOM      4  O   UNL A   1     -21.998   1.635  26.767  0.00  0.00    -0.445 OA
ATOM      5  C   UNL A   1     -24.399   1.226  27.073  0.00  0.00    +0.082 C 
ATOM      6  C   UNL A   1     -21.700   0.998  27.946  0.00  0.00    +0.277 C 
ATOM      7  C   UNL A   1     -23.268   1.608  26.257  0.00  0.00    +0.285 C 
ATOM      8  C   UNL A   1     -24.141   0.514  28.247  0.00  0.00    +0.096 C 
ENDROOT
BRANCH   5   9
ATOM      9  C   UNL A   1     -25.688   1.614  26.461  0.00  0.00    +0.045 C 
ATOM     10  C   UNL A   1     -26.250   2.920  26.395  0.00  0.00    +0.077 C 
ATOM     11  C   UNL A   1     -27.438   3.091  25.645  0.00  0.00    +0.107 C 
ATOM     12  N   UNL A   1     -28.075   2.089  25.003  0.00  0.00    -0.208 NA
ATOM     13  C   UNL A   1     -27.543   0.849  25.079  0.00  0.00    +0.253 C 
ATOM     14  C   UNL A   1     -26.354   0.576  25.777  0.00  0.00    +0.193 C 
ATOM     15  F   UNL A   1     -25.860  -0.681  25.795  0.00  0.00    -0.199 F 
BRANCH  10  16
ATOM     16  C   UNL A   1     -25.642   4.093  27.123  0.00  0.00    +0.266 C 
ATOM     17  N   UNL A   1     -25.614   5.252  26.449  0.00  0.00    -0.200 NA
ATOM     18  C   UNL A   1     -25.026   6.479  26.963  0.00  0.00    +0.139 C 
ATOM     19  O   UNL A   1     -25.143   3.966  28.243  0.00  0.00    -0.268 OA
ENDBRANCH  10  16
BRANCH  13  20
ATOM     20  O   UNL A   1     -28.193  -0.208  24.477  0.00  0.00    -0.456 OA
BRANCH  20  21
ATOM     21  C   UNL A   1     -29.460   0.005  23.866  0.00  0.00    +0.243 C 
BRANCH  21  22
ATOM     22  C   UNL A   1     -30.065  -1.377  23.573  0.00  0.00    +0.229 C 
ATOM     23  O   UNL A   1     -30.729  -1.878  24.721  0.00  0.00    -0.216 OA
ENDBRANCH  21  22
ENDBRANCH  20  21
ENDBRANCH  13  20
ENDBRANCH   5   9
BRANCH   8  24
ATOM     24  N   UNL A   1     -25.056  -0.161  28.940  0.00  0.00    -0.278 N 
BRANCH  24  30
ATOM     25  C   UNL A   1     -27.300   1.004  28.994  0.00  0.00    +0.131 C 
ATOM     26  C   UNL A   1     -29.224   2.289  29.624  0.00  0.00    +0.055 C 
ATOM     27  C   UNL A   1     -28.703   1.112  28.828  0.00  0.00    +0.069 C 
ATOM     28  O   UNL A   1     -26.817   2.229  29.446  0.00  0.00    -0.478 OA
ATOM     29  C   UNL A   1     -27.906   3.023  29.969  0.00  0.00    +0.205 C 
ATOM     30  C   UNL A   1     -26.505  -0.146  28.742  0.00  0.00    +0.099 C 
ENDBRANCH  24  30
BRANCH  24  31
ATOM     31  C   UNL A   1     -24.855  -1.012  30.143  0.00  0.00    +0.116 C 
BRANCH  31  32
ATOM     32  C   UNL A   1     -24.973  -2.505  29.788  0.00  0.00    -0.003 C 
ATOM     33  C   UNL A   1     -23.906  -3.173  29.146  0.00  0.00    -0.003 C 
ATOM     34  C   UNL A   1     -23.989  -4.549  28.853  0.00  0.00    -0.000 C 
ATOM     35  C   UNL A   1     -25.137  -5.280  29.205  0.00  0.00    -0.000 C 
ATOM     36  C   UNL A   1     -26.232  -4.611  29.784  0.00  0.00    -0.000 C 
ATOM     37  C   UNL A   1     -26.155  -3.232  30.065  0.00  0.00    -0.003 C 
ENDBRANCH  31  32
BRANCH  31  38
ATOM     38  C   UNL A   1     -25.387  -0.679  31.571  0.00  0.00    +0.095 C 
ATOM     39  C   UNL A   1     -25.189   0.773  32.028  0.00  0.00    +0.021 C 
ATOM     40  C   UNL A   1     -25.336   0.684  33.544  0.00  0.00    +0.020 C 
ATOM     41  C   UNL A   1     -24.829  -0.715  33.905  0.00  0.00    +0.089 C 
ATOM     42  N   UNL A   1     -24.758  -1.481  32.646  0.00  0.00    -0.217 NA
ENDBRANCH  31  38
ENDBRANCH  24  31
ENDBRANCH   8  24
TORSDOF 10
