REMARK  Name = outputs/IAG933/test6/raw/output_7984_IAG933_linker_design_.xyz
REMARK  14 active torsions:
REMARK  status: ('A' for Active; 'I' for Inactive)
REMARK    1  A    between atoms: C_1  and  C_2
REMARK    2  A    between atoms: C_1  and  C_8
REMARK    3  A    between atoms: C_1  and  C_34
REMARK    4  A    between atoms: C_13  and  C_37
REMARK    5  A    between atoms: C_14  and  C_15
REMARK    6  A    between atoms: C_21  and  O_22
REMARK    7  A    between atoms: O_22  and  C_23
REMARK    8  A    between atoms: C_23  and  C_24
REMARK    9  A    between atoms: C_31  and  O_33
REMARK   10  A    between atoms: N_32  and  O_33
REMARK   11  A    between atoms: N_32  and  C_34
REMARK   12  A    between atoms: N_32  and  C_37
REMARK   13  A    between atoms: C_34  and  C_39
REMARK   14  A    between atoms: N_36  and  C_39
REMARK                            x       y       z     vdW  Elec       q    Type
REMARK                         _______ _______ _______ _____ _____    ______ ____
ROOT
ATOM      1  N   UNL A   1     -24.515   0.679  28.367  0.00  0.00    -0.161 NA
ENDROOT
BRANCH   1   2
ATOM      2  O   UNL A   1     -23.168   0.046  28.518  0.00  0.00    -0.282 OA
BRANCH   2   3
ATOM      3  C   UNL A   1     -22.157   1.114  28.393  0.00  0.00    +0.167 C 
ATOM      4  C   UNL A   1     -21.639   1.821  27.129  0.00  0.00    +0.037 C 
ENDBRANCH   2   3
ENDBRANCH   1   2
BRANCH   1   5
ATOM      5  C   UNL A   1     -25.445  -0.110  29.051  0.00  0.00    +0.106 C 
BRANCH   5   6
ATOM      6  C   UNL A   1     -24.855  -1.012  30.143  0.00  0.00    +0.057 C 
BRANCH   6   7
ATOM      7  C   UNL A   1     -24.973  -2.505  29.788  0.00  0.00    -0.020 C 
ATOM      8  C   UNL A   1     -23.906  -3.173  29.146  0.00  0.00    -0.004 C 
ATOM      9  C   UNL A   1     -23.989  -4.549  28.853  0.00  0.00    -0.000 C 
ATOM     10  C   UNL A   1     -25.137  -5.280  29.205  0.00  0.00    -0.000 C 
ATOM     11  C   UNL A   1     -26.232  -4.611  29.784  0.00  0.00    -0.000 C 
ATOM     12  C   UNL A   1     -26.155  -3.232  30.065  0.00  0.00    -0.004 C 
ENDBRANCH   6   7
BRANCH   6  13
ATOM     13  C   UNL A   1     -25.387  -0.679  31.571  0.00  0.00    +0.078 C 
ATOM     14  C   UNL A   1     -25.189   0.773  32.028  0.00  0.00    +0.019 C 
ATOM     15  C   UNL A   1     -25.336   0.684  33.544  0.00  0.00    +0.020 C 
ATOM     16  C   UNL A   1     -24.829  -0.715  33.905  0.00  0.00    +0.089 C 
ATOM     17  N   UNL A   1     -24.758  -1.481  32.646  0.00  0.00    -0.219 NA
ENDBRANCH   6  13
ENDBRANCH   5   6
BRANCH   5  18
ATOM     18  C   UNL A   1     -26.887  -0.433  28.696  0.00  0.00    +0.093 C 
BRANCH  18  23
ATOM     19  O   UNL A   1     -29.655  -0.774  28.353  0.00  0.00    -0.205 OA
ATOM     20  C   UNL A   1     -28.090   1.438  29.891  0.00  0.00    +0.074 C 
ATOM     21  C   UNL A   1     -29.616   1.617  30.258  0.00  0.00    +0.021 C 
ATOM     22  C   UNL A   1     -29.262  -0.660  29.670  0.00  0.00    +0.213 C 
ATOM     23  N   UNL A   1     -27.882  -0.023  29.756  0.00  0.00    -0.247 NA
ATOM     24  C   UNL A   1     -30.145   0.223  30.491  0.00  0.00    +0.051 C 
ENDBRANCH  18  23
ENDBRANCH   5  18
ENDBRANCH   1   5
BRANCH   1  25
ATOM     25  C   UNL A   1     -24.363   1.259  27.023  0.00  0.00    +0.130 C 
BRANCH  25  26
ATOM     26  C   UNL A   1     -25.688   1.614  26.461  0.00  0.00    +0.034 C 
ATOM     27  C   UNL A   1     -26.250   2.920  26.395  0.00  0.00    +0.074 C 
ATOM     28  C   UNL A   1     -27.438   3.091  25.645  0.00  0.00    +0.106 C 
ATOM     29  N   UNL A   1     -28.075   2.089  25.003  0.00  0.00    -0.208 NA
ATOM     30  C   UNL A   1     -27.543   0.849  25.079  0.00  0.00    +0.253 C 
ATOM     31  C   UNL A   1     -26.354   0.576  25.777  0.00  0.00    +0.191 C 
ATOM     32  F   UNL A   1     -25.860  -0.681  25.795  0.00  0.00    -0.200 F 
BRANCH  27  33
ATOM     33  C   UNL A   1     -25.642   4.093  27.123  0.00  0.00    +0.266 C 
ATOM     34  N   UNL A   1     -25.614   5.252  26.449  0.00  0.00    -0.200 NA
ATOM     35  C   UNL A   1     -25.026   6.479  26.963  0.00  0.00    +0.139 C 
ATOM     36  O   UNL A   1     -25.143   3.966  28.243  0.00  0.00    -0.268 OA
ENDBRANCH  27  33
BRANCH  30  37
ATOM     37  O   UNL A   1     -28.193  -0.208  24.477  0.00  0.00    -0.456 OA
BRANCH  37  38
ATOM     38  C   UNL A   1     -29.460   0.005  23.866  0.00  0.00    +0.243 C 
BRANCH  38  39
ATOM     39  C   UNL A   1     -30.065  -1.377  23.573  0.00  0.00    +0.229 C 
ATOM     40  O   UNL A   1     -30.729  -1.878  24.721  0.00  0.00    -0.216 OA
ENDBRANCH  38  39
ENDBRANCH  37  38
ENDBRANCH  30  37
ENDBRANCH  25  26
ENDBRANCH   1  25
TORSDOF 14
