REMARK  Name = outputs/IAG933/test6/raw/output_7988_IAG933_linker_design_.xyz
REMARK  9 active torsions:
REMARK  status: ('A' for Active; 'I' for Inactive)
REMARK    1  A    between atoms: C_1  and  C_2
REMARK    2  A    between atoms: C_1  and  C_8
REMARK    3  A    between atoms: C_1  and  N_39
REMARK    4  A    between atoms: C_13  and  C_33
REMARK    5  A    between atoms: C_14  and  C_15
REMARK    6  A    between atoms: C_21  and  O_22
REMARK    7  A    between atoms: O_22  and  C_23
REMARK    8  A    between atoms: C_23  and  C_24
REMARK    9  A    between atoms: N_29  and  C_30
REMARK                            x       y       z     vdW  Elec       q    Type
REMARK                         _______ _______ _______ _____ _____    ______ ____
ROOT
ATOM      1  C   UNL A   1     -25.225   0.968  28.360  0.00  0.00    +0.169 C 
ATOM      2  F   UNL A   1     -21.782   2.299  25.334  0.00  0.00    -0.202 F 
ATOM      3  C   UNL A   1     -22.475   1.715  26.329  0.00  0.00    +0.193 C 
ATOM      4  C   UNL A   1     -24.714   1.253  27.142  0.00  0.00    +0.100 C 
ATOM      5  N   UNL A   1     -22.302   1.319  28.777  0.00  0.00    -0.163 NA
ATOM      6  C   UNL A   1     -21.887   1.686  27.588  0.00  0.00    +0.237 C 
ATOM      7  F   UNL A   1     -23.662   0.504  25.069  0.00  0.00    -0.229 F 
ATOM      8  N   UNL A   1     -24.378  -0.053  29.276  0.00  0.00    -0.208 NA
ATOM      9  C   UNL A   1     -23.721   1.164  26.217  0.00  0.00    +0.221 C 
ATOM     10  F   UNL A   1     -20.548   1.985  27.564  0.00  0.00    -0.184 F 
ATOM     11  F   UNL A   1     -22.228  -0.289  29.823  0.00  0.00    -0.194 F 
ATOM     12  C   UNL A   1     -23.019   0.398  29.178  0.00  0.00    +0.323 C 
ENDROOT
BRANCH   4  13
ATOM     13  C   UNL A   1     -25.688   1.614  26.461  0.00  0.00    +0.022 C 
ATOM     14  C   UNL A   1     -26.250   2.920  26.395  0.00  0.00    +0.073 C 
ATOM     15  C   UNL A   1     -27.438   3.091  25.645  0.00  0.00    +0.106 C 
ATOM     16  N   UNL A   1     -28.075   2.089  25.003  0.00  0.00    -0.208 NA
ATOM     17  C   UNL A   1     -27.543   0.849  25.079  0.00  0.00    +0.253 C 
ATOM     18  C   UNL A   1     -26.354   0.576  25.777  0.00  0.00    +0.189 C 
ATOM     19  F   UNL A   1     -25.860  -0.681  25.795  0.00  0.00    -0.200 F 
BRANCH  14  20
ATOM     20  C   UNL A   1     -25.642   4.093  27.123  0.00  0.00    +0.266 C 
ATOM     21  N   UNL A   1     -25.614   5.252  26.449  0.00  0.00    -0.200 NA
ATOM     22  C   UNL A   1     -25.026   6.479  26.963  0.00  0.00    +0.139 C 
ATOM     23  O   UNL A   1     -25.143   3.966  28.243  0.00  0.00    -0.268 OA
ENDBRANCH  14  20
BRANCH  17  24
ATOM     24  O   UNL A   1     -28.193  -0.208  24.477  0.00  0.00    -0.456 OA
BRANCH  24  25
ATOM     25  C   UNL A   1     -29.460   0.005  23.866  0.00  0.00    +0.243 C 
BRANCH  25  26
ATOM     26  C   UNL A   1     -30.065  -1.377  23.573  0.00  0.00    +0.229 C 
ATOM     27  O   UNL A   1     -30.729  -1.878  24.721  0.00  0.00    -0.216 OA
ENDBRANCH  25  26
ENDBRANCH  24  25
ENDBRANCH  17  24
ENDBRANCH   4  13
BRANCH   1  29
ATOM     28  O   UNL A   1     -28.075  -0.156  28.044  0.00  0.00    -0.221 OA
ATOM     29  N   UNL A   1     -26.494   1.137  28.962  0.00  0.00    -0.150 NA
ATOM     30  O   UNL A   1     -27.845  -0.279  30.220  0.00  0.00    -0.221 OA
ATOM     31  C   UNL A   1     -27.514   0.188  29.099  0.00  0.00    +0.464 C 
ENDBRANCH   1  29
BRANCH   8  32
ATOM     32  C   UNL A   1     -24.855  -1.012  30.143  0.00  0.00    +0.101 C 
BRANCH  32  33
ATOM     33  C   UNL A   1     -24.973  -2.505  29.788  0.00  0.00    -0.006 C 
ATOM     34  C   UNL A   1     -23.906  -3.173  29.146  0.00  0.00    -0.003 C 
ATOM     35  C   UNL A   1     -23.989  -4.549  28.853  0.00  0.00    -0.000 C 
ATOM     36  C   UNL A   1     -25.137  -5.280  29.205  0.00  0.00    -0.000 C 
ATOM     37  C   UNL A   1     -26.232  -4.611  29.784  0.00  0.00    -0.000 C 
ATOM     38  C   UNL A   1     -26.155  -3.232  30.065  0.00  0.00    -0.003 C 
ENDBRANCH  32  33
BRANCH  32  39
ATOM     39  C   UNL A   1     -25.387  -0.679  31.571  0.00  0.00    +0.092 C 
ATOM     40  C   UNL A   1     -25.189   0.773  32.028  0.00  0.00    +0.021 C 
ATOM     41  C   UNL A   1     -25.336   0.684  33.544  0.00  0.00    +0.020 C 
ATOM     42  C   UNL A   1     -24.829  -0.715  33.905  0.00  0.00    +0.089 C 
ATOM     43  N   UNL A   1     -24.758  -1.481  32.646  0.00  0.00    -0.218 NA
ENDBRANCH  32  39
ENDBRANCH   8  32
TORSDOF 9
