MODEL 798
MODEL 1
REMARK VINA RESULT:    -6.462      0.000      0.000
REMARK INTER + INTRA:          -7.225
REMARK INTER:                  -6.840
REMARK INTRA:                  -0.385
REMARK UNBOUND:                -0.385
REMARK  Name = No_798-gen_results/8p0m/2024-11-27-11-27-31/
REMARK  1 active torsions:
REMARK  status: ('A' for Active; 'I' for Inactive)
REMARK    1  A    between atoms: C_3  and  C_7
REMARK                            x       y       z     vdW  Elec       q    Type
REMARK                         _______ _______ _______ _____ _____    ______ ____
ROOT
ATOM      1  C   UNL A   1     -25.871  -2.513  29.669  0.00  0.00    +0.000 A 
ATOM      2  C   UNL A   1     -26.297  -3.464  29.822  0.00  0.00    +0.000 A 
ATOM      3  C   UNL A   1     -24.561  -2.555  29.020  0.00  0.00    +0.000 A 
ATOM      4  C   UNL A   1     -23.973  -3.735  28.639  0.00  0.00    +0.000 A 
ATOM      5  C   UNL A   1     -25.919  -4.846  29.527  0.00  0.00    +0.000 A 
ATOM      6  C   UNL A   1     -24.651  -4.898  28.899  0.00  0.00    +0.000 A 
ENDROOT
BRANCH   3   7
ATOM      7  C   UNL A   1     -23.818  -1.306  28.682  0.00  0.00    +0.000 A 
ATOM      8  C   UNL A   1     -22.508  -1.264  29.148  0.00  0.00    +0.000 A 
ATOM      9  C   UNL A   1     -24.360  -0.288  27.933  0.00  0.00    +0.000 A 
ATOM     10  C   UNL A   1     -23.546   0.703  27.445  0.00  0.00    +0.000 A 
ATOM     11  C   UNL A   1     -21.753  -0.070  28.924  0.00  0.00    +0.000 A 
ATOM     12  C   UNL A   1     -22.290   0.862  28.013  0.00  0.00    +0.000 A 
ENDBRANCH   3   7
TORSDOF 1
ENDMDL
ENDMDL
