REMARK  Name = outputs/IAG933/test6/raw/output_799_IAG933_linker_design_.xyz
REMARK  16 active torsions:
REMARK  status: ('A' for Active; 'I' for Inactive)
REMARK    1  A    between atoms: C_1  and  C_2
REMARK    2  A    between atoms: C_1  and  C_8
REMARK    3  A    between atoms: C_1  and  C_39
REMARK    4  A    between atoms: C_13  and  C_34
REMARK    5  A    between atoms: C_14  and  C_15
REMARK    6  A    between atoms: C_21  and  O_22
REMARK    7  A    between atoms: O_22  and  C_23
REMARK    8  A    between atoms: C_23  and  C_24
REMARK    9  A    between atoms: O_28  and  C_29
REMARK   10  A    between atoms: O_28  and  C_30
REMARK   11  A    between atoms: C_29  and  N_36
REMARK   12  A    between atoms: C_30  and  C_31
REMARK   13  A    between atoms: C_33  and  N_38
REMARK   14  A    between atoms: C_34  and  N_38
REMARK   15  A    between atoms: N_36  and  C_39
REMARK   16  A    between atoms: N_38  and  C_39
REMARK                            x       y       z     vdW  Elec       q    Type
REMARK                         _______ _______ _______ _____ _____    ______ ____
ROOT
ATOM      1  N   UNL A   1     -24.091   0.819  28.011  0.00  0.00    -0.261 NA
ENDROOT
BRANCH   1   2
ATOM      2  C   UNL A   1     -24.283   1.396  26.845  0.00  0.00    +0.066 C 
ATOM      3  C   UNL A   1     -23.308   1.967  25.766  0.00  0.00    +0.018 C 
BRANCH   2   4
ATOM      4  C   UNL A   1     -25.688   1.614  26.461  0.00  0.00    +0.085 C 
ATOM      5  C   UNL A   1     -26.250   2.920  26.395  0.00  0.00    +0.056 C 
ATOM      6  C   UNL A   1     -27.438   3.091  25.645  0.00  0.00    +0.102 C 
ATOM      7  N   UNL A   1     -28.075   2.089  25.003  0.00  0.00    -0.212 NA
ATOM      8  C   UNL A   1     -27.543   0.849  25.079  0.00  0.00    +0.234 C 
ATOM      9  C   UNL A   1     -26.354   0.576  25.777  0.00  0.00    +0.241 C 
ATOM     10  F   UNL A   1     -25.860  -0.681  25.795  0.00  0.00    -0.227 F 
BRANCH   5  11
ATOM     11  C   UNL A   1     -25.642   4.093  27.123  0.00  0.00    +0.263 C 
ATOM     12  N   UNL A   1     -25.614   5.252  26.449  0.00  0.00    -0.200 NA
ATOM     13  C   UNL A   1     -25.026   6.479  26.963  0.00  0.00    +0.139 C 
ATOM     14  O   UNL A   1     -25.143   3.966  28.243  0.00  0.00    -0.269 OA
ENDBRANCH   5  11
BRANCH   8  15
ATOM     15  O   UNL A   1     -28.193  -0.208  24.477  0.00  0.00    -0.459 OA
BRANCH  15  16
ATOM     16  C   UNL A   1     -29.460   0.005  23.866  0.00  0.00    +0.242 C 
BRANCH  16  17
ATOM     17  C   UNL A   1     -30.065  -1.377  23.573  0.00  0.00    +0.229 C 
ATOM     18  O   UNL A   1     -30.729  -1.878  24.721  0.00  0.00    -0.216 OA
ENDBRANCH  16  17
ENDBRANCH  15  16
ENDBRANCH   8  15
ENDBRANCH   2   4
ENDBRANCH   1   2
BRANCH   1  20
ATOM     19  C   UNL A   1     -21.569   1.081  27.808  0.00  0.00    +0.019 C 
ATOM     20  C   UNL A   1     -22.786   0.700  28.652  0.00  0.00    +0.073 C 
ENDBRANCH   1  20
BRANCH   1  21
ATOM     21  C   UNL A   1     -24.999  -0.027  28.899  0.00  0.00    +0.140 C 
BRANCH  21  22
ATOM     22  C   UNL A   1     -24.855  -1.012  30.143  0.00  0.00    +0.070 C 
BRANCH  22  23
ATOM     23  C   UNL A   1     -24.973  -2.505  29.788  0.00  0.00    -0.018 C 
ATOM     24  C   UNL A   1     -23.906  -3.173  29.146  0.00  0.00    -0.004 C 
ATOM     25  C   UNL A   1     -23.989  -4.549  28.853  0.00  0.00    -0.000 C 
ATOM     26  C   UNL A   1     -25.137  -5.280  29.205  0.00  0.00    -0.000 C 
ATOM     27  C   UNL A   1     -26.232  -4.611  29.784  0.00  0.00    -0.000 C 
ATOM     28  C   UNL A   1     -26.155  -3.232  30.065  0.00  0.00    -0.004 C 
ENDBRANCH  22  23
BRANCH  22  29
ATOM     29  C   UNL A   1     -25.387  -0.679  31.571  0.00  0.00    +0.080 C 
ATOM     30  C   UNL A   1     -25.189   0.773  32.028  0.00  0.00    +0.019 C 
ATOM     31  C   UNL A   1     -25.336   0.684  33.544  0.00  0.00    +0.020 C 
ATOM     32  C   UNL A   1     -24.829  -0.715  33.905  0.00  0.00    +0.089 C 
ATOM     33  N   UNL A   1     -24.758  -1.481  32.646  0.00  0.00    -0.219 NA
ENDBRANCH  22  29
ENDBRANCH  21  22
BRANCH  21  34
ATOM     34  N   UNL A   1     -26.351   0.527  28.960  0.00  0.00    -0.173 NA
BRANCH  34  35
ATOM     35  C   UNL A   1     -27.156  -0.650  29.198  0.00  0.00    +0.236 C 
BRANCH  35  36
ATOM     36  O   UNL A   1     -28.554  -0.229  28.912  0.00  0.00    -0.334 OA
BRANCH  36  37
ATOM     37  C   UNL A   1     -29.255   1.024  29.377  0.00  0.00    +0.179 C 
BRANCH  37  38
ATOM     38  C   UNL A   1     -28.802   1.617  30.716  0.00  0.00    +0.214 C 
ATOM     39  O   UNL A   1     -29.535   0.962  31.771  0.00  0.00    -0.218 OA
ENDBRANCH  37  38
ENDBRANCH  36  37
ENDBRANCH  35  36
ENDBRANCH  34  35
ENDBRANCH  21  34
ENDBRANCH   1  21
TORSDOF 16
