REMARK  Name = outputs/IAG933/test6/raw/output_7991_IAG933_linker_design_.xyz
REMARK  17 active torsions:
REMARK  status: ('A' for Active; 'I' for Inactive)
REMARK    1  A    between atoms: C_1  and  C_2
REMARK    2  A    between atoms: C_1  and  C_8
REMARK    3  A    between atoms: C_1  and  N_29
REMARK    4  A    between atoms: C_13  and  C_31
REMARK    5  A    between atoms: C_14  and  C_15
REMARK    6  A    between atoms: C_21  and  O_22
REMARK    7  A    between atoms: O_22  and  C_23
REMARK    8  A    between atoms: C_23  and  C_24
REMARK    9  A    between atoms: C_28  and  N_29
REMARK   10  A    between atoms: C_28  and  C_31
REMARK   11  A    between atoms: O_30  and  C_39
REMARK   12  A    between atoms: C_31  and  C_35
REMARK   13  A    between atoms: C_32  and  C_40
REMARK   14  A    between atoms: C_33  and  C_40
REMARK   15  A    between atoms: C_35  and  C_37
REMARK   16  A    between atoms: C_37  and  O_41
REMARK   17  A    between atoms: C_39  and  O_41
REMARK                            x       y       z     vdW  Elec       q    Type
REMARK                         _______ _______ _______ _____ _____    ______ ____
ROOT
ATOM      1  C   UNL A   1     -24.337   1.193  27.022  0.00  0.00    +0.047 C 
ENDROOT
BRANCH   1   2
ATOM      2  C   UNL A   1     -25.688   1.614  26.461  0.00  0.00    +0.017 C 
ATOM      3  C   UNL A   1     -26.250   2.920  26.395  0.00  0.00    +0.073 C 
ATOM      4  C   UNL A   1     -27.438   3.091  25.645  0.00  0.00    +0.106 C 
ATOM      5  N   UNL A   1     -28.075   2.089  25.003  0.00  0.00    -0.208 NA
ATOM      6  C   UNL A   1     -27.543   0.849  25.079  0.00  0.00    +0.253 C 
ATOM      7  C   UNL A   1     -26.354   0.576  25.777  0.00  0.00    +0.189 C 
ATOM      8  F   UNL A   1     -25.860  -0.681  25.795  0.00  0.00    -0.200 F 
BRANCH   3   9
ATOM      9  C   UNL A   1     -25.642   4.093  27.123  0.00  0.00    +0.266 C 
ATOM     10  N   UNL A   1     -25.614   5.252  26.449  0.00  0.00    -0.200 NA
ATOM     11  C   UNL A   1     -25.026   6.479  26.963  0.00  0.00    +0.139 C 
ATOM     12  O   UNL A   1     -25.143   3.966  28.243  0.00  0.00    -0.268 OA
ENDBRANCH   3   9
BRANCH   6  13
ATOM     13  O   UNL A   1     -28.193  -0.208  24.477  0.00  0.00    -0.456 OA
BRANCH  13  14
ATOM     14  C   UNL A   1     -29.460   0.005  23.866  0.00  0.00    +0.243 C 
BRANCH  14  15
ATOM     15  C   UNL A   1     -30.065  -1.377  23.573  0.00  0.00    +0.229 C 
ATOM     16  O   UNL A   1     -30.729  -1.878  24.721  0.00  0.00    -0.216 OA
ENDBRANCH  14  15
ENDBRANCH  13  14
ENDBRANCH   6  13
ENDBRANCH   1   2
BRANCH   1  18
ATOM     17  C   UNL A   1     -23.008   2.352  25.266  0.00  0.00    +0.003 C 
ATOM     18  C   UNL A   1     -23.030   2.002  26.745  0.00  0.00    +0.035 C 
BRANCH  18  19
ATOM     19  C   UNL A   1     -21.626   1.829  27.011  0.00  0.00    +0.145 C 
BRANCH  19  20
ATOM     20  O   UNL A   1     -21.031   1.153  27.965  0.00  0.00    -0.327 OA
BRANCH  20  21
ATOM     21  C   UNL A   1     -22.319   0.518  28.463  0.00  0.00    +0.294 C 
BRANCH  21  22
ATOM     22  O   UNL A   1     -22.568   0.066  28.666  0.00  0.00    -0.324 OA
ATOM     23  C   UNL A   1     -23.319   0.604  28.614  0.00  0.00    +0.177 C 
ENDBRANCH  21  22
ENDBRANCH  20  21
ENDBRANCH  19  20
ENDBRANCH  18  19
ENDBRANCH   1  18
BRANCH   1  24
ATOM     24  C   UNL A   1     -24.690   0.731  28.471  0.00  0.00    +0.098 C 
BRANCH  24  25
ATOM     25  N   UNL A   1     -25.543  -0.156  29.192  0.00  0.00    -0.276 N 
ATOM     26  C   UNL A   1     -26.902   0.126  29.079  0.00  0.00    +0.229 C 
ATOM     27  O   UNL A   1     -27.719  -0.675  28.637  0.00  0.00    -0.275 OA
BRANCH  25  28
ATOM     28  C   UNL A   1     -24.855  -1.012  30.143  0.00  0.00    +0.114 C 
BRANCH  28  29
ATOM     29  C   UNL A   1     -24.973  -2.505  29.788  0.00  0.00    -0.003 C 
ATOM     30  C   UNL A   1     -23.906  -3.173  29.146  0.00  0.00    -0.003 C 
ATOM     31  C   UNL A   1     -23.989  -4.549  28.853  0.00  0.00    -0.000 C 
ATOM     32  C   UNL A   1     -25.137  -5.280  29.205  0.00  0.00    -0.000 C 
ATOM     33  C   UNL A   1     -26.232  -4.611  29.784  0.00  0.00    -0.000 C 
ATOM     34  C   UNL A   1     -26.155  -3.232  30.065  0.00  0.00    -0.003 C 
ENDBRANCH  28  29
BRANCH  28  35
ATOM     35  C   UNL A   1     -25.387  -0.679  31.571  0.00  0.00    +0.095 C 
ATOM     36  C   UNL A   1     -25.189   0.773  32.028  0.00  0.00    +0.021 C 
ATOM     37  C   UNL A   1     -25.336   0.684  33.544  0.00  0.00    +0.020 C 
ATOM     38  C   UNL A   1     -24.829  -0.715  33.905  0.00  0.00    +0.089 C 
ATOM     39  N   UNL A   1     -24.758  -1.481  32.646  0.00  0.00    -0.217 NA
ENDBRANCH  28  35
ENDBRANCH  25  28
BRANCH  26  40
ATOM     40  C   UNL A   1     -27.213   1.571  29.477  0.00  0.00    +0.121 C 
BRANCH  40  41
ATOM     41  C   UNL A   1     -28.662   1.890  29.160  0.00  0.00    +0.192 C 
ATOM     42  O   UNL A   1     -29.310   2.872  29.952  0.00  0.00    -0.220 OA
ENDBRANCH  40  41
ENDBRANCH  26  40
ENDBRANCH  24  25
ENDBRANCH   1  24
TORSDOF 17
