REMARK  Name = outputs/IAG933/test6/raw/output_7993_IAG933_linker_design_.xyz
REMARK  13 active torsions:
REMARK  status: ('A' for Active; 'I' for Inactive)
REMARK    1  A    between atoms: C_1  and  C_2
REMARK    2  A    between atoms: C_1  and  C_8
REMARK    3  A    between atoms: C_1  and  N_41
REMARK    4  A    between atoms: C_13  and  C_43
REMARK    5  A    between atoms: C_14  and  C_15
REMARK    6  A    between atoms: C_21  and  O_22
REMARK    7  A    between atoms: O_22  and  C_23
REMARK    8  A    between atoms: C_23  and  C_24
REMARK    9  A    between atoms: C_28  and  O_35
REMARK   10  A    between atoms: C_30  and  C_33
REMARK   11  A    between atoms: C_30  and  O_35
REMARK   12  A    between atoms: C_32  and  N_41
REMARK   13  A    between atoms: C_33  and  C_44
REMARK                            x       y       z     vdW  Elec       q    Type
REMARK                         _______ _______ _______ _____ _____    ______ ____
ROOT
ATOM      1  F   UNL A   1     -21.584   2.316  25.532  0.00  0.00    -0.209 F 
ATOM      2  C   UNL A   1     -24.528   0.469  28.391  0.00  0.00    +0.302 C 
ATOM      3  C   UNL A   1     -21.869   0.609  28.841  0.00  0.00    +0.270 C 
ATOM      4  C   UNL A   1     -22.343   1.840  26.453  0.00  0.00    +0.119 C 
ATOM      5  N   UNL A   1     -23.297   0.355  29.002  0.00  0.00    -0.069 NA
ATOM      6  N   UNL A   1     -25.442  -0.055  29.095  0.00  0.00    -0.197 N 
ATOM      7  C   UNL A   1     -21.528   1.412  27.584  0.00  0.00    +0.114 C 
ATOM      8  C   UNL A   1     -24.676   1.182  27.189  0.00  0.00    +0.154 C 
ATOM      9  C   UNL A   1     -23.567   1.766  26.373  0.00  0.00    +0.015 C 
ENDROOT
BRANCH   8  10
ATOM     10  C   UNL A   1     -25.688   1.614  26.461  0.00  0.00    +0.031 C 
ATOM     11  C   UNL A   1     -26.250   2.920  26.395  0.00  0.00    +0.073 C 
ATOM     12  C   UNL A   1     -27.438   3.091  25.645  0.00  0.00    +0.106 C 
ATOM     13  N   UNL A   1     -28.075   2.089  25.003  0.00  0.00    -0.208 NA
ATOM     14  C   UNL A   1     -27.543   0.849  25.079  0.00  0.00    +0.253 C 
ATOM     15  C   UNL A   1     -26.354   0.576  25.777  0.00  0.00    +0.190 C 
ATOM     16  F   UNL A   1     -25.860  -0.681  25.795  0.00  0.00    -0.200 F 
BRANCH  11  17
ATOM     17  C   UNL A   1     -25.642   4.093  27.123  0.00  0.00    +0.266 C 
ATOM     18  N   UNL A   1     -25.614   5.252  26.449  0.00  0.00    -0.200 NA
ATOM     19  C   UNL A   1     -25.026   6.479  26.963  0.00  0.00    +0.139 C 
ATOM     20  O   UNL A   1     -25.143   3.966  28.243  0.00  0.00    -0.268 OA
ENDBRANCH  11  17
BRANCH  14  21
ATOM     21  O   UNL A   1     -28.193  -0.208  24.477  0.00  0.00    -0.456 OA
BRANCH  21  22
ATOM     22  C   UNL A   1     -29.460   0.005  23.866  0.00  0.00    +0.243 C 
BRANCH  22  23
ATOM     23  C   UNL A   1     -30.065  -1.377  23.573  0.00  0.00    +0.229 C 
ATOM     24  O   UNL A   1     -30.729  -1.878  24.721  0.00  0.00    -0.216 OA
ENDBRANCH  22  23
ENDBRANCH  21  22
ENDBRANCH  14  21
ENDBRANCH   8  10
BRANCH   6  25
ATOM     25  C   UNL A   1     -26.786   0.550  28.812  0.00  0.00    +0.160 C 
ATOM     26  C   UNL A   1     -27.986   1.415  28.713  0.00  0.00    +0.051 C 
ATOM     27  C   UNL A   1     -28.075   0.003  29.237  0.00  0.00    +0.049 C 
BRANCH  27  28
ATOM     28  C   UNL A   1     -29.509  -0.508  28.771  0.00  0.00    +0.034 C 
ATOM     29  C   UNL A   1     -30.497   0.319  27.914  0.00  0.00    +0.003 C 
BRANCH  28  30
ATOM     30  C   UNL A   1     -30.185  -1.013  30.022  0.00  0.00    +0.142 C 
BRANCH  30  31
ATOM     31  O   UNL A   1     -29.587  -2.289  30.332  0.00  0.00    -0.354 OA
BRANCH  31  32
ATOM     32  C   UNL A   1     -30.488  -3.372  30.208  0.00  0.00    +0.142 C 
ATOM     33  C   UNL A   1     -29.782  -4.686  30.326  0.00  0.00    +0.035 C 
ENDBRANCH  31  32
ENDBRANCH  30  31
ENDBRANCH  28  30
ENDBRANCH  27  28
ENDBRANCH   6  25
BRANCH   6  34
ATOM     34  C   UNL A   1     -24.855  -1.012  30.143  0.00  0.00    +0.198 C 
BRANCH  34  35
ATOM     35  C   UNL A   1     -24.973  -2.505  29.788  0.00  0.00    +0.021 C 
ATOM     36  C   UNL A   1     -23.906  -3.173  29.146  0.00  0.00    -0.000 C 
ATOM     37  C   UNL A   1     -23.989  -4.549  28.853  0.00  0.00    -0.000 C 
ATOM     38  C   UNL A   1     -25.137  -5.280  29.205  0.00  0.00    -0.000 C 
ATOM     39  C   UNL A   1     -26.232  -4.611  29.784  0.00  0.00    -0.000 C 
ATOM     40  C   UNL A   1     -26.155  -3.232  30.065  0.00  0.00    -0.000 C 
ENDBRANCH  34  35
BRANCH  34  41
ATOM     41  C   UNL A   1     -25.387  -0.679  31.571  0.00  0.00    +0.120 C 
ATOM     42  C   UNL A   1     -25.189   0.773  32.028  0.00  0.00    +0.023 C 
ATOM     43  C   UNL A   1     -25.336   0.684  33.544  0.00  0.00    +0.020 C 
ATOM     44  C   UNL A   1     -24.829  -0.715  33.905  0.00  0.00    +0.089 C 
ATOM     45  N   UNL A   1     -24.758  -1.481  32.646  0.00  0.00    -0.215 NA
ENDBRANCH  34  41
ENDBRANCH   6  34
TORSDOF 13
