MODEL 799
MODEL 1
REMARK VINA RESULT:    -6.292      0.000      0.000
REMARK INTER + INTRA:         -10.939
REMARK INTER:                  -9.234
REMARK INTRA:                  -1.705
REMARK UNBOUND:                -1.705
REMARK  Name = No_799-gen_results/8p0m/2024-11-27-11-27-31/
REMARK  8 active torsions:
REMARK  status: ('A' for Active; 'I' for Inactive)
REMARK    1  A    between atoms: C_2  and  C_4
REMARK    2  A    between atoms: C_4  and  C_5
REMARK    3  A    between atoms: C_5  and  C_6
REMARK    4  A    between atoms: C_6  and  C_10
REMARK    5  A    between atoms: C_7  and  C_8
REMARK    6  A    between atoms: C_12  and  C_25
REMARK    7  A    between atoms: C_25  and  O_27
REMARK    8  A    between atoms: O_27  and  C_28
REMARK                            x       y       z     vdW  Elec       q    Type
REMARK                         _______ _______ _______ _____ _____    ______ ____
ROOT
ATOM      1  C   UNL A   1     -25.325  -0.348  28.031  0.00  0.00    +0.037 C 
ATOM      2  C   UNL A   1     -25.788   0.784  27.248  0.00  0.00    +0.138 C 
ATOM      3  C   UNL A   1     -25.942   2.179  27.283  0.00  0.00    +0.036 A 
ATOM      4  C   UNL A   1     -27.003   2.782  27.751  0.00  0.00    +0.081 A 
ATOM      5  C   UNL A   1     -26.985   4.245  27.803  0.00  0.00    +0.036 A 
ATOM      6  C   UNL A   1     -25.790   4.890  27.396  0.00  0.00    +0.140 A 
ATOM      7  C   UNL A   1     -24.704   4.147  26.966  0.00  0.00    +0.026 A 
ATOM      8  C   UNL A   1     -24.760   2.840  26.908  0.00  0.00    -0.014 A 
ATOM      9  F   UNL A   1     -25.717   6.215  27.438  0.00  0.00    -0.204 F 
ATOM     10  C   UNL A   1     -23.595   2.081  26.439  0.00  0.00    +0.059 C 
ATOM     11  C   UNL A   1     -22.408   2.166  27.430  0.00  0.00    +0.008 C 
ATOM     12  C   UNL A   1     -23.786   0.656  26.179  0.00  0.00    +0.209 C 
ATOM     13  C   UNL A   1     -23.086   2.778  25.141  0.00  0.00    +0.008 C 
ATOM     14  O   UNL A   1     -25.554   0.234  25.989  0.00  0.00    -0.475 OA
ENDROOT
BRANCH   1  16
ATOM     15  C   UNL A   1     -24.053  -1.559  29.053  0.00  0.00    +0.058 C 
ATOM     16  C   UNL A   1     -24.716  -0.874  28.659  0.00  0.00    +0.005 C 
BRANCH  15  17
ATOM     17  C   UNL A   1     -22.682  -0.949  29.559  0.00  0.00    +0.384 C 
ATOM     18  O   UNL A   1     -21.738  -1.155  28.936  0.00  0.00    -0.241 OA
ATOM     19  O   UNL A   1     -22.746  -0.052  30.466  0.00  0.00    -0.241 OA
ENDBRANCH  15  17
BRANCH  15  20
ATOM     20  C   UNL A   1     -24.098  -2.964  29.461  0.00  0.00    +0.045 C 
BRANCH  20  21
ATOM     21  C   UNL A   1     -24.268  -3.932  28.717  0.00  0.00    +0.119 C 
BRANCH  21  23
ATOM     22  O   UNL A   1     -24.968  -6.018  29.304  0.00  0.00    -0.246 OA
ATOM     23  C   UNL A   1     -25.259  -4.910  29.243  0.00  0.00    +0.365 C 
ATOM     24  O   UNL A   1     -26.358  -4.465  29.630  0.00  0.00    -0.246 OA
ENDBRANCH  21  23
ENDBRANCH  20  21
ENDBRANCH  15  20
ENDBRANCH   1  16
BRANCH   4  25
ATOM     25  C   UNL A   1     -28.259   2.143  28.218  0.00  0.00    +0.341 C 
ATOM     26  O   UNL A   1     -28.343   1.543  29.211  0.00  0.00    -0.245 OA
BRANCH  25  27
ATOM     27  O   UNL A   1     -29.248   2.031  27.223  0.00  0.00    -0.445 OA
BRANCH  27  28
ATOM     28  C   UNL A   1     -29.476   0.751  26.692  0.00  0.00    +0.209 C 
ATOM     29  C   UNL A   1     -29.052   0.440  25.519  0.00  0.00    +0.051 C 
ENDBRANCH  27  28
ENDBRANCH  25  27
ENDBRANCH   4  25
TORSDOF 8
ENDMDL
ENDMDL
