MODEL 7
MODEL 1
REMARK VINA RESULT:    -5.131      0.000      0.000
REMARK INTER + INTRA:          -5.556
REMARK INTER:                  -5.431
REMARK INTRA:                  -0.125
REMARK UNBOUND:                -0.125
REMARK  Name = No_7-gen_results/8p0m/2024-11-27-11-27-31/
REMARK  1 active torsions:
REMARK  status: ('A' for Active; 'I' for Inactive)
REMARK    1  A    between atoms: C_5  and  C_6
REMARK                            x       y       z     vdW  Elec       q    Type
REMARK                         _______ _______ _______ _____ _____    ______ ____
ROOT
ATOM      1 CL   UNL A   1     -24.759   3.631  26.112  0.00  0.00    -0.082 Cl
ATOM      2  C   UNL A   1     -23.970   2.464  26.422  0.00  0.00    +0.058 A 
ATOM      3  C   UNL A   1     -24.561   1.311  26.919  0.00  0.00    +0.011 A 
ATOM      4  C   UNL A   1     -23.961   0.463  27.852  0.00  0.00    +0.005 A 
ATOM      5  C   UNL A   1     -22.528   0.524  28.073  0.00  0.00    +0.071 A 
ATOM      6  C   UNL A   1     -21.722   1.555  27.418  0.00  0.00    +0.005 A 
ATOM      7  C   UNL A   1     -22.621   2.277  25.955  0.00  0.00    +0.011 A 
ENDROOT
BRANCH   5   8
ATOM      8  C   UNL A   1     -21.854  -0.346  28.974  0.00  0.00    +0.419 C 
ATOM      9  F   UNL A   1     -21.795   0.030  30.009  0.00  0.00    -0.166 F 
ATOM     10  F   UNL A   1     -20.546  -0.572  28.546  0.00  0.00    -0.166 F 
ATOM     11  F   UNL A   1     -22.478  -1.576  28.939  0.00  0.00    -0.166 F 
ENDBRANCH   5   8
TORSDOF 1
ENDMDL
ENDMDL
