REMARK  Name = outputs/IAG933/test6/raw/output_8003_IAG933_linker_design_.xyz
REMARK  12 active torsions:
REMARK  status: ('A' for Active; 'I' for Inactive)
REMARK    1  A    between atoms: C_1  and  C_2
REMARK    2  A    between atoms: C_1  and  C_8
REMARK    3  A    between atoms: C_1  and  N_37
REMARK    4  A    between atoms: C_13  and  C_35
REMARK    5  A    between atoms: C_14  and  C_15
REMARK    6  A    between atoms: C_21  and  O_22
REMARK    7  A    between atoms: O_22  and  C_23
REMARK    8  A    between atoms: C_23  and  C_24
REMARK    9  A    between atoms: C_28  and  C_30
REMARK   10  A    between atoms: C_28  and  C_33
REMARK   11  A    between atoms: N_29  and  C_41
REMARK   12  A    between atoms: C_31  and  C_33
REMARK                            x       y       z     vdW  Elec       q    Type
REMARK                         _______ _______ _______ _____ _____    ______ ____
ROOT
ATOM      1  N   UNL A   1     -23.305   1.064  27.589  0.00  0.00    -0.199 NA
ATOM      2  C   UNL A   1     -25.191   0.662  28.592  0.00  0.00    +0.107 C 
ATOM      3  C   UNL A   1     -24.547   1.250  27.280  0.00  0.00    +0.108 C 
ATOM      4  N   UNL A   1     -24.192  -0.145  29.285  0.00  0.00    -0.251 NA
ATOM      5  C   UNL A   1     -22.966   0.146  28.780  0.00  0.00    +0.154 C 
ENDROOT
BRANCH   3   6
ATOM      6  C   UNL A   1     -25.688   1.614  26.461  0.00  0.00    +0.032 C 
ATOM      7  C   UNL A   1     -26.250   2.920  26.395  0.00  0.00    +0.074 C 
ATOM      8  C   UNL A   1     -27.438   3.091  25.645  0.00  0.00    +0.106 C 
ATOM      9  N   UNL A   1     -28.075   2.089  25.003  0.00  0.00    -0.208 NA
ATOM     10  C   UNL A   1     -27.543   0.849  25.079  0.00  0.00    +0.253 C 
ATOM     11  C   UNL A   1     -26.354   0.576  25.777  0.00  0.00    +0.190 C 
ATOM     12  F   UNL A   1     -25.860  -0.681  25.795  0.00  0.00    -0.200 F 
BRANCH   7  13
ATOM     13  C   UNL A   1     -25.642   4.093  27.123  0.00  0.00    +0.266 C 
ATOM     14  N   UNL A   1     -25.614   5.252  26.449  0.00  0.00    -0.200 NA
ATOM     15  C   UNL A   1     -25.026   6.479  26.963  0.00  0.00    +0.139 C 
ATOM     16  O   UNL A   1     -25.143   3.966  28.243  0.00  0.00    -0.268 OA
ENDBRANCH   7  13
BRANCH  10  17
ATOM     17  O   UNL A   1     -28.193  -0.208  24.477  0.00  0.00    -0.456 OA
BRANCH  17  18
ATOM     18  C   UNL A   1     -29.460   0.005  23.866  0.00  0.00    +0.243 C 
BRANCH  18  19
ATOM     19  C   UNL A   1     -30.065  -1.377  23.573  0.00  0.00    +0.229 C 
ATOM     20  O   UNL A   1     -30.729  -1.878  24.721  0.00  0.00    -0.216 OA
ENDBRANCH  18  19
ENDBRANCH  17  18
ENDBRANCH  10  17
ENDBRANCH   3   6
BRANCH   2  21
ATOM     21  C   UNL A   1     -26.660   0.833  28.858  0.00  0.00    +0.046 C 
ATOM     22  O   UNL A   1     -27.978  -1.084  28.625  0.00  0.00    -0.232 OA
ATOM     23  C   UNL A   1     -27.358  -0.229  28.684  0.00  0.00    +0.126 C 
BRANCH  21  24
ATOM     24  C   UNL A   1     -27.496   2.009  29.490  0.00  0.00    +0.034 C 
BRANCH  24  25
ATOM     25  C   UNL A   1     -29.050   1.822  29.455  0.00  0.00    +0.005 C 
ATOM     26  C   UNL A   1     -29.558   1.682  28.035  0.00  0.00    +0.000 C 
ENDBRANCH  24  25
ENDBRANCH  21  24
ENDBRANCH   2  21
BRANCH   1  29
ATOM     27  F   UNL A   1     -21.843   1.552  25.924  0.00  0.00    -0.179 F 
ATOM     28  F   UNL A   1     -21.169   1.896  27.940  0.00  0.00    -0.179 F 
ATOM     29  C   UNL A   1     -22.145   1.518  27.183  0.00  0.00    +0.385 C 
ENDBRANCH   1  29
BRANCH   4  30
ATOM     30  C   UNL A   1     -24.855  -1.012  30.143  0.00  0.00    +0.098 C 
BRANCH  30  31
ATOM     31  C   UNL A   1     -24.973  -2.505  29.788  0.00  0.00    -0.006 C 
ATOM     32  C   UNL A   1     -23.906  -3.173  29.146  0.00  0.00    -0.003 C 
ATOM     33  C   UNL A   1     -23.989  -4.549  28.853  0.00  0.00    -0.000 C 
ATOM     34  C   UNL A   1     -25.137  -5.280  29.205  0.00  0.00    -0.000 C 
ATOM     35  C   UNL A   1     -26.232  -4.611  29.784  0.00  0.00    -0.000 C 
ATOM     36  C   UNL A   1     -26.155  -3.232  30.065  0.00  0.00    -0.003 C 
ENDBRANCH  30  31
BRANCH  30  37
ATOM     37  C   UNL A   1     -25.387  -0.679  31.571  0.00  0.00    +0.092 C 
ATOM     38  C   UNL A   1     -25.189   0.773  32.028  0.00  0.00    +0.021 C 
ATOM     39  C   UNL A   1     -25.336   0.684  33.544  0.00  0.00    +0.020 C 
ATOM     40  C   UNL A   1     -24.829  -0.715  33.905  0.00  0.00    +0.089 C 
ATOM     41  N   UNL A   1     -24.758  -1.481  32.646  0.00  0.00    -0.218 NA
ENDBRANCH  30  37
ENDBRANCH   4  30
TORSDOF 12
