REMARK  Name = outputs/IAG933/test6/raw/output_8004_IAG933_linker_design_.xyz
REMARK  14 active torsions:
REMARK  status: ('A' for Active; 'I' for Inactive)
REMARK    1  A    between atoms: C_1  and  C_2
REMARK    2  A    between atoms: C_1  and  C_8
REMARK    3  A    between atoms: C_1  and  N_35
REMARK    4  A    between atoms: C_13  and  O_37
REMARK    5  A    between atoms: C_14  and  C_15
REMARK    6  A    between atoms: C_21  and  O_22
REMARK    7  A    between atoms: O_22  and  C_23
REMARK    8  A    between atoms: C_23  and  C_24
REMARK    9  A    between atoms: C_29  and  C_43
REMARK   10  A    between atoms: C_30  and  N_35
REMARK   11  A    between atoms: O_31  and  C_33
REMARK   12  A    between atoms: C_33  and  C_45
REMARK   13  A    between atoms: C_34  and  O_37
REMARK   14  A    between atoms: N_35  and  C_43
REMARK                            x       y       z     vdW  Elec       q    Type
REMARK                         _______ _______ _______ _____ _____    ______ ____
ROOT
ATOM      1  N   UNL A   1     -25.001  -0.037  29.006  0.00  0.00    -0.261 NA
ENDROOT
BRANCH   1   3
ATOM      2  C   UNL A   1     -22.297   0.034  29.256  0.00  0.00    -0.002 C 
ATOM      3  C   UNL A   1     -23.581   0.098  28.672  0.00  0.00    +0.139 C 
ATOM      4  C   UNL A   1     -23.683   0.843  27.525  0.00  0.00    +0.152 C 
ATOM      5  C   UNL A   1     -22.242   1.239  27.244  0.00  0.00    +0.089 C 
ATOM      6  C   UNL A   1     -21.441   0.810  28.315  0.00  0.00    +0.011 C 
ATOM      7 CL   UNL A   1     -21.883   2.380  25.949  0.00  0.00    -0.079 Cl
BRANCH   4   8
ATOM      8  O   UNL A   1     -24.571   1.262  27.172  0.00  0.00    -0.453 OA
BRANCH   8   9
ATOM      9  C   UNL A   1     -25.688   1.614  26.461  0.00  0.00    +0.183 C 
ATOM     10  C   UNL A   1     -26.250   2.920  26.395  0.00  0.00    +0.111 C 
ATOM     11  C   UNL A   1     -27.438   3.091  25.645  0.00  0.00    +0.110 C 
ATOM     12  N   UNL A   1     -28.075   2.089  25.003  0.00  0.00    -0.208 NA
ATOM     13  C   UNL A   1     -27.543   0.849  25.079  0.00  0.00    +0.256 C 
ATOM     14  C   UNL A   1     -26.354   0.576  25.777  0.00  0.00    +0.227 C 
ATOM     15  F   UNL A   1     -25.860  -0.681  25.795  0.00  0.00    -0.196 F 
BRANCH  10  16
ATOM     16  C   UNL A   1     -25.642   4.093  27.123  0.00  0.00    +0.269 C 
ATOM     17  N   UNL A   1     -25.614   5.252  26.449  0.00  0.00    -0.200 NA
ATOM     18  C   UNL A   1     -25.026   6.479  26.963  0.00  0.00    +0.139 C 
ATOM     19  O   UNL A   1     -25.143   3.966  28.243  0.00  0.00    -0.268 OA
ENDBRANCH  10  16
BRANCH  13  20
ATOM     20  O   UNL A   1     -28.193  -0.208  24.477  0.00  0.00    -0.456 OA
BRANCH  20  21
ATOM     21  C   UNL A   1     -29.460   0.005  23.866  0.00  0.00    +0.243 C 
BRANCH  21  22
ATOM     22  C   UNL A   1     -30.065  -1.377  23.573  0.00  0.00    +0.229 C 
ATOM     23  O   UNL A   1     -30.729  -1.878  24.721  0.00  0.00    -0.216 OA
ENDBRANCH  21  22
ENDBRANCH  20  21
ENDBRANCH  13  20
ENDBRANCH   8   9
ENDBRANCH   4   8
ENDBRANCH   1   3
BRANCH   1  24
ATOM     24  C   UNL A   1     -24.855  -1.012  30.143  0.00  0.00    +0.097 C 
BRANCH  24  25
ATOM     25  C   UNL A   1     -24.973  -2.505  29.788  0.00  0.00    -0.006 C 
ATOM     26  C   UNL A   1     -23.906  -3.173  29.146  0.00  0.00    -0.003 C 
ATOM     27  C   UNL A   1     -23.989  -4.549  28.853  0.00  0.00    -0.000 C 
ATOM     28  C   UNL A   1     -25.137  -5.280  29.205  0.00  0.00    -0.000 C 
ATOM     29  C   UNL A   1     -26.232  -4.611  29.784  0.00  0.00    -0.000 C 
ATOM     30  C   UNL A   1     -26.155  -3.232  30.065  0.00  0.00    -0.003 C 
ENDBRANCH  24  25
BRANCH  24  31
ATOM     31  C   UNL A   1     -25.387  -0.679  31.571  0.00  0.00    +0.092 C 
ATOM     32  C   UNL A   1     -25.189   0.773  32.028  0.00  0.00    +0.021 C 
ATOM     33  C   UNL A   1     -25.336   0.684  33.544  0.00  0.00    +0.020 C 
ATOM     34  C   UNL A   1     -24.829  -0.715  33.905  0.00  0.00    +0.089 C 
ATOM     35  N   UNL A   1     -24.758  -1.481  32.646  0.00  0.00    -0.218 NA
ENDBRANCH  24  31
ENDBRANCH   1  24
BRANCH   1  36
ATOM     36  C   UNL A   1     -26.600  -0.026  28.782  0.00  0.00    +0.076 C 
BRANCH  36  37
ATOM     37  C   UNL A   1     -28.127   0.447  28.792  0.00  0.00    +0.054 C 
ATOM     38  C   UNL A   1     -30.479  -0.441  28.549  0.00  0.00    +0.032 C 
ATOM     39  C   UNL A   1     -29.147   0.015  27.946  0.00  0.00    +0.007 C 
ATOM     40  C   UNL A   1     -30.923   0.398  29.652  0.00  0.00    +0.143 C 
ATOM     41  C   UNL A   1     -28.762   1.387  29.782  0.00  0.00    +0.214 C 
ATOM     42  O   UNL A   1     -29.825   1.010  30.407  0.00  0.00    -0.345 OA
BRANCH  41  43
ATOM     43  C   UNL A   1     -27.928   2.764  29.851  0.00  0.00    +0.344 C 
ATOM     44  O   UNL A   1     -28.546   4.060  29.771  0.00  0.00    -0.247 OA
BRANCH  43  45
ATOM     45  O   UNL A   1     -26.676   3.022  30.390  0.00  0.00    -0.443 OA
ATOM     46  C   UNL A   1     -26.336   4.278  30.995  0.00  0.00    +0.256 C 
ENDBRANCH  43  45
ENDBRANCH  41  43
ENDBRANCH  36  37
ENDBRANCH   1  36
TORSDOF 14
