REMARK  Name = outputs/IAG933/test6/raw/output_8005_IAG933_linker_design_.xyz
REMARK  13 active torsions:
REMARK  status: ('A' for Active; 'I' for Inactive)
REMARK    1  A    between atoms: C_1  and  C_2
REMARK    2  A    between atoms: C_1  and  C_8
REMARK    3  A    between atoms: C_1  and  C_42
REMARK    4  A    between atoms: C_13  and  C_44
REMARK    5  A    between atoms: C_14  and  C_15
REMARK    6  A    between atoms: C_21  and  O_22
REMARK    7  A    between atoms: O_22  and  C_23
REMARK    8  A    between atoms: C_23  and  C_24
REMARK    9  A    between atoms: O_29  and  C_33
REMARK   10  A    between atoms: C_31  and  O_41
REMARK   11  A    between atoms: C_31  and  N_45
REMARK   12  A    between atoms: O_41  and  C_49
REMARK   13  A    between atoms: N_47  and  C_50
REMARK                            x       y       z     vdW  Elec       q    Type
REMARK                         _______ _______ _______ _____ _____    ______ ____
ROOT
ATOM      1  F   UNL A   1     -21.009   1.764  27.443  0.00  0.00    -0.217 F 
ATOM      2  C   UNL A   1     -23.309   1.546  26.985  0.00  0.00    +0.161 C 
ATOM      3  S   UNL A   1     -22.506   0.425  29.188  0.00  0.00    -0.075 S 
ATOM      4  C   UNL A   1     -22.226   1.328  27.750  0.00  0.00    +0.268 C 
ATOM      5  C   UNL A   1     -24.196   0.025  29.192  0.00  0.00    +0.026 C 
ATOM      6  C   UNL A   1     -24.608   1.287  27.271  0.00  0.00    +0.051 C 
ATOM      7  C   UNL A   1     -25.142   0.459  28.333  0.00  0.00    +0.080 C 
ENDROOT
BRANCH   6   8
ATOM      8  C   UNL A   1     -25.688   1.614  26.461  0.00  0.00    +0.042 C 
ATOM      9  C   UNL A   1     -26.250   2.920  26.395  0.00  0.00    +0.077 C 
ATOM     10  C   UNL A   1     -27.438   3.091  25.645  0.00  0.00    +0.107 C 
ATOM     11  N   UNL A   1     -28.075   2.089  25.003  0.00  0.00    -0.208 NA
ATOM     12  C   UNL A   1     -27.543   0.849  25.079  0.00  0.00    +0.253 C 
ATOM     13  C   UNL A   1     -26.354   0.576  25.777  0.00  0.00    +0.193 C 
ATOM     14  F   UNL A   1     -25.860  -0.681  25.795  0.00  0.00    -0.199 F 
BRANCH   9  15
ATOM     15  C   UNL A   1     -25.642   4.093  27.123  0.00  0.00    +0.266 C 
ATOM     16  N   UNL A   1     -25.614   5.252  26.449  0.00  0.00    -0.200 NA
ATOM     17  C   UNL A   1     -25.026   6.479  26.963  0.00  0.00    +0.139 C 
ATOM     18  O   UNL A   1     -25.143   3.966  28.243  0.00  0.00    -0.268 OA
ENDBRANCH   9  15
BRANCH  12  19
ATOM     19  O   UNL A   1     -28.193  -0.208  24.477  0.00  0.00    -0.456 OA
BRANCH  19  20
ATOM     20  C   UNL A   1     -29.460   0.005  23.866  0.00  0.00    +0.243 C 
BRANCH  20  21
ATOM     21  C   UNL A   1     -30.065  -1.377  23.573  0.00  0.00    +0.229 C 
ATOM     22  O   UNL A   1     -30.729  -1.878  24.721  0.00  0.00    -0.216 OA
ENDBRANCH  20  21
ENDBRANCH  19  20
ENDBRANCH  12  19
ENDBRANCH   6   8
BRANCH   7  26
ATOM     23  C   UNL A   1     -27.558  -0.133  29.227  0.00  0.00    +0.346 C 
ATOM     24  O   UNL A   1     -28.087  -0.873  28.487  0.00  0.00    -0.249 OA
ATOM     25  N   UNL A   1     -28.104   0.346  30.341  0.00  0.00    -0.159 NA
ATOM     26  N   UNL A   1     -26.511   0.469  28.506  0.00  0.00    -0.161 NA
BRANCH  25  27
ATOM     27  C   UNL A   1     -29.348   0.019  30.826  0.00  0.00    +0.214 C 
ATOM     28  C   UNL A   1     -29.787  -1.448  30.660  0.00  0.00    +0.057 C 
BRANCH  27  29
ATOM     29  O   UNL A   1     -30.440   0.823  30.996  0.00  0.00    -0.323 OA
BRANCH  29  36
ATOM     30  C   UNL A   1     -29.584   3.505  33.584  0.00  0.00    +0.019 C 
ATOM     31  C   UNL A   1     -29.107   2.131  33.119  0.00  0.00    +0.074 C 
ATOM     32  C   UNL A   1     -28.815   3.862  31.398  0.00  0.00    +0.074 C 
ATOM     33  C   UNL A   1     -31.153   3.008  31.660  0.00  0.00    +0.048 C 
ATOM     34  N   UNL A   1     -28.973   2.351  31.652  0.00  0.00    -0.251 NA
ATOM     35  C   UNL A   1     -30.166   4.025  32.266  0.00  0.00    +0.021 C 
ATOM     36  C   UNL A   1     -30.284   2.049  30.985  0.00  0.00    +0.178 C 
ENDBRANCH  29  36
ENDBRANCH  27  29
ENDBRANCH  25  27
ENDBRANCH   7  26
BRANCH   2  38
ATOM     37  C   UNL A   1     -23.350   1.053  24.711  0.00  0.00    +0.252 C 
ATOM     38  O   UNL A   1     -23.013   1.995  25.744  0.00  0.00    -0.472 OA
ENDBRANCH   2  38
BRANCH   5  39
ATOM     39  C   UNL A   1     -24.855  -1.012  30.143  0.00  0.00    +0.068 C 
BRANCH  39  40
ATOM     40  C   UNL A   1     -24.973  -2.505  29.788  0.00  0.00    -0.017 C 
ATOM     41  C   UNL A   1     -23.906  -3.173  29.146  0.00  0.00    -0.004 C 
ATOM     42  C   UNL A   1     -23.989  -4.549  28.853  0.00  0.00    -0.000 C 
ATOM     43  C   UNL A   1     -25.137  -5.280  29.205  0.00  0.00    -0.000 C 
ATOM     44  C   UNL A   1     -26.232  -4.611  29.784  0.00  0.00    -0.000 C 
ATOM     45  C   UNL A   1     -26.155  -3.232  30.065  0.00  0.00    -0.004 C 
ENDBRANCH  39  40
BRANCH  39  46
ATOM     46  C   UNL A   1     -25.387  -0.679  31.571  0.00  0.00    +0.081 C 
ATOM     47  C   UNL A   1     -25.189   0.773  32.028  0.00  0.00    +0.019 C 
ATOM     48  C   UNL A   1     -25.336   0.684  33.544  0.00  0.00    +0.020 C 
ATOM     49  C   UNL A   1     -24.829  -0.715  33.905  0.00  0.00    +0.089 C 
ATOM     50  N   UNL A   1     -24.758  -1.481  32.646  0.00  0.00    -0.219 NA
ENDBRANCH  39  46
ENDBRANCH   5  39
TORSDOF 13
