MODEL 800
MODEL 1
REMARK VINA RESULT:    -6.891      0.000      0.000
REMARK INTER + INTRA:          -9.441
REMARK INTER:                  -8.502
REMARK INTRA:                  -0.940
REMARK UNBOUND:                -0.940
REMARK  Name = No_800-gen_results/8p0m/2024-11-27-11-27-31/
REMARK  4 active torsions:
REMARK  status: ('A' for Active; 'I' for Inactive)
REMARK    1  A    between atoms: C_1  and  C_8
REMARK    2  A    between atoms: C_8  and  O_9
REMARK    3  A    between atoms: O_9  and  C_22
REMARK    4  A    between atoms: C_23  and  C_24
REMARK                            x       y       z     vdW  Elec       q    Type
REMARK                         _______ _______ _______ _____ _____    ______ ____
ROOT
ATOM      1  C   UNL A   1     -23.547   0.213  31.048  0.00  0.00    +0.075 C 
ATOM      2  C   UNL A   1     -23.599   0.680  29.934  0.00  0.00    -0.023 C 
ATOM      3  C   UNL A   1     -22.720   0.388  28.905  0.00  0.00    +0.099 C 
ATOM      4  C   UNL A   1     -22.709   0.990  27.593  0.00  0.00    +0.032 C 
ATOM      5  C   UNL A   1     -23.681   1.973  27.292  0.00  0.00    +0.105 C 
ATOM      6  C   UNL A   1     -24.616   2.317  28.304  0.00  0.00    +0.033 C 
ATOM      7  C   UNL A   1     -24.526   1.714  29.520  0.00  0.00    +0.028 C 
ATOM      8  C   UNL A   1     -23.747   2.604  25.976  0.00  0.00    +0.317 C 
ATOM      9  O   UNL A   1     -22.832   2.562  25.166  0.00  0.00    -0.250 OA
ATOM     10  O   UNL A   1     -24.618   3.630  25.811  0.00  0.00    -0.444 OA
ATOM     11 CL   UNL A   1     -21.455  -0.706  29.151  0.00  0.00    -0.111 Cl
ATOM     12  C   UNL A   1     -25.621   3.372  28.075  0.00  0.00    -0.043 C 
ATOM     13  C   UNL A   1     -25.569   4.423  27.957  0.00  0.00    +0.021 C 
ATOM     14  C   UNL A   1     -26.385   5.501  28.465  0.00  0.00    +0.167 C 
ATOM     15  C   UNL A   1     -24.823   5.011  26.674  0.00  0.00    +0.233 C 
ATOM     16  O   UNL A   1     -27.360   5.094  29.293  0.00  0.00    -0.349 OA
ATOM     17  C   UNL A   1     -27.270   3.894  30.084  0.00  0.00    +0.147 C 
ATOM     18  C   UNL A   1     -27.051   2.769  28.679  0.00  0.00    +0.054 C 
ENDROOT
BRANCH   1  19
ATOM     19  C   UNL A   1     -24.739  -0.634  31.433  0.00  0.00    +0.345 C 
ATOM     20  O   UNL A   1     -25.233  -0.525  32.548  0.00  0.00    -0.244 OA
BRANCH  19  21
ATOM     21  O   UNL A   1     -24.857  -1.798  30.855  0.00  0.00    -0.418 OA
BRANCH  21  22
ATOM     22  C   UNL A   1     -25.666  -2.246  30.274  0.00  0.00    +0.183 C 
ATOM     23  C   UNL A   1     -25.424  -3.020  29.321  0.00  0.00    +0.041 C 
BRANCH  23  24
ATOM     24  C   UNL A   1     -24.191  -3.344  28.941  0.00  0.00    +0.003 C 
ATOM     25  C   UNL A   1     -24.036  -4.671  28.493  0.00  0.00    +0.000 C 
ENDBRANCH  23  24
ENDBRANCH  21  22
ENDBRANCH  19  21
ENDBRANCH   1  19
TORSDOF 4
ENDMDL
ENDMDL
