MODEL 801
MODEL 1
REMARK VINA RESULT:    -6.215      0.000      0.000
REMARK INTER + INTRA:          -5.899
REMARK INTER:                  -6.578
REMARK INTRA:                   0.679
REMARK UNBOUND:                 0.679
REMARK  Name = No_801-gen_results/8p0m/2024-11-27-11-27-31/
REMARK  1 active torsions:
REMARK  status: ('A' for Active; 'I' for Inactive)
REMARK    1  A    between atoms: C_2  and  C_7
REMARK                            x       y       z     vdW  Elec       q    Type
REMARK                         _______ _______ _______ _____ _____    ______ ____
ROOT
ATOM      1  C   UNL A   1     -23.842  -1.091  29.452  0.00  0.00    +0.249 C 
ATOM      2  N   UNL A   1     -23.987  -0.213  28.600  0.00  0.00    -0.276 N 
ATOM      3  O   UNL A   1     -22.777  -1.112  30.150  0.00  0.00    -0.270 OA
ATOM      4  C   UNL A   1     -23.378   0.656  28.229  0.00  0.00    +0.094 C 
ATOM      5  C   UNL A   1     -23.432   1.156  27.064  0.00  0.00    +0.022 C 
ATOM      6  C   UNL A   1     -24.531   0.731  26.239  0.00  0.00    +0.004 C 
ATOM      7  C   UNL A   1     -25.351  -0.301  26.531  0.00  0.00    +0.022 C 
ATOM      8  C   UNL A   1     -25.067  -0.829  27.639  0.00  0.00    +0.094 C 
ENDROOT
BRANCH   1  10
ATOM      9  C   UNL A   1     -25.549  -2.322  29.982  0.00  0.00    +0.004 A 
ATOM     10  C   UNL A   1     -24.643  -2.456  29.460  0.00  0.00    +0.054 A 
ATOM     11  C   UNL A   1     -26.457  -3.530  30.030  0.00  0.00    +0.000 A 
ATOM     12  C   UNL A   1     -25.996  -4.762  29.519  0.00  0.00    +0.000 A 
ATOM     13  C   UNL A   1     -23.925  -3.614  28.880  0.00  0.00    +0.004 A 
ATOM     14  C   UNL A   1     -24.727  -4.745  28.912  0.00  0.00    +0.000 A 
ENDBRANCH   1  10
TORSDOF 1
ENDMDL
ENDMDL
