REMARK  Name = outputs/IAG933/test6/raw/output_802_IAG933_linker_design_.xyz
REMARK  11 active torsions:
REMARK  status: ('A' for Active; 'I' for Inactive)
REMARK    1  A    between atoms: C_1  and  C_2
REMARK    2  A    between atoms: C_1  and  C_8
REMARK    3  A    between atoms: C_9  and  C_37
REMARK    4  A    between atoms: C_14  and  C_15
REMARK    5  A    between atoms: C_15  and  O_18
REMARK    6  A    between atoms: O_18  and  C_39
REMARK    7  A    between atoms: C_21  and  O_22
REMARK    8  A    between atoms: O_22  and  C_23
REMARK    9  A    between atoms: C_23  and  C_24
REMARK   10  A    between atoms: C_35  and  N_44
REMARK   11  A    between atoms: C_36  and  CA_42
REMARK                            x       y       z     vdW  Elec       q    Type
REMARK                         _______ _______ _______ _____ _____    ______ ____
ROOT
ATOM      1  C   UNL A   1     -28.789   4.986  33.011  0.00  0.00    +0.091 C 
ATOM      2  C   UNL A   1     -24.792   2.407  30.113  0.00  0.00    +0.122 A 
ATOM      3  C   UNL A   1     -25.258   2.097  31.324  0.00  0.00    +0.011 A 
ATOM      4  N   UNL A   1     -26.008   4.100  30.649  0.00  0.00    -0.302 N 
ATOM      5  C   UNL A   1     -25.468   3.581  29.574  0.00  0.00    +0.228 A 
ATOM      6  C   UNL A   1     -26.744   5.293  30.927  0.00  0.00    +0.110 C 
ATOM      7  C   UNL A   1     -25.704   3.292  31.808  0.00  0.00    +0.039 A 
ATOM      8  CA  UNL A   1     -26.598   4.513  34.030  0.00  0.00    +0.112 C 
ATOM      9  C   UNL A   1     -25.599   3.821  33.023  0.00  0.00    +0.064 C 
ATOM     10  N   UNL A   1     -27.635   5.553  33.769  0.00  0.00    -0.216 NA
ATOM     11  C   UNL A   1     -28.155   4.887  31.584  0.00  0.00    +0.043 C 
ENDROOT
BRANCH   2  18
ATOM     12  C   UNL A   1     -21.657   1.710  27.503  0.00  0.00    +0.355 A 
ATOM     13  N   UNL A   1     -20.839   2.377  26.787  0.00  0.00    -0.067 NA
ATOM     14  N   UNL A   1     -22.161   0.419  29.312  0.00  0.00    -0.036 NA
ATOM     15  O   UNL A   1     -21.152   0.724  28.438  0.00  0.00    -0.312 OA
ATOM     16  N   UNL A   1     -22.921   1.834  27.650  0.00  0.00    -0.156 NA
ATOM     17  C   UNL A   1     -23.015   1.385  28.938  0.00  0.00    +0.281 A 
ATOM     18  N   UNL A   1     -23.572   2.097  29.815  0.00  0.00    -0.171 NA
ENDBRANCH   2  18
BRANCH   3  20
ATOM     19  C   UNL A   1     -25.387  -0.679  31.571  0.00  0.00    +0.081 C 
ATOM     20  C   UNL A   1     -25.189   0.773  32.028  0.00  0.00    +0.043 C 
ATOM     21  C   UNL A   1     -25.336   0.684  33.544  0.00  0.00    +0.025 C 
ATOM     22  C   UNL A   1     -24.829  -0.715  33.905  0.00  0.00    +0.089 C 
ATOM     23  N   UNL A   1     -24.758  -1.481  32.646  0.00  0.00    -0.219 NA
BRANCH  19  24
ATOM     24  C   UNL A   1     -24.855  -1.012  30.143  0.00  0.00    +0.044 C 
BRANCH  24  25
ATOM     25  C   UNL A   1     -24.973  -2.505  29.788  0.00  0.00    -0.021 C 
ATOM     26  C   UNL A   1     -23.906  -3.173  29.146  0.00  0.00    -0.004 C 
ATOM     27  C   UNL A   1     -23.989  -4.549  28.853  0.00  0.00    -0.000 C 
ATOM     28  C   UNL A   1     -25.137  -5.280  29.205  0.00  0.00    -0.000 C 
ATOM     29  C   UNL A   1     -26.232  -4.611  29.784  0.00  0.00    -0.000 C 
ATOM     30  C   UNL A   1     -26.155  -3.232  30.065  0.00  0.00    -0.004 C 
ENDBRANCH  24  25
ENDBRANCH  19  24
ENDBRANCH   3  20
BRANCH   8  32
ATOM     31  O   UNL A   1     -28.118   4.347  35.866  0.00  0.00    -0.219 OA
ATOM     32  C   UNL A   1     -27.386   3.586  34.899  0.00  0.00    +0.200 C 
ENDBRANCH   8  32
BRANCH   5  33
ATOM     33  O   UNL A   1     -25.143   3.966  28.243  0.00  0.00    -0.419 OA
BRANCH  33  34
ATOM     34  C   UNL A   1     -25.642   4.093  27.123  0.00  0.00    +0.229 C 
ATOM     35  N   UNL A   1     -25.614   5.252  26.449  0.00  0.00    -0.235 NA
ATOM     36  C   UNL A   1     -25.026   6.479  26.963  0.00  0.00    +0.155 C 
BRANCH  34  38
ATOM     37  C   UNL A   1     -25.688   1.614  26.461  0.00  0.00    +0.041 C 
ATOM     38  C   UNL A   1     -26.250   2.920  26.395  0.00  0.00    +0.075 C 
ATOM     39  C   UNL A   1     -27.438   3.091  25.645  0.00  0.00    +0.107 C 
ATOM     40  N   UNL A   1     -28.075   2.089  25.003  0.00  0.00    -0.208 NA
ATOM     41  C   UNL A   1     -27.543   0.849  25.079  0.00  0.00    +0.253 C 
ATOM     42  C   UNL A   1     -26.354   0.576  25.777  0.00  0.00    +0.193 C 
ATOM     43  F   UNL A   1     -25.860  -0.681  25.795  0.00  0.00    -0.199 F 
BRANCH  41  44
ATOM     44  O   UNL A   1     -28.193  -0.208  24.477  0.00  0.00    -0.456 OA
BRANCH  44  45
ATOM     45  C   UNL A   1     -29.460   0.005  23.866  0.00  0.00    +0.243 C 
BRANCH  45  46
ATOM     46  C   UNL A   1     -30.065  -1.377  23.573  0.00  0.00    +0.229 C 
ATOM     47  O   UNL A   1     -30.729  -1.878  24.721  0.00  0.00    -0.216 OA
ENDBRANCH  45  46
ENDBRANCH  44  45
ENDBRANCH  41  44
ENDBRANCH  34  38
ENDBRANCH  33  34
ENDBRANCH   5  33
TORSDOF 11
