REMARK  Name = outputs/IAG933/test6/raw/output_8023_IAG933_linker_design_.xyz
REMARK  13 active torsions:
REMARK  status: ('A' for Active; 'I' for Inactive)
REMARK    1  A    between atoms: C_1  and  C_2
REMARK    2  A    between atoms: C_1  and  C_8
REMARK    3  A    between atoms: C_9  and  C_30
REMARK    4  A    between atoms: C_13  and  C_34
REMARK    5  A    between atoms: C_14  and  C_15
REMARK    6  A    between atoms: C_21  and  O_22
REMARK    7  A    between atoms: O_22  and  C_23
REMARK    8  A    between atoms: C_23  and  C_24
REMARK    9  A    between atoms: C_30  and  C_33
REMARK   10  A    between atoms: C_33  and  N_37
REMARK   11  A    between atoms: C_33  and  C_42
REMARK   12  A    between atoms: C_35  and  N_44
REMARK   13  A    between atoms: C_42  and  N_44
REMARK                            x       y       z     vdW  Elec       q    Type
REMARK                         _______ _______ _______ _____ _____    ______ ____
ROOT
ATOM      1  C   UNL A   1     -24.997   2.580  29.866  0.00  0.00    +0.128 C 
ENDROOT
BRANCH   1   2
ATOM      2  C   UNL A   1     -24.649   3.006  31.285  0.00  0.00    +0.080 C 
BRANCH   2   6
ATOM      3  C   UNL A   1     -24.221   5.736  32.920  0.00  0.00    +0.018 C 
ATOM      4  C   UNL A   1     -25.009   4.962  33.952  0.00  0.00    +0.018 C 
ATOM      5  C   UNL A   1     -25.377   5.154  32.545  0.00  0.00    +0.061 C 
ATOM      6  N   UNL A   1     -25.661   4.078  31.771  0.00  0.00    -0.260 NA
ATOM      7  N   UNL A   1     -27.566   5.054  32.318  0.00  0.00    -0.256 NA
ATOM      8  C   UNL A   1     -26.494   6.182  32.387  0.00  0.00    +0.088 C 
ATOM      9  C   UNL A   1     -27.882   4.612  31.206  0.00  0.00    +0.091 C 
ATOM     10  C   UNL A   1     -27.225   4.120  32.397  0.00  0.00    +0.149 C 
ENDBRANCH   2   6
BRANCH   2  11
ATOM     11  C   UNL A   1     -24.246   1.882  31.564  0.00  0.00    +0.019 C 
BRANCH  11  13
ATOM     12  C   UNL A   1     -25.387  -0.679  31.571  0.00  0.00    +0.077 C 
ATOM     13  C   UNL A   1     -25.189   0.773  32.028  0.00  0.00    +0.019 C 
ATOM     14  C   UNL A   1     -25.336   0.684  33.544  0.00  0.00    +0.020 C 
ATOM     15  C   UNL A   1     -24.829  -0.715  33.905  0.00  0.00    +0.089 C 
ATOM     16  N   UNL A   1     -24.758  -1.481  32.646  0.00  0.00    -0.219 NA
BRANCH  12  17
ATOM     17  C   UNL A   1     -24.855  -1.012  30.143  0.00  0.00    +0.044 C 
BRANCH  17  18
ATOM     18  C   UNL A   1     -24.973  -2.505  29.788  0.00  0.00    -0.021 C 
ATOM     19  C   UNL A   1     -23.906  -3.173  29.146  0.00  0.00    -0.004 C 
ATOM     20  C   UNL A   1     -23.989  -4.549  28.853  0.00  0.00    -0.000 C 
ATOM     21  C   UNL A   1     -25.137  -5.280  29.205  0.00  0.00    -0.000 C 
ATOM     22  C   UNL A   1     -26.232  -4.611  29.784  0.00  0.00    -0.000 C 
ATOM     23  C   UNL A   1     -26.155  -3.232  30.065  0.00  0.00    -0.004 C 
ENDBRANCH  17  18
ENDBRANCH  12  17
ENDBRANCH  11  13
ENDBRANCH   2  11
ENDBRANCH   1   2
BRANCH   1  24
ATOM     24  N   UNL A   1     -23.777   1.959  29.093  0.00  0.00    -0.233 NA
BRANCH  24  27
ATOM     25  O   UNL A   1     -21.419   2.006  26.258  0.00  0.00    -0.466 OA
ATOM     26  C   UNL A   1     -24.166   1.691  26.476  0.00  0.00    +0.002 C 
ATOM     27  C   UNL A   1     -23.352   1.815  27.692  0.00  0.00    +0.099 C 
ATOM     28  C   UNL A   1     -22.170   2.028  25.131  0.00  0.00    +0.232 C 
ATOM     29  C   UNL A   1     -23.534   1.768  25.196  0.00  0.00    +0.018 C 
ATOM     30  C   UNL A   1     -21.944   1.897  27.513  0.00  0.00    +0.188 C 
BRANCH  26  31
ATOM     31  C   UNL A   1     -25.688   1.614  26.461  0.00  0.00    +0.093 C 
ATOM     32  C   UNL A   1     -26.250   2.920  26.395  0.00  0.00    +0.059 C 
ATOM     33  C   UNL A   1     -27.438   3.091  25.645  0.00  0.00    +0.102 C 
ATOM     34  N   UNL A   1     -28.075   2.089  25.003  0.00  0.00    -0.212 NA
ATOM     35  C   UNL A   1     -27.543   0.849  25.079  0.00  0.00    +0.234 C 
ATOM     36  C   UNL A   1     -26.354   0.576  25.777  0.00  0.00    +0.244 C 
ATOM     37  F   UNL A   1     -25.860  -0.681  25.795  0.00  0.00    -0.227 F 
BRANCH  32  38
ATOM     38  C   UNL A   1     -25.642   4.093  27.123  0.00  0.00    +0.263 C 
ATOM     39  N   UNL A   1     -25.614   5.252  26.449  0.00  0.00    -0.200 NA
ATOM     40  C   UNL A   1     -25.026   6.479  26.963  0.00  0.00    +0.139 C 
ATOM     41  O   UNL A   1     -25.143   3.966  28.243  0.00  0.00    -0.269 OA
ENDBRANCH  32  38
BRANCH  35  42
ATOM     42  O   UNL A   1     -28.193  -0.208  24.477  0.00  0.00    -0.459 OA
BRANCH  42  43
ATOM     43  C   UNL A   1     -29.460   0.005  23.866  0.00  0.00    +0.242 C 
BRANCH  43  44
ATOM     44  C   UNL A   1     -30.065  -1.377  23.573  0.00  0.00    +0.229 C 
ATOM     45  O   UNL A   1     -30.729  -1.878  24.721  0.00  0.00    -0.216 OA
ENDBRANCH  43  44
ENDBRANCH  42  43
ENDBRANCH  35  42
ENDBRANCH  26  31
ENDBRANCH  24  27
ENDBRANCH   1  24
TORSDOF 13
