MODEL 802
MODEL 1
REMARK VINA RESULT:    -6.426      0.000      0.000
REMARK INTER + INTRA:          -7.441
REMARK INTER:                  -7.177
REMARK INTRA:                  -0.264
REMARK UNBOUND:                -0.264
REMARK  Name = No_802-gen_results/8p0m/2024-11-27-11-27-31/
REMARK  2 active torsions:
REMARK  status: ('A' for Active; 'I' for Inactive)
REMARK    1  A    between atoms: C_2  and  O_7
REMARK    2  A    between atoms: O_7  and  C_8
REMARK                            x       y       z     vdW  Elec       q    Type
REMARK                         _______ _______ _______ _____ _____    ______ ____
ROOT
ATOM      1  C   UNL A   1     -23.713  -2.803  28.858  0.00  0.00    +0.067 A 
ATOM      2  C   UNL A   1     -24.290  -2.122  29.418  0.00  0.00    +0.147 A 
ATOM      3  C   UNL A   1     -24.266  -4.208  28.774  0.00  0.00    +0.143 A 
ATOM      4  C   UNL A   1     -25.544  -4.480  29.305  0.00  0.00    +0.030 A 
ATOM      5  C   UNL A   1     -25.638  -2.138  30.027  0.00  0.00    +0.038 A 
ATOM      6  C   UNL A   1     -26.182  -3.413  29.964  0.00  0.00    +0.005 A 
ATOM      7  F   UNL A   1     -23.664  -5.236  28.145  0.00  0.00    -0.204 F 
ENDROOT
BRANCH   2   8
ATOM      8  O   UNL A   1     -23.923  -0.726  29.524  0.00  0.00    -0.453 OA
BRANCH   8   9
ATOM      9  C   UNL A   1     -23.546  -0.195  28.358  0.00  0.00    +0.145 A 
ATOM     10  C   UNL A   1     -22.322   0.424  28.456  0.00  0.00    +0.037 A 
ATOM     11  C   UNL A   1     -22.072   1.573  27.641  0.00  0.00    +0.003 A 
ATOM     12  C   UNL A   1     -22.957   1.853  26.557  0.00  0.00    +0.000 A 
ATOM     13  C   UNL A   1     -24.142   1.164  26.479  0.00  0.00    +0.003 A 
ATOM     14  C   UNL A   1     -24.481   0.225  27.469  0.00  0.00    +0.037 A 
ENDBRANCH   8   9
ENDBRANCH   2   8
TORSDOF 2
ENDMDL
ENDMDL
