REMARK  Name = outputs/IAG933/test6/raw/output_8030_IAG933_linker_design_.xyz
REMARK  13 active torsions:
REMARK  status: ('A' for Active; 'I' for Inactive)
REMARK    1  A    between atoms: C_1  and  C_2
REMARK    2  A    between atoms: C_1  and  C_8
REMARK    3  A    between atoms: C_1  and  N_30
REMARK    4  A    between atoms: C_13  and  C_31
REMARK    5  A    between atoms: C_14  and  C_15
REMARK    6  A    between atoms: C_21  and  O_22
REMARK    7  A    between atoms: O_22  and  C_23
REMARK    8  A    between atoms: C_23  and  C_24
REMARK    9  A    between atoms: C_29  and  N_30
REMARK   10  A    between atoms: C_29  and  C_40
REMARK   11  A    between atoms: N_30  and  C_34
REMARK   12  A    between atoms: C_34  and  C_39
REMARK   13  A    between atoms: C_34  and  C_41
REMARK                            x       y       z     vdW  Elec       q    Type
REMARK                         _______ _______ _______ _____ _____    ______ ____
ROOT
ATOM      1  F   UNL A   1     -20.693   2.031  28.181  0.00  0.00    -0.164 F 
ATOM      2  C   UNL A   1     -24.112   1.455  26.585  0.00  0.00    -0.011 C 
ATOM      3  C   UNL A   1     -22.240   2.005  25.026  0.00  0.00    +0.234 C 
ATOM      4  C   UNL A   1     -23.553   1.699  25.298  0.00  0.00    +0.017 C 
ATOM      5  O   UNL A   1     -21.296   1.856  26.016  0.00  0.00    -0.449 OA
ATOM      6  C   UNL A   1     -22.979   1.211  27.685  0.00  0.00    +0.081 C 
ATOM      7  C   UNL A   1     -21.677   1.651  27.297  0.00  0.00    +0.283 C 
ENDROOT
BRANCH   2   8
ATOM      8  C   UNL A   1     -25.688   1.614  26.461  0.00  0.00    +0.092 C 
ATOM      9  C   UNL A   1     -26.250   2.920  26.395  0.00  0.00    +0.059 C 
ATOM     10  C   UNL A   1     -27.438   3.091  25.645  0.00  0.00    +0.102 C 
ATOM     11  N   UNL A   1     -28.075   2.089  25.003  0.00  0.00    -0.212 NA
ATOM     12  C   UNL A   1     -27.543   0.849  25.079  0.00  0.00    +0.234 C 
ATOM     13  C   UNL A   1     -26.354   0.576  25.777  0.00  0.00    +0.244 C 
ATOM     14  F   UNL A   1     -25.860  -0.681  25.795  0.00  0.00    -0.227 F 
BRANCH   9  15
ATOM     15  C   UNL A   1     -25.642   4.093  27.123  0.00  0.00    +0.263 C 
ATOM     16  N   UNL A   1     -25.614   5.252  26.449  0.00  0.00    -0.200 NA
ATOM     17  C   UNL A   1     -25.026   6.479  26.963  0.00  0.00    +0.139 C 
ATOM     18  O   UNL A   1     -25.143   3.966  28.243  0.00  0.00    -0.269 OA
ENDBRANCH   9  15
BRANCH  12  19
ATOM     19  O   UNL A   1     -28.193  -0.208  24.477  0.00  0.00    -0.459 OA
BRANCH  19  20
ATOM     20  C   UNL A   1     -29.460   0.005  23.866  0.00  0.00    +0.242 C 
BRANCH  20  21
ATOM     21  C   UNL A   1     -30.065  -1.377  23.573  0.00  0.00    +0.229 C 
ATOM     22  O   UNL A   1     -30.729  -1.878  24.721  0.00  0.00    -0.216 OA
ENDBRANCH  20  21
ENDBRANCH  19  20
ENDBRANCH  12  19
ENDBRANCH   2   8
BRANCH   6  24
ATOM     23  F   UNL A   1     -22.792   1.601  29.991  0.00  0.00    -0.218 F 
ATOM     24  C   UNL A   1     -23.100   0.571  29.116  0.00  0.00    +0.206 C 
BRANCH  24  26
ATOM     25  C   UNL A   1     -20.924  -0.785  28.492  0.00  0.00    +0.005 C 
ATOM     26  C   UNL A   1     -21.982  -0.517  29.336  0.00  0.00    +0.053 C 
ENDBRANCH  24  26
BRANCH  24  27
ATOM     27  N   UNL A   1     -24.244   0.094  29.428  0.00  0.00    -0.235 NA
BRANCH  27  28
ATOM     28  C   UNL A   1     -24.855  -1.012  30.143  0.00  0.00    +0.099 C 
BRANCH  28  29
ATOM     29  C   UNL A   1     -24.973  -2.505  29.788  0.00  0.00    -0.006 C 
ATOM     30  C   UNL A   1     -23.906  -3.173  29.146  0.00  0.00    -0.003 C 
ATOM     31  C   UNL A   1     -23.989  -4.549  28.853  0.00  0.00    -0.000 C 
ATOM     32  C   UNL A   1     -25.137  -5.280  29.205  0.00  0.00    -0.000 C 
ATOM     33  C   UNL A   1     -26.232  -4.611  29.784  0.00  0.00    -0.000 C 
ATOM     34  C   UNL A   1     -26.155  -3.232  30.065  0.00  0.00    -0.003 C 
ENDBRANCH  28  29
BRANCH  28  35
ATOM     35  C   UNL A   1     -25.387  -0.679  31.571  0.00  0.00    +0.092 C 
ATOM     36  C   UNL A   1     -25.189   0.773  32.028  0.00  0.00    +0.021 C 
ATOM     37  C   UNL A   1     -25.336   0.684  33.544  0.00  0.00    +0.020 C 
ATOM     38  C   UNL A   1     -24.829  -0.715  33.905  0.00  0.00    +0.089 C 
ATOM     39  N   UNL A   1     -24.758  -1.481  32.646  0.00  0.00    -0.218 NA
ENDBRANCH  28  35
ENDBRANCH  27  28
BRANCH  27  40
ATOM     40  C   UNL A   1     -25.174   0.439  28.549  0.00  0.00    +0.148 C 
BRANCH  40  42
ATOM     41  O   UNL A   1     -27.476  -0.025  29.360  0.00  0.00    -0.287 OA
ATOM     42  C   UNL A   1     -26.504  -0.282  28.662  0.00  0.00    +0.225 C 
ENDBRANCH  40  42
ENDBRANCH  27  40
ENDBRANCH  24  27
ENDBRANCH   6  24
TORSDOF 13
