REMARK  Name = outputs/IAG933/test6/raw/output_8031_IAG933_linker_design_.xyz
REMARK  14 active torsions:
REMARK  status: ('A' for Active; 'I' for Inactive)
REMARK    1  A    between atoms: C_1  and  C_2
REMARK    2  A    between atoms: C_1  and  C_8
REMARK    3  A    between atoms: C_9  and  C_44
REMARK    4  A    between atoms: C_13  and  N_28
REMARK    5  A    between atoms: C_14  and  C_15
REMARK    6  A    between atoms: C_21  and  O_22
REMARK    7  A    between atoms: O_22  and  C_23
REMARK    8  A    between atoms: C_23  and  C_24
REMARK    9  A    between atoms: N_28  and  C_36
REMARK   10  A    between atoms: O_31  and  C_34
REMARK   11  A    between atoms: O_31  and  O_37
REMARK   12  A    between atoms: O_37  and  C_44
REMARK   13  A    between atoms: C_41  and  N_42
REMARK   14  A    between atoms: N_42  and  C_44
REMARK                            x       y       z     vdW  Elec       q    Type
REMARK                         _______ _______ _______ _____ _____    ______ ____
ROOT
ATOM      1  N   UNL A   1     -24.105   1.906  29.826  0.00  0.00    -0.184 NA
ENDROOT
BRANCH   1   6
ATOM      2  C   UNL A   1     -21.591   2.139  26.278  0.00  0.00    +0.001 C 
ATOM      3  C   UNL A   1     -20.938   1.955  27.514  0.00  0.00    +0.001 C 
ATOM      4  C   UNL A   1     -23.671   1.663  27.471  0.00  0.00    +0.081 C 
ATOM      5  C   UNL A   1     -22.983   2.031  26.284  0.00  0.00    +0.017 C 
ATOM      6  C   UNL A   1     -23.069   1.783  28.593  0.00  0.00    +0.085 C 
ATOM      7  C   UNL A   1     -21.673   1.773  28.687  0.00  0.00    +0.018 C 
BRANCH   4   8
ATOM      8  N   UNL A   1     -24.885   1.154  27.371  0.00  0.00    -0.230 NA
BRANCH   8   9
ATOM      9  C   UNL A   1     -25.688   1.614  26.461  0.00  0.00    +0.162 C 
ATOM     10  C   UNL A   1     -26.250   2.920  26.395  0.00  0.00    +0.075 C 
ATOM     11  C   UNL A   1     -27.438   3.091  25.645  0.00  0.00    +0.104 C 
ATOM     12  N   UNL A   1     -28.075   2.089  25.003  0.00  0.00    -0.212 NA
ATOM     13  C   UNL A   1     -27.543   0.849  25.079  0.00  0.00    +0.236 C 
ATOM     14  C   UNL A   1     -26.354   0.576  25.777  0.00  0.00    +0.260 C 
ATOM     15  F   UNL A   1     -25.860  -0.681  25.795  0.00  0.00    -0.225 F 
BRANCH  10  16
ATOM     16  C   UNL A   1     -25.642   4.093  27.123  0.00  0.00    +0.264 C 
ATOM     17  N   UNL A   1     -25.614   5.252  26.449  0.00  0.00    -0.200 NA
ATOM     18  C   UNL A   1     -25.026   6.479  26.963  0.00  0.00    +0.139 C 
ATOM     19  O   UNL A   1     -25.143   3.966  28.243  0.00  0.00    -0.269 OA
ENDBRANCH  10  16
BRANCH  13  20
ATOM     20  O   UNL A   1     -28.193  -0.208  24.477  0.00  0.00    -0.459 OA
BRANCH  20  21
ATOM     21  C   UNL A   1     -29.460   0.005  23.866  0.00  0.00    +0.242 C 
BRANCH  21  22
ATOM     22  C   UNL A   1     -30.065  -1.377  23.573  0.00  0.00    +0.229 C 
ATOM     23  O   UNL A   1     -30.729  -1.878  24.721  0.00  0.00    -0.216 OA
ENDBRANCH  21  22
ENDBRANCH  20  21
ENDBRANCH  13  20
ENDBRANCH   8   9
ENDBRANCH   4   8
ENDBRANCH   1   6
BRANCH   1  24
ATOM     24  C   UNL A   1     -24.790   2.111  31.261  0.00  0.00    +0.340 C 
ATOM     25  O   UNL A   1     -23.781   2.905  31.954  0.00  0.00    -0.169 OA
BRANCH  24  27
ATOM     26  C   UNL A   1     -25.387  -0.679  31.571  0.00  0.00    +0.084 C 
ATOM     27  C   UNL A   1     -25.189   0.773  32.028  0.00  0.00    +0.097 C 
ATOM     28  C   UNL A   1     -25.336   0.684  33.544  0.00  0.00    +0.027 C 
ATOM     29  C   UNL A   1     -24.829  -0.715  33.905  0.00  0.00    +0.089 C 
ATOM     30  N   UNL A   1     -24.758  -1.481  32.646  0.00  0.00    -0.219 NA
BRANCH  26  31
ATOM     31  C   UNL A   1     -24.855  -1.012  30.143  0.00  0.00    +0.044 C 
BRANCH  31  32
ATOM     32  C   UNL A   1     -24.973  -2.505  29.788  0.00  0.00    -0.021 C 
ATOM     33  C   UNL A   1     -23.906  -3.173  29.146  0.00  0.00    -0.004 C 
ATOM     34  C   UNL A   1     -23.989  -4.549  28.853  0.00  0.00    -0.000 C 
ATOM     35  C   UNL A   1     -25.137  -5.280  29.205  0.00  0.00    -0.000 C 
ATOM     36  C   UNL A   1     -26.232  -4.611  29.784  0.00  0.00    -0.000 C 
ATOM     37  C   UNL A   1     -26.155  -3.232  30.065  0.00  0.00    -0.004 C 
ENDBRANCH  31  32
ENDBRANCH  26  31
ENDBRANCH  24  27
BRANCH  24  38
ATOM     38  O   UNL A   1     -25.792   2.990  31.124  0.00  0.00    -0.125 OA
BRANCH  38  39
ATOM     39  O   UNL A   1     -25.892   3.486  32.418  0.00  0.00    -0.330 OA
BRANCH  39  42
ATOM     40  C   UNL A   1     -25.678   7.170  32.674  0.00  0.00    +0.003 C 
ATOM     41  C   UNL A   1     -27.803   6.509  31.710  0.00  0.00    +0.003 C 
ATOM     42  C   UNL A   1     -26.215   4.867  32.404  0.00  0.00    +0.183 C 
ATOM     43  C   UNL A   1     -26.897   7.497  32.097  0.00  0.00    +0.000 C 
ATOM     44  C   UNL A   1     -25.365   5.851  32.892  0.00  0.00    +0.041 C 
ATOM     45  C   UNL A   1     -27.464   5.185  31.859  0.00  0.00    +0.041 C 
ENDBRANCH  39  42
ENDBRANCH  38  39
ENDBRANCH  24  38
ENDBRANCH   1  24
TORSDOF 14
