MODEL 804
MODEL 1
REMARK VINA RESULT:    -8.191      0.000      0.000
REMARK INTER + INTRA:         -13.057
REMARK INTER:                 -12.500
REMARK INTRA:                  -0.556
REMARK UNBOUND:                -0.556
REMARK  Name = No_804-gen_results/8p0m/2024-11-27-11-27-31/
REMARK  9 active torsions:
REMARK  status: ('A' for Active; 'I' for Inactive)
REMARK    1  A    between atoms: C_3  and  C_4
REMARK    2  A    between atoms: C_6  and  C_13
REMARK    3  A    between atoms: C_12  and  O_16
REMARK    4  A    between atoms: C_13  and  O_15
REMARK    5  A    between atoms: O_15  and  C_18
REMARK    6  A    between atoms: C_18  and  C_19
REMARK    7  A    between atoms: C_18  and  C_24
REMARK    8  A    between atoms: C_24  and  N_25
REMARK    9  A    between atoms: N_25  and  C_26
REMARK                            x       y       z     vdW  Elec       q    Type
REMARK                         _______ _______ _______ _____ _____    ______ ____
ROOT
ATOM      1  C   UNL A   1     -23.609   1.486  26.544  0.00  0.00    +0.343 C 
ATOM      2  O   UNL A   1     -23.145   2.615  26.528  0.00  0.00    -0.245 OA
ENDROOT
BRANCH   1   6
ATOM      3  C   UNL A   1     -24.985  -0.068  24.983  0.00  0.00    +0.006 A 
ATOM      4  C   UNL A   1     -26.045  -0.362  24.483  0.00  0.00    +0.000 A 
ATOM      5  C   UNL A   1     -27.133   0.503  24.545  0.00  0.00    +0.000 A 
ATOM      6  C   UNL A   1     -24.876   1.129  25.832  0.00  0.00    +0.076 A 
ATOM      7  C   UNL A   1     -25.877   2.068  25.885  0.00  0.00    +0.006 A 
ATOM      8  C   UNL A   1     -27.109   1.785  25.271  0.00  0.00    +0.000 A 
BRANCH   5   9
ATOM      9  C   UNL A   1     -28.490   0.252  23.979  0.00  0.00    +0.003 A 
ATOM     10  C   UNL A   1     -29.150  -1.024  23.931  0.00  0.00    +0.000 A 
ATOM     11  C   UNL A   1     -30.438  -1.091  23.446  0.00  0.00    +0.003 A 
ATOM     12  C   UNL A   1     -31.274  -0.061  23.160  0.00  0.00    +0.037 A 
ATOM     13  C   UNL A   1     -29.368   1.369  23.666  0.00  0.00    +0.037 A 
ATOM     14  C   UNL A   1     -30.701   1.178  23.260  0.00  0.00    +0.139 A 
BRANCH  14  15
ATOM     15  O   UNL A   1     -31.415   2.299  22.982  0.00  0.00    -0.471 OA
ATOM     16  C   UNL A   1     -31.651   2.668  21.771  0.00  0.00    +0.253 C 
ENDBRANCH  14  15
ENDBRANCH   5   9
ENDBRANCH   1   6
BRANCH   1  17
ATOM     17  O   UNL A   1     -23.019   0.584  27.232  0.00  0.00    -0.416 OA
BRANCH  17  18
ATOM     18  C   UNL A   1     -23.008   0.417  28.401  0.00  0.00    +0.367 C 
ATOM     19  O   UNL A   1     -23.493   1.710  28.898  0.00  0.00    -0.170 OA
BRANCH  18  20
ATOM     20  C   UNL A   1     -21.943   0.020  29.082  0.00  0.00    +0.462 C 
ATOM     21  F   UNL A   1     -21.960   0.115  30.391  0.00  0.00    -0.164 F 
ATOM     22  F   UNL A   1     -21.716  -1.334  28.906  0.00  0.00    -0.164 F 
ATOM     23  F   UNL A   1     -20.820   0.625  28.643  0.00  0.00    -0.164 F 
ENDBRANCH  18  20
BRANCH  18  24
ATOM     24  C   UNL A   1     -24.309  -0.472  28.795  0.00  0.00    +0.193 C 
BRANCH  24  25
ATOM     25  N   UNL A   1     -24.342  -1.439  28.201  0.00  0.00    -0.231 NA
BRANCH  25  26
ATOM     26  C   UNL A   1     -24.863  -2.564  28.948  0.00  0.00    +0.066 A 
ATOM     27  C   UNL A   1     -24.411  -3.810  28.628  0.00  0.00    +0.016 A 
ATOM     28  C   UNL A   1     -25.006  -4.964  29.105  0.00  0.00    +0.001 A 
ATOM     29  C   UNL A   1     -26.222  -4.847  29.766  0.00  0.00    +0.000 A 
ATOM     30  C   UNL A   1     -26.782  -3.591  29.995  0.00  0.00    +0.001 A 
ATOM     31  C   UNL A   1     -26.144  -2.444  29.558  0.00  0.00    +0.016 A 
ENDBRANCH  25  26
ENDBRANCH  24  25
ENDBRANCH  18  24
ENDBRANCH  17  18
ENDBRANCH   1  17
TORSDOF 9
ENDMDL
ENDMDL
