REMARK  Name = outputs/IAG933/test6/raw/output_8052_IAG933_linker_design_.xyz
REMARK  12 active torsions:
REMARK  status: ('A' for Active; 'I' for Inactive)
REMARK    1  A    between atoms: C_1  and  C_2
REMARK    2  A    between atoms: C_1  and  C_8
REMARK    3  A    between atoms: C_1  and  C_33
REMARK    4  A    between atoms: C_13  and  N_37
REMARK    5  A    between atoms: C_14  and  C_15
REMARK    6  A    between atoms: C_21  and  O_22
REMARK    7  A    between atoms: O_22  and  C_23
REMARK    8  A    between atoms: C_23  and  C_24
REMARK    9  A    between atoms: O_30  and  C_33
REMARK   10  A    between atoms: O_30  and  C_41
REMARK   11  A    between atoms: C_32  and  C_33
REMARK   12  A    between atoms: N_40  and  C_41
REMARK                            x       y       z     vdW  Elec       q    Type
REMARK                         _______ _______ _______ _____ _____    ______ ____
ROOT
ATOM      1  C   UNL A   1     -25.546  -0.100  29.066  0.00  0.00    +0.146 C 
ENDROOT
BRANCH   1   4
ATOM      2  N   UNL A   1     -22.497  -0.176  29.610  0.00  0.00    -0.131 NA
ATOM      3  C   UNL A   1     -21.948   1.641  26.517  0.00  0.00    +0.017 C 
ATOM      4  C   UNL A   1     -24.195   0.647  28.066  0.00  0.00    +0.140 C 
ATOM      5  C   UNL A   1     -23.266   1.792  26.067  0.00  0.00    +0.062 C 
ATOM      6  N   UNL A   1     -24.389   1.347  26.843  0.00  0.00    -0.296 N 
ATOM      7  C   UNL A   1     -22.897   0.499  28.487  0.00  0.00    +0.087 C 
ATOM      8  C   UNL A   1     -21.747   0.981  27.730  0.00  0.00    +0.017 C 
BRANCH   6   9
ATOM      9  C   UNL A   1     -25.688   1.614  26.461  0.00  0.00    +0.144 C 
ATOM     10  C   UNL A   1     -26.250   2.920  26.395  0.00  0.00    +0.073 C 
ATOM     11  C   UNL A   1     -27.438   3.091  25.645  0.00  0.00    +0.104 C 
ATOM     12  N   UNL A   1     -28.075   2.089  25.003  0.00  0.00    -0.212 NA
ATOM     13  C   UNL A   1     -27.543   0.849  25.079  0.00  0.00    +0.236 C 
ATOM     14  C   UNL A   1     -26.354   0.576  25.777  0.00  0.00    +0.258 C 
ATOM     15  F   UNL A   1     -25.860  -0.681  25.795  0.00  0.00    -0.225 F 
BRANCH  10  16
ATOM     16  C   UNL A   1     -25.642   4.093  27.123  0.00  0.00    +0.264 C 
ATOM     17  N   UNL A   1     -25.614   5.252  26.449  0.00  0.00    -0.200 NA
ATOM     18  C   UNL A   1     -25.026   6.479  26.963  0.00  0.00    +0.139 C 
ATOM     19  O   UNL A   1     -25.143   3.966  28.243  0.00  0.00    -0.269 OA
ENDBRANCH  10  16
BRANCH  13  20
ATOM     20  O   UNL A   1     -28.193  -0.208  24.477  0.00  0.00    -0.459 OA
BRANCH  20  21
ATOM     21  C   UNL A   1     -29.460   0.005  23.866  0.00  0.00    +0.242 C 
BRANCH  21  22
ATOM     22  C   UNL A   1     -30.065  -1.377  23.573  0.00  0.00    +0.229 C 
ATOM     23  O   UNL A   1     -30.729  -1.878  24.721  0.00  0.00    -0.216 OA
ENDBRANCH  21  22
ENDBRANCH  20  21
ENDBRANCH  13  20
ENDBRANCH   6   9
ENDBRANCH   1   4
BRANCH   1  24
ATOM     24  C   UNL A   1     -24.855  -1.012  30.143  0.00  0.00    +0.068 C 
BRANCH  24  25
ATOM     25  C   UNL A   1     -24.973  -2.505  29.788  0.00  0.00    -0.019 C 
ATOM     26  C   UNL A   1     -23.906  -3.173  29.146  0.00  0.00    -0.004 C 
ATOM     27  C   UNL A   1     -23.989  -4.549  28.853  0.00  0.00    -0.000 C 
ATOM     28  C   UNL A   1     -25.137  -5.280  29.205  0.00  0.00    -0.000 C 
ATOM     29  C   UNL A   1     -26.232  -4.611  29.784  0.00  0.00    -0.000 C 
ATOM     30  C   UNL A   1     -26.155  -3.232  30.065  0.00  0.00    -0.004 C 
ENDBRANCH  24  25
BRANCH  24  31
ATOM     31  C   UNL A   1     -25.387  -0.679  31.571  0.00  0.00    +0.079 C 
ATOM     32  C   UNL A   1     -25.189   0.773  32.028  0.00  0.00    +0.019 C 
ATOM     33  C   UNL A   1     -25.336   0.684  33.544  0.00  0.00    +0.020 C 
ATOM     34  C   UNL A   1     -24.829  -0.715  33.905  0.00  0.00    +0.089 C 
ATOM     35  N   UNL A   1     -24.758  -1.481  32.646  0.00  0.00    -0.219 NA
ENDBRANCH  24  31
ENDBRANCH   1  24
BRANCH   1  36
ATOM     36  O   UNL A   1     -26.635   1.001  29.383  0.00  0.00    -0.334 OA
BRANCH  36  37
ATOM     37  C   UNL A   1     -28.008   0.551  29.584  0.00  0.00    +0.243 C 
BRANCH  37  43
ATOM     38  C   UNL A   1     -31.325   2.697  28.411  0.00  0.00    -0.001 C 
ATOM     39  C   UNL A   1     -30.546   2.845  29.564  0.00  0.00    +0.134 C 
ATOM     40  C   UNL A   1     -29.264   2.345  29.518  0.00  0.00    +0.119 C 
ATOM     41  C   UNL A   1     -29.950   0.790  27.945  0.00  0.00    +0.251 C 
ATOM     42  C   UNL A   1     -31.016   1.618  27.572  0.00  0.00    +0.055 C 
ATOM     43  N   UNL A   1     -29.072   1.187  28.890  0.00  0.00    -0.249 N 
ATOM     44  N   UNL A   1     -31.047   3.308  30.803  0.00  0.00    -0.126 NA
ATOM     45  O   UNL A   1     -29.835  -0.479  27.445  0.00  0.00    -0.270 OA
ENDBRANCH  37  43
ENDBRANCH  36  37
ENDBRANCH   1  36
TORSDOF 12
