REMARK  Name = outputs/IAG933/test6/raw/output_8054_IAG933_linker_design_.xyz
REMARK  15 active torsions:
REMARK  status: ('A' for Active; 'I' for Inactive)
REMARK    1  A    between atoms: C_1  and  C_2
REMARK    2  A    between atoms: C_1  and  C_8
REMARK    3  A    between atoms: C_1  and  C_28
REMARK    4  A    between atoms: C_13  and  C_38
REMARK    5  A    between atoms: C_14  and  C_15
REMARK    6  A    between atoms: C_21  and  O_22
REMARK    7  A    between atoms: O_22  and  C_23
REMARK    8  A    between atoms: C_23  and  C_24
REMARK    9  A    between atoms: C_28  and  C_37
REMARK   10  A    between atoms: C_28  and  N_39
REMARK   11  A    between atoms: C_32  and  C_42
REMARK   12  A    between atoms: C_32  and  C_44
REMARK   13  A    between atoms: C_34  and  C_37
REMARK   14  A    between atoms: C_34  and  C_42
REMARK   15  A    between atoms: C_44  and  N_45
REMARK                            x       y       z     vdW  Elec       q    Type
REMARK                         _______ _______ _______ _____ _____    ______ ____
ROOT
ATOM      1  C   UNL A   1     -25.565  -0.279  28.989  0.00  0.00    +0.140 C 
ENDROOT
BRANCH   1   6
ATOM      2  F   UNL A   1     -21.018   1.393  27.674  0.00  0.00    -0.202 F 
ATOM      3 CL   UNL A   1     -22.757   2.300  25.312  0.00  0.00    -0.079 Cl
ATOM      4  C   UNL A   1     -23.164   0.569  28.789  0.00  0.00    +0.097 C 
ATOM      5  C   UNL A   1     -24.489   1.289  27.171  0.00  0.00    +0.067 C 
ATOM      6  N   UNL A   1     -24.517   0.576  28.392  0.00  0.00    -0.278 N 
ATOM      7  C   UNL A   1     -22.324   1.241  27.766  0.00  0.00    +0.167 C 
ATOM      8  C   UNL A   1     -23.241   1.615  26.765  0.00  0.00    +0.100 C 
BRANCH   5   9
ATOM      9  C   UNL A   1     -25.688   1.614  26.461  0.00  0.00    +0.053 C 
ATOM     10  C   UNL A   1     -26.250   2.920  26.395  0.00  0.00    +0.078 C 
ATOM     11  C   UNL A   1     -27.438   3.091  25.645  0.00  0.00    +0.107 C 
ATOM     12  N   UNL A   1     -28.075   2.089  25.003  0.00  0.00    -0.208 NA
ATOM     13  C   UNL A   1     -27.543   0.849  25.079  0.00  0.00    +0.253 C 
ATOM     14  C   UNL A   1     -26.354   0.576  25.777  0.00  0.00    +0.194 C 
ATOM     15  F   UNL A   1     -25.860  -0.681  25.795  0.00  0.00    -0.199 F 
BRANCH  10  16
ATOM     16  C   UNL A   1     -25.642   4.093  27.123  0.00  0.00    +0.267 C 
ATOM     17  N   UNL A   1     -25.614   5.252  26.449  0.00  0.00    -0.200 NA
ATOM     18  C   UNL A   1     -25.026   6.479  26.963  0.00  0.00    +0.139 C 
ATOM     19  O   UNL A   1     -25.143   3.966  28.243  0.00  0.00    -0.268 OA
ENDBRANCH  10  16
BRANCH  13  20
ATOM     20  O   UNL A   1     -28.193  -0.208  24.477  0.00  0.00    -0.456 OA
BRANCH  20  21
ATOM     21  C   UNL A   1     -29.460   0.005  23.866  0.00  0.00    +0.243 C 
BRANCH  21  22
ATOM     22  C   UNL A   1     -30.065  -1.377  23.573  0.00  0.00    +0.229 C 
ATOM     23  O   UNL A   1     -30.729  -1.878  24.721  0.00  0.00    -0.216 OA
ENDBRANCH  21  22
ENDBRANCH  20  21
ENDBRANCH  13  20
ENDBRANCH   5   9
ENDBRANCH   1   6
BRANCH   1  25
ATOM     24  O   UNL A   1     -27.124   1.465  29.706  0.00  0.00    -0.294 OA
ATOM     25  C   UNL A   1     -26.976   0.340  29.183  0.00  0.00    +0.169 C 
BRANCH  25  26
ATOM     26  C   UNL A   1     -28.186  -0.483  28.703  0.00  0.00    +0.066 C 
BRANCH  26  27
ATOM     27  C   UNL A   1     -29.481  -0.717  29.580  0.00  0.00    +0.010 C 
BRANCH  27  28
ATOM     28  C   UNL A   1     -29.708  -2.066  30.252  0.00  0.00    +0.024 C 
BRANCH  28  29
ATOM     29  C   UNL A   1     -31.259  -2.303  30.334  0.00  0.00    +0.115 C 
BRANCH  29  33
ATOM     30  C   UNL A   1     -33.720  -1.177  27.680  0.00  0.00    +0.096 C 
ATOM     31  C   UNL A   1     -32.254  -1.303  28.140  0.00  0.00    +0.242 C 
ATOM     32  O   UNL A   1     -31.413  -1.347  27.237  0.00  0.00    -0.273 OA
ATOM     33  N   UNL A   1     -32.042  -1.312  29.545  0.00  0.00    -0.205 NA
ENDBRANCH  29  33
ENDBRANCH  28  29
ENDBRANCH  27  28
ENDBRANCH  26  27
ENDBRANCH  25  26
ENDBRANCH   1  25
BRANCH   1  34
ATOM     34  C   UNL A   1     -24.855  -1.012  30.143  0.00  0.00    +0.064 C 
BRANCH  34  35
ATOM     35  C   UNL A   1     -24.973  -2.505  29.788  0.00  0.00    -0.019 C 
ATOM     36  C   UNL A   1     -23.906  -3.173  29.146  0.00  0.00    -0.004 C 
ATOM     37  C   UNL A   1     -23.989  -4.549  28.853  0.00  0.00    -0.000 C 
ATOM     38  C   UNL A   1     -25.137  -5.280  29.205  0.00  0.00    -0.000 C 
ATOM     39  C   UNL A   1     -26.232  -4.611  29.784  0.00  0.00    -0.000 C 
ATOM     40  C   UNL A   1     -26.155  -3.232  30.065  0.00  0.00    -0.004 C 
ENDBRANCH  34  35
BRANCH  34  41
ATOM     41  C   UNL A   1     -25.387  -0.679  31.571  0.00  0.00    +0.079 C 
ATOM     42  C   UNL A   1     -25.189   0.773  32.028  0.00  0.00    +0.019 C 
ATOM     43  C   UNL A   1     -25.336   0.684  33.544  0.00  0.00    +0.020 C 
ATOM     44  C   UNL A   1     -24.829  -0.715  33.905  0.00  0.00    +0.089 C 
ATOM     45  N   UNL A   1     -24.758  -1.481  32.646  0.00  0.00    -0.219 NA
ENDBRANCH  34  41
ENDBRANCH   1  34
TORSDOF 15
