REMARK  Name = outputs/IAG933/test6/raw/output_8057_IAG933_linker_design_.xyz
REMARK  10 active torsions:
REMARK  status: ('A' for Active; 'I' for Inactive)
REMARK    1  A    between atoms: C_1  and  C_2
REMARK    2  A    between atoms: C_1  and  C_8
REMARK    3  A    between atoms: C_1  and  C_40
REMARK    4  A    between atoms: C_13  and  C_42
REMARK    5  A    between atoms: C_14  and  C_15
REMARK    6  A    between atoms: C_21  and  O_22
REMARK    7  A    between atoms: O_22  and  C_23
REMARK    8  A    between atoms: C_23  and  C_24
REMARK    9  A    between atoms: C_34  and  C_46
REMARK   10  A    between atoms: C_36  and  C_39
REMARK                            x       y       z     vdW  Elec       q    Type
REMARK                         _______ _______ _______ _____ _____    ______ ____
ROOT
ATOM      1  O   UNL A   1     -22.337  -0.623  29.891  0.00  0.00    -0.223 OA
ATOM      2  C   UNL A   1     -21.148   1.335  27.781  0.00  0.00    +0.003 C 
ATOM      3  C   UNL A   1     -22.647   1.327  28.035  0.00  0.00    +0.030 C 
ATOM      4  C   UNL A   1     -25.977   0.795  28.593  0.00  0.00    +0.025 C 
ATOM      5  C   UNL A   1     -24.719   0.029  29.142  0.00  0.00    +0.040 C 
ATOM      6  C   UNL A   1     -24.998   1.328  27.450  0.00  0.00    +0.012 C 
ATOM      7  C   UNL A   1     -23.178   0.321  29.114  0.00  0.00    +0.152 C 
ATOM      8  C   UNL A   1     -23.605   1.075  26.901  0.00  0.00    +0.003 C 
ENDROOT
BRANCH   4  13
ATOM      9  C   UNL A   1     -28.242   2.677  30.159  0.00  0.00    -0.000 C 
ATOM     10  C   UNL A   1     -27.913  -0.754  29.085  0.00  0.00    -0.004 C 
ATOM     11  C   UNL A   1     -29.285  -1.195  29.208  0.00  0.00    +0.006 C 
ATOM     12  C   UNL A   1     -30.210   2.669  31.645  0.00  0.00    +0.000 C 
ATOM     13  C   UNL A   1     -27.547   0.477  29.286  0.00  0.00    -0.022 C 
ATOM     14  C   UNL A   1     -28.604   1.389  29.715  0.00  0.00    -0.004 C 
ATOM     15  C   UNL A   1     -29.912   0.905  29.962  0.00  0.00    +0.006 C 
ATOM     16  C   UNL A   1     -30.669   1.486  31.028  0.00  0.00    +0.000 C 
ATOM     17  C   UNL A   1     -30.298  -0.256  29.118  0.00  0.00    +0.080 C 
ATOM     18  C   UNL A   1     -29.034   3.301  31.148  0.00  0.00    -0.000 C 
BRANCH  17  19
ATOM     19  C   UNL A   1     -31.381  -0.741  28.249  0.00  0.00    +0.388 C 
ATOM     20  O   UNL A   1     -31.823  -1.884  28.504  0.00  0.00    -0.241 OA
ATOM     21  O   UNL A   1     -31.873  -0.110  27.271  0.00  0.00    -0.241 OA
ENDBRANCH  17  19
ENDBRANCH   4  13
BRANCH   6  22
ATOM     22  C   UNL A   1     -25.688   1.614  26.461  0.00  0.00    +0.070 C 
ATOM     23  C   UNL A   1     -26.250   2.920  26.395  0.00  0.00    +0.055 C 
ATOM     24  C   UNL A   1     -27.438   3.091  25.645  0.00  0.00    +0.102 C 
ATOM     25  N   UNL A   1     -28.075   2.089  25.003  0.00  0.00    -0.212 NA
ATOM     26  C   UNL A   1     -27.543   0.849  25.079  0.00  0.00    +0.234 C 
ATOM     27  C   UNL A   1     -26.354   0.576  25.777  0.00  0.00    +0.240 C 
ATOM     28  F   UNL A   1     -25.860  -0.681  25.795  0.00  0.00    -0.227 F 
BRANCH  23  29
ATOM     29  C   UNL A   1     -25.642   4.093  27.123  0.00  0.00    +0.262 C 
ATOM     30  N   UNL A   1     -25.614   5.252  26.449  0.00  0.00    -0.200 NA
ATOM     31  C   UNL A   1     -25.026   6.479  26.963  0.00  0.00    +0.139 C 
ATOM     32  O   UNL A   1     -25.143   3.966  28.243  0.00  0.00    -0.269 OA
ENDBRANCH  23  29
BRANCH  26  33
ATOM     33  O   UNL A   1     -28.193  -0.208  24.477  0.00  0.00    -0.459 OA
BRANCH  33  34
ATOM     34  C   UNL A   1     -29.460   0.005  23.866  0.00  0.00    +0.242 C 
BRANCH  34  35
ATOM     35  C   UNL A   1     -30.065  -1.377  23.573  0.00  0.00    +0.229 C 
ATOM     36  O   UNL A   1     -30.729  -1.878  24.721  0.00  0.00    -0.216 OA
ENDBRANCH  34  35
ENDBRANCH  33  34
ENDBRANCH  26  33
ENDBRANCH   6  22
BRANCH   5  37
ATOM     37  C   UNL A   1     -24.855  -1.012  30.143  0.00  0.00    +0.041 C 
BRANCH  37  38
ATOM     38  C   UNL A   1     -24.973  -2.505  29.788  0.00  0.00    -0.021 C 
ATOM     39  C   UNL A   1     -23.906  -3.173  29.146  0.00  0.00    -0.004 C 
ATOM     40  C   UNL A   1     -23.989  -4.549  28.853  0.00  0.00    -0.000 C 
ATOM     41  C   UNL A   1     -25.137  -5.280  29.205  0.00  0.00    -0.000 C 
ATOM     42  C   UNL A   1     -26.232  -4.611  29.784  0.00  0.00    -0.000 C 
ATOM     43  C   UNL A   1     -26.155  -3.232  30.065  0.00  0.00    -0.004 C 
ENDBRANCH  37  38
BRANCH  37  44
ATOM     44  C   UNL A   1     -25.387  -0.679  31.571  0.00  0.00    +0.077 C 
ATOM     45  C   UNL A   1     -25.189   0.773  32.028  0.00  0.00    +0.019 C 
ATOM     46  C   UNL A   1     -25.336   0.684  33.544  0.00  0.00    +0.020 C 
ATOM     47  C   UNL A   1     -24.829  -0.715  33.905  0.00  0.00    +0.089 C 
ATOM     48  N   UNL A   1     -24.758  -1.481  32.646  0.00  0.00    -0.219 NA
ENDBRANCH  37  44
ENDBRANCH   5  37
TORSDOF 10
