REMARK  Name = outputs/IAG933/test6/raw/output_8058_IAG933_linker_design_.xyz
REMARK  11 active torsions:
REMARK  status: ('A' for Active; 'I' for Inactive)
REMARK    1  A    between atoms: C_1  and  C_2
REMARK    2  A    between atoms: C_1  and  C_8
REMARK    3  A    between atoms: C_1  and  C_37
REMARK    4  A    between atoms: C_13  and  C_38
REMARK    5  A    between atoms: C_14  and  C_15
REMARK    6  A    between atoms: C_21  and  O_22
REMARK    7  A    between atoms: O_22  and  C_23
REMARK    8  A    between atoms: C_23  and  C_24
REMARK    9  A    between atoms: N_31  and  C_37
REMARK   10  A    between atoms: N_31  and  C_41
REMARK   11  A    between atoms: C_35  and  C_37
REMARK                            x       y       z     vdW  Elec       q    Type
REMARK                         _______ _______ _______ _____ _____    ______ ____
ROOT
ATOM      1  N   UNL A   1     -20.788   1.424  27.847  0.00  0.00    -0.123 NA
ATOM      2  C   UNL A   1     -22.919   0.534  28.542  0.00  0.00    +0.111 A 
ATOM      3  F   UNL A   1     -21.594   2.248  25.561  0.00  0.00    -0.182 F 
ATOM      4  C   UNL A   1     -22.435   1.639  26.429  0.00  0.00    +0.240 A 
ATOM      5  C   UNL A   1     -22.054   1.185  27.658  0.00  0.00    +0.151 A 
ATOM      6  C   UNL A   1     -24.368   0.626  28.323  0.00  0.00    +0.057 A 
ATOM      7  C   UNL A   1     -24.555   1.131  27.125  0.00  0.00    +0.087 A 
ATOM      8  N   UNL A   1     -22.395  -0.261  29.560  0.00  0.00    -0.127 NA
ATOM      9  N   UNL A   1     -23.591   1.440  26.075  0.00  0.00    -0.217 NA
ENDROOT
BRANCH   7  10
ATOM     10  C   UNL A   1     -25.688   1.614  26.461  0.00  0.00    +0.056 C 
ATOM     11  C   UNL A   1     -26.250   2.920  26.395  0.00  0.00    +0.078 C 
ATOM     12  C   UNL A   1     -27.438   3.091  25.645  0.00  0.00    +0.107 C 
ATOM     13  N   UNL A   1     -28.075   2.089  25.003  0.00  0.00    -0.208 NA
ATOM     14  C   UNL A   1     -27.543   0.849  25.079  0.00  0.00    +0.253 C 
ATOM     15  C   UNL A   1     -26.354   0.576  25.777  0.00  0.00    +0.195 C 
ATOM     16  F   UNL A   1     -25.860  -0.681  25.795  0.00  0.00    -0.199 F 
BRANCH  11  17
ATOM     17  C   UNL A   1     -25.642   4.093  27.123  0.00  0.00    +0.267 C 
ATOM     18  N   UNL A   1     -25.614   5.252  26.449  0.00  0.00    -0.200 NA
ATOM     19  C   UNL A   1     -25.026   6.479  26.963  0.00  0.00    +0.139 C 
ATOM     20  O   UNL A   1     -25.143   3.966  28.243  0.00  0.00    -0.268 OA
ENDBRANCH  11  17
BRANCH  14  21
ATOM     21  O   UNL A   1     -28.193  -0.208  24.477  0.00  0.00    -0.456 OA
BRANCH  21  22
ATOM     22  C   UNL A   1     -29.460   0.005  23.866  0.00  0.00    +0.243 C 
BRANCH  22  23
ATOM     23  C   UNL A   1     -30.065  -1.377  23.573  0.00  0.00    +0.229 C 
ATOM     24  O   UNL A   1     -30.729  -1.878  24.721  0.00  0.00    -0.216 OA
ENDBRANCH  22  23
ENDBRANCH  21  22
ENDBRANCH  14  21
ENDBRANCH   7  10
BRANCH   6  25
ATOM     25  C   UNL A   1     -25.631   0.302  29.133  0.00  0.00    +0.213 C 
ATOM     26  O   UNL A   1     -26.618  -0.468  28.674  0.00  0.00    -0.203 OA
BRANCH  25  27
ATOM     27  C   UNL A   1     -24.855  -1.012  30.143  0.00  0.00    +0.086 C 
BRANCH  27  28
ATOM     28  C   UNL A   1     -24.973  -2.505  29.788  0.00  0.00    -0.017 C 
ATOM     29  C   UNL A   1     -23.906  -3.173  29.146  0.00  0.00    -0.004 C 
ATOM     30  C   UNL A   1     -23.989  -4.549  28.853  0.00  0.00    -0.000 C 
ATOM     31  C   UNL A   1     -25.137  -5.280  29.205  0.00  0.00    -0.000 C 
ATOM     32  C   UNL A   1     -26.232  -4.611  29.784  0.00  0.00    -0.000 C 
ATOM     33  C   UNL A   1     -26.155  -3.232  30.065  0.00  0.00    -0.004 C 
ENDBRANCH  27  28
BRANCH  27  34
ATOM     34  C   UNL A   1     -25.387  -0.679  31.571  0.00  0.00    +0.081 C 
ATOM     35  C   UNL A   1     -25.189   0.773  32.028  0.00  0.00    +0.019 C 
ATOM     36  C   UNL A   1     -25.336   0.684  33.544  0.00  0.00    +0.020 C 
ATOM     37  C   UNL A   1     -24.829  -0.715  33.905  0.00  0.00    +0.089 C 
ATOM     38  N   UNL A   1     -24.758  -1.481  32.646  0.00  0.00    -0.219 NA
ENDBRANCH  27  34
ENDBRANCH  25  27
BRANCH  25  39
ATOM     39  N   UNL A   1     -26.163   1.737  29.591  0.00  0.00    -0.190 NA
BRANCH  39  42
ATOM     40  C   UNL A   1     -27.947   2.099  31.302  0.00  0.00    +0.019 C 
ATOM     41  C   UNL A   1     -27.582   4.250  30.185  0.00  0.00    +0.019 C 
ATOM     42  C   UNL A   1     -27.237   2.742  30.103  0.00  0.00    +0.076 C 
ENDBRANCH  39  42
ENDBRANCH  25  39
ENDBRANCH   6  25
TORSDOF 11
