REMARK  Name = outputs/IAG933/test6/raw/output_8068_IAG933_linker_design_.xyz
REMARK  17 active torsions:
REMARK  status: ('A' for Active; 'I' for Inactive)
REMARK    1  A    between atoms: C_1  and  C_2
REMARK    2  A    between atoms: C_1  and  C_8
REMARK    3  A    between atoms: C_1  and  C_44
REMARK    4  A    between atoms: C_13  and  C_37
REMARK    5  A    between atoms: C_14  and  C_15
REMARK    6  A    between atoms: C_21  and  O_22
REMARK    7  A    between atoms: O_22  and  C_23
REMARK    8  A    between atoms: C_23  and  C_24
REMARK    9  A    between atoms: C_24  and  O_25
REMARK   10  A    between atoms: O_25  and  C_42
REMARK   11  A    between atoms: C_30  and  C_31
REMARK   12  A    between atoms: C_30  and  C_34
REMARK   13  A    between atoms: C_31  and  C_42
REMARK   14  A    between atoms: C_32  and  C_36
REMARK   15  A    between atoms: C_33  and  C_46
REMARK   16  A    between atoms: C_33  and  C_48
REMARK   17  A    between atoms: C_36  and  C_46
REMARK                            x       y       z     vdW  Elec       q    Type
REMARK                         _______ _______ _______ _____ _____    ______ ____
ROOT
ATOM      1  C   UNL A   1     -25.688   1.614  26.461  0.00  0.00    +0.039 C 
ATOM      2  C   UNL A   1     -26.250   2.920  26.395  0.00  0.00    +0.077 C 
ATOM      3  C   UNL A   1     -27.438   3.091  25.645  0.00  0.00    +0.107 C 
ATOM      4  N   UNL A   1     -28.075   2.089  25.003  0.00  0.00    -0.208 NA
ATOM      5  C   UNL A   1     -27.543   0.849  25.079  0.00  0.00    +0.253 C 
ATOM      6  C   UNL A   1     -26.354   0.576  25.777  0.00  0.00    +0.193 C 
ATOM      7  F   UNL A   1     -25.860  -0.681  25.795  0.00  0.00    -0.199 F 
ENDROOT
BRANCH   1   8
ATOM      8  C   UNL A   1     -24.622   1.254  27.305  0.00  0.00    +0.016 C 
ATOM      9  C   UNL A   1     -25.018   0.449  28.285  0.00  0.00    +0.016 C 
ATOM     10  N   UNL A   1     -22.883   0.390  29.205  0.00  0.00    -0.247 NA
ATOM     11  C   UNL A   1     -23.278   1.577  27.140  0.00  0.00    +0.077 C 
ATOM     12  C   UNL A   1     -24.200  -0.050  29.203  0.00  0.00    +0.064 C 
ATOM     13 CL   UNL A   1     -22.760   2.355  25.634  0.00  0.00    -0.081 Cl
ATOM     14  C   UNL A   1     -22.429   1.224  28.215  0.00  0.00    +0.110 C 
BRANCH  12  15
ATOM     15  C   UNL A   1     -24.855  -1.012  30.143  0.00  0.00    +0.078 C 
BRANCH  15  16
ATOM     16  C   UNL A   1     -24.973  -2.505  29.788  0.00  0.00    -0.015 C 
ATOM     17  C   UNL A   1     -23.906  -3.173  29.146  0.00  0.00    -0.004 C 
ATOM     18  C   UNL A   1     -23.989  -4.549  28.853  0.00  0.00    -0.000 C 
ATOM     19  C   UNL A   1     -25.137  -5.280  29.205  0.00  0.00    -0.000 C 
ATOM     20  C   UNL A   1     -26.232  -4.611  29.784  0.00  0.00    -0.000 C 
ATOM     21  C   UNL A   1     -26.155  -3.232  30.065  0.00  0.00    -0.004 C 
ENDBRANCH  15  16
BRANCH  15  22
ATOM     22  C   UNL A   1     -25.387  -0.679  31.571  0.00  0.00    +0.082 C 
ATOM     23  C   UNL A   1     -25.189   0.773  32.028  0.00  0.00    +0.020 C 
ATOM     24  C   UNL A   1     -25.336   0.684  33.544  0.00  0.00    +0.020 C 
ATOM     25  C   UNL A   1     -24.829  -0.715  33.905  0.00  0.00    +0.089 C 
ATOM     26  N   UNL A   1     -24.758  -1.481  32.646  0.00  0.00    -0.219 NA
ENDBRANCH  15  22
ENDBRANCH  12  15
ENDBRANCH   1   8
BRANCH   2  27
ATOM     27  C   UNL A   1     -25.642   4.093  27.123  0.00  0.00    +0.266 C 
ATOM     28  N   UNL A   1     -25.614   5.252  26.449  0.00  0.00    -0.200 NA
ATOM     29  C   UNL A   1     -25.026   6.479  26.963  0.00  0.00    +0.139 C 
ATOM     30  O   UNL A   1     -25.143   3.966  28.243  0.00  0.00    -0.268 OA
ENDBRANCH   2  27
BRANCH   5  31
ATOM     31  O   UNL A   1     -28.193  -0.208  24.477  0.00  0.00    -0.455 OA
BRANCH  31  32
ATOM     32  C   UNL A   1     -29.460   0.005  23.866  0.00  0.00    +0.254 C 
BRANCH  32  33
ATOM     33  C   UNL A   1     -30.065  -1.377  23.573  0.00  0.00    +0.256 C 
BRANCH  33  34
ATOM     34  O   UNL A   1     -30.729  -1.878  24.721  0.00  0.00    -0.444 OA
BRANCH  34  36
ATOM     35  O   UNL A   1     -32.123  -0.104  25.377  0.00  0.00    -0.250 OA
ATOM     36  C   UNL A   1     -31.882  -1.304  25.302  0.00  0.00    +0.318 C 
BRANCH  36  37
ATOM     37  C   UNL A   1     -32.772  -2.329  25.891  0.00  0.00    +0.116 C 
BRANCH  37  38
ATOM     38  C   UNL A   1     -33.517  -1.933  27.177  0.00  0.00    +0.057 C 
BRANCH  38  41
ATOM     39  C   UNL A   1     -31.413  -1.520  28.592  0.00  0.00    -0.006 C 
ATOM     40  C   UNL A   1     -31.085  -1.733  29.890  0.00  0.00    +0.065 C 
ATOM     41  C   UNL A   1     -32.722  -1.825  28.451  0.00  0.00    +0.055 C 
ATOM     42  N   UNL A   1     -33.250  -2.057  29.681  0.00  0.00    -0.253 NA
ATOM     43  C   UNL A   1     -32.266  -2.145  30.550  0.00  0.00    +0.076 C 
BRANCH  40  44
ATOM     44  C   UNL A   1     -29.824  -1.010  30.472  0.00  0.00    +0.011 C 
BRANCH  44  45
ATOM     45  C   UNL A   1     -28.488  -1.364  29.955  0.00  0.00    +0.003 C 
BRANCH  45  46
ATOM     46  C   UNL A   1     -27.793  -0.283  29.130  0.00  0.00    +0.036 C 
BRANCH  46  48
ATOM     47  O   UNL A   1     -29.147   1.583  29.924  0.00  0.00    -0.220 OA
ATOM     48  C   UNL A   1     -28.462   0.805  29.436  0.00  0.00    +0.182 C 
ENDBRANCH  46  48
ENDBRANCH  45  46
ENDBRANCH  44  45
ENDBRANCH  40  44
ENDBRANCH  38  41
ENDBRANCH  37  38
ENDBRANCH  36  37
ENDBRANCH  34  36
ENDBRANCH  33  34
ENDBRANCH  32  33
ENDBRANCH  31  32
ENDBRANCH   5  31
TORSDOF 17
