MODEL 806
MODEL 1
REMARK VINA RESULT:    -4.908      0.000      0.000
REMARK INTER + INTRA:          -5.479
REMARK INTER:                  -5.482
REMARK INTRA:                   0.002
REMARK UNBOUND:                 0.002
REMARK  Name = No_806-gen_results/8p0m/2024-11-27-11-27-31/
REMARK  2 active torsions:
REMARK  status: ('A' for Active; 'I' for Inactive)
REMARK    1  A    between atoms: C_4  and  C_6
REMARK    2  A    between atoms: C_9  and  C_10
REMARK                            x       y       z     vdW  Elec       q    Type
REMARK                         _______ _______ _______ _____ _____    ______ ____
ROOT
ATOM      1  O   UNL A   1     -27.900  -3.049  30.579  0.00  0.00    -0.273 OA
ATOM      2  C   UNL A   1     -26.790  -3.182  30.051  0.00  0.00    +0.242 C 
ATOM      3  N   UNL A   1     -25.948  -2.466  29.804  0.00  0.00    -0.203 NA
ATOM      4  C   UNL A   1     -24.577  -2.781  29.319  0.00  0.00    +0.117 C 
ATOM      5  C   UNL A   1     -26.373  -4.722  29.626  0.00  0.00    +0.087 C 
ATOM      6  C   UNL A   1     -24.204  -4.134  29.071  0.00  0.00    +0.027 C 
ATOM      7  C   UNL A   1     -25.198  -5.060  29.287  0.00  0.00    +0.012 C 
ENDROOT
BRANCH   4   8
ATOM      8  C   UNL A   1     -23.587  -1.768  29.043  0.00  0.00    -0.005 C 
ATOM      9  C   UNL A   1     -23.195  -0.862  30.049  0.00  0.00    -0.003 C 
BRANCH   9  10
ATOM     10  C   UNL A   1     -23.649  -1.073  31.355  0.00  0.00    -0.000 C 
ATOM     11  C   UNL A   1     -22.801  -1.249  32.398  0.00  0.00    -0.000 C 
ENDBRANCH   9  10
ENDBRANCH   4   8
TORSDOF 2
ENDMDL
ENDMDL
