REMARK  Name = outputs/IAG933/test6/raw/output_8077_IAG933_linker_design_.xyz
REMARK  11 active torsions:
REMARK  status: ('A' for Active; 'I' for Inactive)
REMARK    1  A    between atoms: C_1  and  C_2
REMARK    2  A    between atoms: C_1  and  C_8
REMARK    3  A    between atoms: C_1  and  N_40
REMARK    4  A    between atoms: C_13  and  C_33
REMARK    5  A    between atoms: C_14  and  C_15
REMARK    6  A    between atoms: C_21  and  O_22
REMARK    7  A    between atoms: O_22  and  C_23
REMARK    8  A    between atoms: C_23  and  C_24
REMARK    9  A    between atoms: C_32  and  C_36
REMARK   10  A    between atoms: C_37  and  C_43
REMARK   11  A    between atoms: N_38  and  C_41
REMARK                            x       y       z     vdW  Elec       q    Type
REMARK                         _______ _______ _______ _____ _____    ______ ____
ROOT
ATOM      1  C   UNL A   1     -23.386   0.354  28.773  0.00  0.00    +0.060 A 
ATOM      2  C   UNL A   1     -22.044   0.059  29.030  0.00  0.00    +0.017 C 
ATOM      3  C   UNL A   1     -21.272   1.590  27.315  0.00  0.00    +0.000 C 
ATOM      4  C   UNL A   1     -25.131   1.223  27.634  0.00  0.00    +0.007 A 
ATOM      5  C   UNL A   1     -22.650   1.733  27.008  0.00  0.00    +0.001 C 
ATOM      6  C   UNL A   1     -25.682   0.587  28.659  0.00  0.00    +0.112 A 
ATOM      7  C   UNL A   1     -23.644   1.216  27.745  0.00  0.00    +0.014 A 
ATOM      8  N   UNL A   1     -24.608  -0.028  29.258  0.00  0.00    -0.320 N 
ATOM      9  C   UNL A   1     -21.007   0.673  28.326  0.00  0.00    +0.002 C 
ENDROOT
BRANCH   4  10
ATOM     10  C   UNL A   1     -25.688   1.614  26.461  0.00  0.00    +0.094 C 
ATOM     11  C   UNL A   1     -26.250   2.920  26.395  0.00  0.00    +0.059 C 
ATOM     12  C   UNL A   1     -27.438   3.091  25.645  0.00  0.00    +0.102 C 
ATOM     13  N   UNL A   1     -28.075   2.089  25.003  0.00  0.00    -0.212 NA
ATOM     14  C   UNL A   1     -27.543   0.849  25.079  0.00  0.00    +0.234 C 
ATOM     15  C   UNL A   1     -26.354   0.576  25.777  0.00  0.00    +0.244 C 
ATOM     16  F   UNL A   1     -25.860  -0.681  25.795  0.00  0.00    -0.227 F 
BRANCH  11  17
ATOM     17  C   UNL A   1     -25.642   4.093  27.123  0.00  0.00    +0.263 C 
ATOM     18  N   UNL A   1     -25.614   5.252  26.449  0.00  0.00    -0.200 NA
ATOM     19  C   UNL A   1     -25.026   6.479  26.963  0.00  0.00    +0.139 C 
ATOM     20  O   UNL A   1     -25.143   3.966  28.243  0.00  0.00    -0.269 OA
ENDBRANCH  11  17
BRANCH  14  21
ATOM     21  O   UNL A   1     -28.193  -0.208  24.477  0.00  0.00    -0.459 OA
BRANCH  21  22
ATOM     22  C   UNL A   1     -29.460   0.005  23.866  0.00  0.00    +0.242 C 
BRANCH  22  23
ATOM     23  C   UNL A   1     -30.065  -1.377  23.573  0.00  0.00    +0.229 C 
ATOM     24  O   UNL A   1     -30.729  -1.878  24.721  0.00  0.00    -0.216 OA
ENDBRANCH  22  23
ENDBRANCH  21  22
ENDBRANCH  14  21
ENDBRANCH   4  10
BRANCH   6  27
ATOM     25  O   UNL A   1     -27.728  -0.533  29.218  0.00  0.00    -0.267 OA
ATOM     26  N   UNL A   1     -27.662   1.668  29.488  0.00  0.00    -0.200 NA
ATOM     27  C   UNL A   1     -27.084   0.536  29.133  0.00  0.00    +0.280 C 
BRANCH  26  29
ATOM     28  C   UNL A   1     -29.758   0.969  30.436  0.00  0.00    +0.025 C 
ATOM     29  C   UNL A   1     -29.092   1.925  29.531  0.00  0.00    +0.116 C 
ENDBRANCH  26  29
ENDBRANCH   6  27
BRANCH   5  31
ATOM     30  C   UNL A   1     -23.471   1.837  24.598  0.00  0.00    +0.000 C 
ATOM     31  C   UNL A   1     -22.961   2.405  25.736  0.00  0.00    +0.000 C 
ENDBRANCH   5  31
BRANCH   8  32
ATOM     32  C   UNL A   1     -24.855  -1.012  30.143  0.00  0.00    +0.124 C 
BRANCH  32  33
ATOM     33  C   UNL A   1     -24.973  -2.505  29.788  0.00  0.00    -0.000 C 
ATOM     34  C   UNL A   1     -23.906  -3.173  29.146  0.00  0.00    -0.002 C 
ATOM     35  C   UNL A   1     -23.989  -4.549  28.853  0.00  0.00    -0.000 C 
ATOM     36  C   UNL A   1     -25.137  -5.280  29.205  0.00  0.00    -0.000 C 
ATOM     37  C   UNL A   1     -26.232  -4.611  29.784  0.00  0.00    -0.000 C 
ATOM     38  C   UNL A   1     -26.155  -3.232  30.065  0.00  0.00    -0.002 C 
ENDBRANCH  32  33
BRANCH  32  39
ATOM     39  C   UNL A   1     -25.387  -0.679  31.571  0.00  0.00    +0.098 C 
ATOM     40  C   UNL A   1     -25.189   0.773  32.028  0.00  0.00    +0.021 C 
ATOM     41  C   UNL A   1     -25.336   0.684  33.544  0.00  0.00    +0.020 C 
ATOM     42  C   UNL A   1     -24.829  -0.715  33.905  0.00  0.00    +0.089 C 
ATOM     43  N   UNL A   1     -24.758  -1.481  32.646  0.00  0.00    -0.217 NA
ENDBRANCH  32  39
ENDBRANCH   8  32
TORSDOF 11
