MODEL 807
MODEL 1
REMARK VINA RESULT:    -7.502      0.000      0.000
REMARK INTER + INTRA:          -9.961
REMARK INTER:                  -9.257
REMARK INTRA:                  -0.704
REMARK UNBOUND:                -0.704
REMARK  Name = No_807-gen_results/8p0m/2024-11-27-11-27-31/
REMARK  4 active torsions:
REMARK  status: ('A' for Active; 'I' for Inactive)
REMARK    1  A    between atoms: C_2  and  C_3
REMARK    2  A    between atoms: C_2  and  C_9
REMARK    3  A    between atoms: C_9  and  C_10
REMARK    4  A    between atoms: C_11  and  C_18
REMARK                            x       y       z     vdW  Elec       q    Type
REMARK                         _______ _______ _______ _____ _____    ______ ____
ROOT
ATOM      1 CL   UNL A   1     -25.776  -0.030  29.942  0.00  0.00    -0.110 Cl
ATOM      2  C   UNL A   1     -25.509  -0.989  29.013  0.00  0.00    +0.106 C 
ENDROOT
BRANCH   2   3
ATOM      3  C   UNL A   1     -25.542  -2.248  29.310  0.00  0.00    -0.003 A 
ATOM      4  C   UNL A   1     -24.482  -3.136  28.807  0.00  0.00    +0.027 A 
ATOM      5  C   UNL A   1     -24.462  -4.530  28.733  0.00  0.00    +0.142 A 
ATOM      6  C   UNL A   1     -25.579  -5.172  29.361  0.00  0.00    +0.059 A 
ATOM      7  C   UNL A   1     -26.617  -4.478  29.981  0.00  0.00    +0.142 A 
ATOM      8  C   UNL A   1     -26.640  -3.078  29.907  0.00  0.00    +0.027 A 
ATOM      9  F   UNL A   1     -23.533  -5.192  28.229  0.00  0.00    -0.204 F 
ATOM     10  F   UNL A   1     -27.618  -5.103  30.529  0.00  0.00    -0.204 F 
ENDBRANCH   2   3
BRANCH   2  11
ATOM     11  C   UNL A   1     -25.163  -0.716  27.587  0.00  0.00    +0.047 C 
BRANCH  11  12
ATOM     12  C   UNL A   1     -24.216   0.229  27.309  0.00  0.00    -0.022 A 
ATOM     13  C   UNL A   1     -24.312   0.910  26.181  0.00  0.00    +0.009 A 
ATOM     14  C   UNL A   1     -23.362   1.903  25.731  0.00  0.00    -0.002 A 
ATOM     15  C   UNL A   1     -22.323   2.158  26.660  0.00  0.00    -0.000 A 
ATOM     16  C   UNL A   1     -22.219   1.469  27.831  0.00  0.00    -0.000 A 
ATOM     17  C   UNL A   1     -23.156   0.507  28.151  0.00  0.00    -0.004 A 
BRANCH  13  18
ATOM     18  C   UNL A   1     -25.383   0.622  25.195  0.00  0.00    +0.219 C 
ATOM     19  F   UNL A   1     -24.939   0.260  24.278  0.00  0.00    -0.229 F 
ENDBRANCH  13  18
ENDBRANCH  11  12
ENDBRANCH   2  11
TORSDOF 4
ENDMDL
ENDMDL
