REMARK  Name = outputs/IAG933/test6/raw/output_8089_IAG933_linker_design_.xyz
REMARK  12 active torsions:
REMARK  status: ('A' for Active; 'I' for Inactive)
REMARK    1  A    between atoms: C_1  and  C_2
REMARK    2  A    between atoms: C_1  and  C_8
REMARK    3  A    between atoms: C_1  and  N_28
REMARK    4  A    between atoms: C_13  and  C_40
REMARK    5  A    between atoms: C_14  and  C_15
REMARK    6  A    between atoms: C_21  and  O_22
REMARK    7  A    between atoms: O_22  and  C_23
REMARK    8  A    between atoms: C_23  and  C_24
REMARK    9  A    between atoms: O_30  and  C_31
REMARK   10  A    between atoms: O_30  and  C_36
REMARK   11  A    between atoms: C_31  and  C_43
REMARK   12  A    between atoms: C_34  and  C_42
REMARK                            x       y       z     vdW  Elec       q    Type
REMARK                         _______ _______ _______ _____ _____    ______ ____
ROOT
ATOM      1  N   UNL A   1     -25.439  -0.173  29.090  0.00  0.00    -0.139 N 
ATOM      2  C   UNL A   1     -23.349   1.725  26.156  0.00  0.00    +0.011 C 
ATOM      3  N   UNL A   1     -23.233   0.220  28.731  0.00  0.00    -0.018 NA
ATOM      4  C   UNL A   1     -22.089   0.904  28.720  0.00  0.00    +0.339 C 
ATOM      5  C   UNL A   1     -24.487   0.369  28.362  0.00  0.00    +0.317 C 
ATOM      6  O   UNL A   1     -27.134   1.431  28.906  0.00  0.00    -0.242 OA
ATOM      7  C   UNL A   1     -21.949   1.907  26.488  0.00  0.00    +0.099 C 
ATOM      8  C   UNL A   1     -24.422   1.252  26.980  0.00  0.00    +0.154 C 
ATOM      9  N   UNL A   1     -21.424   1.565  27.696  0.00  0.00    -0.198 NA
ATOM     10  C   UNL A   1     -26.831   0.242  28.914  0.00  0.00    +0.337 C 
ENDROOT
BRANCH   8  11
ATOM     11  C   UNL A   1     -25.688   1.614  26.461  0.00  0.00    +0.031 C 
ATOM     12  C   UNL A   1     -26.250   2.920  26.395  0.00  0.00    +0.073 C 
ATOM     13  C   UNL A   1     -27.438   3.091  25.645  0.00  0.00    +0.106 C 
ATOM     14  N   UNL A   1     -28.075   2.089  25.003  0.00  0.00    -0.208 NA
ATOM     15  C   UNL A   1     -27.543   0.849  25.079  0.00  0.00    +0.253 C 
ATOM     16  C   UNL A   1     -26.354   0.576  25.777  0.00  0.00    +0.190 C 
ATOM     17  F   UNL A   1     -25.860  -0.681  25.795  0.00  0.00    -0.200 F 
BRANCH  12  18
ATOM     18  C   UNL A   1     -25.642   4.093  27.123  0.00  0.00    +0.266 C 
ATOM     19  N   UNL A   1     -25.614   5.252  26.449  0.00  0.00    -0.200 NA
ATOM     20  C   UNL A   1     -25.026   6.479  26.963  0.00  0.00    +0.139 C 
ATOM     21  O   UNL A   1     -25.143   3.966  28.243  0.00  0.00    -0.268 OA
ENDBRANCH  12  18
BRANCH  15  22
ATOM     22  O   UNL A   1     -28.193  -0.208  24.477  0.00  0.00    -0.456 OA
BRANCH  22  23
ATOM     23  C   UNL A   1     -29.460   0.005  23.866  0.00  0.00    +0.243 C 
BRANCH  23  24
ATOM     24  C   UNL A   1     -30.065  -1.377  23.573  0.00  0.00    +0.229 C 
ATOM     25  O   UNL A   1     -30.729  -1.878  24.721  0.00  0.00    -0.216 OA
ENDBRANCH  23  24
ENDBRANCH  22  23
ENDBRANCH  15  22
ENDBRANCH   8  11
BRANCH  10  26
ATOM     26  C   UNL A   1     -27.913  -0.886  28.848  0.00  0.00    +0.083 C 
ATOM     27  C   UNL A   1     -29.383  -0.497  29.046  0.00  0.00    +0.013 C 
BRANCH  27  28
ATOM     28  C   UNL A   1     -30.405  -1.604  29.447  0.00  0.00    +0.170 C 
BRANCH  28  29
ATOM     29  O   UNL A   1     -30.006  -2.306  30.644  0.00  0.00    -0.331 OA
BRANCH  29  30
ATOM     30  C   UNL A   1     -30.739  -3.466  31.160  0.00  0.00    +0.253 C 
ATOM     31  N   UNL A   1     -31.582  -3.929  30.078  0.00  0.00    -0.096 NA
ENDBRANCH  29  30
ENDBRANCH  28  29
ENDBRANCH  27  28
ENDBRANCH  10  26
BRANCH   1  32
ATOM     32  C   UNL A   1     -24.855  -1.012  30.143  0.00  0.00    +0.206 C 
BRANCH  32  33
ATOM     33  C   UNL A   1     -24.973  -2.505  29.788  0.00  0.00    +0.022 C 
ATOM     34  C   UNL A   1     -23.906  -3.173  29.146  0.00  0.00    -0.000 C 
ATOM     35  C   UNL A   1     -23.989  -4.549  28.853  0.00  0.00    -0.000 C 
ATOM     36  C   UNL A   1     -25.137  -5.280  29.205  0.00  0.00    -0.000 C 
ATOM     37  C   UNL A   1     -26.232  -4.611  29.784  0.00  0.00    -0.000 C 
ATOM     38  C   UNL A   1     -26.155  -3.232  30.065  0.00  0.00    -0.000 C 
ENDBRANCH  32  33
BRANCH  32  39
ATOM     39  C   UNL A   1     -25.387  -0.679  31.571  0.00  0.00    +0.120 C 
ATOM     40  C   UNL A   1     -25.189   0.773  32.028  0.00  0.00    +0.023 C 
ATOM     41  C   UNL A   1     -25.336   0.684  33.544  0.00  0.00    +0.020 C 
ATOM     42  C   UNL A   1     -24.829  -0.715  33.905  0.00  0.00    +0.089 C 
ATOM     43  N   UNL A   1     -24.758  -1.481  32.646  0.00  0.00    -0.215 NA
ENDBRANCH  32  39
ENDBRANCH   1  32
TORSDOF 12
