MODEL 808
MODEL 1
REMARK VINA RESULT:    -4.966      0.000      0.000
REMARK INTER + INTRA:          -4.966
REMARK INTER:                  -4.966
REMARK INTRA:                   0.000
REMARK UNBOUND:                 0.000
REMARK  Name = No_808-gen_results/8p0m/2024-11-27-11-27-31/
REMARK  0 active torsions:
REMARK  status: ('A' for Active; 'I' for Inactive)
REMARK                            x       y       z     vdW  Elec       q    Type
REMARK                         _______ _______ _______ _____ _____    ______ ____
ROOT
ATOM      1  C   UNL A   1     -24.758  -1.485  30.534  0.00  0.00    -0.022 A 
ATOM      2  C   UNL A   1     -24.778  -0.442  30.688  0.00  0.00    +0.016 A 
ATOM      3  C   UNL A   1     -26.031  -2.122  30.348  0.00  0.00    +0.042 C 
ATOM      4  C   UNL A   1     -26.118  -3.533  29.921  0.00  0.00    +0.085 C 
ATOM      5  C   UNL A   1     -25.090  -4.072  29.125  0.00  0.00    +0.021 C 
ATOM      6  C   UNL A   1     -23.919  -3.313  28.918  0.00  0.00    +0.029 C 
ATOM      7  C   UNL A   1     -23.915  -2.145  28.995  0.00  0.00    -0.007 A 
ATOM      8  C   UNL A   1     -23.445   0.318  30.767  0.00  0.00    +0.099 A 
ATOM      9  N   UNL A   1     -22.438  -0.262  30.320  0.00  0.00    -0.243 NA
ATOM     10  C   UNL A   1     -22.495  -1.188  29.204  0.00  0.00    +0.094 A 
ATOM     11 CL   UNL A   1     -27.462  -4.520  30.174  0.00  0.00    -0.115 Cl
ENDROOT
TORSDOF 0
ENDMDL
ENDMDL
