REMARK  Name = No_809-gen_results/8p0m/2024-11-27-11-27-31/
REMARK  1 active torsions:
REMARK  status: ('A' for Active; 'I' for Inactive)
REMARK    1  A    between atoms: C_4  and  C_11
REMARK                            x       y       z     vdW  Elec       q    Type
REMARK                         _______ _______ _______ _____ _____    ______ ____
ROOT
ATOM      1  C   UNL A   1     -28.016  -0.814  28.878  0.00  0.00    +0.011 A 
ATOM      2  C   UNL A   1     -27.064  -0.119  28.608  0.00  0.00    +0.001 A 
ATOM      3  C   UNL A   1     -25.792  -0.430  29.076  0.00  0.00    +0.002 A 
ATOM      4  C   UNL A   1     -24.546   0.349  28.823  0.00  0.00    +0.018 A 
ATOM      5  C   UNL A   1     -23.241   0.022  29.332  0.00  0.00    +0.002 A 
ATOM      6  C   UNL A   1     -23.193  -1.282  29.897  0.00  0.00    +0.000 A 
ATOM      7  C   UNL A   1     -27.870  -1.914  29.864  0.00  0.00    +0.058 A 
ATOM      8  C   UNL A   1     -26.631  -2.326  30.299  0.00  0.00    +0.011 A 
ATOM      9  C   UNL A   1     -25.512  -1.573  29.965  0.00  0.00    +0.001 A 
ATOM     10  C   UNL A   1     -24.217  -1.967  30.325  0.00  0.00    +0.000 A 
ATOM     11 CL   UNL A   1     -29.250  -2.925  30.292  0.00  0.00    -0.082 Cl
ENDROOT
BRANCH   4  12
ATOM     12  C   UNL A   1     -24.591   1.591  27.992  0.00  0.00    +0.081 A 
ATOM     13  C   UNL A   1     -24.785   2.710  28.608  0.00  0.00    +0.019 A 
ATOM     14  C   UNL A   1     -25.776   3.521  28.112  0.00  0.00    +0.003 A 
ATOM     15  C   UNL A   1     -25.982   3.505  26.713  0.00  0.00    +0.021 A 
ATOM     16  N   UNL A   1     -24.595   1.496  26.674  0.00  0.00    -0.244 NA
ATOM     17  C   UNL A   1     -25.391   2.386  26.019  0.00  0.00    +0.099 A 
ENDBRANCH   4  12
TORSDOF 1
