MODEL 809
MODEL 1
REMARK VINA RESULT:    -6.820      0.000      0.000
REMARK INTER + INTRA:          -7.758
REMARK INTER:                  -7.218
REMARK INTRA:                  -0.540
REMARK UNBOUND:                -0.540
REMARK  Name = No_809-gen_results/8p0m/2024-11-27-11-27-31/
REMARK  1 active torsions:
REMARK  status: ('A' for Active; 'I' for Inactive)
REMARK    1  A    between atoms: C_4  and  C_11
REMARK                            x       y       z     vdW  Elec       q    Type
REMARK                         _______ _______ _______ _____ _____    ______ ____
ROOT
ATOM      1  C   UNL A   1     -25.502   1.513  27.379  0.00  0.00    +0.011 A 
ATOM      2  C   UNL A   1     -25.014   0.598  28.001  0.00  0.00    +0.001 A 
ATOM      3  C   UNL A   1     -23.634   0.459  28.110  0.00  0.00    +0.002 A 
ATOM      4  C   UNL A   1     -22.914  -0.626  28.836  0.00  0.00    +0.018 A 
ATOM      5  C   UNL A   1     -21.485  -0.765  28.922  0.00  0.00    +0.002 A 
ATOM      6  C   UNL A   1     -20.801   0.393  28.461  0.00  0.00    +0.000 A 
ATOM      7  C   UNL A   1     -24.630   2.403  26.571  0.00  0.00    +0.058 A 
ATOM      8  C   UNL A   1     -23.260   2.372  26.698  0.00  0.00    +0.011 A 
ATOM      9  C   UNL A   1     -22.673   1.359  27.446  0.00  0.00    +0.001 A 
ATOM     10  C   UNL A   1     -21.291   1.303  27.665  0.00  0.00    +0.000 A 
ATOM     11 CL   UNL A   1     -25.322   3.729  25.636  0.00  0.00    -0.082 Cl
ENDROOT
BRANCH   4  12
ATOM     12  C   UNL A   1     -23.682  -1.698  29.542  0.00  0.00    +0.081 A 
ATOM     13  C   UNL A   1     -23.771  -2.846  28.957  0.00  0.00    +0.019 A 
ATOM     14  C   UNL A   1     -25.030  -3.384  28.847  0.00  0.00    +0.003 A 
ATOM     15  C   UNL A   1     -25.939  -3.116  29.896  0.00  0.00    +0.021 A 
ATOM     16  N   UNL A   1     -24.366  -1.401  30.633  0.00  0.00    -0.244 NA
ATOM     17  C   UNL A   1     -25.569  -2.025  30.765  0.00  0.00    +0.099 A 
ENDBRANCH   4  12
TORSDOF 1
ENDMDL
ENDMDL
