MODEL 80
MODEL 1
REMARK VINA RESULT:    -7.559      0.000      0.000
REMARK INTER + INTRA:         -12.410
REMARK INTER:                 -10.653
REMARK INTRA:                  -1.757
REMARK UNBOUND:                -1.757
REMARK  Name = No_80-gen_results/8p0m/2024-11-27-11-27-31/
REMARK  7 active torsions:
REMARK  status: ('A' for Active; 'I' for Inactive)
REMARK    1  A    between atoms: C_5  and  C_11
REMARK    2  A    between atoms: C_7  and  C_18
REMARK    3  A    between atoms: C_8  and  C_15
REMARK    4  A    between atoms: C_15  and  O_17
REMARK    5  A    between atoms: O_17  and  C_21
REMARK    6  A    between atoms: C_21  and  C_22
REMARK    7  A    between atoms: C_21  and  C_28
REMARK                            x       y       z     vdW  Elec       q    Type
REMARK                         _______ _______ _______ _____ _____    ______ ____
ROOT
ATOM      1  C   UNL A   1     -26.750   0.373  27.099  0.00  0.00    +0.007 A 
ATOM      2  C   UNL A   1     -27.674   0.387  26.319  0.00  0.00    +0.007 A 
ATOM      3  C   UNL A   1     -27.473   0.148  24.964  0.00  0.00    +0.000 A 
ATOM      4  C   UNL A   1     -28.523   0.148  23.905  0.00  0.00    +0.004 A 
ATOM      5  C   UNL A   1     -29.870   0.250  24.363  0.00  0.00    +0.072 A 
ATOM      6  C   UNL A   1     -30.055   0.432  25.748  0.00  0.00    +0.010 A 
ATOM      7  C   UNL A   1     -29.062   0.476  26.648  0.00  0.00    +0.080 A 
ATOM      8  C   UNL A   1     -25.356   0.679  26.637  0.00  0.00    +0.076 A 
ATOM      9  C   UNL A   1     -25.075   0.340  25.264  0.00  0.00    +0.006 A 
ATOM     10  C   UNL A   1     -26.133   0.180  24.374  0.00  0.00    +0.000 A 
ENDROOT
BRANCH   5  11
ATOM     11  C   UNL A   1     -30.956   0.162  23.379  0.00  0.00    +0.419 C 
ATOM     12  F   UNL A   1     -31.027  -0.843  22.916  0.00  0.00    -0.166 F 
ATOM     13  F   UNL A   1     -32.167   0.544  23.967  0.00  0.00    -0.166 F 
ATOM     14  F   UNL A   1     -30.719   1.226  22.499  0.00  0.00    -0.166 F 
ENDBRANCH   5  11
BRANCH   7  15
ATOM     15  C   UNL A   1     -29.440   0.638  28.087  0.00  0.00    +0.388 C 
ATOM     16  O   UNL A   1     -29.594   1.675  28.614  0.00  0.00    -0.241 OA
ATOM     17  O   UNL A   1     -29.653  -0.454  28.767  0.00  0.00    -0.241 OA
ENDBRANCH   7  15
BRANCH   8  18
ATOM     18  C   UNL A   1     -24.210   0.725  27.546  0.00  0.00    +0.342 C 
ATOM     19  O   UNL A   1     -23.809   1.681  27.945  0.00  0.00    -0.245 OA
BRANCH  18  20
ATOM     20  O   UNL A   1     -23.636  -0.413  27.723  0.00  0.00    -0.433 OA
BRANCH  20  21
ATOM     21  C   UNL A   1     -23.849  -1.103  28.964  0.00  0.00    +0.293 C 
BRANCH  21  22
ATOM     22  C   UNL A   1     -24.372  -1.948  29.114  0.00  0.00    +0.031 A 
ATOM     23  C   UNL A   1     -24.007  -3.356  28.679  0.00  0.00    +0.029 A 
ATOM     24  C   UNL A   1     -24.816  -4.506  28.957  0.00  0.00    +0.140 A 
ATOM     25  C   UNL A   1     -26.032  -4.205  29.627  0.00  0.00    +0.030 A 
ATOM     26  C   UNL A   1     -26.369  -3.011  30.051  0.00  0.00    +0.002 A 
ATOM     27  C   UNL A   1     -25.553  -1.872  29.740  0.00  0.00    -0.000 A 
ATOM     28  F   UNL A   1     -24.529  -5.644  28.505  0.00  0.00    -0.204 F 
ENDBRANCH  21  22
BRANCH  21  29
ATOM     29  C   UNL A   1     -22.517  -0.989  29.831  0.00  0.00    +0.408 C 
ATOM     30  O   UNL A   1     -22.414  -0.746  30.951  0.00  0.00    -0.241 OA
ATOM     31  O   UNL A   1     -21.315  -1.050  29.115  0.00  0.00    -0.241 OA
ENDBRANCH  21  29
ENDBRANCH  20  21
ENDBRANCH  18  20
ENDBRANCH   8  18
TORSDOF 7
ENDMDL
ENDMDL
