REMARK  Name = outputs/IAG933/test6/raw/output_81_IAG933_linker_design_.xyz
REMARK  11 active torsions:
REMARK  status: ('A' for Active; 'I' for Inactive)
REMARK    1  A    between atoms: C_1  and  C_2
REMARK    2  A    between atoms: C_1  and  C_8
REMARK    3  A    between atoms: C_1  and  N_29
REMARK    4  A    between atoms: C_13  and  C_41
REMARK    5  A    between atoms: C_14  and  C_15
REMARK    6  A    between atoms: C_21  and  O_22
REMARK    7  A    between atoms: O_22  and  C_23
REMARK    8  A    between atoms: C_23  and  C_24
REMARK    9  A    between atoms: N_29  and  C_40
REMARK   10  A    between atoms: N_31  and  C_33
REMARK   11  A    between atoms: N_31  and  C_36
REMARK                            x       y       z     vdW  Elec       q    Type
REMARK                         _______ _______ _______ _____ _____    ______ ____
ROOT
ATOM      1  C   UNL A   1     -21.066   1.127  28.350  0.00  0.00    +0.069 C 
ATOM      2  C   UNL A   1     -22.239   0.407  28.800  0.00  0.00    +0.064 C 
ATOM      3  C   UNL A   1     -21.056   1.994  27.227  0.00  0.00    -0.025 C 
ATOM      4  N   UNL A   1     -22.200  -0.544  29.674  0.00  0.00    -0.157 NA
ATOM      5  C   UNL A   1     -22.147   2.143  26.264  0.00  0.00    -0.030 C 
ATOM      6  C   UNL A   1     -24.508   0.183  28.165  0.00  0.00    +0.087 C 
ATOM      7  C   UNL A   1     -24.419   1.250  27.080  0.00  0.00    +0.049 C 
ATOM      8  C   UNL A   1     -23.430   1.620  26.341  0.00  0.00    +0.032 C 
ATOM      9  C   UNL A   1     -23.543   1.349  28.301  0.00  0.00    +0.062 C 
ENDROOT
BRANCH   7  10
ATOM     10  C   UNL A   1     -25.688   1.614  26.461  0.00  0.00    +0.018 C 
ATOM     11  C   UNL A   1     -26.250   2.920  26.395  0.00  0.00    +0.073 C 
ATOM     12  C   UNL A   1     -27.438   3.091  25.645  0.00  0.00    +0.106 C 
ATOM     13  N   UNL A   1     -28.075   2.089  25.003  0.00  0.00    -0.208 NA
ATOM     14  C   UNL A   1     -27.543   0.849  25.079  0.00  0.00    +0.253 C 
ATOM     15  C   UNL A   1     -26.354   0.576  25.777  0.00  0.00    +0.189 C 
ATOM     16  F   UNL A   1     -25.860  -0.681  25.795  0.00  0.00    -0.200 F 
BRANCH  11  17
ATOM     17  C   UNL A   1     -25.642   4.093  27.123  0.00  0.00    +0.266 C 
ATOM     18  N   UNL A   1     -25.614   5.252  26.449  0.00  0.00    -0.200 NA
ATOM     19  C   UNL A   1     -25.026   6.479  26.963  0.00  0.00    +0.139 C 
ATOM     20  O   UNL A   1     -25.143   3.966  28.243  0.00  0.00    -0.268 OA
ENDBRANCH  11  17
BRANCH  14  21
ATOM     21  O   UNL A   1     -28.193  -0.208  24.477  0.00  0.00    -0.456 OA
BRANCH  21  22
ATOM     22  C   UNL A   1     -29.460   0.005  23.866  0.00  0.00    +0.243 C 
BRANCH  22  23
ATOM     23  C   UNL A   1     -30.065  -1.377  23.573  0.00  0.00    +0.229 C 
ATOM     24  O   UNL A   1     -30.729  -1.878  24.721  0.00  0.00    -0.216 OA
ENDBRANCH  22  23
ENDBRANCH  21  22
ENDBRANCH  14  21
ENDBRANCH   7  10
BRANCH   6  25
ATOM     25  N   UNL A   1     -25.413   0.168  29.265  0.00  0.00    -0.261 N 
ATOM     26  N   UNL A   1     -27.219   2.618  29.667  0.00  0.00    -0.236 N 
ATOM     27  C   UNL A   1     -26.820   0.831  29.239  0.00  0.00    +0.309 C 
ATOM     28  O   UNL A   1     -27.628   0.312  28.901  0.00  0.00    -0.252 OA
BRANCH  26  29
ATOM     29  C   UNL A   1     -26.529   3.305  30.675  0.00  0.00    +0.281 C 
ATOM     30  O   UNL A   1     -27.251   3.840  31.679  0.00  0.00    -0.196 OA
ENDBRANCH  26  29
BRANCH  26  31
ATOM     31  C   UNL A   1     -28.292   3.528  29.209  0.00  0.00    +0.097 C 
ATOM     32  C   UNL A   1     -28.735   4.901  29.242  0.00  0.00    +0.023 C 
ENDBRANCH  26  31
BRANCH  25  33
ATOM     33  C   UNL A   1     -24.855  -1.012  30.143  0.00  0.00    +0.115 C 
BRANCH  33  34
ATOM     34  C   UNL A   1     -24.973  -2.505  29.788  0.00  0.00    -0.003 C 
ATOM     35  C   UNL A   1     -23.906  -3.173  29.146  0.00  0.00    -0.003 C 
ATOM     36  C   UNL A   1     -23.989  -4.549  28.853  0.00  0.00    -0.000 C 
ATOM     37  C   UNL A   1     -25.137  -5.280  29.205  0.00  0.00    -0.000 C 
ATOM     38  C   UNL A   1     -26.232  -4.611  29.784  0.00  0.00    -0.000 C 
ATOM     39  C   UNL A   1     -26.155  -3.232  30.065  0.00  0.00    -0.003 C 
ENDBRANCH  33  34
BRANCH  33  40
ATOM     40  C   UNL A   1     -25.387  -0.679  31.571  0.00  0.00    +0.095 C 
ATOM     41  C   UNL A   1     -25.189   0.773  32.028  0.00  0.00    +0.021 C 
ATOM     42  C   UNL A   1     -25.336   0.684  33.544  0.00  0.00    +0.020 C 
ATOM     43  C   UNL A   1     -24.829  -0.715  33.905  0.00  0.00    +0.089 C 
ATOM     44  N   UNL A   1     -24.758  -1.481  32.646  0.00  0.00    -0.217 NA
ENDBRANCH  33  40
ENDBRANCH  25  33
ENDBRANCH   6  25
TORSDOF 11
