REMARK  Name = outputs/IAG933/test6/raw/output_8102_IAG933_linker_design_.xyz
REMARK  10 active torsions:
REMARK  status: ('A' for Active; 'I' for Inactive)
REMARK    1  A    between atoms: C_1  and  C_2
REMARK    2  A    between atoms: C_1  and  C_8
REMARK    3  A    between atoms: C_1  and  C_39
REMARK    4  A    between atoms: C_13  and  C_42
REMARK    5  A    between atoms: C_14  and  C_15
REMARK    6  A    between atoms: C_21  and  O_22
REMARK    7  A    between atoms: O_22  and  C_23
REMARK    8  A    between atoms: C_23  and  C_24
REMARK    9  A    between atoms: C_29  and  C_39
REMARK   10  A    between atoms: C_33  and  C_43
REMARK                            x       y       z     vdW  Elec       q    Type
REMARK                         _______ _______ _______ _____ _____    ______ ____
ROOT
ATOM      1  O   UNL A   1     -21.650   1.561  26.183  0.00  0.00    -0.425 OA
ATOM      2  C   UNL A   1     -24.105   0.887  28.372  0.00  0.00    +0.068 C 
ATOM      3  O   UNL A   1     -23.205   2.929  25.333  0.00  0.00    -0.178 OA
ATOM      4  C   UNL A   1     -21.508   0.748  28.434  0.00  0.00    +0.162 C 
ATOM      5  O   UNL A   1     -21.159  -1.107  29.489  0.00  0.00    -0.220 OA
ATOM      6  O   UNL A   1     -22.461  -0.483  30.202  0.00  0.00    -0.222 OA
ATOM      7  C   UNL A   1     -21.036   1.535  27.437  0.00  0.00    +0.323 C 
ATOM      8  O   UNL A   1     -20.123   2.347  27.884  0.00  0.00    -0.250 OA
ATOM      9  C   UNL A   1     -20.518  -0.018  28.957  0.00  0.00    +0.196 C 
ATOM     10  C   UNL A   1     -22.852   0.559  29.148  0.00  0.00    +0.168 C 
ATOM     11  C   UNL A   1     -24.228   1.533  26.961  0.00  0.00    +0.082 C 
ATOM     12  C   UNL A   1     -23.047   1.636  25.977  0.00  0.00    +0.293 C 
ENDROOT
BRANCH  11  13
ATOM     13  C   UNL A   1     -25.688   1.614  26.461  0.00  0.00    +0.076 C 
ATOM     14  C   UNL A   1     -26.250   2.920  26.395  0.00  0.00    +0.055 C 
ATOM     15  C   UNL A   1     -27.438   3.091  25.645  0.00  0.00    +0.102 C 
ATOM     16  N   UNL A   1     -28.075   2.089  25.003  0.00  0.00    -0.212 NA
ATOM     17  C   UNL A   1     -27.543   0.849  25.079  0.00  0.00    +0.234 C 
ATOM     18  C   UNL A   1     -26.354   0.576  25.777  0.00  0.00    +0.240 C 
ATOM     19  F   UNL A   1     -25.860  -0.681  25.795  0.00  0.00    -0.227 F 
BRANCH  14  20
ATOM     20  C   UNL A   1     -25.642   4.093  27.123  0.00  0.00    +0.262 C 
ATOM     21  N   UNL A   1     -25.614   5.252  26.449  0.00  0.00    -0.200 NA
ATOM     22  C   UNL A   1     -25.026   6.479  26.963  0.00  0.00    +0.139 C 
ATOM     23  O   UNL A   1     -25.143   3.966  28.243  0.00  0.00    -0.269 OA
ENDBRANCH  14  20
BRANCH  17  24
ATOM     24  O   UNL A   1     -28.193  -0.208  24.477  0.00  0.00    -0.459 OA
BRANCH  24  25
ATOM     25  C   UNL A   1     -29.460   0.005  23.866  0.00  0.00    +0.242 C 
BRANCH  25  26
ATOM     26  C   UNL A   1     -30.065  -1.377  23.573  0.00  0.00    +0.229 C 
ATOM     27  O   UNL A   1     -30.729  -1.878  24.721  0.00  0.00    -0.216 OA
ENDBRANCH  25  26
ENDBRANCH  24  25
ENDBRANCH  17  24
ENDBRANCH  11  13
BRANCH  12  28
ATOM     28  C   UNL A   1     -23.482   0.787  24.869  0.00  0.00    +0.265 C 
ATOM     29  F   UNL A   1     -24.061   1.068  24.032  0.00  0.00    -0.227 F 
ENDBRANCH  12  28
BRANCH   2  31
ATOM     30  O   UNL A   1     -26.484   0.265  28.719  0.00  0.00    -0.223 OA
ATOM     31  C   UNL A   1     -25.063  -0.153  28.853  0.00  0.00    +0.160 C 
BRANCH  31  32
ATOM     32  C   UNL A   1     -24.855  -1.012  30.143  0.00  0.00    +0.069 C 
BRANCH  32  33
ATOM     33  C   UNL A   1     -24.973  -2.505  29.788  0.00  0.00    -0.019 C 
ATOM     34  C   UNL A   1     -23.906  -3.173  29.146  0.00  0.00    -0.004 C 
ATOM     35  C   UNL A   1     -23.989  -4.549  28.853  0.00  0.00    -0.000 C 
ATOM     36  C   UNL A   1     -25.137  -5.280  29.205  0.00  0.00    -0.000 C 
ATOM     37  C   UNL A   1     -26.232  -4.611  29.784  0.00  0.00    -0.000 C 
ATOM     38  C   UNL A   1     -26.155  -3.232  30.065  0.00  0.00    -0.004 C 
ENDBRANCH  32  33
BRANCH  32  39
ATOM     39  C   UNL A   1     -25.387  -0.679  31.571  0.00  0.00    +0.079 C 
ATOM     40  C   UNL A   1     -25.189   0.773  32.028  0.00  0.00    +0.019 C 
ATOM     41  C   UNL A   1     -25.336   0.684  33.544  0.00  0.00    +0.020 C 
ATOM     42  C   UNL A   1     -24.829  -0.715  33.905  0.00  0.00    +0.089 C 
ATOM     43  N   UNL A   1     -24.758  -1.481  32.646  0.00  0.00    -0.219 NA
ENDBRANCH  32  39
ENDBRANCH  31  32
ENDBRANCH   2  31
TORSDOF 10
