REMARK  Name = outputs/IAG933/test6/raw/output_8104_IAG933_linker_design_.xyz
REMARK  11 active torsions:
REMARK  status: ('A' for Active; 'I' for Inactive)
REMARK    1  A    between atoms: C_1  and  C_2
REMARK    2  A    between atoms: C_1  and  C_8
REMARK    3  A    between atoms: C_1  and  C_32
REMARK    4  A    between atoms: C_13  and  C_34
REMARK    5  A    between atoms: C_14  and  C_15
REMARK    6  A    between atoms: C_21  and  O_22
REMARK    7  A    between atoms: O_22  and  C_23
REMARK    8  A    between atoms: C_23  and  C_24
REMARK    9  A    between atoms: C_30  and  C_32
REMARK   10  A    between atoms: C_35  and  N_39
REMARK   11  A    between atoms: C_35  and  O_41
REMARK                            x       y       z     vdW  Elec       q    Type
REMARK                         _______ _______ _______ _____ _____    ______ ____
ROOT
ATOM      1  C   UNL A   1     -23.218   1.859  25.830  0.00  0.00    +0.347 C 
ATOM      2  C   UNL A   1     -25.037   0.239  28.999  0.00  0.00    +0.113 C 
ATOM      3  F   UNL A   1     -23.971   2.085  24.786  0.00  0.00    -0.184 F 
ATOM      4  C   UNL A   1     -24.912   0.958  27.535  0.00  0.00    +0.043 C 
ATOM      5  O   UNL A   1     -21.900   2.111  25.579  0.00  0.00    -0.443 OA
ATOM      6  C   UNL A   1     -23.538   0.743  29.298  0.00  0.00    +0.192 C 
ATOM      7  C   UNL A   1     -21.384   1.441  27.843  0.00  0.00    +0.038 C 
ATOM      8  C   UNL A   1     -21.049   1.906  26.603  0.00  0.00    +0.175 C 
ATOM      9  F   UNL A   1     -22.675  -0.033  30.105  0.00  0.00    -0.232 F 
ATOM     10  C   UNL A   1     -23.622   1.323  27.055  0.00  0.00    +0.029 C 
ATOM     11  C   UNL A   1     -22.739   1.174  28.049  0.00  0.00    +0.012 C 
ENDROOT
BRANCH   4  12
ATOM     12  C   UNL A   1     -25.688   1.614  26.461  0.00  0.00    +0.075 C 
ATOM     13  C   UNL A   1     -26.250   2.920  26.395  0.00  0.00    +0.055 C 
ATOM     14  C   UNL A   1     -27.438   3.091  25.645  0.00  0.00    +0.102 C 
ATOM     15  N   UNL A   1     -28.075   2.089  25.003  0.00  0.00    -0.212 NA
ATOM     16  C   UNL A   1     -27.543   0.849  25.079  0.00  0.00    +0.234 C 
ATOM     17  C   UNL A   1     -26.354   0.576  25.777  0.00  0.00    +0.240 C 
ATOM     18  F   UNL A   1     -25.860  -0.681  25.795  0.00  0.00    -0.227 F 
BRANCH  13  19
ATOM     19  C   UNL A   1     -25.642   4.093  27.123  0.00  0.00    +0.262 C 
ATOM     20  N   UNL A   1     -25.614   5.252  26.449  0.00  0.00    -0.200 NA
ATOM     21  C   UNL A   1     -25.026   6.479  26.963  0.00  0.00    +0.139 C 
ATOM     22  O   UNL A   1     -25.143   3.966  28.243  0.00  0.00    -0.269 OA
ENDBRANCH  13  19
BRANCH  16  23
ATOM     23  O   UNL A   1     -28.193  -0.208  24.477  0.00  0.00    -0.459 OA
BRANCH  23  24
ATOM     24  C   UNL A   1     -29.460   0.005  23.866  0.00  0.00    +0.242 C 
BRANCH  24  25
ATOM     25  C   UNL A   1     -30.065  -1.377  23.573  0.00  0.00    +0.229 C 
ATOM     26  O   UNL A   1     -30.729  -1.878  24.721  0.00  0.00    -0.216 OA
ENDBRANCH  24  25
ENDBRANCH  23  24
ENDBRANCH  16  23
ENDBRANCH   4  12
BRANCH   2  27
ATOM     27  C   UNL A   1     -26.643   0.320  28.965  0.00  0.00    +0.246 C 
ATOM     28  O   UNL A   1     -27.332  -0.688  28.911  0.00  0.00    -0.273 OA
ATOM     29  N   UNL A   1     -27.177   1.562  29.062  0.00  0.00    -0.182 NA
BRANCH  29  31
ATOM     30  C   UNL A   1     -28.380   3.103  30.658  0.00  0.00    +0.053 C 
ATOM     31  C   UNL A   1     -28.567   1.933  29.694  0.00  0.00    +0.171 C 
ATOM     32  C   UNL A   1     -29.480   3.297  29.658  0.00  0.00    +0.053 C 
BRANCH  31  33
ATOM     33  O   UNL A   1     -29.599   0.973  29.190  0.00  0.00    -0.338 OA
ATOM     34  C   UNL A   1     -29.886   1.055  27.770  0.00  0.00    +0.176 C 
ENDBRANCH  31  33
ENDBRANCH  29  31
ENDBRANCH   2  27
BRANCH   2  35
ATOM     35  C   UNL A   1     -24.855  -1.012  30.143  0.00  0.00    +0.050 C 
BRANCH  35  36
ATOM     36  C   UNL A   1     -24.973  -2.505  29.788  0.00  0.00    -0.021 C 
ATOM     37  C   UNL A   1     -23.906  -3.173  29.146  0.00  0.00    -0.004 C 
ATOM     38  C   UNL A   1     -23.989  -4.549  28.853  0.00  0.00    -0.000 C 
ATOM     39  C   UNL A   1     -25.137  -5.280  29.205  0.00  0.00    -0.000 C 
ATOM     40  C   UNL A   1     -26.232  -4.611  29.784  0.00  0.00    -0.000 C 
ATOM     41  C   UNL A   1     -26.155  -3.232  30.065  0.00  0.00    -0.004 C 
ENDBRANCH  35  36
BRANCH  35  42
ATOM     42  C   UNL A   1     -25.387  -0.679  31.571  0.00  0.00    +0.077 C 
ATOM     43  C   UNL A   1     -25.189   0.773  32.028  0.00  0.00    +0.019 C 
ATOM     44  C   UNL A   1     -25.336   0.684  33.544  0.00  0.00    +0.020 C 
ATOM     45  C   UNL A   1     -24.829  -0.715  33.905  0.00  0.00    +0.089 C 
ATOM     46  N   UNL A   1     -24.758  -1.481  32.646  0.00  0.00    -0.219 NA
ENDBRANCH  35  42
ENDBRANCH   2  35
TORSDOF 11
