REMARK  Name = outputs/IAG933/test6/raw/output_8106_IAG933_linker_design_.xyz
REMARK  11 active torsions:
REMARK  status: ('A' for Active; 'I' for Inactive)
REMARK    1  A    between atoms: C_1  and  C_2
REMARK    2  A    between atoms: C_1  and  C_8
REMARK    3  A    between atoms: C_1  and  N_31
REMARK    4  A    between atoms: C_14  and  C_15
REMARK    5  A    between atoms: C_21  and  O_22
REMARK    6  A    between atoms: O_22  and  C_23
REMARK    7  A    between atoms: C_23  and  C_24
REMARK    8  A    between atoms: C_28  and  O_30
REMARK    9  A    between atoms: O_30  and  C_33
REMARK   10  A    between atoms: N_31  and  C_32
REMARK   11  A    between atoms: N_31  and  C_38
REMARK                            x       y       z     vdW  Elec       q    Type
REMARK                         _______ _______ _______ _____ _____    ______ ____
ROOT
ATOM      1  C   UNL A   1     -25.688   1.614  26.461  0.00  0.00    +0.059 C 
ATOM      2  C   UNL A   1     -26.250   2.920  26.395  0.00  0.00    +0.080 C 
ATOM      3  C   UNL A   1     -27.438   3.091  25.645  0.00  0.00    +0.107 C 
ATOM      4  N   UNL A   1     -28.075   2.089  25.003  0.00  0.00    -0.211 NA
ATOM      5  C   UNL A   1     -27.543   0.849  25.079  0.00  0.00    +0.239 C 
ATOM      6  C   UNL A   1     -26.354   0.576  25.777  0.00  0.00    +0.265 C 
ATOM      7  F   UNL A   1     -25.860  -0.681  25.795  0.00  0.00    -0.222 F 
ATOM      8  C   UNL A   1     -22.445  -0.049  29.442  0.00  0.00    +0.016 C 
ATOM      9  C   UNL A   1     -22.169   1.369  27.083  0.00  0.00    +0.171 C 
ATOM     10  C   UNL A   1     -21.204   0.403  29.005  0.00  0.00    -0.001 C 
ATOM     11  C   UNL A   1     -24.485   1.412  27.092  0.00  0.00    -0.103 C 
ATOM     12  C   UNL A   1     -23.631   0.281  28.747  0.00  0.00    +0.067 C 
ATOM     13  C   UNL A   1     -23.447   1.043  27.622  0.00  0.00    +0.057 C 
ATOM     14  C   UNL A   1     -21.034   1.067  27.815  0.00  0.00    +0.008 C 
ENDROOT
BRANCH   2  15
ATOM     15  C   UNL A   1     -25.642   4.093  27.123  0.00  0.00    +0.267 C 
ATOM     16  N   UNL A   1     -25.614   5.252  26.449  0.00  0.00    -0.200 NA
ATOM     17  C   UNL A   1     -25.026   6.479  26.963  0.00  0.00    +0.139 C 
ATOM     18  O   UNL A   1     -25.143   3.966  28.243  0.00  0.00    -0.268 OA
ENDBRANCH   2  15
BRANCH   5  19
ATOM     19  O   UNL A   1     -28.193  -0.208  24.477  0.00  0.00    -0.458 OA
BRANCH  19  20
ATOM     20  C   UNL A   1     -29.460   0.005  23.866  0.00  0.00    +0.242 C 
BRANCH  20  21
ATOM     21  C   UNL A   1     -30.065  -1.377  23.573  0.00  0.00    +0.229 C 
ATOM     22  O   UNL A   1     -30.729  -1.878  24.721  0.00  0.00    -0.216 OA
ENDBRANCH  20  21
ENDBRANCH  19  20
ENDBRANCH   5  19
BRANCH   9  23
ATOM     23  O   UNL A   1     -21.839   1.879  25.844  0.00  0.00    -0.316 OA
BRANCH  23  24
ATOM     24  C   UNL A   1     -23.055   2.051  25.436  0.00  0.00    +0.341 C 
ATOM     25  F   UNL A   1     -23.665   3.164  25.345  0.00  0.00    -0.198 F 
ENDBRANCH  23  24
ENDBRANCH   9  23
BRANCH  12  26
ATOM     26  N   UNL A   1     -24.964  -0.102  29.145  0.00  0.00    -0.222 N 
BRANCH  26  27
ATOM     27  C   UNL A   1     -26.225   0.058  28.755  0.00  0.00    +0.175 C 
ATOM     28  N   UNL A   1     -27.325   0.204  28.627  0.00  0.00    -0.174 NA
ENDBRANCH  26  27
BRANCH  26  29
ATOM     29  C   UNL A   1     -24.855  -1.012  30.143  0.00  0.00    +0.126 C 
BRANCH  29  30
ATOM     30  C   UNL A   1     -24.973  -2.505  29.788  0.00  0.00    -0.002 C 
ATOM     31  C   UNL A   1     -23.906  -3.173  29.146  0.00  0.00    -0.003 C 
ATOM     32  C   UNL A   1     -23.989  -4.549  28.853  0.00  0.00    -0.000 C 
ATOM     33  C   UNL A   1     -25.137  -5.280  29.205  0.00  0.00    -0.000 C 
ATOM     34  C   UNL A   1     -26.232  -4.611  29.784  0.00  0.00    -0.000 C 
ATOM     35  C   UNL A   1     -26.155  -3.232  30.065  0.00  0.00    -0.003 C 
ENDBRANCH  29  30
BRANCH  29  36
ATOM     36  C   UNL A   1     -25.387  -0.679  31.571  0.00  0.00    +0.096 C 
ATOM     37  C   UNL A   1     -25.189   0.773  32.028  0.00  0.00    +0.021 C 
ATOM     38  C   UNL A   1     -25.336   0.684  33.544  0.00  0.00    +0.020 C 
ATOM     39  C   UNL A   1     -24.829  -0.715  33.905  0.00  0.00    +0.089 C 
ATOM     40  N   UNL A   1     -24.758  -1.481  32.646  0.00  0.00    -0.217 NA
ENDBRANCH  29  36
ENDBRANCH  26  29
ENDBRANCH  12  26
TORSDOF 11
