REMARK  Name = outputs/IAG933/test6/raw/output_8108_IAG933_linker_design_.xyz
REMARK  13 active torsions:
REMARK  status: ('A' for Active; 'I' for Inactive)
REMARK    1  A    between atoms: C_1  and  C_2
REMARK    2  A    between atoms: C_1  and  C_8
REMARK    3  A    between atoms: C_1  and  N_32
REMARK    4  A    between atoms: C_13  and  C_29
REMARK    5  A    between atoms: C_14  and  C_15
REMARK    6  A    between atoms: C_21  and  O_22
REMARK    7  A    between atoms: O_22  and  C_23
REMARK    8  A    between atoms: C_23  and  C_24
REMARK    9  A    between atoms: C_28  and  O_36
REMARK   10  A    between atoms: C_28  and  C_42
REMARK   11  A    between atoms: N_32  and  O_36
REMARK   12  A    between atoms: N_32  and  C_37
REMARK   13  A    between atoms: O_40  and  C_42
REMARK                            x       y       z     vdW  Elec       q    Type
REMARK                         _______ _______ _______ _____ _____    ______ ____
ROOT
ATOM      1  C   UNL A   1     -24.309   1.377  27.200  0.00  0.00    +0.033 C 
ATOM      2  C   UNL A   1     -23.023   1.870  26.655  0.00  0.00    +0.059 C 
ATOM      3  C   UNL A   1     -21.784   1.653  27.278  0.00  0.00    +0.009 C 
ATOM      4  C   UNL A   1     -21.653   0.826  28.378  0.00  0.00    +0.008 C 
ATOM      5  C   UNL A   1     -22.746   0.372  28.991  0.00  0.00    +0.154 C 
ATOM      6  C   UNL A   1     -24.086   0.567  28.435  0.00  0.00    +0.110 C 
ATOM      7  F   UNL A   1     -22.487  -0.255  30.268  0.00  0.00    -0.203 F 
ATOM      8  C   UNL A   1     -20.429  -0.004  28.641  0.00  0.00    +0.034 C 
ATOM      9 CL   UNL A   1     -22.830   2.709  25.128  0.00  0.00    -0.082 Cl
ENDROOT
BRANCH   1  10
ATOM     10  C   UNL A   1     -25.688   1.614  26.461  0.00  0.00    +0.040 C 
ATOM     11  C   UNL A   1     -26.250   2.920  26.395  0.00  0.00    +0.077 C 
ATOM     12  C   UNL A   1     -27.438   3.091  25.645  0.00  0.00    +0.107 C 
ATOM     13  N   UNL A   1     -28.075   2.089  25.003  0.00  0.00    -0.208 NA
ATOM     14  C   UNL A   1     -27.543   0.849  25.079  0.00  0.00    +0.253 C 
ATOM     15  C   UNL A   1     -26.354   0.576  25.777  0.00  0.00    +0.193 C 
ATOM     16  F   UNL A   1     -25.860  -0.681  25.795  0.00  0.00    -0.199 F 
BRANCH  11  17
ATOM     17  C   UNL A   1     -25.642   4.093  27.123  0.00  0.00    +0.266 C 
ATOM     18  N   UNL A   1     -25.614   5.252  26.449  0.00  0.00    -0.200 NA
ATOM     19  C   UNL A   1     -25.026   6.479  26.963  0.00  0.00    +0.139 C 
ATOM     20  O   UNL A   1     -25.143   3.966  28.243  0.00  0.00    -0.268 OA
ENDBRANCH  11  17
BRANCH  14  21
ATOM     21  O   UNL A   1     -28.193  -0.208  24.477  0.00  0.00    -0.456 OA
BRANCH  21  22
ATOM     22  C   UNL A   1     -29.460   0.005  23.866  0.00  0.00    +0.243 C 
BRANCH  22  23
ATOM     23  C   UNL A   1     -30.065  -1.377  23.573  0.00  0.00    +0.229 C 
ATOM     24  O   UNL A   1     -30.729  -1.878  24.721  0.00  0.00    -0.216 OA
ENDBRANCH  22  23
ENDBRANCH  21  22
ENDBRANCH  14  21
ENDBRANCH   1  10
BRANCH   6  25
ATOM     25  N   UNL A   1     -25.090  -0.039  29.041  0.00  0.00    -0.233 N 
BRANCH  25  26
ATOM     26  C   UNL A   1     -24.855  -1.012  30.143  0.00  0.00    +0.148 C 
BRANCH  26  27
ATOM     27  C   UNL A   1     -24.973  -2.505  29.788  0.00  0.00    +0.002 C 
ATOM     28  C   UNL A   1     -23.906  -3.173  29.146  0.00  0.00    -0.002 C 
ATOM     29  C   UNL A   1     -23.989  -4.549  28.853  0.00  0.00    -0.000 C 
ATOM     30  C   UNL A   1     -25.137  -5.280  29.205  0.00  0.00    -0.000 C 
ATOM     31  C   UNL A   1     -26.232  -4.611  29.784  0.00  0.00    -0.000 C 
ATOM     32  C   UNL A   1     -26.155  -3.232  30.065  0.00  0.00    -0.002 C 
ENDBRANCH  26  27
BRANCH  26  33
ATOM     33  C   UNL A   1     -25.387  -0.679  31.571  0.00  0.00    +0.100 C 
ATOM     34  C   UNL A   1     -25.189   0.773  32.028  0.00  0.00    +0.021 C 
ATOM     35  C   UNL A   1     -25.336   0.684  33.544  0.00  0.00    +0.020 C 
ATOM     36  C   UNL A   1     -24.829  -0.715  33.905  0.00  0.00    +0.089 C 
ATOM     37  N   UNL A   1     -24.758  -1.481  32.646  0.00  0.00    -0.217 NA
ENDBRANCH  26  33
ENDBRANCH  25  26
BRANCH  25  38
ATOM     38  O   UNL A   1     -26.247  -0.113  28.349  0.00  0.00    -0.254 OA
BRANCH  38  39
ATOM     39  C   UNL A   1     -27.315  -0.202  28.677  0.00  0.00    +0.209 C 
BRANCH  39  40
ATOM     40  C   UNL A   1     -28.331   0.364  29.620  0.00  0.00    +0.220 C 
BRANCH  40  42
ATOM     41  O   UNL A   1     -30.103   1.671  29.106  0.00  0.00    -0.035 OA
ATOM     42  O   UNL A   1     -29.619   0.465  28.946  0.00  0.00    -0.186 OA
ENDBRANCH  40  42
ENDBRANCH  39  40
ENDBRANCH  38  39
ENDBRANCH  25  38
ENDBRANCH   6  25
TORSDOF 13
