MODEL 810
MODEL 1
REMARK VINA RESULT:    -4.345      0.000      0.000
REMARK INTER + INTRA:          -4.345
REMARK INTER:                  -4.345
REMARK INTRA:                   0.000
REMARK UNBOUND:                 0.000
REMARK  Name = No_810-gen_results/8p0m/2024-11-27-11-27-31/
REMARK  0 active torsions:
REMARK  status: ('A' for Active; 'I' for Inactive)
REMARK                            x       y       z     vdW  Elec       q    Type
REMARK                         _______ _______ _______ _____ _____    ______ ____
ROOT
ATOM      1  C   UNL A   1     -24.947  -5.376  29.034  0.00  0.00    +0.000 A 
ATOM      2  C   UNL A   1     -24.197  -4.713  28.705  0.00  0.00    +0.000 A 
ATOM      3  C   UNL A   1     -26.127  -4.698  29.585  0.00  0.00    +0.000 A 
ATOM      4  C   UNL A   1     -26.157  -3.384  29.812  0.00  0.00    +0.000 A 
ATOM      5  C   UNL A   1     -23.999  -3.292  28.858  0.00  0.00    +0.000 A 
ATOM      6  C   UNL A   1     -25.096  -2.684  29.394  0.00  0.00    +0.000 A 
ENDROOT
TORSDOF 0
ENDMDL
ENDMDL
