REMARK  Name = No_811-gen_results/8p0m/2024-11-27-11-27-31/
REMARK  2 active torsions:
REMARK  status: ('A' for Active; 'I' for Inactive)
REMARK    1  A    between atoms: C_1  and  C_2
REMARK    2  A    between atoms: C_5  and  C_10
REMARK                            x       y       z     vdW  Elec       q    Type
REMARK                         _______ _______ _______ _____ _____    ______ ____
ROOT
ATOM      1  C   UNL A   1     -27.064  -0.119  28.608  0.00  0.00    +0.051 A 
ATOM      2  C   UNL A   1     -25.792  -0.430  29.076  0.00  0.00    +0.016 A 
ATOM      3  C   UNL A   1     -24.546   0.349  28.823  0.00  0.00    +0.062 A 
ATOM      4  C   UNL A   1     -24.659   1.420  27.888  0.00  0.00    +0.070 A 
ATOM      5  C   UNL A   1     -25.947   1.681  27.379  0.00  0.00    +0.006 A 
ATOM      6  C   UNL A   1     -27.044   0.974  27.687  0.00  0.00    +0.004 A 
ATOM      7 CL   UNL A   1     -23.042  -0.053  29.480  0.00  0.00    -0.082 Cl
ENDROOT
BRANCH   1   8
ATOM      8  C   UNL A   1     -28.016  -0.814  28.878  0.00  0.00    +0.254 C 
ATOM      9 CL   UNL A   1     -29.528  -0.228  28.663  0.00  0.00    -0.038 Cl
ATOM     10  O   UNL A   1     -27.915  -1.949  29.587  0.00  0.00    -0.274 OA
ENDBRANCH   1   8
BRANCH   4  11
ATOM     11  C   UNL A   1     -23.602   2.325  27.603  0.00  0.00    +0.298 C 
ATOM     12  N   UNL A   1     -22.569   2.077  27.193  0.00  0.00    -0.102 NA
ATOM     13  O   UNL A   1     -23.926   3.616  27.558  0.00  0.00    -0.264 OA
ENDBRANCH   4  11
TORSDOF 2
