REMARK  Name = outputs/IAG933/test6/raw/output_8110_IAG933_linker_design_.xyz
REMARK  14 active torsions:
REMARK  status: ('A' for Active; 'I' for Inactive)
REMARK    1  A    between atoms: C_1  and  C_2
REMARK    2  A    between atoms: C_1  and  C_8
REMARK    3  A    between atoms: C_1  and  C_34
REMARK    4  A    between atoms: C_13  and  C_37
REMARK    5  A    between atoms: C_14  and  C_15
REMARK    6  A    between atoms: C_21  and  O_22
REMARK    7  A    between atoms: O_22  and  C_23
REMARK    8  A    between atoms: C_23  and  C_24
REMARK    9  A    between atoms: C_30  and  N_36
REMARK   10  A    between atoms: C_31  and  O_35
REMARK   11  A    between atoms: C_31  and  C_37
REMARK   12  A    between atoms: N_32  and  C_37
REMARK   13  A    between atoms: O_33  and  O_35
REMARK   14  A    between atoms: O_33  and  C_38
REMARK                            x       y       z     vdW  Elec       q    Type
REMARK                         _______ _______ _______ _____ _____    ______ ____
ROOT
ATOM      1  C   UNL A   1     -24.445   1.232  27.296  0.00  0.00    +0.197 C 
ENDROOT
BRANCH   1   2
ATOM      2  C   UNL A   1     -25.688   1.614  26.461  0.00  0.00    +0.044 C 
ATOM      3  C   UNL A   1     -26.250   2.920  26.395  0.00  0.00    +0.075 C 
ATOM      4  C   UNL A   1     -27.438   3.091  25.645  0.00  0.00    +0.106 C 
ATOM      5  N   UNL A   1     -28.075   2.089  25.003  0.00  0.00    -0.208 NA
ATOM      6  C   UNL A   1     -27.543   0.849  25.079  0.00  0.00    +0.253 C 
ATOM      7  C   UNL A   1     -26.354   0.576  25.777  0.00  0.00    +0.191 C 
ATOM      8  F   UNL A   1     -25.860  -0.681  25.795  0.00  0.00    -0.200 F 
BRANCH   3   9
ATOM      9  C   UNL A   1     -25.642   4.093  27.123  0.00  0.00    +0.266 C 
ATOM     10  N   UNL A   1     -25.614   5.252  26.449  0.00  0.00    -0.200 NA
ATOM     11  C   UNL A   1     -25.026   6.479  26.963  0.00  0.00    +0.139 C 
ATOM     12  O   UNL A   1     -25.143   3.966  28.243  0.00  0.00    -0.268 OA
ENDBRANCH   3   9
BRANCH   6  13
ATOM     13  O   UNL A   1     -28.193  -0.208  24.477  0.00  0.00    -0.456 OA
BRANCH  13  14
ATOM     14  C   UNL A   1     -29.460   0.005  23.866  0.00  0.00    +0.243 C 
BRANCH  14  15
ATOM     15  C   UNL A   1     -30.065  -1.377  23.573  0.00  0.00    +0.229 C 
ATOM     16  O   UNL A   1     -30.729  -1.878  24.721  0.00  0.00    -0.216 OA
ENDBRANCH  14  15
ENDBRANCH  13  14
ENDBRANCH   6  13
ENDBRANCH   1   2
BRANCH   1  17
ATOM     17  N   UNL A   1     -24.792   0.609  28.254  0.00  0.00    -0.193 NA
ATOM     18  C   UNL A   1     -25.446  -0.211  28.967  0.00  0.00    +0.247 C 
ATOM     19  O   UNL A   1     -26.568  -0.424  28.654  0.00  0.00    -0.273 OA
BRANCH  18  20
ATOM     20  C   UNL A   1     -24.855  -1.012  30.143  0.00  0.00    +0.116 C 
BRANCH  20  21
ATOM     21  C   UNL A   1     -24.973  -2.505  29.788  0.00  0.00    -0.013 C 
ATOM     22  C   UNL A   1     -23.906  -3.173  29.146  0.00  0.00    -0.004 C 
ATOM     23  C   UNL A   1     -23.989  -4.549  28.853  0.00  0.00    -0.000 C 
ATOM     24  C   UNL A   1     -25.137  -5.280  29.205  0.00  0.00    -0.000 C 
ATOM     25  C   UNL A   1     -26.232  -4.611  29.784  0.00  0.00    -0.000 C 
ATOM     26  C   UNL A   1     -26.155  -3.232  30.065  0.00  0.00    -0.004 C 
ENDBRANCH  20  21
BRANCH  20  27
ATOM     27  C   UNL A   1     -25.387  -0.679  31.571  0.00  0.00    +0.086 C 
ATOM     28  C   UNL A   1     -25.189   0.773  32.028  0.00  0.00    +0.020 C 
ATOM     29  C   UNL A   1     -25.336   0.684  33.544  0.00  0.00    +0.020 C 
ATOM     30  C   UNL A   1     -24.829  -0.715  33.905  0.00  0.00    +0.089 C 
ATOM     31  N   UNL A   1     -24.758  -1.481  32.646  0.00  0.00    -0.219 NA
ENDBRANCH  20  27
ENDBRANCH  18  20
ENDBRANCH   1  17
BRANCH   1  32
ATOM     32  C   UNL A   1     -22.705   1.332  27.557  0.00  0.00    +0.262 C 
ATOM     33  N   UNL A   1     -22.447   1.059  28.717  0.00  0.00    -0.124 NA
BRANCH  33  35
ATOM     34  N   UNL A   1     -22.978   1.616  29.737  0.00  0.00    -0.068 NA
ATOM     35  C   UNL A   1     -22.872   0.794  29.679  0.00  0.00    +0.366 C 
ATOM     36  O   UNL A   1     -22.642  -0.405  30.193  0.00  0.00    -0.247 OA
ENDBRANCH  33  35
BRANCH  32  37
ATOM     37  O   UNL A   1     -21.619   1.807  26.947  0.00  0.00    -0.305 OA
BRANCH  37  38
ATOM     38  O   UNL A   1     -21.549   2.121  25.562  0.00  0.00    -0.092 OA
BRANCH  38  40
ATOM     39  C   UNL A   1     -23.834   1.777  24.568  0.00  0.00    +0.021 C 
ATOM     40  C   UNL A   1     -22.846   2.056  25.261  0.00  0.00    +0.119 C 
ENDBRANCH  38  40
ENDBRANCH  37  38
ENDBRANCH  32  37
ENDBRANCH   1  32
TORSDOF 14
