REMARK  Name = outputs/IAG933/test6/raw/output_812_IAG933_linker_design_.xyz
REMARK  9 active torsions:
REMARK  status: ('A' for Active; 'I' for Inactive)
REMARK    1  A    between atoms: C_1  and  C_2
REMARK    2  A    between atoms: C_1  and  C_8
REMARK    3  A    between atoms: C_1  and  N_31
REMARK    4  A    between atoms: C_13  and  C_30
REMARK    5  A    between atoms: C_14  and  C_15
REMARK    6  A    between atoms: C_21  and  O_22
REMARK    7  A    between atoms: O_22  and  C_23
REMARK    8  A    between atoms: C_23  and  C_24
REMARK    9  A    between atoms: C_32  and  C_36
REMARK                            x       y       z     vdW  Elec       q    Type
REMARK                         _______ _______ _______ _____ _____    ______ ____
ROOT
ATOM      1  C   UNL A   1     -24.654   1.153  27.466  0.00  0.00    +0.146 C 
ATOM      2  N   UNL A   1     -24.426  -0.026  29.274  0.00  0.00    -0.141 N 
ATOM      3  C   UNL A   1     -23.461   1.747  27.431  0.00  0.00    +0.274 C 
ATOM      4  C   UNL A   1     -25.328   0.196  28.269  0.00  0.00    +0.291 C 
ATOM      5  N   UNL A   1     -22.147   0.027  29.986  0.00  0.00    +0.124 NA
ATOM      6  C   UNL A   1     -23.144   0.600  29.323  0.00  0.00    +0.452 C 
ATOM      7  N   UNL A   1     -22.874   1.740  28.594  0.00  0.00    -0.057 NA
ATOM      8  O   UNL A   1     -26.471  -0.396  28.351  0.00  0.00    -0.256 OA
ENDROOT
BRANCH   1   9
ATOM      9  C   UNL A   1     -25.688   1.614  26.461  0.00  0.00    +0.084 C 
ATOM     10  C   UNL A   1     -26.250   2.920  26.395  0.00  0.00    +0.055 C 
ATOM     11  C   UNL A   1     -27.438   3.091  25.645  0.00  0.00    +0.102 C 
ATOM     12  N   UNL A   1     -28.075   2.089  25.003  0.00  0.00    -0.212 NA
ATOM     13  C   UNL A   1     -27.543   0.849  25.079  0.00  0.00    +0.234 C 
ATOM     14  C   UNL A   1     -26.354   0.576  25.777  0.00  0.00    +0.241 C 
ATOM     15  F   UNL A   1     -25.860  -0.681  25.795  0.00  0.00    -0.227 F 
BRANCH  10  16
ATOM     16  C   UNL A   1     -25.642   4.093  27.123  0.00  0.00    +0.263 C 
ATOM     17  N   UNL A   1     -25.614   5.252  26.449  0.00  0.00    -0.200 NA
ATOM     18  C   UNL A   1     -25.026   6.479  26.963  0.00  0.00    +0.139 C 
ATOM     19  O   UNL A   1     -25.143   3.966  28.243  0.00  0.00    -0.269 OA
ENDBRANCH  10  16
BRANCH  13  20
ATOM     20  O   UNL A   1     -28.193  -0.208  24.477  0.00  0.00    -0.459 OA
BRANCH  20  21
ATOM     21  C   UNL A   1     -29.460   0.005  23.866  0.00  0.00    +0.242 C 
BRANCH  21  22
ATOM     22  C   UNL A   1     -30.065  -1.377  23.573  0.00  0.00    +0.229 C 
ATOM     23  O   UNL A   1     -30.729  -1.878  24.721  0.00  0.00    -0.216 OA
ENDBRANCH  21  22
ENDBRANCH  20  21
ENDBRANCH  13  20
ENDBRANCH   1   9
BRANCH   3  26
ATOM     24  F   UNL A   1     -22.792   1.730  25.093  0.00  0.00    -0.167 F 
ATOM     25  F   UNL A   1     -21.311   2.099  26.741  0.00  0.00    -0.167 F 
ATOM     26  C   UNL A   1     -22.606   2.286  26.378  0.00  0.00    +0.432 C 
ATOM     27  F   UNL A   1     -22.836   3.555  26.018  0.00  0.00    -0.167 F 
ENDBRANCH   3  26
BRANCH   2  28
ATOM     28  C   UNL A   1     -24.855  -1.012  30.143  0.00  0.00    +0.179 C 
BRANCH  28  29
ATOM     29  C   UNL A   1     -24.973  -2.505  29.788  0.00  0.00    +0.013 C 
ATOM     30  C   UNL A   1     -23.906  -3.173  29.146  0.00  0.00    -0.001 C 
ATOM     31  C   UNL A   1     -23.989  -4.549  28.853  0.00  0.00    -0.000 C 
ATOM     32  C   UNL A   1     -25.137  -5.280  29.205  0.00  0.00    -0.000 C 
ATOM     33  C   UNL A   1     -26.232  -4.611  29.784  0.00  0.00    -0.000 C 
ATOM     34  C   UNL A   1     -26.155  -3.232  30.065  0.00  0.00    -0.001 C 
ENDBRANCH  28  29
BRANCH  28  35
ATOM     35  C   UNL A   1     -25.387  -0.679  31.571  0.00  0.00    +0.112 C 
ATOM     36  C   UNL A   1     -25.189   0.773  32.028  0.00  0.00    +0.022 C 
ATOM     37  C   UNL A   1     -25.336   0.684  33.544  0.00  0.00    +0.020 C 
ATOM     38  C   UNL A   1     -24.829  -0.715  33.905  0.00  0.00    +0.089 C 
ATOM     39  N   UNL A   1     -24.758  -1.481  32.646  0.00  0.00    -0.216 NA
ENDBRANCH  28  35
ENDBRANCH   2  28
TORSDOF 9
