REMARK  Name = outputs/IAG933/test6/raw/output_8121_IAG933_linker_design_.xyz
REMARK  13 active torsions:
REMARK  status: ('A' for Active; 'I' for Inactive)
REMARK    1  A    between atoms: C_1  and  C_2
REMARK    2  A    between atoms: C_1  and  C_8
REMARK    3  A    between atoms: C_1  and  C_29
REMARK    4  A    between atoms: C_14  and  C_15
REMARK    5  A    between atoms: C_21  and  O_22
REMARK    6  A    between atoms: O_22  and  C_23
REMARK    7  A    between atoms: C_23  and  C_24
REMARK    8  A    between atoms: C_29  and  C_37
REMARK    9  A    between atoms: C_30  and  C_44
REMARK   10  A    between atoms: C_31  and  O_33
REMARK   11  A    between atoms: C_31  and  C_44
REMARK   12  A    between atoms: C_36  and  C_42
REMARK   13  A    between atoms: C_41  and  C_42
REMARK                            x       y       z     vdW  Elec       q    Type
REMARK                         _______ _______ _______ _____ _____    ______ ____
ROOT
ATOM      1  C   UNL A   1     -25.251   0.114  29.088  0.00  0.00    +0.039 C 
ATOM      2  C   UNL A   1     -23.821   0.494  28.524  0.00  0.00    +0.008 C 
ENDROOT
BRANCH   2  11
ATOM      3  C   UNL A   1     -25.688   1.614  26.461  0.00  0.00    +0.059 C 
ATOM      4  C   UNL A   1     -26.250   2.920  26.395  0.00  0.00    +0.080 C 
ATOM      5  C   UNL A   1     -27.438   3.091  25.645  0.00  0.00    +0.107 C 
ATOM      6  N   UNL A   1     -28.075   2.089  25.003  0.00  0.00    -0.211 NA
ATOM      7  C   UNL A   1     -27.543   0.849  25.079  0.00  0.00    +0.239 C 
ATOM      8  C   UNL A   1     -26.354   0.576  25.777  0.00  0.00    +0.265 C 
ATOM      9  F   UNL A   1     -25.860  -0.681  25.795  0.00  0.00    -0.222 F 
ATOM     10  C   UNL A   1     -24.764   1.399  27.255  0.00  0.00    -0.103 C 
ATOM     11  C   UNL A   1     -23.536   1.196  27.737  0.00  0.00    +0.057 C 
BRANCH   4  12
ATOM     12  C   UNL A   1     -25.642   4.093  27.123  0.00  0.00    +0.267 C 
ATOM     13  N   UNL A   1     -25.614   5.252  26.449  0.00  0.00    -0.200 NA
ATOM     14  C   UNL A   1     -25.026   6.479  26.963  0.00  0.00    +0.139 C 
ATOM     15  O   UNL A   1     -25.143   3.966  28.243  0.00  0.00    -0.268 OA
ENDBRANCH   4  12
BRANCH  11  16
ATOM     16  C   UNL A   1     -22.213   1.557  27.180  0.00  0.00    +0.237 C 
ATOM     17  N   UNL A   1     -21.058   1.567  27.893  0.00  0.00    -0.095 NA
BRANCH  16  18
ATOM     18  O   UNL A   1     -22.022   1.791  25.944  0.00  0.00    -0.332 OA
ATOM     19  C   UNL A   1     -23.122   2.017  25.056  0.00  0.00    +0.176 C 
ENDBRANCH  16  18
ENDBRANCH  11  16
BRANCH   7  20
ATOM     20  O   UNL A   1     -28.193  -0.208  24.477  0.00  0.00    -0.458 OA
BRANCH  20  21
ATOM     21  C   UNL A   1     -29.460   0.005  23.866  0.00  0.00    +0.242 C 
BRANCH  21  22
ATOM     22  C   UNL A   1     -30.065  -1.377  23.573  0.00  0.00    +0.229 C 
ATOM     23  O   UNL A   1     -30.729  -1.878  24.721  0.00  0.00    -0.216 OA
ENDBRANCH  21  22
ENDBRANCH  20  21
ENDBRANCH   7  20
ENDBRANCH   2  11
BRANCH   1  27
ATOM     24  O   UNL A   1     -27.288   4.163  30.631  0.00  0.00    -0.273 OA
ATOM     25  N   UNL A   1     -26.832   1.959  29.238  0.00  0.00    -0.141 NA
ATOM     26  C   UNL A   1     -27.600   3.070  29.925  0.00  0.00    +0.250 C 
ATOM     27  C   UNL A   1     -26.669   0.601  28.969  0.00  0.00    +0.268 C 
ATOM     28  O   UNL A   1     -27.560  -0.200  28.706  0.00  0.00    -0.268 OA
BRANCH  26  30
ATOM     29  C   UNL A   1     -29.508   1.686  29.167  0.00  0.00    +0.012 C 
ATOM     30  C   UNL A   1     -29.014   3.079  29.496  0.00  0.00    +0.112 C 
BRANCH  30  32
ATOM     31  O   UNL A   1     -29.375   5.401  28.781  0.00  0.00    -0.220 OA
ATOM     32  C   UNL A   1     -29.434   4.011  28.806  0.00  0.00    +0.191 C 
ENDBRANCH  30  32
ENDBRANCH  26  30
ENDBRANCH   1  27
BRANCH   1  33
ATOM     33  C   UNL A   1     -24.855  -1.012  30.143  0.00  0.00    +0.065 C 
BRANCH  33  34
ATOM     34  C   UNL A   1     -24.973  -2.505  29.788  0.00  0.00    -0.017 C 
ATOM     35  C   UNL A   1     -23.906  -3.173  29.146  0.00  0.00    -0.004 C 
ATOM     36  C   UNL A   1     -23.989  -4.549  28.853  0.00  0.00    -0.000 C 
ATOM     37  C   UNL A   1     -25.137  -5.280  29.205  0.00  0.00    -0.000 C 
ATOM     38  C   UNL A   1     -26.232  -4.611  29.784  0.00  0.00    -0.000 C 
ATOM     39  C   UNL A   1     -26.155  -3.232  30.065  0.00  0.00    -0.004 C 
ENDBRANCH  33  34
BRANCH  33  40
ATOM     40  C   UNL A   1     -25.387  -0.679  31.571  0.00  0.00    +0.081 C 
ATOM     41  C   UNL A   1     -25.189   0.773  32.028  0.00  0.00    +0.019 C 
ATOM     42  C   UNL A   1     -25.336   0.684  33.544  0.00  0.00    +0.020 C 
ATOM     43  C   UNL A   1     -24.829  -0.715  33.905  0.00  0.00    +0.089 C 
ATOM     44  N   UNL A   1     -24.758  -1.481  32.646  0.00  0.00    -0.219 NA
ENDBRANCH  33  40
ENDBRANCH   1  33
TORSDOF 13
