REMARK  Name = outputs/IAG933/test6/raw/output_8127_IAG933_linker_design_.xyz
REMARK  14 active torsions:
REMARK  status: ('A' for Active; 'I' for Inactive)
REMARK    1  A    between atoms: C_1  and  C_2
REMARK    2  A    between atoms: C_1  and  C_8
REMARK    3  A    between atoms: C_1  and  C_32
REMARK    4  A    between atoms: C_13  and  C_37
REMARK    5  A    between atoms: C_14  and  C_15
REMARK    6  A    between atoms: C_21  and  O_22
REMARK    7  A    between atoms: O_22  and  C_23
REMARK    8  A    between atoms: C_23  and  C_24
REMARK    9  A    between atoms: C_32  and  N_34
REMARK   10  A    between atoms: C_32  and  C_38
REMARK   11  A    between atoms: C_33  and  C_40
REMARK   12  A    between atoms: C_35  and  C_38
REMARK   13  A    between atoms: C_36  and  C_40
REMARK   14  A    between atoms: C_36  and  C_41
REMARK                            x       y       z     vdW  Elec       q    Type
REMARK                         _______ _______ _______ _____ _____    ______ ____
ROOT
ATOM      1  C   UNL A   1     -24.988  -0.047  28.879  0.00  0.00    +0.101 C 
ENDROOT
BRANCH   1   2
ATOM      2  N   UNL A   1     -26.150   1.040  29.176  0.00  0.00    -0.207 NA
ATOM      3  O   UNL A   1     -27.798  -0.369  29.049  0.00  0.00    -0.273 OA
ATOM      4  C   UNL A   1     -27.420   0.800  29.224  0.00  0.00    +0.241 C 
BRANCH   4   5
ATOM      5  C   UNL A   1     -28.458   1.878  29.561  0.00  0.00    +0.089 C 
BRANCH   5   6
ATOM      6  C   UNL A   1     -28.310   3.409  29.611  0.00  0.00    +0.043 C 
BRANCH   6   9
ATOM      7  O   UNL A   1     -29.100   3.462  31.906  0.00  0.00    -0.223 OA
ATOM      8  C   UNL A   1     -26.941   4.602  31.455  0.00  0.00    +0.035 C 
ATOM      9  C   UNL A   1     -28.349   4.151  30.963  0.00  0.00    +0.153 C 
ENDBRANCH   6   9
ENDBRANCH   5   6
ENDBRANCH   4   5
ENDBRANCH   1   2
BRANCH   1  11
ATOM     10  C   UNL A   1     -21.989   0.342  29.064  0.00  0.00    +0.002 C 
ATOM     11  C   UNL A   1     -23.328   0.171  28.282  0.00  0.00    +0.020 C 
BRANCH  11  13
ATOM     12  C   UNL A   1     -23.028   1.879  26.447  0.00  0.00    +0.001 C 
ATOM     13  C   UNL A   1     -23.400   1.681  27.765  0.00  0.00    +0.002 C 
ATOM     14  C   UNL A   1     -24.471   1.597  26.824  0.00  0.00    +0.007 C 
BRANCH  14  15
ATOM     15  C   UNL A   1     -25.688   1.614  26.461  0.00  0.00    +0.070 C 
ATOM     16  C   UNL A   1     -26.250   2.920  26.395  0.00  0.00    +0.055 C 
ATOM     17  C   UNL A   1     -27.438   3.091  25.645  0.00  0.00    +0.102 C 
ATOM     18  N   UNL A   1     -28.075   2.089  25.003  0.00  0.00    -0.212 NA
ATOM     19  C   UNL A   1     -27.543   0.849  25.079  0.00  0.00    +0.234 C 
ATOM     20  C   UNL A   1     -26.354   0.576  25.777  0.00  0.00    +0.240 C 
ATOM     21  F   UNL A   1     -25.860  -0.681  25.795  0.00  0.00    -0.227 F 
BRANCH  16  22
ATOM     22  C   UNL A   1     -25.642   4.093  27.123  0.00  0.00    +0.262 C 
ATOM     23  N   UNL A   1     -25.614   5.252  26.449  0.00  0.00    -0.200 NA
ATOM     24  C   UNL A   1     -25.026   6.479  26.963  0.00  0.00    +0.139 C 
ATOM     25  O   UNL A   1     -25.143   3.966  28.243  0.00  0.00    -0.269 OA
ENDBRANCH  16  22
BRANCH  19  26
ATOM     26  O   UNL A   1     -28.193  -0.208  24.477  0.00  0.00    -0.459 OA
BRANCH  26  27
ATOM     27  C   UNL A   1     -29.460   0.005  23.866  0.00  0.00    +0.242 C 
BRANCH  27  28
ATOM     28  C   UNL A   1     -30.065  -1.377  23.573  0.00  0.00    +0.229 C 
ATOM     29  O   UNL A   1     -30.729  -1.878  24.721  0.00  0.00    -0.216 OA
ENDBRANCH  27  28
ENDBRANCH  26  27
ENDBRANCH  19  26
ENDBRANCH  14  15
ENDBRANCH  11  13
ENDBRANCH   1  11
BRANCH   1  30
ATOM     30  C   UNL A   1     -24.855  -1.012  30.143  0.00  0.00    +0.058 C 
BRANCH  30  31
ATOM     31  C   UNL A   1     -24.973  -2.505  29.788  0.00  0.00    -0.019 C 
ATOM     32  C   UNL A   1     -23.906  -3.173  29.146  0.00  0.00    -0.004 C 
ATOM     33  C   UNL A   1     -23.989  -4.549  28.853  0.00  0.00    -0.000 C 
ATOM     34  C   UNL A   1     -25.137  -5.280  29.205  0.00  0.00    -0.000 C 
ATOM     35  C   UNL A   1     -26.232  -4.611  29.784  0.00  0.00    -0.000 C 
ATOM     36  C   UNL A   1     -26.155  -3.232  30.065  0.00  0.00    -0.004 C 
ENDBRANCH  30  31
BRANCH  30  37
ATOM     37  C   UNL A   1     -25.387  -0.679  31.571  0.00  0.00    +0.079 C 
ATOM     38  C   UNL A   1     -25.189   0.773  32.028  0.00  0.00    +0.019 C 
ATOM     39  C   UNL A   1     -25.336   0.684  33.544  0.00  0.00    +0.020 C 
ATOM     40  C   UNL A   1     -24.829  -0.715  33.905  0.00  0.00    +0.089 C 
ATOM     41  N   UNL A   1     -24.758  -1.481  32.646  0.00  0.00    -0.219 NA
ENDBRANCH  30  37
ENDBRANCH   1  30
TORSDOF 14
