REMARK  Name = outputs/IAG933/test6/raw/output_8129_IAG933_linker_design_.xyz
REMARK  10 active torsions:
REMARK  status: ('A' for Active; 'I' for Inactive)
REMARK    1  A    between atoms: C_1  and  C_2
REMARK    2  A    between atoms: C_1  and  C_8
REMARK    3  A    between atoms: C_1  and  N_28
REMARK    4  A    between atoms: C_13  and  C_41
REMARK    5  A    between atoms: C_14  and  C_15
REMARK    6  A    between atoms: C_21  and  O_22
REMARK    7  A    between atoms: O_22  and  C_23
REMARK    8  A    between atoms: C_23  and  C_24
REMARK    9  A    between atoms: N_28  and  C_30
REMARK   10  A    between atoms: C_29  and  O_31
REMARK                            x       y       z     vdW  Elec       q    Type
REMARK                         _______ _______ _______ _____ _____    ______ ____
ROOT
ATOM      1  C   UNL A   1     -23.185   1.575  26.921  0.00  0.00    +0.206 C 
ATOM      2  C   UNL A   1     -24.562   0.593  28.437  0.00  0.00    +0.141 C 
ATOM      3  F   UNL A   1     -21.149   1.509  28.065  0.00  0.00    -0.224 F 
ATOM      4  C   UNL A   1     -23.205   0.589  28.935  0.00  0.00    +0.057 C 
ATOM      5  C   UNL A   1     -22.410   1.243  27.914  0.00  0.00    +0.247 C 
ATOM      6  C   UNL A   1     -24.498   1.307  27.227  0.00  0.00    +0.076 C 
ENDROOT
BRANCH   2   7
ATOM      7  N   UNL A   1     -25.483  -0.059  29.182  0.00  0.00    -0.169 N 
ATOM      8  N   UNL A   1     -28.096   2.858  31.061  0.00  0.00    +0.216 NA
ATOM      9  C   UNL A   1     -27.929  -0.560  28.912  0.00  0.00    +0.090 C 
ATOM     10  N   UNL A   1     -26.985   1.569  29.322  0.00  0.00    +0.008 NA
ATOM     11  C   UNL A   1     -28.179   1.938  29.823  0.00  0.00    +0.419 C 
ATOM     12  C   UNL A   1     -29.236  -0.022  28.928  0.00  0.00    +0.015 C 
ATOM     13  C   UNL A   1     -29.356   1.330  29.337  0.00  0.00    +0.098 C 
ATOM     14  C   UNL A   1     -26.789   0.267  29.134  0.00  0.00    +0.333 C 
BRANCH   7  15
ATOM     15  C   UNL A   1     -24.855  -1.012  30.143  0.00  0.00    +0.203 C 
BRANCH  15  16
ATOM     16  C   UNL A   1     -24.973  -2.505  29.788  0.00  0.00    +0.022 C 
ATOM     17  C   UNL A   1     -23.906  -3.173  29.146  0.00  0.00    -0.000 C 
ATOM     18  C   UNL A   1     -23.989  -4.549  28.853  0.00  0.00    -0.000 C 
ATOM     19  C   UNL A   1     -25.137  -5.280  29.205  0.00  0.00    -0.000 C 
ATOM     20  C   UNL A   1     -26.232  -4.611  29.784  0.00  0.00    -0.000 C 
ATOM     21  C   UNL A   1     -26.155  -3.232  30.065  0.00  0.00    -0.000 C 
ENDBRANCH  15  16
BRANCH  15  22
ATOM     22  C   UNL A   1     -25.387  -0.679  31.571  0.00  0.00    +0.120 C 
ATOM     23  C   UNL A   1     -25.189   0.773  32.028  0.00  0.00    +0.023 C 
ATOM     24  C   UNL A   1     -25.336   0.684  33.544  0.00  0.00    +0.020 C 
ATOM     25  C   UNL A   1     -24.829  -0.715  33.905  0.00  0.00    +0.089 C 
ATOM     26  N   UNL A   1     -24.758  -1.481  32.646  0.00  0.00    -0.215 NA
ENDBRANCH  15  22
ENDBRANCH   7  15
ENDBRANCH   2   7
BRANCH   6  27
ATOM     27  C   UNL A   1     -25.688   1.614  26.461  0.00  0.00    +0.044 C 
ATOM     28  C   UNL A   1     -26.250   2.920  26.395  0.00  0.00    +0.077 C 
ATOM     29  C   UNL A   1     -27.438   3.091  25.645  0.00  0.00    +0.107 C 
ATOM     30  N   UNL A   1     -28.075   2.089  25.003  0.00  0.00    -0.208 NA
ATOM     31  C   UNL A   1     -27.543   0.849  25.079  0.00  0.00    +0.253 C 
ATOM     32  C   UNL A   1     -26.354   0.576  25.777  0.00  0.00    +0.193 C 
ATOM     33  F   UNL A   1     -25.860  -0.681  25.795  0.00  0.00    -0.199 F 
BRANCH  28  34
ATOM     34  C   UNL A   1     -25.642   4.093  27.123  0.00  0.00    +0.266 C 
ATOM     35  N   UNL A   1     -25.614   5.252  26.449  0.00  0.00    -0.200 NA
ATOM     36  C   UNL A   1     -25.026   6.479  26.963  0.00  0.00    +0.139 C 
ATOM     37  O   UNL A   1     -25.143   3.966  28.243  0.00  0.00    -0.268 OA
ENDBRANCH  28  34
BRANCH  31  38
ATOM     38  O   UNL A   1     -28.193  -0.208  24.477  0.00  0.00    -0.456 OA
BRANCH  38  39
ATOM     39  C   UNL A   1     -29.460   0.005  23.866  0.00  0.00    +0.243 C 
BRANCH  39  40
ATOM     40  C   UNL A   1     -30.065  -1.377  23.573  0.00  0.00    +0.229 C 
ATOM     41  O   UNL A   1     -30.729  -1.878  24.721  0.00  0.00    -0.216 OA
ENDBRANCH  39  40
ENDBRANCH  38  39
ENDBRANCH  31  38
ENDBRANCH   6  27
BRANCH   1  42
ATOM     42  O   UNL A   1     -22.532   1.996  25.867  0.00  0.00    -0.293 OA
ATOM     43  F   UNL A   1     -23.355   2.711  25.251  0.00  0.00    +0.014 F 
ENDBRANCH   1  42
TORSDOF 10
