MODEL 812
MODEL 1
REMARK VINA RESULT:    -7.039      0.000      0.000
REMARK INTER + INTRA:         -13.731
REMARK INTER:                 -10.331
REMARK INTRA:                  -3.400
REMARK UNBOUND:                -3.400
REMARK  Name = No_812-gen_results/8p0m/2024-11-27-11-27-31/
REMARK  8 active torsions:
REMARK  status: ('A' for Active; 'I' for Inactive)
REMARK    1  A    between atoms: C_2  and  C_11
REMARK    2  A    between atoms: C_5  and  C_7
REMARK    3  A    between atoms: C_12  and  C_17
REMARK    4  A    between atoms: N_23  and  C_24
REMARK    5  A    between atoms: N_23  and  C_25
REMARK    6  A    between atoms: C_25  and  C_34
REMARK    7  A    between atoms: C_26  and  C_27
REMARK    8  A    between atoms: C_27  and  C_28
REMARK                            x       y       z     vdW  Elec       q    Type
REMARK                         _______ _______ _______ _____ _____    ______ ____
ROOT
ATOM      1  C   UNL A   1     -24.605  -1.934  28.716  0.00  0.00    +0.086 A 
ATOM      2  N   UNL A   1     -25.889  -1.718  29.050  0.00  0.00    -0.213 NA
ATOM      3  C   UNL A   1     -26.641  -2.558  29.716  0.00  0.00    +0.224 A 
ATOM      4  N   UNL A   1     -26.126  -3.806  29.912  0.00  0.00    -0.212 NA
ATOM      5  C   UNL A   1     -24.233  -3.340  28.629  0.00  0.00    +0.040 A 
ATOM      6  C   UNL A   1     -25.046  -4.240  29.280  0.00  0.00    +0.103 A 
ATOM      7  N   UNL A   1     -27.785  -2.277  30.308  0.00  0.00    -0.252 N 
ENDROOT
BRANCH   1   9
ATOM      8  C   UNL A   1     -23.872  -0.011  27.682  0.00  0.00    +0.002 A 
ATOM      9  C   UNL A   1     -23.573  -0.749  28.330  0.00  0.00    +0.018 A 
ATOM     10  C   UNL A   1     -22.372  -0.931  29.149  0.00  0.00    +0.002 A 
ATOM     11  C   UNL A   1     -21.390   0.006  28.887  0.00  0.00    +0.000 A 
ATOM     12  C   UNL A   1     -22.728   1.090  27.508  0.00  0.00    +0.000 A 
ATOM     13  C   UNL A   1     -21.612   0.962  28.124  0.00  0.00    +0.000 A 
BRANCH   8  15
ATOM     14  C   UNL A   1     -25.987   1.134  27.287  0.00  0.00    +0.000 A 
ATOM     15  C   UNL A   1     -25.118   0.435  26.819  0.00  0.00    +0.000 A 
ATOM     16  C   UNL A   1     -25.197  -0.151  25.571  0.00  0.00    +0.000 A 
ATOM     17  C   UNL A   1     -26.350   0.117  24.780  0.00  0.00    +0.005 A 
ATOM     18  C   UNL A   1     -27.211   1.037  25.275  0.00  0.00    +0.055 A 
ATOM     19  C   UNL A   1     -27.033   1.579  26.465  0.00  0.00    +0.005 A 
BRANCH  18  20
ATOM     20  C   UNL A   1     -28.386   1.325  24.426  0.00  0.00    +0.265 C 
ATOM     21  N   UNL A   1     -29.368   0.653  24.610  0.00  0.00    -0.200 NA
ATOM     22  O   UNL A   1     -28.332   2.190  23.495  0.00  0.00    -0.268 OA
ATOM     23  C   UNL A   1     -30.588   0.774  23.729  0.00  0.00    +0.139 C 
ENDBRANCH  18  20
ENDBRANCH   8  15
ENDBRANCH   1   9
BRANCH   7  24
ATOM     24  C   UNL A   1     -28.451  -1.142  30.030  0.00  0.00    +0.064 C 
ATOM     25  C   UNL A   1     -28.373  -0.117  30.714  0.00  0.00    -0.005 C 
BRANCH  25  26
ATOM     26  C   UNL A   1     -27.473  -0.004  31.790  0.00  0.00    +0.054 C 
BRANCH  26  27
ATOM     27  C   UNL A   1     -26.581   0.640  31.904  0.00  0.00    -0.018 A 
ATOM     28  C   UNL A   1     -26.318   1.981  31.202  0.00  0.00    -0.004 A 
ATOM     29  C   UNL A   1     -25.169   2.295  30.641  0.00  0.00    -0.000 A 
ATOM     30  C   UNL A   1     -23.929   1.695  31.082  0.00  0.00    -0.000 A 
ATOM     31  C   UNL A   1     -24.058   0.514  31.830  0.00  0.00    -0.000 A 
ATOM     32  C   UNL A   1     -25.285   0.039  32.134  0.00  0.00    -0.004 A 
ENDBRANCH  26  27
ENDBRANCH  25  26
ENDBRANCH   7  24
BRANCH   7  33
ATOM     33  C   UNL A   1     -28.368  -3.097  31.323  0.00  0.00    +0.125 C 
BRANCH  33  34
ATOM     34  C   UNL A   1     -29.495  -3.675  30.989  0.00  0.00    -0.004 C 
ATOM     35  C   UNL A   1     -29.635  -4.730  30.431  0.00  0.00    -0.003 C 
ENDBRANCH  33  34
ENDBRANCH   7  33
TORSDOF 8
ENDMDL
ENDMDL
