REMARK  Name = outputs/IAG933/test6/raw/output_8130_IAG933_linker_design_.xyz
REMARK  10 active torsions:
REMARK  status: ('A' for Active; 'I' for Inactive)
REMARK    1  A    between atoms: C_1  and  C_2
REMARK    2  A    between atoms: C_1  and  C_8
REMARK    3  A    between atoms: C_1  and  C_42
REMARK    4  A    between atoms: C_13  and  C_44
REMARK    5  A    between atoms: C_14  and  C_15
REMARK    6  A    between atoms: C_21  and  O_22
REMARK    7  A    between atoms: O_22  and  C_23
REMARK    8  A    between atoms: C_23  and  C_24
REMARK    9  A    between atoms: C_40  and  C_42
REMARK   10  A    between atoms: C_42  and  C_43
REMARK                            x       y       z     vdW  Elec       q    Type
REMARK                         _______ _______ _______ _____ _____    ______ ____
ROOT
ATOM      1  C   UNL A   1     -25.618  -0.003  29.111  0.00  0.00    +0.069 C 
ENDROOT
BRANCH   1  10
ATOM      2  C   UNL A   1     -29.143   0.012  28.124  0.00  0.00    +0.293 C 
ATOM      3  C   UNL A   1     -35.073   0.780  27.465  0.00  0.00    +0.075 C 
ATOM      4  C   UNL A   1     -29.364   0.562  30.469  0.00  0.00    +0.179 C 
ATOM      5  N   UNL A   1     -30.035   0.684  29.113  0.00  0.00    -0.145 N 
ATOM      6  C   UNL A   1     -33.575   0.590  27.775  0.00  0.00    +0.168 C 
ATOM      7  C   UNL A   1     -30.002  -0.406  26.933  0.00  0.00    +0.217 C 
ATOM      8  O   UNL A   1     -27.779   0.346  28.060  0.00  0.00    -0.453 OA
ATOM      9  N   UNL A   1     -31.396   0.033  27.497  0.00  0.00    -0.143 N 
ATOM     10  C   UNL A   1     -27.090   0.119  29.192  0.00  0.00    +0.176 C 
ATOM     11  C   UNL A   1     -32.746  -0.026  26.953  0.00  0.00    +0.178 C 
ATOM     12  N   UNL A   1     -32.848   0.974  28.891  0.00  0.00    -0.076 NA
ATOM     13  C   UNL A   1     -27.997  -0.287  30.469  0.00  0.00    +0.085 C 
ATOM     14  C   UNL A   1     -31.479   0.583  28.679  0.00  0.00    +0.393 C 
ENDBRANCH   1  10
BRANCH   1  19
ATOM     15  C   UNL A   1     -22.103   1.526  27.381  0.00  0.00    +0.222 C 
ATOM     16  N   UNL A   1     -21.937   0.949  28.537  0.00  0.00    -0.217 NA
ATOM     17  F   UNL A   1     -20.917   1.714  27.123  0.00  0.00    -0.183 F 
ATOM     18  C   UNL A   1     -23.228   1.702  26.585  0.00  0.00    +0.049 C 
ATOM     19  C   UNL A   1     -24.465   0.621  28.384  0.00  0.00    +0.001 C 
ATOM     20  C   UNL A   1     -24.463   1.297  27.151  0.00  0.00    +0.004 C 
ATOM     21  C   UNL A   1     -23.140   0.480  29.161  0.00  0.00    +0.097 C 
BRANCH  20  22
ATOM     22  C   UNL A   1     -25.688   1.614  26.461  0.00  0.00    +0.038 C 
ATOM     23  C   UNL A   1     -26.250   2.920  26.395  0.00  0.00    +0.076 C 
ATOM     24  C   UNL A   1     -27.438   3.091  25.645  0.00  0.00    +0.107 C 
ATOM     25  N   UNL A   1     -28.075   2.089  25.003  0.00  0.00    -0.208 NA
ATOM     26  C   UNL A   1     -27.543   0.849  25.079  0.00  0.00    +0.253 C 
ATOM     27  C   UNL A   1     -26.354   0.576  25.777  0.00  0.00    +0.193 C 
ATOM     28  F   UNL A   1     -25.860  -0.681  25.795  0.00  0.00    -0.199 F 
BRANCH  23  29
ATOM     29  C   UNL A   1     -25.642   4.093  27.123  0.00  0.00    +0.266 C 
ATOM     30  N   UNL A   1     -25.614   5.252  26.449  0.00  0.00    -0.200 NA
ATOM     31  C   UNL A   1     -25.026   6.479  26.963  0.00  0.00    +0.139 C 
ATOM     32  O   UNL A   1     -25.143   3.966  28.243  0.00  0.00    -0.268 OA
ENDBRANCH  23  29
BRANCH  26  33
ATOM     33  O   UNL A   1     -28.193  -0.208  24.477  0.00  0.00    -0.456 OA
BRANCH  33  34
ATOM     34  C   UNL A   1     -29.460   0.005  23.866  0.00  0.00    +0.243 C 
BRANCH  34  35
ATOM     35  C   UNL A   1     -30.065  -1.377  23.573  0.00  0.00    +0.229 C 
ATOM     36  O   UNL A   1     -30.729  -1.878  24.721  0.00  0.00    -0.216 OA
ENDBRANCH  34  35
ENDBRANCH  33  34
ENDBRANCH  26  33
ENDBRANCH  20  22
ENDBRANCH   1  19
BRANCH   1  37
ATOM     37  C   UNL A   1     -24.855  -1.012  30.143  0.00  0.00    +0.046 C 
BRANCH  37  38
ATOM     38  C   UNL A   1     -24.973  -2.505  29.788  0.00  0.00    -0.021 C 
ATOM     39  C   UNL A   1     -23.906  -3.173  29.146  0.00  0.00    -0.004 C 
ATOM     40  C   UNL A   1     -23.989  -4.549  28.853  0.00  0.00    -0.000 C 
ATOM     41  C   UNL A   1     -25.137  -5.280  29.205  0.00  0.00    -0.000 C 
ATOM     42  C   UNL A   1     -26.232  -4.611  29.784  0.00  0.00    -0.000 C 
ATOM     43  C   UNL A   1     -26.155  -3.232  30.065  0.00  0.00    -0.004 C 
ENDBRANCH  37  38
BRANCH  37  44
ATOM     44  C   UNL A   1     -25.387  -0.679  31.571  0.00  0.00    +0.077 C 
ATOM     45  C   UNL A   1     -25.189   0.773  32.028  0.00  0.00    +0.019 C 
ATOM     46  C   UNL A   1     -25.336   0.684  33.544  0.00  0.00    +0.020 C 
ATOM     47  C   UNL A   1     -24.829  -0.715  33.905  0.00  0.00    +0.089 C 
ATOM     48  N   UNL A   1     -24.758  -1.481  32.646  0.00  0.00    -0.219 NA
ENDBRANCH  37  44
ENDBRANCH   1  37
TORSDOF 10
