REMARK  Name = outputs/IAG933/test6/raw/output_8135_IAG933_linker_design_.xyz
REMARK  14 active torsions:
REMARK  status: ('A' for Active; 'I' for Inactive)
REMARK    1  A    between atoms: C_1  and  C_2
REMARK    2  A    between atoms: C_1  and  C_8
REMARK    3  A    between atoms: C_9  and  C_43
REMARK    4  A    between atoms: C_13  and  C_28
REMARK    5  A    between atoms: C_14  and  C_15
REMARK    6  A    between atoms: C_21  and  O_22
REMARK    7  A    between atoms: O_22  and  C_23
REMARK    8  A    between atoms: C_23  and  C_24
REMARK    9  A    between atoms: C_28  and  N_33
REMARK   10  A    between atoms: C_28  and  C_40
REMARK   11  A    between atoms: N_33  and  C_42
REMARK   12  A    between atoms: C_34  and  C_43
REMARK   13  A    between atoms: C_36  and  C_40
REMARK   14  A    between atoms: C_42  and  C_43
REMARK                            x       y       z     vdW  Elec       q    Type
REMARK                         _______ _______ _______ _____ _____    ______ ____
ROOT
ATOM      1  N   UNL A   1     -25.691   1.509  29.016  0.00  0.00    -0.216 NA
ENDROOT
BRANCH   1   2
ATOM      2  C   UNL A   1     -24.869   1.255  27.605  0.00  0.00    +0.113 C 
BRANCH   2   3
ATOM      3  C   UNL A   1     -25.688   1.614  26.461  0.00  0.00    +0.089 C 
ATOM      4  C   UNL A   1     -26.250   2.920  26.395  0.00  0.00    +0.056 C 
ATOM      5  C   UNL A   1     -27.438   3.091  25.645  0.00  0.00    +0.102 C 
ATOM      6  N   UNL A   1     -28.075   2.089  25.003  0.00  0.00    -0.212 NA
ATOM      7  C   UNL A   1     -27.543   0.849  25.079  0.00  0.00    +0.234 C 
ATOM      8  C   UNL A   1     -26.354   0.576  25.777  0.00  0.00    +0.241 C 
ATOM      9  F   UNL A   1     -25.860  -0.681  25.795  0.00  0.00    -0.227 F 
BRANCH   4  10
ATOM     10  C   UNL A   1     -25.642   4.093  27.123  0.00  0.00    +0.263 C 
ATOM     11  N   UNL A   1     -25.614   5.252  26.449  0.00  0.00    -0.200 NA
ATOM     12  C   UNL A   1     -25.026   6.479  26.963  0.00  0.00    +0.139 C 
ATOM     13  O   UNL A   1     -25.143   3.966  28.243  0.00  0.00    -0.269 OA
ENDBRANCH   4  10
BRANCH   7  14
ATOM     14  O   UNL A   1     -28.193  -0.208  24.477  0.00  0.00    -0.459 OA
BRANCH  14  15
ATOM     15  C   UNL A   1     -29.460   0.005  23.866  0.00  0.00    +0.242 C 
BRANCH  15  16
ATOM     16  C   UNL A   1     -30.065  -1.377  23.573  0.00  0.00    +0.229 C 
ATOM     17  O   UNL A   1     -30.729  -1.878  24.721  0.00  0.00    -0.216 OA
ENDBRANCH  15  16
ENDBRANCH  14  15
ENDBRANCH   7  14
ENDBRANCH   2   3
BRANCH   2  19
ATOM     18  O   UNL A   1     -22.818   1.334  29.241  0.00  0.00    -0.219 OA
ATOM     19  C   UNL A   1     -23.326   1.122  27.944  0.00  0.00    +0.198 C 
BRANCH  19  21
ATOM     20 CL   UNL A   1     -20.923   1.942  27.316  0.00  0.00    -0.094 Cl
ATOM     21  C   UNL A   1     -22.512   1.727  26.966  0.00  0.00    +0.190 C 
ATOM     22 CL   UNL A   1     -22.904   1.716  25.253  0.00  0.00    -0.094 Cl
ENDBRANCH  19  21
ENDBRANCH   2  19
ENDBRANCH   1   2
BRANCH   1  23
ATOM     23  C   UNL A   1     -25.395   2.021  30.306  0.00  0.00    +0.089 C 
BRANCH  23  24
ATOM     24  C   UNL A   1     -25.428   2.181  31.480  0.00  0.00    +0.025 C 
BRANCH  24  28
ATOM     25  C   UNL A   1     -24.958   5.295  33.323  0.00  0.00    -0.005 C 
ATOM     26  C   UNL A   1     -27.311   3.848  32.308  0.00  0.00    +0.142 C 
ATOM     27  C   UNL A   1     -28.688   3.627  32.919  0.00  0.00    +0.174 C 
ATOM     28  C   UNL A   1     -25.830   3.288  32.439  0.00  0.00    +0.055 C 
ATOM     29  C   UNL A   1     -24.967   3.947  33.249  0.00  0.00    -0.024 C 
ATOM     30  O   UNL A   1     -27.956   2.933  31.625  0.00  0.00    -0.349 OA
ATOM     31  C   UNL A   1     -25.938   5.949  32.660  0.00  0.00    -0.003 C 
ATOM     32  C   UNL A   1     -27.101   5.318  32.124  0.00  0.00    +0.003 C 
ENDBRANCH  24  28
BRANCH  24  34
ATOM     33  C   UNL A   1     -25.387  -0.679  31.571  0.00  0.00    +0.077 C 
ATOM     34  C   UNL A   1     -25.189   0.773  32.028  0.00  0.00    +0.020 C 
ATOM     35  C   UNL A   1     -25.336   0.684  33.544  0.00  0.00    +0.020 C 
ATOM     36  C   UNL A   1     -24.829  -0.715  33.905  0.00  0.00    +0.089 C 
ATOM     37  N   UNL A   1     -24.758  -1.481  32.646  0.00  0.00    -0.219 NA
BRANCH  33  38
ATOM     38  C   UNL A   1     -24.855  -1.012  30.143  0.00  0.00    +0.044 C 
BRANCH  38  39
ATOM     39  C   UNL A   1     -24.973  -2.505  29.788  0.00  0.00    -0.021 C 
ATOM     40  C   UNL A   1     -23.906  -3.173  29.146  0.00  0.00    -0.004 C 
ATOM     41  C   UNL A   1     -23.989  -4.549  28.853  0.00  0.00    -0.000 C 
ATOM     42  C   UNL A   1     -25.137  -5.280  29.205  0.00  0.00    -0.000 C 
ATOM     43  C   UNL A   1     -26.232  -4.611  29.784  0.00  0.00    -0.000 C 
ATOM     44  C   UNL A   1     -26.155  -3.232  30.065  0.00  0.00    -0.004 C 
ENDBRANCH  38  39
ENDBRANCH  33  38
ENDBRANCH  24  34
ENDBRANCH  23  24
ENDBRANCH   1  23
TORSDOF 14
