REMARK  Name = outputs/IAG933/test6/raw/output_8139_IAG933_linker_design_.xyz
REMARK  13 active torsions:
REMARK  status: ('A' for Active; 'I' for Inactive)
REMARK    1  A    between atoms: C_1  and  C_2
REMARK    2  A    between atoms: C_1  and  C_8
REMARK    3  A    between atoms: C_1  and  C_39
REMARK    4  A    between atoms: C_13  and  C_33
REMARK    5  A    between atoms: C_14  and  C_15
REMARK    6  A    between atoms: C_21  and  O_22
REMARK    7  A    between atoms: O_22  and  C_23
REMARK    8  A    between atoms: C_23  and  C_24
REMARK    9  A    between atoms: C_29  and  O_42
REMARK   10  A    between atoms: C_32  and  C_33
REMARK   11  A    between atoms: C_33  and  C_38
REMARK   12  A    between atoms: C_38  and  C_39
REMARK   13  A    between atoms: C_38  and  C_40
REMARK                            x       y       z     vdW  Elec       q    Type
REMARK                         _______ _______ _______ _____ _____    ______ ____
ROOT
ATOM      1  C   UNL A   1     -25.655   1.439  29.165  0.00  0.00    +0.102 C 
ENDROOT
BRANCH   1   6
ATOM      2  C   UNL A   1     -27.177   4.443  31.195  0.00  0.00    +0.225 C 
ATOM      3  C   UNL A   1     -29.064   3.076  30.450  0.00  0.00    +0.006 C 
ATOM      4  N   UNL A   1     -26.301   3.558  30.520  0.00  0.00    -0.216 NA
ATOM      5  C   UNL A   1     -28.574   4.177  31.186  0.00  0.00    +0.058 C 
ATOM      6  C   UNL A   1     -26.701   2.420  29.836  0.00  0.00    +0.069 C 
ATOM      7  C   UNL A   1     -28.126   2.214  29.767  0.00  0.00    +0.015 C 
BRANCH   2   8
ATOM      8  O   UNL A   1     -26.629   5.574  31.793  0.00  0.00    -0.456 OA
ATOM      9  C   UNL A   1     -25.319   5.474  32.367  0.00  0.00    +0.254 C 
ENDBRANCH   2   8
ENDBRANCH   1   6
BRANCH   1  11
ATOM     10  O   UNL A   1     -26.772  -0.688  28.698  0.00  0.00    -0.295 OA
ATOM     11  C   UNL A   1     -25.814  -0.141  29.290  0.00  0.00    +0.161 C 
BRANCH  11  12
ATOM     12  C   UNL A   1     -24.855  -1.012  30.143  0.00  0.00    +0.096 C 
BRANCH  12  13
ATOM     13  C   UNL A   1     -24.973  -2.505  29.788  0.00  0.00    -0.014 C 
ATOM     14  C   UNL A   1     -23.906  -3.173  29.146  0.00  0.00    -0.004 C 
ATOM     15  C   UNL A   1     -23.989  -4.549  28.853  0.00  0.00    -0.000 C 
ATOM     16  C   UNL A   1     -25.137  -5.280  29.205  0.00  0.00    -0.000 C 
ATOM     17  C   UNL A   1     -26.232  -4.611  29.784  0.00  0.00    -0.000 C 
ATOM     18  C   UNL A   1     -26.155  -3.232  30.065  0.00  0.00    -0.004 C 
ENDBRANCH  12  13
BRANCH  12  19
ATOM     19  C   UNL A   1     -25.387  -0.679  31.571  0.00  0.00    +0.084 C 
ATOM     20  C   UNL A   1     -25.189   0.773  32.028  0.00  0.00    +0.020 C 
ATOM     21  C   UNL A   1     -25.336   0.684  33.544  0.00  0.00    +0.020 C 
ATOM     22  C   UNL A   1     -24.829  -0.715  33.905  0.00  0.00    +0.089 C 
ATOM     23  N   UNL A   1     -24.758  -1.481  32.646  0.00  0.00    -0.219 NA
ENDBRANCH  12  19
ENDBRANCH  11  12
ENDBRANCH   1  11
BRANCH   1  24
ATOM     24  C   UNL A   1     -25.033   1.449  27.747  0.00  0.00    +0.042 C 
BRANCH  24  25
ATOM     25  C   UNL A   1     -25.688   1.614  26.461  0.00  0.00    +0.075 C 
ATOM     26  C   UNL A   1     -26.250   2.920  26.395  0.00  0.00    +0.055 C 
ATOM     27  C   UNL A   1     -27.438   3.091  25.645  0.00  0.00    +0.102 C 
ATOM     28  N   UNL A   1     -28.075   2.089  25.003  0.00  0.00    -0.212 NA
ATOM     29  C   UNL A   1     -27.543   0.849  25.079  0.00  0.00    +0.234 C 
ATOM     30  C   UNL A   1     -26.354   0.576  25.777  0.00  0.00    +0.240 C 
ATOM     31  F   UNL A   1     -25.860  -0.681  25.795  0.00  0.00    -0.227 F 
BRANCH  26  32
ATOM     32  C   UNL A   1     -25.642   4.093  27.123  0.00  0.00    +0.263 C 
ATOM     33  N   UNL A   1     -25.614   5.252  26.449  0.00  0.00    -0.200 NA
ATOM     34  C   UNL A   1     -25.026   6.479  26.963  0.00  0.00    +0.139 C 
ATOM     35  O   UNL A   1     -25.143   3.966  28.243  0.00  0.00    -0.269 OA
ENDBRANCH  26  32
BRANCH  29  36
ATOM     36  O   UNL A   1     -28.193  -0.208  24.477  0.00  0.00    -0.459 OA
BRANCH  36  37
ATOM     37  C   UNL A   1     -29.460   0.005  23.866  0.00  0.00    +0.242 C 
BRANCH  37  38
ATOM     38  C   UNL A   1     -30.065  -1.377  23.573  0.00  0.00    +0.229 C 
ATOM     39  O   UNL A   1     -30.729  -1.878  24.721  0.00  0.00    -0.216 OA
ENDBRANCH  37  38
ENDBRANCH  36  37
ENDBRANCH  29  36
ENDBRANCH  24  25
BRANCH  24  43
ATOM     40  C   UNL A   1     -23.136   2.046  26.353  0.00  0.00    -0.004 C 
ATOM     41  C   UNL A   1     -20.887   1.862  27.223  0.00  0.00    -0.000 C 
ATOM     42  C   UNL A   1     -21.346   1.193  28.374  0.00  0.00    -0.000 C 
ATOM     43  C   UNL A   1     -23.572   1.492  27.556  0.00  0.00    -0.021 C 
ATOM     44  C   UNL A   1     -21.750   2.266  26.211  0.00  0.00    -0.000 C 
ATOM     45  C   UNL A   1     -22.718   1.056  28.579  0.00  0.00    -0.004 C 
ENDBRANCH  24  43
ENDBRANCH   1  24
TORSDOF 13
