REMARK  Name = No_814-gen_results/8p0m/2024-11-27-11-27-31/
REMARK  6 active torsions:
REMARK  status: ('A' for Active; 'I' for Inactive)
REMARK    1  A    between atoms: C_2  and  C_8
REMARK    2  A    between atoms: C_4  and  O_16
REMARK    3  A    between atoms: C_9  and  C_17
REMARK    4  A    between atoms: C_17  and  O_19
REMARK    5  A    between atoms: O_19  and  C_20
REMARK    6  A    between atoms: C_20  and  C_21
REMARK                            x       y       z     vdW  Elec       q    Type
REMARK                         _______ _______ _______ _____ _____    ______ ____
ROOT
ATOM      1  C   UNL A   1     -25.864  -0.314  29.588  0.00  0.00    +0.051 C 
ATOM      2  C   UNL A   1     -24.870   0.615  29.691  0.00  0.00    +0.059 C 
ATOM      3  C   UNL A   1     -23.897   0.774  29.454  0.00  0.00    +0.032 C 
ATOM      4  C   UNL A   1     -23.056  -0.396  28.958  0.00  0.00    +0.136 C 
ATOM      5  C   UNL A   1     -23.761  -1.627  29.037  0.00  0.00    +0.004 C 
ATOM      6  C   UNL A   1     -25.998  -1.180  30.709  0.00  0.00    +0.014 C 
ATOM      7  C   UNL A   1     -24.690  -2.097  29.918  0.00  0.00    +0.029 C 
ATOM      8  F   UNL A   1     -21.823  -0.298  28.667  0.00  0.00    -0.204 F 
ENDROOT
BRANCH   1  10
ATOM      9  C   UNL A   1     -28.016  -0.814  28.878  0.00  0.00    -0.003 A 
ATOM     10  C   UNL A   1     -27.064  -0.119  28.608  0.00  0.00    -0.015 A 
ATOM     11  C   UNL A   1     -26.972   0.714  27.506  0.00  0.00    +0.034 A 
ATOM     12  C   UNL A   1     -28.105   0.774  26.642  0.00  0.00    +0.149 A 
ATOM     13  C   UNL A   1     -29.201   0.104  27.053  0.00  0.00    +0.091 A 
ATOM     14  C   UNL A   1     -29.210  -0.603  28.185  0.00  0.00    +0.014 A 
ATOM     15 CL   UNL A   1     -30.565   0.243  26.049  0.00  0.00    -0.079 Cl
BRANCH  12  16
ATOM     16  O   UNL A   1     -28.049   1.616  25.582  0.00  0.00    -0.471 OA
ATOM     17  C   UNL A   1     -27.053   1.392  24.735  0.00  0.00    +0.253 C 
ENDBRANCH  12  16
ENDBRANCH   1  10
BRANCH   2  18
ATOM     18  C   UNL A   1     -25.619   2.155  29.747  0.00  0.00    +0.338 C 
ATOM     19  O   UNL A   1     -25.696   2.619  30.869  0.00  0.00    -0.245 OA
BRANCH  18  20
ATOM     20  O   UNL A   1     -25.657   2.912  28.735  0.00  0.00    -0.433 OA
BRANCH  20  21
ATOM     21  C   UNL A   1     -25.672   4.246  28.869  0.00  0.00    +0.322 C 
BRANCH  21  22
ATOM     22  C   UNL A   1     -25.429   4.903  27.509  0.00  0.00    +0.409 C 
ATOM     23  O   UNL A   1     -25.110   4.202  26.637  0.00  0.00    -0.241 OA
ATOM     24  O   UNL A   1     -25.494   6.165  27.393  0.00  0.00    -0.241 OA
ENDBRANCH  21  22
ENDBRANCH  20  21
ENDBRANCH  18  20
ENDBRANCH   2  18
TORSDOF 6
