REMARK  Name = outputs/IAG933/test6/raw/output_8140_IAG933_linker_design_.xyz
REMARK  9 active torsions:
REMARK  status: ('A' for Active; 'I' for Inactive)
REMARK    1  A    between atoms: C_1  and  C_2
REMARK    2  A    between atoms: C_1  and  C_8
REMARK    3  A    between atoms: C_1  and  N_35
REMARK    4  A    between atoms: C_21  and  O_22
REMARK    5  A    between atoms: O_22  and  C_23
REMARK    6  A    between atoms: C_23  and  C_24
REMARK    7  A    between atoms: C_28  and  C_37
REMARK    8  A    between atoms: N_30  and  C_34
REMARK    9  A    between atoms: C_40  and  O_48
REMARK                            x       y       z     vdW  Elec       q    Type
REMARK                         _______ _______ _______ _____ _____    ______ ____
ROOT
ATOM      1  C   UNL A   1     -25.688   1.614  26.461  0.00  0.00    +0.020 C 
ATOM      2  C   UNL A   1     -26.250   2.920  26.395  0.00  0.00    +0.070 C 
ATOM      3  C   UNL A   1     -25.642   4.093  27.123  0.00  0.00    +0.222 C 
ATOM      4  N   UNL A   1     -25.614   5.252  26.449  0.00  0.00    -0.236 NA
ATOM      5  C   UNL A   1     -25.026   6.479  26.963  0.00  0.00    +0.155 C 
ATOM      6  O   UNL A   1     -25.143   3.966  28.243  0.00  0.00    -0.456 OA
ATOM      7  C   UNL A   1     -27.438   3.091  25.645  0.00  0.00    +0.106 C 
ATOM      8  N   UNL A   1     -28.075   2.089  25.003  0.00  0.00    -0.208 NA
ATOM      9  C   UNL A   1     -27.543   0.849  25.079  0.00  0.00    +0.253 C 
ATOM     10  C   UNL A   1     -26.354   0.576  25.777  0.00  0.00    +0.189 C 
ATOM     11  F   UNL A   1     -25.860  -0.681  25.795  0.00  0.00    -0.200 F 
ATOM     12  C   UNL A   1     -25.164   2.785  29.134  0.00  0.00    +0.229 C 
ATOM     13  C   UNL A   1     -23.345   2.008  26.738  0.00  0.00    +0.021 C 
ATOM     14  C   UNL A   1     -23.125   0.423  29.101  0.00  0.00    +0.352 C 
ATOM     15  N   UNL A   1     -24.478   0.158  29.272  0.00  0.00    -0.189 N 
ATOM     16  C   UNL A   1     -25.326   1.238  28.758  0.00  0.00    +0.208 C 
ATOM     17  C   UNL A   1     -21.131   1.534  27.755  0.00  0.00    +0.013 C 
ATOM     18  C   UNL A   1     -24.652   1.245  27.205  0.00  0.00    +0.072 C 
ATOM     19  N   UNL A   1     -22.344  -0.032  30.065  0.00  0.00    +0.188 NA
ATOM     20  C   UNL A   1     -22.583   1.357  28.090  0.00  0.00    +0.111 C 
ENDROOT
BRANCH  12  23
ATOM     21  C   UNL A   1     -27.260   5.590  29.658  0.00  0.00    -0.022 C 
ATOM     22  C   UNL A   1     -28.428   2.430  29.595  0.00  0.00    +0.076 C 
ATOM     23  C   UNL A   1     -26.223   3.270  29.927  0.00  0.00    +0.005 C 
ATOM     24  C   UNL A   1     -27.248   2.469  30.288  0.00  0.00    +0.012 C 
ATOM     25  C   UNL A   1     -26.257   4.722  30.166  0.00  0.00    +0.052 C 
ATOM     26  C   UNL A   1     -28.454   5.089  29.090  0.00  0.00    -0.003 C 
ATOM     27  C   UNL A   1     -28.881   3.696  28.849  0.00  0.00    +0.016 C 
BRANCH  22  28
ATOM     28  N   UNL A   1     -28.921   1.057  29.621  0.00  0.00    -0.140 NA
ATOM     29  O   UNL A   1     -27.592  -0.291  28.295  0.00  0.00    -0.221 OA
ATOM     30  C   UNL A   1     -28.707   0.239  28.531  0.00  0.00    +0.458 C 
BRANCH  30  32
ATOM     31  O   UNL A   1     -31.080   0.296  28.584  0.00  0.00    +0.033 OA
ATOM     32  O   UNL A   1     -29.878   0.084  27.825  0.00  0.00    -0.243 OA
ENDBRANCH  30  32
ENDBRANCH  22  28
ENDBRANCH  12  23
BRANCH  15  33
ATOM     33  C   UNL A   1     -24.855  -1.012  30.143  0.00  0.00    +0.198 C 
BRANCH  33  34
ATOM     34  C   UNL A   1     -24.973  -2.505  29.788  0.00  0.00    +0.021 C 
ATOM     35  C   UNL A   1     -23.906  -3.173  29.146  0.00  0.00    -0.000 C 
ATOM     36  C   UNL A   1     -23.989  -4.549  28.853  0.00  0.00    -0.000 C 
ATOM     37  C   UNL A   1     -25.137  -5.280  29.205  0.00  0.00    -0.000 C 
ATOM     38  C   UNL A   1     -26.232  -4.611  29.784  0.00  0.00    -0.000 C 
ATOM     39  C   UNL A   1     -26.155  -3.232  30.065  0.00  0.00    -0.000 C 
ENDBRANCH  33  34
BRANCH  33  40
ATOM     40  C   UNL A   1     -25.387  -0.679  31.571  0.00  0.00    +0.120 C 
ATOM     41  C   UNL A   1     -25.189   0.773  32.028  0.00  0.00    +0.023 C 
ATOM     42  C   UNL A   1     -25.336   0.684  33.544  0.00  0.00    +0.020 C 
ATOM     43  C   UNL A   1     -24.829  -0.715  33.905  0.00  0.00    +0.089 C 
ATOM     44  N   UNL A   1     -24.758  -1.481  32.646  0.00  0.00    -0.215 NA
ENDBRANCH  33  40
ENDBRANCH  15  33
BRANCH   9  45
ATOM     45  O   UNL A   1     -28.193  -0.208  24.477  0.00  0.00    -0.456 OA
BRANCH  45  46
ATOM     46  C   UNL A   1     -29.460   0.005  23.866  0.00  0.00    +0.243 C 
BRANCH  46  47
ATOM     47  C   UNL A   1     -30.065  -1.377  23.573  0.00  0.00    +0.229 C 
ATOM     48  O   UNL A   1     -30.729  -1.878  24.721  0.00  0.00    -0.216 OA
ENDBRANCH  46  47
ENDBRANCH  45  46
ENDBRANCH   9  45
TORSDOF 9
