REMARK  Name = outputs/IAG933/test6/raw/output_8142_IAG933_linker_design_.xyz
REMARK  17 active torsions:
REMARK  status: ('A' for Active; 'I' for Inactive)
REMARK    1  A    between atoms: C_1  and  C_2
REMARK    2  A    between atoms: C_1  and  C_8
REMARK    3  A    between atoms: C_1  and  C_43
REMARK    4  A    between atoms: C_13  and  C_41
REMARK    5  A    between atoms: C_14  and  C_15
REMARK    6  A    between atoms: C_15  and  O_18
REMARK    7  A    between atoms: O_18  and  C_30
REMARK    8  A    between atoms: C_21  and  O_22
REMARK    9  A    between atoms: O_22  and  C_23
REMARK   10  A    between atoms: C_23  and  C_24
REMARK   11  A    between atoms: C_31  and  O_32
REMARK   12  A    between atoms: C_31  and  C_35
REMARK   13  A    between atoms: C_31  and  N_36
REMARK   14  A    between atoms: O_32  and  C_43
REMARK   15  A    between atoms: C_33  and  C_38
REMARK   16  A    between atoms: C_33  and  C_41
REMARK   17  A    between atoms: N_36  and  C_41
REMARK                            x       y       z     vdW  Elec       q    Type
REMARK                         _______ _______ _______ _____ _____    ______ ____
ROOT
ATOM      1  C   UNL A   1     -24.615   1.156  27.267  0.00  0.00    +0.109 C 
ENDROOT
BRANCH   1   2
ATOM      2  C   UNL A   1     -25.688   1.614  26.461  0.00  0.00    +0.032 C 
ATOM      3  C   UNL A   1     -26.250   2.920  26.395  0.00  0.00    +0.072 C 
ATOM      4  C   UNL A   1     -27.438   3.091  25.645  0.00  0.00    +0.106 C 
ATOM      5  N   UNL A   1     -28.075   2.089  25.003  0.00  0.00    -0.208 NA
ATOM      6  C   UNL A   1     -27.543   0.849  25.079  0.00  0.00    +0.253 C 
ATOM      7  C   UNL A   1     -26.354   0.576  25.777  0.00  0.00    +0.190 C 
ATOM      8  F   UNL A   1     -25.860  -0.681  25.795  0.00  0.00    -0.200 F 
BRANCH   3   9
ATOM      9  C   UNL A   1     -25.642   4.093  27.123  0.00  0.00    +0.227 C 
ATOM     10  N   UNL A   1     -25.614   5.252  26.449  0.00  0.00    -0.235 NA
ATOM     11  C   UNL A   1     -25.026   6.479  26.963  0.00  0.00    +0.155 C 
BRANCH   9  12
ATOM     12  O   UNL A   1     -25.143   3.966  28.243  0.00  0.00    -0.436 OA
BRANCH  12  14
ATOM     13  C   UNL A   1     -26.434   6.046  30.619  0.00  0.00    -0.019 C 
ATOM     14  C   UNL A   1     -25.714   4.213  29.479  0.00  0.00    +0.147 C 
ATOM     15  C   UNL A   1     -26.301   5.411  29.506  0.00  0.00    +0.033 C 
ATOM     16  C   UNL A   1     -26.984   7.496  30.528  0.00  0.00    +0.031 C 
ATOM     17  C   UNL A   1     -26.074   5.495  31.898  0.00  0.00    -0.004 C 
ATOM     18  C   UNL A   1     -25.496   3.531  30.734  0.00  0.00    +0.037 C 
ATOM     19  C   UNL A   1     -25.628   4.245  31.918  0.00  0.00    +0.003 C 
ENDBRANCH  12  14
ENDBRANCH   9  12
ENDBRANCH   3   9
BRANCH   6  20
ATOM     20  O   UNL A   1     -28.193  -0.208  24.477  0.00  0.00    -0.456 OA
BRANCH  20  21
ATOM     21  C   UNL A   1     -29.460   0.005  23.866  0.00  0.00    +0.243 C 
BRANCH  21  22
ATOM     22  C   UNL A   1     -30.065  -1.377  23.573  0.00  0.00    +0.229 C 
ATOM     23  O   UNL A   1     -30.729  -1.878  24.721  0.00  0.00    -0.216 OA
ENDBRANCH  21  22
ENDBRANCH  20  21
ENDBRANCH   6  20
ENDBRANCH   1   2
BRANCH   1  24
ATOM     24  C   UNL A   1     -23.324   0.928  26.465  0.00  0.00    +0.094 C 
BRANCH  24  25
ATOM     25  C   UNL A   1     -22.645   2.022  26.387  0.00  0.00    +0.209 C 
ATOM     26  O   UNL A   1     -23.197   2.956  25.882  0.00  0.00    -0.288 OA
ENDBRANCH  24  25
ENDBRANCH   1  24
BRANCH   1  27
ATOM     27  N   UNL A   1     -24.076   1.944  28.355  0.00  0.00    -0.174 NA
BRANCH  27  28
ATOM     28  C   UNL A   1     -22.830   1.365  28.894  0.00  0.00    +0.280 C 
BRANCH  28  30
ATOM     29  F   UNL A   1     -20.647   1.534  28.071  0.00  0.00    -0.229 F 
ATOM     30  C   UNL A   1     -21.767   0.700  27.884  0.00  0.00    +0.255 C 
ENDBRANCH  28  30
BRANCH  28  31
ATOM     31  O   UNL A   1     -23.497   0.392  29.390  0.00  0.00    -0.431 OA
BRANCH  31  33
ATOM     32  O   UNL A   1     -25.896   0.239  28.637  0.00  0.00    -0.250 OA
ATOM     33  C   UNL A   1     -24.789  -0.232  29.185  0.00  0.00    +0.323 C 
BRANCH  33  34
ATOM     34  C   UNL A   1     -24.855  -1.012  30.143  0.00  0.00    +0.137 C 
BRANCH  34  35
ATOM     35  C   UNL A   1     -24.973  -2.505  29.788  0.00  0.00    -0.011 C 
ATOM     36  C   UNL A   1     -23.906  -3.173  29.146  0.00  0.00    -0.004 C 
ATOM     37  C   UNL A   1     -23.989  -4.549  28.853  0.00  0.00    -0.000 C 
ATOM     38  C   UNL A   1     -25.137  -5.280  29.205  0.00  0.00    -0.000 C 
ATOM     39  C   UNL A   1     -26.232  -4.611  29.784  0.00  0.00    -0.000 C 
ATOM     40  C   UNL A   1     -26.155  -3.232  30.065  0.00  0.00    -0.004 C 
ENDBRANCH  34  35
BRANCH  34  41
ATOM     41  C   UNL A   1     -25.387  -0.679  31.571  0.00  0.00    +0.087 C 
ATOM     42  C   UNL A   1     -25.189   0.773  32.028  0.00  0.00    +0.020 C 
ATOM     43  C   UNL A   1     -25.336   0.684  33.544  0.00  0.00    +0.020 C 
ATOM     44  C   UNL A   1     -24.829  -0.715  33.905  0.00  0.00    +0.089 C 
ATOM     45  N   UNL A   1     -24.758  -1.481  32.646  0.00  0.00    -0.219 NA
ENDBRANCH  34  41
ENDBRANCH  33  34
ENDBRANCH  31  33
ENDBRANCH  28  31
ENDBRANCH  27  28
ENDBRANCH   1  27
TORSDOF 17
