MODEL 814
MODEL 1
REMARK VINA RESULT:    -6.328      0.000      0.000
REMARK INTER + INTRA:          -8.855
REMARK INTER:                  -8.178
REMARK INTRA:                  -0.676
REMARK UNBOUND:                -0.676
REMARK  Name = No_814-gen_results/8p0m/2024-11-27-11-27-31/
REMARK  6 active torsions:
REMARK  status: ('A' for Active; 'I' for Inactive)
REMARK    1  A    between atoms: C_2  and  C_8
REMARK    2  A    between atoms: C_4  and  O_16
REMARK    3  A    between atoms: C_9  and  C_17
REMARK    4  A    between atoms: C_17  and  O_19
REMARK    5  A    between atoms: O_19  and  C_20
REMARK    6  A    between atoms: C_20  and  C_21
REMARK                            x       y       z     vdW  Elec       q    Type
REMARK                         _______ _______ _______ _____ _____    ______ ____
ROOT
ATOM      1  C   UNL A   1     -25.310  -1.223  29.462  0.00  0.00    +0.051 C 
ATOM      2  C   UNL A   1     -24.029  -1.683  29.365  0.00  0.00    +0.059 C 
ATOM      3  C   UNL A   1     -23.490  -2.489  29.068  0.00  0.00    +0.032 C 
ATOM      4  C   UNL A   1     -24.218  -3.790  28.750  0.00  0.00    +0.136 C 
ATOM      5  C   UNL A   1     -25.601  -3.715  29.067  0.00  0.00    +0.004 C 
ATOM      6  C   UNL A   1     -25.937  -1.444  30.719  0.00  0.00    +0.014 C 
ATOM      7  C   UNL A   1     -26.282  -3.060  30.050  0.00  0.00    +0.029 C 
ATOM      8  F   UNL A   1     -23.623  -4.857  28.401  0.00  0.00    -0.204 F 
ENDROOT
BRANCH   1  10
ATOM      9  C   UNL A   1     -26.325   0.832  29.099  0.00  0.00    -0.003 A 
ATOM     10  C   UNL A   1     -25.850  -0.110  28.508  0.00  0.00    -0.015 A 
ATOM     11  C   UNL A   1     -25.841  -0.267  27.133  0.00  0.00    +0.034 A 
ATOM     12  C   UNL A   1     -26.412   0.784  26.356  0.00  0.00    +0.149 A 
ATOM     13  C   UNL A   1     -26.796   1.884  27.037  0.00  0.00    +0.091 A 
ATOM     14  C   UNL A   1     -26.679   1.966  28.364  0.00  0.00    +0.014 A 
ATOM     15 CL   UNL A   1     -27.409   3.155  26.091  0.00  0.00    -0.079 Cl
BRANCH  12  16
ATOM     16  O   UNL A   1     -26.374   0.668  25.007  0.00  0.00    -0.471 OA
ATOM     17  C   UNL A   1     -27.400   0.022  24.467  0.00  0.00    +0.253 C 
ENDBRANCH  12  16
ENDBRANCH   1  10
BRANCH   2  18
ATOM     18  C   UNL A   1     -23.011  -0.317  29.183  0.00  0.00    +0.338 C 
ATOM     19  O   UNL A   1     -22.531   0.076  30.229  0.00  0.00    -0.245 OA
BRANCH  18  20
ATOM     20  O   UNL A   1     -22.457  -0.045  28.080  0.00  0.00    -0.433 OA
BRANCH  20  21
ATOM     21  C   UNL A   1     -21.895   1.153  27.864  0.00  0.00    +0.322 C 
BRANCH  21  22
ATOM     22  C   UNL A   1     -22.892   2.068  27.151  0.00  0.00    +0.409 C 
ATOM     23  O   UNL A   1     -23.445   2.855  27.806  0.00  0.00    -0.241 OA
ATOM     24  O   UNL A   1     -23.147   1.892  25.920  0.00  0.00    -0.241 OA
ENDBRANCH  21  22
ENDBRANCH  20  21
ENDBRANCH  18  20
ENDBRANCH   2  18
TORSDOF 6
ENDMDL
ENDMDL
