REMARK  Name = outputs/IAG933/test6/raw/output_8156_IAG933_linker_design_.xyz
REMARK  20 active torsions:
REMARK  status: ('A' for Active; 'I' for Inactive)
REMARK    1  A    between atoms: C_1  and  C_2
REMARK    2  A    between atoms: C_1  and  C_8
REMARK    3  A    between atoms: C_1  and  N_48
REMARK    4  A    between atoms: C_13  and  S_37
REMARK    5  A    between atoms: C_14  and  C_15
REMARK    6  A    between atoms: C_21  and  O_22
REMARK    7  A    between atoms: O_22  and  C_23
REMARK    8  A    between atoms: C_23  and  C_24
REMARK    9  A    between atoms: C_28  and  C_44
REMARK   10  A    between atoms: C_28  and  N_48
REMARK   11  A    between atoms: C_31  and  N_32
REMARK   12  A    between atoms: C_31  and  C_38
REMARK   13  A    between atoms: C_31  and  N_43
REMARK   14  A    between atoms: C_34  and  N_43
REMARK   15  A    between atoms: C_34  and  C_44
REMARK   16  A    between atoms: C_35  and  C_36
REMARK   17  A    between atoms: C_35  and  C_38
REMARK   18  A    between atoms: C_36  and  C_39
REMARK   19  A    between atoms: S_37  and  C_47
REMARK   20  A    between atoms: C_40  and  C_47
REMARK                            x       y       z     vdW  Elec       q    Type
REMARK                         _______ _______ _______ _____ _____    ______ ____
ROOT
ATOM      1  C   UNL A   1     -23.318   0.298  28.652  0.00  0.00    +0.362 C 
ATOM      2  N   UNL A   1     -22.325  -0.012  29.633  0.00  0.00    +0.189 NA
ATOM      3  N   UNL A   1     -24.872   0.013  29.002  0.00  0.00    -0.188 N 
ENDROOT
BRANCH   1   5
ATOM      4  C   UNL A   1     -21.473   1.734  27.409  0.00  0.00    +0.025 C 
ATOM      5  C   UNL A   1     -22.845   1.126  27.502  0.00  0.00    +0.158 C 
BRANCH   5   6
ATOM      6  S   UNL A   1     -23.981   1.557  26.224  0.00  0.00    -0.122 S 
BRANCH   6   7
ATOM      7  C   UNL A   1     -25.688   1.614  26.461  0.00  0.00    +0.118 C 
ATOM      8  C   UNL A   1     -26.250   2.920  26.395  0.00  0.00    +0.065 C 
ATOM      9  C   UNL A   1     -27.438   3.091  25.645  0.00  0.00    +0.103 C 
ATOM     10  N   UNL A   1     -28.075   2.089  25.003  0.00  0.00    -0.212 NA
ATOM     11  C   UNL A   1     -27.543   0.849  25.079  0.00  0.00    +0.235 C 
ATOM     12  C   UNL A   1     -26.354   0.576  25.777  0.00  0.00    +0.250 C 
ATOM     13  F   UNL A   1     -25.860  -0.681  25.795  0.00  0.00    -0.226 F 
BRANCH   8  14
ATOM     14  C   UNL A   1     -25.642   4.093  27.123  0.00  0.00    +0.263 C 
ATOM     15  N   UNL A   1     -25.614   5.252  26.449  0.00  0.00    -0.200 NA
ATOM     16  C   UNL A   1     -25.026   6.479  26.963  0.00  0.00    +0.139 C 
ATOM     17  O   UNL A   1     -25.143   3.966  28.243  0.00  0.00    -0.269 OA
ENDBRANCH   8  14
BRANCH  11  18
ATOM     18  O   UNL A   1     -28.193  -0.208  24.477  0.00  0.00    -0.459 OA
BRANCH  18  19
ATOM     19  C   UNL A   1     -29.460   0.005  23.866  0.00  0.00    +0.242 C 
BRANCH  19  20
ATOM     20  C   UNL A   1     -30.065  -1.377  23.573  0.00  0.00    +0.229 C 
ATOM     21  O   UNL A   1     -30.729  -1.878  24.721  0.00  0.00    -0.216 OA
ENDBRANCH  19  20
ENDBRANCH  18  19
ENDBRANCH  11  18
ENDBRANCH   6   7
ENDBRANCH   5   6
ENDBRANCH   1   5
BRANCH   3  22
ATOM     22  C   UNL A   1     -24.855  -1.012  30.143  0.00  0.00    +0.198 C 
BRANCH  22  23
ATOM     23  C   UNL A   1     -24.973  -2.505  29.788  0.00  0.00    +0.021 C 
ATOM     24  C   UNL A   1     -23.906  -3.173  29.146  0.00  0.00    -0.000 C 
ATOM     25  C   UNL A   1     -23.989  -4.549  28.853  0.00  0.00    -0.000 C 
ATOM     26  C   UNL A   1     -25.137  -5.280  29.205  0.00  0.00    -0.000 C 
ATOM     27  C   UNL A   1     -26.232  -4.611  29.784  0.00  0.00    -0.000 C 
ATOM     28  C   UNL A   1     -26.155  -3.232  30.065  0.00  0.00    -0.000 C 
ENDBRANCH  22  23
BRANCH  22  29
ATOM     29  C   UNL A   1     -25.387  -0.679  31.571  0.00  0.00    +0.120 C 
ATOM     30  C   UNL A   1     -25.189   0.773  32.028  0.00  0.00    +0.023 C 
ATOM     31  C   UNL A   1     -25.336   0.684  33.544  0.00  0.00    +0.020 C 
ATOM     32  C   UNL A   1     -24.829  -0.715  33.905  0.00  0.00    +0.089 C 
ATOM     33  N   UNL A   1     -24.758  -1.481  32.646  0.00  0.00    -0.215 NA
ENDBRANCH  22  29
ENDBRANCH   3  22
BRANCH   3  34
ATOM     34  C   UNL A   1     -26.188  -0.294  28.191  0.00  0.00    +0.204 C 
BRANCH  34  35
ATOM     35  C   UNL A   1     -27.413  -0.484  29.116  0.00  0.00    +0.068 C 
BRANCH  35  36
ATOM     36  C   UNL A   1     -28.326   0.769  29.223  0.00  0.00    +0.078 C 
BRANCH  36  38
ATOM     37  C   UNL A   1     -30.680   0.885  28.676  0.00  0.00    +0.091 C 
ATOM     38  N   UNL A   1     -29.692   0.262  29.614  0.00  0.00    -0.257 NA
BRANCH  38  39
ATOM     39  C   UNL A   1     -29.969  -0.496  30.720  0.00  0.00    +0.166 C 
BRANCH  39  40
ATOM     40  N   UNL A   1     -29.281  -1.744  31.204  0.00  0.00    -0.033 NA
ATOM     41  O   UNL A   1     -29.496  -3.045  30.568  0.00  0.00    -0.099 OA
ENDBRANCH  39  40
BRANCH  39  42
ATOM     42  C   UNL A   1     -31.365  -1.264  30.713  0.00  0.00    +0.040 C 
BRANCH  42  43
ATOM     43  C   UNL A   1     -32.337  -1.006  29.447  0.00  0.00    +0.048 C 
BRANCH  43  44
ATOM     44  C   UNL A   1     -31.777  -1.016  27.853  0.00  0.00    +0.254 C 
ATOM     45  O   UNL A   1     -30.663  -0.832  27.117  0.00  0.00    -0.211 OA
BRANCH  44  47
ATOM     46  O   UNL A   1     -32.007  -3.730  27.745  0.00  0.00    -0.243 OA
ATOM     47  C   UNL A   1     -32.457  -2.487  27.367  0.00  0.00    +0.395 C 
ATOM     48  O   UNL A   1     -33.349  -2.293  26.693  0.00  0.00    -0.243 OA
ENDBRANCH  44  47
ENDBRANCH  43  44
ENDBRANCH  42  43
ENDBRANCH  39  42
ENDBRANCH  38  39
ENDBRANCH  36  38
ENDBRANCH  35  36
ENDBRANCH  34  35
ENDBRANCH   3  34
TORSDOF 20
