REMARK  Name = outputs/IAG933/test6/raw/output_8159_IAG933_linker_design_.xyz
REMARK  14 active torsions:
REMARK  status: ('A' for Active; 'I' for Inactive)
REMARK    1  A    between atoms: C_1  and  C_2
REMARK    2  A    between atoms: C_1  and  C_8
REMARK    3  A    between atoms: C_1  and  C_29
REMARK    4  A    between atoms: C_14  and  C_15
REMARK    5  A    between atoms: C_15  and  O_18
REMARK    6  A    between atoms: O_18  and  C_28
REMARK    7  A    between atoms: C_21  and  O_22
REMARK    8  A    between atoms: O_22  and  C_23
REMARK    9  A    between atoms: C_23  and  C_24
REMARK   10  A    between atoms: C_28  and  O_38
REMARK   11  A    between atoms: C_28  and  C_42
REMARK   12  A    between atoms: C_30  and  C_35
REMARK   13  A    between atoms: C_32  and  C_39
REMARK   14  A    between atoms: O_38  and  C_40
REMARK                            x       y       z     vdW  Elec       q    Type
REMARK                         _______ _______ _______ _____ _____    ______ ____
ROOT
ATOM      1  C   UNL A   1     -24.829   3.037  29.168  0.00  0.00    +0.344 C 
ENDROOT
BRANCH   1   7
ATOM      2  C   UNL A   1     -24.086   0.097  29.582  0.00  0.00    +0.088 C 
ATOM      3  C   UNL A   1     -22.233   0.860  28.495  0.00  0.00    +0.236 C 
ATOM      4  C   UNL A   1     -23.238   1.628  27.934  0.00  0.00    +0.077 C 
ATOM      5  N   UNL A   1     -22.635  -0.137  29.451  0.00  0.00    -0.188 NA
ATOM      6  F   UNL A   1     -20.942   0.947  27.987  0.00  0.00    -0.218 F 
ATOM      7  C   UNL A   1     -24.217   1.624  28.890  0.00  0.00    +0.106 C 
BRANCH   4   8
ATOM      8  C   UNL A   1     -23.199   2.521  26.646  0.00  0.00    +0.114 C 
ATOM      9  N   UNL A   1     -22.115   2.163  25.603  0.00  0.00    -0.131 NA
ENDBRANCH   4   8
BRANCH   2  10
ATOM     10  C   UNL A   1     -24.855  -1.012  30.143  0.00  0.00    +0.055 C 
BRANCH  10  11
ATOM     11  C   UNL A   1     -24.973  -2.505  29.788  0.00  0.00    -0.020 C 
ATOM     12  C   UNL A   1     -23.906  -3.173  29.146  0.00  0.00    -0.004 C 
ATOM     13  C   UNL A   1     -23.989  -4.549  28.853  0.00  0.00    -0.000 C 
ATOM     14  C   UNL A   1     -25.137  -5.280  29.205  0.00  0.00    -0.000 C 
ATOM     15  C   UNL A   1     -26.232  -4.611  29.784  0.00  0.00    -0.000 C 
ATOM     16  C   UNL A   1     -26.155  -3.232  30.065  0.00  0.00    -0.004 C 
ENDBRANCH  10  11
BRANCH  10  17
ATOM     17  C   UNL A   1     -25.387  -0.679  31.571  0.00  0.00    +0.078 C 
ATOM     18  C   UNL A   1     -25.189   0.773  32.028  0.00  0.00    +0.019 C 
ATOM     19  C   UNL A   1     -25.336   0.684  33.544  0.00  0.00    +0.020 C 
ATOM     20  C   UNL A   1     -24.829  -0.715  33.905  0.00  0.00    +0.089 C 
ATOM     21  N   UNL A   1     -24.758  -1.481  32.646  0.00  0.00    -0.219 NA
ENDBRANCH  10  17
ENDBRANCH   2  10
ENDBRANCH   1   7
BRANCH   1  22
ATOM     22  O   UNL A   1     -25.143   3.966  28.243  0.00  0.00    -0.426 OA
BRANCH  22  23
ATOM     23  C   UNL A   1     -25.642   4.093  27.123  0.00  0.00    +0.225 C 
ATOM     24  N   UNL A   1     -25.614   5.252  26.449  0.00  0.00    -0.236 NA
ATOM     25  C   UNL A   1     -25.026   6.479  26.963  0.00  0.00    +0.155 C 
BRANCH  23  27
ATOM     26  C   UNL A   1     -25.688   1.614  26.461  0.00  0.00    +0.041 C 
ATOM     27  C   UNL A   1     -26.250   2.920  26.395  0.00  0.00    +0.074 C 
ATOM     28  C   UNL A   1     -27.438   3.091  25.645  0.00  0.00    +0.107 C 
ATOM     29  N   UNL A   1     -28.075   2.089  25.003  0.00  0.00    -0.208 NA
ATOM     30  C   UNL A   1     -27.543   0.849  25.079  0.00  0.00    +0.253 C 
ATOM     31  C   UNL A   1     -26.354   0.576  25.777  0.00  0.00    +0.193 C 
ATOM     32  F   UNL A   1     -25.860  -0.681  25.795  0.00  0.00    -0.199 F 
BRANCH  30  33
ATOM     33  O   UNL A   1     -28.193  -0.208  24.477  0.00  0.00    -0.456 OA
BRANCH  33  34
ATOM     34  C   UNL A   1     -29.460   0.005  23.866  0.00  0.00    +0.243 C 
BRANCH  34  35
ATOM     35  C   UNL A   1     -30.065  -1.377  23.573  0.00  0.00    +0.229 C 
ATOM     36  O   UNL A   1     -30.729  -1.878  24.721  0.00  0.00    -0.216 OA
ENDBRANCH  34  35
ENDBRANCH  33  34
ENDBRANCH  30  33
ENDBRANCH  23  27
ENDBRANCH  22  23
ENDBRANCH   1  22
BRANCH   1  37
ATOM     37  O   UNL A   1     -24.735   3.460  30.467  0.00  0.00    -0.429 OA
BRANCH  37  40
ATOM     38  C   UNL A   1     -26.818   4.697  30.561  0.00  0.00    +0.119 C 
ATOM     39  C   UNL A   1     -26.849   5.746  31.416  0.00  0.00    +0.202 C 
ATOM     40  C   UNL A   1     -25.719   4.073  31.178  0.00  0.00    +0.222 C 
ATOM     41  N   UNL A   1     -25.616   4.381  32.484  0.00  0.00    -0.130 NA
ATOM     42  N   UNL A   1     -26.378   5.497  32.687  0.00  0.00    -0.133 NA
BRANCH  39  44
ATOM     43  N   UNL A   1     -27.763   7.310  29.942  0.00  0.00    -0.086 NA
ATOM     44  C   UNL A   1     -26.893   7.037  30.893  0.00  0.00    +0.283 C 
ATOM     45  O   UNL A   1     -26.002   7.868  31.232  0.00  0.00    -0.270 OA
ENDBRANCH  39  44
ENDBRANCH  37  40
ENDBRANCH   1  37
TORSDOF 14
