REMARK  Name = outputs/IAG933/test6/raw/output_8162_IAG933_linker_design_.xyz
REMARK  12 active torsions:
REMARK  status: ('A' for Active; 'I' for Inactive)
REMARK    1  A    between atoms: C_1  and  C_2
REMARK    2  A    between atoms: C_1  and  C_8
REMARK    3  A    between atoms: C_1  and  C_38
REMARK    4  A    between atoms: C_21  and  O_22
REMARK    5  A    between atoms: O_22  and  C_23
REMARK    6  A    between atoms: C_23  and  C_24
REMARK    7  A    between atoms: C_28  and  C_31
REMARK    8  A    between atoms: C_28  and  O_40
REMARK    9  A    between atoms: N_29  and  C_41
REMARK   10  A    between atoms: C_32  and  C_34
REMARK   11  A    between atoms: C_38  and  N_39
REMARK   12  A    between atoms: N_39  and  C_41
REMARK                            x       y       z     vdW  Elec       q    Type
REMARK                         _______ _______ _______ _____ _____    ______ ____
ROOT
ATOM      1  C   UNL A   1     -25.688   1.614  26.461  0.00  0.00    +0.104 C 
ATOM      2  C   UNL A   1     -26.250   2.920  26.395  0.00  0.00    +0.056 C 
ATOM      3  C   UNL A   1     -25.642   4.093  27.123  0.00  0.00    +0.218 C 
ATOM      4  N   UNL A   1     -25.614   5.252  26.449  0.00  0.00    -0.236 NA
ATOM      5  C   UNL A   1     -25.026   6.479  26.963  0.00  0.00    +0.155 C 
ATOM      6  O   UNL A   1     -25.143   3.966  28.243  0.00  0.00    -0.453 OA
ATOM      7  C   UNL A   1     -27.438   3.091  25.645  0.00  0.00    +0.102 C 
ATOM      8  N   UNL A   1     -28.075   2.089  25.003  0.00  0.00    -0.212 NA
ATOM      9  C   UNL A   1     -27.543   0.849  25.079  0.00  0.00    +0.234 C 
ATOM     10  C   UNL A   1     -26.354   0.576  25.777  0.00  0.00    +0.243 C 
ATOM     11  F   UNL A   1     -25.860  -0.681  25.795  0.00  0.00    -0.227 F 
ATOM     12  C   UNL A   1     -26.027   2.009  28.984  0.00  0.00    +0.092 C 
ATOM     13  C   UNL A   1     -25.604   3.447  29.475  0.00  0.00    +0.272 C 
ATOM     14  C   UNL A   1     -25.096   1.408  27.916  0.00  0.00    +0.148 C 
ENDROOT
BRANCH  14  15
ATOM     15  N   UNL A   1     -23.856   1.977  28.196  0.00  0.00    -0.190 NA
ATOM     16  C   UNL A   1     -22.663   1.206  28.345  0.00  0.00    +0.273 C 
ATOM     17  O   UNL A   1     -22.300   0.209  29.150  0.00  0.00    -0.271 OA
BRANCH  16  18
ATOM     18  C   UNL A   1     -21.592   1.470  27.246  0.00  0.00    +0.229 C 
BRANCH  18  20
ATOM     19  C   UNL A   1     -22.990   2.221  25.232  0.00  0.00    +0.175 C 
ATOM     20  O   UNL A   1     -21.930   1.481  25.807  0.00  0.00    -0.342 OA
ENDBRANCH  18  20
ENDBRANCH  16  18
ENDBRANCH  14  15
BRANCH  13  21
ATOM     21  C   UNL A   1     -25.990   4.728  30.302  0.00  0.00    +0.404 C 
ATOM     22  O   UNL A   1     -27.121   5.179  30.143  0.00  0.00    -0.242 OA
ATOM     23  O   UNL A   1     -25.149   5.267  31.031  0.00  0.00    -0.242 OA
ENDBRANCH  13  21
BRANCH   9  24
ATOM     24  O   UNL A   1     -28.193  -0.208  24.477  0.00  0.00    -0.459 OA
BRANCH  24  25
ATOM     25  C   UNL A   1     -29.460   0.005  23.866  0.00  0.00    +0.242 C 
BRANCH  25  26
ATOM     26  C   UNL A   1     -30.065  -1.377  23.573  0.00  0.00    +0.229 C 
ATOM     27  O   UNL A   1     -30.729  -1.878  24.721  0.00  0.00    -0.216 OA
ENDBRANCH  25  26
ENDBRANCH  24  25
ENDBRANCH   9  24
BRANCH  14  28
ATOM     28  N   UNL A   1     -25.038   0.051  27.995  0.00  0.00    -0.200 NA
BRANCH  28  29
ATOM     29  C   UNL A   1     -25.839  -0.446  29.130  0.00  0.00    +0.096 C 
BRANCH  29  30
ATOM     30  C   UNL A   1     -24.855  -1.012  30.143  0.00  0.00    +0.056 C 
BRANCH  30  31
ATOM     31  C   UNL A   1     -24.973  -2.505  29.788  0.00  0.00    -0.020 C 
ATOM     32  C   UNL A   1     -23.906  -3.173  29.146  0.00  0.00    -0.004 C 
ATOM     33  C   UNL A   1     -23.989  -4.549  28.853  0.00  0.00    -0.000 C 
ATOM     34  C   UNL A   1     -25.137  -5.280  29.205  0.00  0.00    -0.000 C 
ATOM     35  C   UNL A   1     -26.232  -4.611  29.784  0.00  0.00    -0.000 C 
ATOM     36  C   UNL A   1     -26.155  -3.232  30.065  0.00  0.00    -0.004 C 
ENDBRANCH  30  31
BRANCH  30  37
ATOM     37  C   UNL A   1     -25.387  -0.679  31.571  0.00  0.00    +0.078 C 
ATOM     38  C   UNL A   1     -25.189   0.773  32.028  0.00  0.00    +0.019 C 
ATOM     39  C   UNL A   1     -25.336   0.684  33.544  0.00  0.00    +0.020 C 
ATOM     40  C   UNL A   1     -24.829  -0.715  33.905  0.00  0.00    +0.089 C 
ATOM     41  N   UNL A   1     -24.758  -1.481  32.646  0.00  0.00    -0.219 NA
ENDBRANCH  30  37
ENDBRANCH  29  30
ENDBRANCH  28  29
ENDBRANCH  14  28
TORSDOF 12
