MODEL 817
MODEL 1
REMARK VINA RESULT:    -6.566      0.000      0.000
REMARK INTER + INTRA:          -7.332
REMARK INTER:                  -6.950
REMARK INTRA:                  -0.382
REMARK UNBOUND:                -0.382
REMARK  Name = No_817-gen_results/8p0m/2024-11-27-11-27-31/
REMARK  1 active torsions:
REMARK  status: ('A' for Active; 'I' for Inactive)
REMARK    1  A    between atoms: C_3  and  C_7
REMARK                            x       y       z     vdW  Elec       q    Type
REMARK                         _______ _______ _______ _____ _____    ______ ____
ROOT
ATOM      1  C   UNL A   1     -23.870  -3.813  28.564  0.00  0.00    +0.000 A 
ATOM      2  C   UNL A   1     -24.313  -4.745  28.774  0.00  0.00    +0.000 A 
ATOM      3  C   UNL A   1     -24.584  -2.648  28.924  0.00  0.00    +0.000 A 
ATOM      4  C   UNL A   1     -25.828  -2.709  29.520  0.00  0.00    +0.000 A 
ATOM      5  C   UNL A   1     -25.608  -5.085  29.397  0.00  0.00    +0.000 A 
ATOM      6  C   UNL A   1     -26.324  -3.997  29.756  0.00  0.00    +0.000 A 
ENDROOT
BRANCH   3   7
ATOM      7  C   UNL A   1     -23.862  -1.376  28.743  0.00  0.00    +0.000 A 
ATOM      8  C   UNL A   1     -24.419  -0.468  27.824  0.00  0.00    +0.000 A 
ATOM      9  C   UNL A   1     -22.539  -1.171  29.151  0.00  0.00    +0.000 A 
ATOM     10  C   UNL A   1     -21.889  -0.000  28.906  0.00  0.00    +0.000 A 
ATOM     11  C   UNL A   1     -23.701   0.681  27.440  0.00  0.00    +0.000 A 
ATOM     12  C   UNL A   1     -22.419   0.898  28.006  0.00  0.00    +0.000 A 
ENDBRANCH   3   7
TORSDOF 1
ENDMDL
ENDMDL
