REMARK  Name = outputs/IAG933/test6/raw/output_8183_IAG933_linker_design_.xyz
REMARK  16 active torsions:
REMARK  status: ('A' for Active; 'I' for Inactive)
REMARK    1  A    between atoms: C_1  and  C_2
REMARK    2  A    between atoms: C_1  and  C_8
REMARK    3  A    between atoms: C_1  and  C_40
REMARK    4  A    between atoms: C_13  and  C_31
REMARK    5  A    between atoms: C_14  and  C_15
REMARK    6  A    between atoms: C_21  and  O_22
REMARK    7  A    between atoms: O_22  and  C_23
REMARK    8  A    between atoms: C_23  and  C_24
REMARK    9  A    between atoms: C_31  and  C_34
REMARK   10  A    between atoms: C_31  and  C_35
REMARK   11  A    between atoms: N_32  and  C_34
REMARK   12  A    between atoms: N_32  and  C_38
REMARK   13  A    between atoms: O_33  and  C_35
REMARK   14  A    between atoms: C_34  and  C_40
REMARK   15  A    between atoms: C_35  and  C_39
REMARK   16  A    between atoms: C_36  and  C_38
REMARK                            x       y       z     vdW  Elec       q    Type
REMARK                         _______ _______ _______ _____ _____    ______ ____
ROOT
ATOM      1  C   UNL A   1     -24.595   1.377  27.531  0.00  0.00    +0.062 C 
ENDROOT
BRANCH   1   2
ATOM      2  C   UNL A   1     -25.688   1.614  26.461  0.00  0.00    +0.074 C 
ATOM      3  C   UNL A   1     -26.250   2.920  26.395  0.00  0.00    +0.055 C 
ATOM      4  C   UNL A   1     -27.438   3.091  25.645  0.00  0.00    +0.102 C 
ATOM      5  N   UNL A   1     -28.075   2.089  25.003  0.00  0.00    -0.212 NA
ATOM      6  C   UNL A   1     -27.543   0.849  25.079  0.00  0.00    +0.234 C 
ATOM      7  C   UNL A   1     -26.354   0.576  25.777  0.00  0.00    +0.240 C 
ATOM      8  F   UNL A   1     -25.860  -0.681  25.795  0.00  0.00    -0.227 F 
BRANCH   3   9
ATOM      9  C   UNL A   1     -25.642   4.093  27.123  0.00  0.00    +0.262 C 
ATOM     10  N   UNL A   1     -25.614   5.252  26.449  0.00  0.00    -0.200 NA
ATOM     11  C   UNL A   1     -25.026   6.479  26.963  0.00  0.00    +0.139 C 
ATOM     12  O   UNL A   1     -25.143   3.966  28.243  0.00  0.00    -0.269 OA
ENDBRANCH   3   9
BRANCH   6  13
ATOM     13  O   UNL A   1     -28.193  -0.208  24.477  0.00  0.00    -0.459 OA
BRANCH  13  14
ATOM     14  C   UNL A   1     -29.460   0.005  23.866  0.00  0.00    +0.242 C 
BRANCH  14  15
ATOM     15  C   UNL A   1     -30.065  -1.377  23.573  0.00  0.00    +0.229 C 
ATOM     16  O   UNL A   1     -30.729  -1.878  24.721  0.00  0.00    -0.216 OA
ENDBRANCH  14  15
ENDBRANCH  13  14
ENDBRANCH   6  13
ENDBRANCH   1   2
BRANCH   1  17
ATOM     17  C   UNL A   1     -25.058   1.181  28.950  0.00  0.00    +0.107 C 
BRANCH  17  19
ATOM     18  O   UNL A   1     -26.883  -0.369  28.804  0.00  0.00    -0.221 OA
ATOM     19  C   UNL A   1     -25.555  -0.195  29.055  0.00  0.00    +0.173 C 
BRANCH  19  20
ATOM     20  C   UNL A   1     -24.855  -1.012  30.143  0.00  0.00    +0.070 C 
BRANCH  20  21
ATOM     21  C   UNL A   1     -24.973  -2.505  29.788  0.00  0.00    -0.019 C 
ATOM     22  C   UNL A   1     -23.906  -3.173  29.146  0.00  0.00    -0.004 C 
ATOM     23  C   UNL A   1     -23.989  -4.549  28.853  0.00  0.00    -0.000 C 
ATOM     24  C   UNL A   1     -25.137  -5.280  29.205  0.00  0.00    -0.000 C 
ATOM     25  C   UNL A   1     -26.232  -4.611  29.784  0.00  0.00    -0.000 C 
ATOM     26  C   UNL A   1     -26.155  -3.232  30.065  0.00  0.00    -0.004 C 
ENDBRANCH  20  21
BRANCH  20  27
ATOM     27  C   UNL A   1     -25.387  -0.679  31.571  0.00  0.00    +0.079 C 
ATOM     28  C   UNL A   1     -25.189   0.773  32.028  0.00  0.00    +0.019 C 
ATOM     29  C   UNL A   1     -25.336   0.684  33.544  0.00  0.00    +0.020 C 
ATOM     30  C   UNL A   1     -24.829  -0.715  33.905  0.00  0.00    +0.089 C 
ATOM     31  N   UNL A   1     -24.758  -1.481  32.646  0.00  0.00    -0.219 NA
ENDBRANCH  20  27
ENDBRANCH  19  20
ENDBRANCH  17  19
BRANCH  17  32
ATOM     32  N   UNL A   1     -26.069   2.066  29.352  0.00  0.00    -0.215 NA
BRANCH  32  33
ATOM     33  C   UNL A   1     -27.289   2.504  29.942  0.00  0.00    +0.109 C 
BRANCH  33  35
ATOM     34  N   UNL A   1     -26.029   4.673  30.689  0.00  0.00    -0.130 NA
ATOM     35  C   UNL A   1     -27.332   3.993  30.363  0.00  0.00    +0.128 C 
ENDBRANCH  33  35
ENDBRANCH  32  33
ENDBRANCH  17  32
ENDBRANCH   1  17
BRANCH   1  36
ATOM     36  C   UNL A   1     -23.152   1.379  27.365  0.00  0.00    +0.196 C 
BRANCH  36  38
ATOM     37  N   UNL A   1     -22.489   0.230  29.394  0.00  0.00    -0.086 NA
ATOM     38  C   UNL A   1     -22.131   0.819  28.256  0.00  0.00    +0.288 C 
ATOM     39  O   UNL A   1     -20.892   1.030  27.971  0.00  0.00    -0.269 OA
ENDBRANCH  36  38
BRANCH  36  41
ATOM     40  C   UNL A   1     -22.990   2.527  25.184  0.00  0.00    +0.175 C 
ATOM     41  O   UNL A   1     -22.419   1.704  26.226  0.00  0.00    -0.344 OA
ENDBRANCH  36  41
ENDBRANCH   1  36
TORSDOF 16
