MODEL 818
MODEL 1
REMARK VINA RESULT:    -6.458      0.000      0.000
REMARK INTER + INTRA:         -10.562
REMARK INTER:                  -9.478
REMARK INTRA:                  -1.084
REMARK UNBOUND:                -1.084
REMARK  Name = No_818-gen_results/8p0m/2024-11-27-11-27-31/
REMARK  8 active torsions:
REMARK  status: ('A' for Active; 'I' for Inactive)
REMARK    1  A    between atoms: C_1  and  O_13
REMARK    2  A    between atoms: C_4  and  C_5
REMARK    3  A    between atoms: O_13  and  C_14
REMARK    4  A    between atoms: C_18  and  C_21
REMARK    5  A    between atoms: C_21  and  C_23
REMARK    6  A    between atoms: C_23  and  C_24
REMARK    7  A    between atoms: C_24  and  C_25
REMARK    8  A    between atoms: C_25  and  C_26
REMARK                            x       y       z     vdW  Elec       q    Type
REMARK                         _______ _______ _______ _____ _____    ______ ____
ROOT
ATOM      1  C   UNL A   1     -25.238  -1.529  30.121  0.00  0.00    +0.142 A 
ATOM      2  C   UNL A   1     -26.051  -2.342  30.383  0.00  0.00    +0.038 A 
ATOM      3  C   UNL A   1     -25.972  -3.736  29.859  0.00  0.00    +0.015 A 
ATOM      4  C   UNL A   1     -24.816  -4.019  29.114  0.00  0.00    +0.058 A 
ATOM      5  C   UNL A   1     -24.048  -1.796  29.362  0.00  0.00    +0.028 A 
ATOM      6  C   UNL A   1     -23.873  -3.064  28.862  0.00  0.00    +0.011 A 
ATOM      7 CL   UNL A   1     -24.611  -5.646  28.522  0.00  0.00    -0.082 Cl
ENDROOT
BRANCH   5   8
ATOM      8  C   UNL A   1     -23.044  -0.782  29.091  0.00  0.00    +0.105 C 
ATOM      9 CL   UNL A   1     -21.727  -0.585  29.767  0.00  0.00    -0.110 Cl
BRANCH   8  10
ATOM     10  C   UNL A   1     -23.345   0.102  27.980  0.00  0.00    +0.021 C 
BRANCH  10  11
ATOM     11  C   UNL A   1     -23.059   1.477  28.113  0.00  0.00    +0.006 C 
BRANCH  11  12
ATOM     12  C   UNL A   1     -23.676   2.409  27.144  0.00  0.00    +0.026 C 
BRANCH  12  13
ATOM     13  C   UNL A   1     -23.407   2.208  25.764  0.00  0.00    -0.026 C 
ATOM     14  C   UNL A   1     -22.545   2.405  25.076  0.00  0.00    -0.005 C 
ENDBRANCH  12  13
ENDBRANCH  11  12
ENDBRANCH  10  11
ENDBRANCH   8  10
ENDBRANCH   5   8
BRANCH   1  15
ATOM     15  O   UNL A   1     -25.278  -0.315  30.623  0.00  0.00    -0.452 OA
BRANCH  15  16
ATOM     16  C   UNL A   1     -25.627  -0.072  31.992  0.00  0.00    +0.168 A 
ATOM     17  C   UNL A   1     -26.747   0.340  32.187  0.00  0.00    +0.120 A 
ATOM     18  C   UNL A   1     -27.275   0.566  33.458  0.00  0.00    +0.158 A 
ATOM     19  C   UNL A   1     -26.474   0.243  34.623  0.00  0.00    +0.086 A 
ATOM     20  C   UNL A   1     -24.766  -0.503  33.061  0.00  0.00    +0.093 A 
ATOM     21  C   UNL A   1     -25.186  -0.343  34.368  0.00  0.00    +0.021 A 
ATOM     22 CL   UNL A   1     -27.859   0.783  30.915  0.00  0.00    -0.077 Cl
ATOM     23 CL   UNL A   1     -23.249  -1.230  32.776  0.00  0.00    -0.079 Cl
ATOM     24  F   UNL A   1     -28.462   1.157  33.733  0.00  0.00    -0.203 F 
BRANCH  19  25
ATOM     25  C   UNL A   1     -26.860   0.374  35.932  0.00  0.00    +0.286 C 
ATOM     26  N   UNL A   1     -26.832  -0.694  36.704  0.00  0.00    -0.084 NA
ATOM     27  O   UNL A   1     -26.925   1.547  36.430  0.00  0.00    -0.267 OA
ENDBRANCH  19  25
ENDBRANCH  15  16
ENDBRANCH   1  15
TORSDOF 8
ENDMDL
ENDMDL
