REMARK  Name = outputs/IAG933/test6/raw/output_819_IAG933_linker_design_.xyz
REMARK  11 active torsions:
REMARK  status: ('A' for Active; 'I' for Inactive)
REMARK    1  A    between atoms: C_1  and  C_2
REMARK    2  A    between atoms: C_1  and  C_8
REMARK    3  A    between atoms: C_1  and  C_29
REMARK    4  A    between atoms: C_13  and  C_41
REMARK    5  A    between atoms: C_14  and  C_15
REMARK    6  A    between atoms: C_21  and  O_22
REMARK    7  A    between atoms: O_22  and  C_23
REMARK    8  A    between atoms: C_23  and  C_24
REMARK    9  A    between atoms: S_30  and  C_31
REMARK   10  A    between atoms: S_30  and  C_40
REMARK   11  A    between atoms: C_31  and  C_35
REMARK                            x       y       z     vdW  Elec       q    Type
REMARK                         _______ _______ _______ _____ _____    ______ ____
ROOT
ATOM      1  C   UNL A   1     -23.322   1.975  26.434  0.00  0.00    +0.186 C 
ATOM      2  C   UNL A   1     -24.208  -0.119  29.148  0.00  0.00    +0.034 C 
ATOM      3  O   UNL A   1     -23.377   2.621  25.429  0.00  0.00    -0.293 OA
ATOM      4  C   UNL A   1     -21.858  -0.857  29.703  0.00  0.00    +0.022 C 
ATOM      5  C   UNL A   1     -22.851  -0.069  28.994  0.00  0.00    -0.049 C 
ATOM      6  C   UNL A   1     -22.131   1.549  27.058  0.00  0.00    +0.190 C 
ATOM      7  C   UNL A   1     -20.704  -0.223  28.891  0.00  0.00    +0.011 C 
ATOM      8  C   UNL A   1     -24.632   1.380  28.833  0.00  0.00    +0.063 C 
ATOM      9  C   UNL A   1     -24.499   1.383  27.261  0.00  0.00    +0.095 C 
ATOM     10  O   UNL A   1     -20.791   1.764  26.334  0.00  0.00    -0.344 OA
ATOM     11  C   UNL A   1     -20.605   0.939  28.251  0.00  0.00    +0.050 C 
ATOM     12  C   UNL A   1     -19.788   1.516  27.538  0.00  0.00    +0.147 C 
ATOM     13  C   UNL A   1     -22.089   0.796  28.051  0.00  0.00    -0.016 C 
ENDROOT
BRANCH   9  14
ATOM     14  C   UNL A   1     -25.688   1.614  26.461  0.00  0.00    +0.024 C 
ATOM     15  C   UNL A   1     -26.250   2.920  26.395  0.00  0.00    +0.073 C 
ATOM     16  C   UNL A   1     -27.438   3.091  25.645  0.00  0.00    +0.106 C 
ATOM     17  N   UNL A   1     -28.075   2.089  25.003  0.00  0.00    -0.208 NA
ATOM     18  C   UNL A   1     -27.543   0.849  25.079  0.00  0.00    +0.253 C 
ATOM     19  C   UNL A   1     -26.354   0.576  25.777  0.00  0.00    +0.190 C 
ATOM     20  F   UNL A   1     -25.860  -0.681  25.795  0.00  0.00    -0.200 F 
BRANCH  15  21
ATOM     21  C   UNL A   1     -25.642   4.093  27.123  0.00  0.00    +0.266 C 
ATOM     22  N   UNL A   1     -25.614   5.252  26.449  0.00  0.00    -0.200 NA
ATOM     23  C   UNL A   1     -25.026   6.479  26.963  0.00  0.00    +0.139 C 
ATOM     24  O   UNL A   1     -25.143   3.966  28.243  0.00  0.00    -0.268 OA
ENDBRANCH  15  21
BRANCH  18  25
ATOM     25  O   UNL A   1     -28.193  -0.208  24.477  0.00  0.00    -0.456 OA
BRANCH  25  26
ATOM     26  C   UNL A   1     -29.460   0.005  23.866  0.00  0.00    +0.243 C 
BRANCH  26  27
ATOM     27  C   UNL A   1     -30.065  -1.377  23.573  0.00  0.00    +0.229 C 
ATOM     28  O   UNL A   1     -30.729  -1.878  24.721  0.00  0.00    -0.216 OA
ENDBRANCH  26  27
ENDBRANCH  25  26
ENDBRANCH  18  25
ENDBRANCH   9  14
BRANCH   2  29
ATOM     29  C   UNL A   1     -24.855  -1.012  30.143  0.00  0.00    +0.043 C 
BRANCH  29  30
ATOM     30  C   UNL A   1     -24.973  -2.505  29.788  0.00  0.00    -0.021 C 
ATOM     31  C   UNL A   1     -23.906  -3.173  29.146  0.00  0.00    -0.004 C 
ATOM     32  C   UNL A   1     -23.989  -4.549  28.853  0.00  0.00    -0.000 C 
ATOM     33  C   UNL A   1     -25.137  -5.280  29.205  0.00  0.00    -0.000 C 
ATOM     34  C   UNL A   1     -26.232  -4.611  29.784  0.00  0.00    -0.000 C 
ATOM     35  C   UNL A   1     -26.155  -3.232  30.065  0.00  0.00    -0.004 C 
ENDBRANCH  29  30
BRANCH  29  36
ATOM     36  C   UNL A   1     -25.387  -0.679  31.571  0.00  0.00    +0.077 C 
ATOM     37  C   UNL A   1     -25.189   0.773  32.028  0.00  0.00    +0.019 C 
ATOM     38  C   UNL A   1     -25.336   0.684  33.544  0.00  0.00    +0.020 C 
ATOM     39  C   UNL A   1     -24.829  -0.715  33.905  0.00  0.00    +0.089 C 
ATOM     40  N   UNL A   1     -24.758  -1.481  32.646  0.00  0.00    -0.219 NA
ENDBRANCH  29  36
ENDBRANCH   2  29
BRANCH   8  41
ATOM     41  S   UNL A   1     -24.109   2.363  30.442  0.00  0.00    -0.130 S 
BRANCH  41  42
ATOM     42  C   UNL A   1     -25.274   3.592  31.325  0.00  0.00    +0.146 C 
BRANCH  42  45
ATOM     43  O   UNL A   1     -27.420   4.197  32.162  0.00  0.00    -0.271 OA
ATOM     44  N   UNL A   1     -27.298   2.758  30.366  0.00  0.00    -0.087 NA
ATOM     45  C   UNL A   1     -26.791   3.507  31.364  0.00  0.00    +0.272 C 
ENDBRANCH  42  45
ENDBRANCH  41  42
ENDBRANCH   8  41
TORSDOF 11
