REMARK  Name = outputs/IAG933/test6/raw/output_8190_IAG933_linker_design_.xyz
REMARK  18 active torsions:
REMARK  status: ('A' for Active; 'I' for Inactive)
REMARK    1  A    between atoms: C_1  and  C_2
REMARK    2  A    between atoms: C_1  and  C_8
REMARK    3  A    between atoms: C_1  and  C_31
REMARK    4  A    between atoms: C_13  and  C_42
REMARK    5  A    between atoms: C_14  and  C_15
REMARK    6  A    between atoms: C_21  and  O_22
REMARK    7  A    between atoms: O_22  and  C_23
REMARK    8  A    between atoms: C_23  and  C_24
REMARK    9  A    between atoms: O_29  and  C_43
REMARK   10  A    between atoms: C_31  and  C_40
REMARK   11  A    between atoms: C_32  and  O_41
REMARK   12  A    between atoms: C_35  and  C_37
REMARK   13  A    between atoms: C_35  and  O_39
REMARK   14  A    between atoms: C_37  and  C_38
REMARK   15  A    between atoms: C_37  and  C_42
REMARK   16  A    between atoms: C_38  and  O_41
REMARK   17  A    between atoms: C_38  and  C_43
REMARK   18  A    between atoms: C_40  and  C_42
REMARK                            x       y       z     vdW  Elec       q    Type
REMARK                         _______ _______ _______ _____ _____    ______ ____
ROOT
ATOM      1  C   UNL A   1     -24.851   1.248  27.675  0.00  0.00    +0.046 C 
ENDROOT
BRANCH   1   2
ATOM      2  C   UNL A   1     -25.688   1.614  26.461  0.00  0.00    +0.073 C 
ATOM      3  C   UNL A   1     -26.250   2.920  26.395  0.00  0.00    +0.055 C 
ATOM      4  C   UNL A   1     -27.438   3.091  25.645  0.00  0.00    +0.102 C 
ATOM      5  N   UNL A   1     -28.075   2.089  25.003  0.00  0.00    -0.212 NA
ATOM      6  C   UNL A   1     -27.543   0.849  25.079  0.00  0.00    +0.234 C 
ATOM      7  C   UNL A   1     -26.354   0.576  25.777  0.00  0.00    +0.240 C 
ATOM      8  F   UNL A   1     -25.860  -0.681  25.795  0.00  0.00    -0.227 F 
BRANCH   3   9
ATOM      9  C   UNL A   1     -25.642   4.093  27.123  0.00  0.00    +0.262 C 
ATOM     10  N   UNL A   1     -25.614   5.252  26.449  0.00  0.00    -0.200 NA
ATOM     11  C   UNL A   1     -25.026   6.479  26.963  0.00  0.00    +0.139 C 
ATOM     12  O   UNL A   1     -25.143   3.966  28.243  0.00  0.00    -0.269 OA
ENDBRANCH   3   9
BRANCH   6  13
ATOM     13  O   UNL A   1     -28.193  -0.208  24.477  0.00  0.00    -0.459 OA
BRANCH  13  14
ATOM     14  C   UNL A   1     -29.460   0.005  23.866  0.00  0.00    +0.242 C 
BRANCH  14  15
ATOM     15  C   UNL A   1     -30.065  -1.377  23.573  0.00  0.00    +0.229 C 
ATOM     16  O   UNL A   1     -30.729  -1.878  24.721  0.00  0.00    -0.216 OA
ENDBRANCH  14  15
ENDBRANCH  13  14
ENDBRANCH   6  13
ENDBRANCH   1   2
BRANCH   1  18
ATOM     17  O   UNL A   1     -26.494   2.099  29.324  0.00  0.00    -0.220 OA
ATOM     18  C   UNL A   1     -25.336   1.305  29.000  0.00  0.00    +0.183 C 
BRANCH  18  19
ATOM     19  C   UNL A   1     -25.645  -0.058  29.344  0.00  0.00    +0.187 C 
ATOM     20  O   UNL A   1     -26.781  -0.497  28.683  0.00  0.00    -0.220 OA
BRANCH  19  21
ATOM     21  C   UNL A   1     -24.855  -1.012  30.143  0.00  0.00    +0.071 C 
BRANCH  21  22
ATOM     22  C   UNL A   1     -24.973  -2.505  29.788  0.00  0.00    -0.019 C 
ATOM     23  C   UNL A   1     -23.906  -3.173  29.146  0.00  0.00    -0.004 C 
ATOM     24  C   UNL A   1     -23.989  -4.549  28.853  0.00  0.00    -0.000 C 
ATOM     25  C   UNL A   1     -25.137  -5.280  29.205  0.00  0.00    -0.000 C 
ATOM     26  C   UNL A   1     -26.232  -4.611  29.784  0.00  0.00    -0.000 C 
ATOM     27  C   UNL A   1     -26.155  -3.232  30.065  0.00  0.00    -0.004 C 
ENDBRANCH  21  22
BRANCH  21  28
ATOM     28  C   UNL A   1     -25.387  -0.679  31.571  0.00  0.00    +0.079 C 
ATOM     29  C   UNL A   1     -25.189   0.773  32.028  0.00  0.00    +0.019 C 
ATOM     30  C   UNL A   1     -25.336   0.684  33.544  0.00  0.00    +0.020 C 
ATOM     31  C   UNL A   1     -24.829  -0.715  33.905  0.00  0.00    +0.089 C 
ATOM     32  N   UNL A   1     -24.758  -1.481  32.646  0.00  0.00    -0.219 NA
ENDBRANCH  21  28
ENDBRANCH  19  21
ENDBRANCH  18  19
ENDBRANCH   1  18
BRANCH   1  33
ATOM     33  C   UNL A   1     -23.417   0.858  27.573  0.00  0.00    +0.077 C 
BRANCH  33  34
ATOM     34  C   UNL A   1     -22.893  -0.188  28.670  0.00  0.00    +0.174 C 
BRANCH  34  36
ATOM     35  N   UNL A   1     -21.855  -0.449  28.976  0.00  0.00    +0.042 NA
ATOM     36  O   UNL A   1     -22.530  -0.148  29.342  0.00  0.00    -0.249 OA
ENDBRANCH  34  36
ENDBRANCH  33  34
BRANCH  33  37
ATOM     37  C   UNL A   1     -22.250   1.470  27.255  0.00  0.00    +0.201 C 
BRANCH  37  38
ATOM     38  O   UNL A   1     -21.564   1.703  25.913  0.00  0.00    -0.442 OA
BRANCH  38  40
ATOM     39  O   UNL A   1     -23.433   2.968  25.343  0.00  0.00    -0.237 OA
ATOM     40  C   UNL A   1     -22.475   2.245  25.030  0.00  0.00    +0.418 C 
ENDBRANCH  38  40
ENDBRANCH  37  38
BRANCH  37  41
ATOM     41  C   UNL A   1     -21.190   1.742  27.965  0.00  0.00    +0.186 C 
BRANCH  41  43
ATOM     42  C   UNL A   1     -20.441   0.098  28.417  0.00  0.00    +0.174 C 
ATOM     43  O   UNL A   1     -20.079   0.996  27.913  0.00  0.00    -0.347 OA
ENDBRANCH  41  43
ENDBRANCH  37  41
ENDBRANCH  33  37
ENDBRANCH   1  33
TORSDOF 18
