REMARK  Name = outputs/IAG933/test6/raw/output_8191_IAG933_linker_design_.xyz
REMARK  9 active torsions:
REMARK  status: ('A' for Active; 'I' for Inactive)
REMARK    1  A    between atoms: C_1  and  C_2
REMARK    2  A    between atoms: C_1  and  C_8
REMARK    3  A    between atoms: C_1  and  N_33
REMARK    4  A    between atoms: C_13  and  C_28
REMARK    5  A    between atoms: C_14  and  C_15
REMARK    6  A    between atoms: C_21  and  O_22
REMARK    7  A    between atoms: O_22  and  C_23
REMARK    8  A    between atoms: C_23  and  C_24
REMARK    9  A    between atoms: O_29  and  C_40
REMARK                            x       y       z     vdW  Elec       q    Type
REMARK                         _______ _______ _______ _____ _____    ______ ____
ROOT
ATOM      1  C   UNL A   1     -24.496   1.253  27.270  0.00  0.00    +0.126 C 
ATOM      2  F   UNL A   1     -20.994   2.209  27.365  0.00  0.00    -0.197 F 
ATOM      3  C   UNL A   1     -22.166   1.510  27.597  0.00  0.00    +0.225 C 
ATOM      4  O   UNL A   1     -27.533  -0.930  28.708  0.00  0.00    -0.220 OA
ATOM      5  N   UNL A   1     -25.452  -0.236  29.096  0.00  0.00    -0.120 N 
ATOM      6  C   UNL A   1     -22.143   0.505  28.467  0.00  0.00    +0.268 C 
ATOM      7  C   UNL A   1     -24.499   0.306  28.305  0.00  0.00    +0.335 C 
ATOM      8  C   UNL A   1     -26.782  -0.055  29.079  0.00  0.00    +0.435 C 
ATOM      9  N   UNL A   1     -27.233   1.102  29.585  0.00  0.00    -0.045 NA
ATOM     10  N   UNL A   1     -23.263  -0.145  28.708  0.00  0.00    -0.033 NA
ATOM     11  C   UNL A   1     -23.248   1.855  26.878  0.00  0.00    +0.227 C 
ENDROOT
BRANCH   1  12
ATOM     12  C   UNL A   1     -25.688   1.614  26.461  0.00  0.00    +0.048 C 
ATOM     13  C   UNL A   1     -26.250   2.920  26.395  0.00  0.00    +0.077 C 
ATOM     14  C   UNL A   1     -27.438   3.091  25.645  0.00  0.00    +0.107 C 
ATOM     15  N   UNL A   1     -28.075   2.089  25.003  0.00  0.00    -0.208 NA
ATOM     16  C   UNL A   1     -27.543   0.849  25.079  0.00  0.00    +0.253 C 
ATOM     17  C   UNL A   1     -26.354   0.576  25.777  0.00  0.00    +0.193 C 
ATOM     18  F   UNL A   1     -25.860  -0.681  25.795  0.00  0.00    -0.199 F 
BRANCH  13  19
ATOM     19  C   UNL A   1     -25.642   4.093  27.123  0.00  0.00    +0.266 C 
ATOM     20  N   UNL A   1     -25.614   5.252  26.449  0.00  0.00    -0.200 NA
ATOM     21  C   UNL A   1     -25.026   6.479  26.963  0.00  0.00    +0.139 C 
ATOM     22  O   UNL A   1     -25.143   3.966  28.243  0.00  0.00    -0.268 OA
ENDBRANCH  13  19
BRANCH  16  23
ATOM     23  O   UNL A   1     -28.193  -0.208  24.477  0.00  0.00    -0.456 OA
BRANCH  23  24
ATOM     24  C   UNL A   1     -29.460   0.005  23.866  0.00  0.00    +0.243 C 
BRANCH  24  25
ATOM     25  C   UNL A   1     -30.065  -1.377  23.573  0.00  0.00    +0.229 C 
ATOM     26  O   UNL A   1     -30.729  -1.878  24.721  0.00  0.00    -0.216 OA
ENDBRANCH  24  25
ENDBRANCH  23  24
ENDBRANCH  16  23
ENDBRANCH   1  12
BRANCH  11  27
ATOM     27  O   UNL A   1     -23.238   2.857  26.030  0.00  0.00    -0.289 OA
ATOM     28  F   UNL A   1     -22.567   2.143  25.307  0.00  0.00    +0.014 F 
ENDBRANCH  11  27
BRANCH   5  29
ATOM     29  C   UNL A   1     -24.855  -1.012  30.143  0.00  0.00    +0.208 C 
BRANCH  29  30
ATOM     30  C   UNL A   1     -24.973  -2.505  29.788  0.00  0.00    +0.022 C 
ATOM     31  C   UNL A   1     -23.906  -3.173  29.146  0.00  0.00    -0.000 C 
ATOM     32  C   UNL A   1     -23.989  -4.549  28.853  0.00  0.00    -0.000 C 
ATOM     33  C   UNL A   1     -25.137  -5.280  29.205  0.00  0.00    -0.000 C 
ATOM     34  C   UNL A   1     -26.232  -4.611  29.784  0.00  0.00    -0.000 C 
ATOM     35  C   UNL A   1     -26.155  -3.232  30.065  0.00  0.00    -0.000 C 
ENDBRANCH  29  30
BRANCH  29  36
ATOM     36  C   UNL A   1     -25.387  -0.679  31.571  0.00  0.00    +0.120 C 
ATOM     37  C   UNL A   1     -25.189   0.773  32.028  0.00  0.00    +0.023 C 
ATOM     38  C   UNL A   1     -25.336   0.684  33.544  0.00  0.00    +0.020 C 
ATOM     39  C   UNL A   1     -24.829  -0.715  33.905  0.00  0.00    +0.089 C 
ATOM     40  N   UNL A   1     -24.758  -1.481  32.646  0.00  0.00    -0.215 NA
ENDBRANCH  29  36
ENDBRANCH   5  29
TORSDOF 9
