REMARK  Name = outputs/IAG933/test6/raw/output_8197_IAG933_linker_design_.xyz
REMARK  12 active torsions:
REMARK  status: ('A' for Active; 'I' for Inactive)
REMARK    1  A    between atoms: C_1  and  C_2
REMARK    2  A    between atoms: C_1  and  C_8
REMARK    3  A    between atoms: C_1  and  S_37
REMARK    4  A    between atoms: C_13  and  C_40
REMARK    5  A    between atoms: C_14  and  C_15
REMARK    6  A    between atoms: C_21  and  O_22
REMARK    7  A    between atoms: O_22  and  C_23
REMARK    8  A    between atoms: C_23  and  C_24
REMARK    9  A    between atoms: C_31  and  S_37
REMARK   10  A    between atoms: C_33  and  S_37
REMARK   11  A    between atoms: C_33  and  C_38
REMARK   12  A    between atoms: C_33  and  C_40
REMARK                            x       y       z     vdW  Elec       q    Type
REMARK                         _______ _______ _______ _____ _____    ______ ____
ROOT
ATOM      1  S   UNL A   1     -25.529   0.067  29.022  0.00  0.00    -0.146 S 
ENDROOT
BRANCH   1   5
ATOM      2  C   UNL A   1     -29.771   3.370  29.702  0.00  0.00    +0.026 C 
ATOM      3  C   UNL A   1     -31.968   2.405  30.610  0.00  0.00    +0.005 C 
ATOM      4  C   UNL A   1     -29.467  -0.165  29.246  0.00  0.00    +0.192 C 
ATOM      5  C   UNL A   1     -27.106   0.499  29.253  0.00  0.00    +0.020 C 
ATOM      6  C   UNL A   1     -31.286   3.474  29.701  0.00  0.00    +0.005 C 
ATOM      7  O   UNL A   1     -29.873  -0.458  27.903  0.00  0.00    -0.287 OA
ATOM      8  C   UNL A   1     -29.075   2.058  29.648  0.00  0.00    -0.023 C 
ATOM      9  C   UNL A   1     -29.973   1.053  30.023  0.00  0.00    +0.013 C 
ATOM     10  C   UNL A   1     -28.098  -0.571  29.394  0.00  0.00    +0.047 C 
ATOM     11  C   UNL A   1     -27.643   1.876  29.323  0.00  0.00    +0.001 C 
ATOM     12  C   UNL A   1     -30.836   1.508  31.184  0.00  0.00    +0.029 C 
ENDBRANCH   1   5
BRANCH   1  13
ATOM     13  C   UNL A   1     -24.855  -1.012  30.143  0.00  0.00    +0.081 C 
BRANCH  13  14
ATOM     14  C   UNL A   1     -24.973  -2.505  29.788  0.00  0.00    -0.012 C 
ATOM     15  C   UNL A   1     -23.906  -3.173  29.146  0.00  0.00    -0.003 C 
ATOM     16  C   UNL A   1     -23.989  -4.549  28.853  0.00  0.00    -0.000 C 
ATOM     17  C   UNL A   1     -25.137  -5.280  29.205  0.00  0.00    -0.000 C 
ATOM     18  C   UNL A   1     -26.232  -4.611  29.784  0.00  0.00    -0.000 C 
ATOM     19  C   UNL A   1     -26.155  -3.232  30.065  0.00  0.00    -0.003 C 
ENDBRANCH  13  14
BRANCH  13  20
ATOM     20  C   UNL A   1     -25.387  -0.679  31.571  0.00  0.00    +0.086 C 
ATOM     21  C   UNL A   1     -25.189   0.773  32.028  0.00  0.00    +0.020 C 
ATOM     22  C   UNL A   1     -25.336   0.684  33.544  0.00  0.00    +0.020 C 
ATOM     23  C   UNL A   1     -24.829  -0.715  33.905  0.00  0.00    +0.089 C 
ATOM     24  N   UNL A   1     -24.758  -1.481  32.646  0.00  0.00    -0.218 NA
ENDBRANCH  13  20
ENDBRANCH   1  13
BRANCH   1  25
ATOM     25  C   UNL A   1     -24.140   0.869  28.345  0.00  0.00    +0.101 C 
BRANCH  25  27
ATOM     26  C   UNL A   1     -21.442   1.354  27.555  0.00  0.00    +0.073 C 
ATOM     27  C   UNL A   1     -22.543   0.413  28.343  0.00  0.00    +0.160 C 
ATOM     28  O   UNL A   1     -22.282  -0.511  29.011  0.00  0.00    -0.295 OA
ENDBRANCH  25  27
BRANCH  25  29
ATOM     29  C   UNL A   1     -24.224   1.417  26.914  0.00  0.00    +0.026 C 
BRANCH  29  30
ATOM     30  C   UNL A   1     -25.688   1.614  26.461  0.00  0.00    +0.071 C 
ATOM     31  C   UNL A   1     -26.250   2.920  26.395  0.00  0.00    +0.055 C 
ATOM     32  C   UNL A   1     -27.438   3.091  25.645  0.00  0.00    +0.102 C 
ATOM     33  N   UNL A   1     -28.075   2.089  25.003  0.00  0.00    -0.212 NA
ATOM     34  C   UNL A   1     -27.543   0.849  25.079  0.00  0.00    +0.234 C 
ATOM     35  C   UNL A   1     -26.354   0.576  25.777  0.00  0.00    +0.240 C 
ATOM     36  F   UNL A   1     -25.860  -0.681  25.795  0.00  0.00    -0.227 F 
BRANCH  31  37
ATOM     37  C   UNL A   1     -25.642   4.093  27.123  0.00  0.00    +0.262 C 
ATOM     38  N   UNL A   1     -25.614   5.252  26.449  0.00  0.00    -0.200 NA
ATOM     39  C   UNL A   1     -25.026   6.479  26.963  0.00  0.00    +0.139 C 
ATOM     40  O   UNL A   1     -25.143   3.966  28.243  0.00  0.00    -0.269 OA
ENDBRANCH  31  37
BRANCH  34  41
ATOM     41  O   UNL A   1     -28.193  -0.208  24.477  0.00  0.00    -0.459 OA
BRANCH  41  42
ATOM     42  C   UNL A   1     -29.460   0.005  23.866  0.00  0.00    +0.242 C 
BRANCH  42  43
ATOM     43  C   UNL A   1     -30.065  -1.377  23.573  0.00  0.00    +0.229 C 
ATOM     44  O   UNL A   1     -30.729  -1.878  24.721  0.00  0.00    -0.216 OA
ENDBRANCH  42  43
ENDBRANCH  41  42
ENDBRANCH  34  41
ENDBRANCH  29  30
ENDBRANCH  25  29
ENDBRANCH   1  25
TORSDOF 12
