MODEL 819
MODEL 1
REMARK VINA RESULT:    -5.273      0.000      0.000
REMARK INTER + INTRA:          -6.248
REMARK INTER:                  -5.889
REMARK INTRA:                  -0.358
REMARK UNBOUND:                -0.358
REMARK  Name = No_819-gen_results/8p0m/2024-11-27-11-27-31/
REMARK  2 active torsions:
REMARK  status: ('A' for Active; 'I' for Inactive)
REMARK    1  A    between atoms: C_3  and  C_4
REMARK    2  A    between atoms: C_4  and  C_8
REMARK                            x       y       z     vdW  Elec       q    Type
REMARK                         _______ _______ _______ _____ _____    ______ ____
ROOT
ATOM      1  C   UNL A   1     -26.359  -4.211  29.721  0.00  0.00    -0.000 A 
ATOM      2  C   UNL A   1     -26.012  -3.053  29.717  0.00  0.00    -0.004 A 
ATOM      3  C   UNL A   1     -24.807  -2.666  29.140  0.00  0.00    -0.018 A 
ATOM      4  C   UNL A   1     -25.414  -5.261  29.333  0.00  0.00    -0.000 A 
ATOM      5  C   UNL A   1     -24.248  -4.972  28.669  0.00  0.00    -0.000 A 
ATOM      6  C   UNL A   1     -23.892  -3.625  28.563  0.00  0.00    -0.004 A 
ENDROOT
BRANCH   3   7
ATOM      7  C   UNL A   1     -24.388  -1.313  29.044  0.00  0.00    +0.052 C 
BRANCH   7   8
ATOM      8  C   UNL A   1     -23.093  -0.918  29.090  0.00  0.00    -0.026 C 
ATOM      9  C   UNL A   1     -22.459  -0.600  30.318  0.00  0.00    -0.030 C 
ATOM     10  C   UNL A   1     -23.088  -0.721  31.542  0.00  0.00    +0.030 C 
ENDBRANCH   7   8
ENDBRANCH   3   7
TORSDOF 2
ENDMDL
ENDMDL
