MODEL 81
MODEL 1
REMARK VINA RESULT:    -4.330      0.000      0.000
REMARK INTER + INTRA:          -4.330
REMARK INTER:                  -4.330
REMARK INTRA:                   0.000
REMARK UNBOUND:                 0.000
REMARK  Name = No_81-gen_results/8p0m/2024-11-27-11-27-31/
REMARK  0 active torsions:
REMARK  status: ('A' for Active; 'I' for Inactive)
REMARK                            x       y       z     vdW  Elec       q    Type
REMARK                         _______ _______ _______ _____ _____    ______ ____
ROOT
ATOM      1  C   UNL A   1     -26.233  -4.682  29.689  0.00  0.00    +0.011 A 
ATOM      2  C   UNL A   1     -26.164  -3.631  29.727  0.00  0.00    +0.058 A 
ATOM      3  C   UNL A   1     -25.093  -5.382  28.982  0.00  0.00    +0.001 A 
ATOM      4  C   UNL A   1     -23.976  -4.631  28.560  0.00  0.00    +0.000 A 
ATOM      5  C   UNL A   1     -25.121  -2.632  29.406  0.00  0.00    +0.011 A 
ATOM      6  C   UNL A   1     -24.053  -3.240  28.759  0.00  0.00    +0.001 A 
ATOM      7 CL   UNL A   1     -27.474  -2.703  30.658  0.00  0.00    -0.082 Cl
ENDROOT
TORSDOF 0
ENDMDL
ENDMDL
