REMARK  Name = outputs/IAG933/test6/raw/output_82_IAG933_linker_design_.xyz
REMARK  11 active torsions:
REMARK  status: ('A' for Active; 'I' for Inactive)
REMARK    1  A    between atoms: C_1  and  C_2
REMARK    2  A    between atoms: C_1  and  C_8
REMARK    3  A    between atoms: C_1  and  C_30
REMARK    4  A    between atoms: C_13  and  C_32
REMARK    5  A    between atoms: C_14  and  C_15
REMARK    6  A    between atoms: C_21  and  O_22
REMARK    7  A    between atoms: O_22  and  C_23
REMARK    8  A    between atoms: C_23  and  C_24
REMARK    9  A    between atoms: N_29  and  C_41
REMARK   10  A    between atoms: C_34  and  O_39
REMARK   11  A    between atoms: O_39  and  C_41
REMARK                            x       y       z     vdW  Elec       q    Type
REMARK                         _______ _______ _______ _____ _____    ______ ____
ROOT
ATOM      1  C   UNL A   1     -24.179  -0.121  29.131  0.00  0.00    +0.019 C 
ATOM      2  C   UNL A   1     -24.694   1.240  27.285  0.00  0.00    +0.049 C 
ATOM      3  C   UNL A   1     -22.421   0.904  27.781  0.00  0.00    +0.150 C 
ATOM      4  C   UNL A   1     -25.092   0.484  28.304  0.00  0.00    +0.138 C 
ATOM      5  F   UNL A   1     -21.126   1.160  27.542  0.00  0.00    -0.203 F 
ATOM      6 CL   UNL A   1     -23.030   2.201  25.433  0.00  0.00    -0.080 Cl
ATOM      7  C   UNL A   1     -23.386   1.420  26.934  0.00  0.00    +0.088 C 
ATOM      8  C   UNL A   1     -22.788   0.115  28.911  0.00  0.00    +0.030 C 
ENDROOT
BRANCH   2   9
ATOM      9  C   UNL A   1     -25.688   1.614  26.461  0.00  0.00    +0.042 C 
ATOM     10  C   UNL A   1     -26.250   2.920  26.395  0.00  0.00    +0.077 C 
ATOM     11  C   UNL A   1     -27.438   3.091  25.645  0.00  0.00    +0.107 C 
ATOM     12  N   UNL A   1     -28.075   2.089  25.003  0.00  0.00    -0.208 NA
ATOM     13  C   UNL A   1     -27.543   0.849  25.079  0.00  0.00    +0.253 C 
ATOM     14  C   UNL A   1     -26.354   0.576  25.777  0.00  0.00    +0.193 C 
ATOM     15  F   UNL A   1     -25.860  -0.681  25.795  0.00  0.00    -0.199 F 
BRANCH  10  16
ATOM     16  C   UNL A   1     -25.642   4.093  27.123  0.00  0.00    +0.266 C 
ATOM     17  N   UNL A   1     -25.614   5.252  26.449  0.00  0.00    -0.200 NA
ATOM     18  C   UNL A   1     -25.026   6.479  26.963  0.00  0.00    +0.139 C 
ATOM     19  O   UNL A   1     -25.143   3.966  28.243  0.00  0.00    -0.268 OA
ENDBRANCH  10  16
BRANCH  13  20
ATOM     20  O   UNL A   1     -28.193  -0.208  24.477  0.00  0.00    -0.456 OA
BRANCH  20  21
ATOM     21  C   UNL A   1     -29.460   0.005  23.866  0.00  0.00    +0.243 C 
BRANCH  21  22
ATOM     22  C   UNL A   1     -30.065  -1.377  23.573  0.00  0.00    +0.229 C 
ATOM     23  O   UNL A   1     -30.729  -1.878  24.721  0.00  0.00    -0.216 OA
ENDBRANCH  21  22
ENDBRANCH  20  21
ENDBRANCH  13  20
ENDBRANCH   2   9
BRANCH   1  24
ATOM     24  C   UNL A   1     -24.855  -1.012  30.143  0.00  0.00    +0.064 C 
BRANCH  24  25
ATOM     25  C   UNL A   1     -24.973  -2.505  29.788  0.00  0.00    -0.017 C 
ATOM     26  C   UNL A   1     -23.906  -3.173  29.146  0.00  0.00    -0.004 C 
ATOM     27  C   UNL A   1     -23.989  -4.549  28.853  0.00  0.00    -0.000 C 
ATOM     28  C   UNL A   1     -25.137  -5.280  29.205  0.00  0.00    -0.000 C 
ATOM     29  C   UNL A   1     -26.232  -4.611  29.784  0.00  0.00    -0.000 C 
ATOM     30  C   UNL A   1     -26.155  -3.232  30.065  0.00  0.00    -0.004 C 
ENDBRANCH  24  25
BRANCH  24  31
ATOM     31  C   UNL A   1     -25.387  -0.679  31.571  0.00  0.00    +0.081 C 
ATOM     32  C   UNL A   1     -25.189   0.773  32.028  0.00  0.00    +0.019 C 
ATOM     33  C   UNL A   1     -25.336   0.684  33.544  0.00  0.00    +0.020 C 
ATOM     34  C   UNL A   1     -24.829  -0.715  33.905  0.00  0.00    +0.089 C 
ATOM     35  N   UNL A   1     -24.758  -1.481  32.646  0.00  0.00    -0.219 NA
ENDBRANCH  24  31
ENDBRANCH   1  24
BRANCH   4  36
ATOM     36  O   UNL A   1     -26.464   0.162  28.605  0.00  0.00    -0.455 OA
BRANCH  36  37
ATOM     37  C   UNL A   1     -27.112   1.286  29.284  0.00  0.00    +0.307 C 
BRANCH  37  39
ATOM     38  C   UNL A   1     -29.321   2.031  30.157  0.00  0.00    +0.097 C 
ATOM     39  N   UNL A   1     -28.477   1.248  29.288  0.00  0.00    -0.243 N 
ATOM     40  C   UNL A   1     -30.489   2.242  29.158  0.00  0.00    +0.031 C 
ATOM     41  C   UNL A   1     -30.452   0.880  28.505  0.00  0.00    +0.087 C 
ATOM     42  C   UNL A   1     -29.212   0.555  28.420  0.00  0.00    +0.228 C 
ATOM     43  O   UNL A   1     -28.857  -0.331  27.663  0.00  0.00    -0.275 OA
ENDBRANCH  37  39
ENDBRANCH  36  37
ENDBRANCH   4  36
TORSDOF 11
