REMARK  Name = outputs/IAG933/test6/raw/output_820_IAG933_linker_design_.xyz
REMARK  12 active torsions:
REMARK  status: ('A' for Active; 'I' for Inactive)
REMARK    1  A    between atoms: C_1  and  C_2
REMARK    2  A    between atoms: C_1  and  C_8
REMARK    3  A    between atoms: C_1  and  C_34
REMARK    4  A    between atoms: C_13  and  C_41
REMARK    5  A    between atoms: C_14  and  C_15
REMARK    6  A    between atoms: C_21  and  O_22
REMARK    7  A    between atoms: O_22  and  C_23
REMARK    8  A    between atoms: C_23  and  C_24
REMARK    9  A    between atoms: C_29  and  C_41
REMARK   10  A    between atoms: C_29  and  C_42
REMARK   11  A    between atoms: C_34  and  C_40
REMARK   12  A    between atoms: C_34  and  C_41
REMARK                            x       y       z     vdW  Elec       q    Type
REMARK                         _______ _______ _______ _____ _____    ______ ____
ROOT
ATOM      1  C   UNL A   1     -25.351  -0.096  28.832  0.00  0.00    +0.037 C 
ENDROOT
BRANCH   1   9
ATOM      2  O   UNL A   1     -27.296   1.276  29.389  0.00  0.00    -0.348 OA
ATOM      3  C   UNL A   1     -29.381  -1.329  29.937  0.00  0.00    +0.177 C 
ATOM      4  O   UNL A   1     -29.942  -0.414  30.219  0.00  0.00    -0.326 OA
ATOM      5  O   UNL A   1     -29.087  -0.074  28.122  0.00  0.00    -0.326 OA
ATOM      6  C   UNL A   1     -28.231  -0.983  28.758  0.00  0.00    +0.174 C 
ATOM      7  C   UNL A   1     -29.717   0.655  29.153  0.00  0.00    +0.266 C 
ATOM      8  C   UNL A   1     -28.643   1.538  29.720  0.00  0.00    +0.203 C 
ATOM      9  C   UNL A   1     -26.909   0.056  28.906  0.00  0.00    +0.145 C 
ENDBRANCH   1   9
BRANCH   1  10
ATOM     10  C   UNL A   1     -24.855  -1.012  30.143  0.00  0.00    +0.041 C 
BRANCH  10  11
ATOM     11  C   UNL A   1     -24.973  -2.505  29.788  0.00  0.00    -0.021 C 
ATOM     12  C   UNL A   1     -23.906  -3.173  29.146  0.00  0.00    -0.004 C 
ATOM     13  C   UNL A   1     -23.989  -4.549  28.853  0.00  0.00    -0.000 C 
ATOM     14  C   UNL A   1     -25.137  -5.280  29.205  0.00  0.00    -0.000 C 
ATOM     15  C   UNL A   1     -26.232  -4.611  29.784  0.00  0.00    -0.000 C 
ATOM     16  C   UNL A   1     -26.155  -3.232  30.065  0.00  0.00    -0.004 C 
ENDBRANCH  10  11
BRANCH  10  17
ATOM     17  C   UNL A   1     -25.387  -0.679  31.571  0.00  0.00    +0.077 C 
ATOM     18  C   UNL A   1     -25.189   0.773  32.028  0.00  0.00    +0.019 C 
ATOM     19  C   UNL A   1     -25.336   0.684  33.544  0.00  0.00    +0.020 C 
ATOM     20  C   UNL A   1     -24.829  -0.715  33.905  0.00  0.00    +0.089 C 
ATOM     21  N   UNL A   1     -24.758  -1.481  32.646  0.00  0.00    -0.219 NA
ENDBRANCH  10  17
ENDBRANCH   1  10
BRANCH   1  22
ATOM     22  C   UNL A   1     -24.968   1.148  27.860  0.00  0.00    +0.034 C 
BRANCH  22  23
ATOM     23  C   UNL A   1     -25.688   1.614  26.461  0.00  0.00    +0.072 C 
ATOM     24  C   UNL A   1     -26.250   2.920  26.395  0.00  0.00    +0.055 C 
ATOM     25  C   UNL A   1     -27.438   3.091  25.645  0.00  0.00    +0.102 C 
ATOM     26  N   UNL A   1     -28.075   2.089  25.003  0.00  0.00    -0.212 NA
ATOM     27  C   UNL A   1     -27.543   0.849  25.079  0.00  0.00    +0.234 C 
ATOM     28  C   UNL A   1     -26.354   0.576  25.777  0.00  0.00    +0.240 C 
ATOM     29  F   UNL A   1     -25.860  -0.681  25.795  0.00  0.00    -0.227 F 
BRANCH  24  30
ATOM     30  C   UNL A   1     -25.642   4.093  27.123  0.00  0.00    +0.262 C 
ATOM     31  N   UNL A   1     -25.614   5.252  26.449  0.00  0.00    -0.200 NA
ATOM     32  C   UNL A   1     -25.026   6.479  26.963  0.00  0.00    +0.139 C 
ATOM     33  O   UNL A   1     -25.143   3.966  28.243  0.00  0.00    -0.269 OA
ENDBRANCH  24  30
BRANCH  27  34
ATOM     34  O   UNL A   1     -28.193  -0.208  24.477  0.00  0.00    -0.459 OA
BRANCH  34  35
ATOM     35  C   UNL A   1     -29.460   0.005  23.866  0.00  0.00    +0.242 C 
BRANCH  35  36
ATOM     36  C   UNL A   1     -30.065  -1.377  23.573  0.00  0.00    +0.229 C 
ATOM     37  O   UNL A   1     -30.729  -1.878  24.721  0.00  0.00    -0.216 OA
ENDBRANCH  35  36
ENDBRANCH  34  35
ENDBRANCH  27  34
ENDBRANCH  22  23
BRANCH  22  38
ATOM     38  C   UNL A   1     -23.465   1.338  27.399  0.00  0.00    +0.160 C 
ATOM     39 CL   UNL A   1     -22.900   2.081  25.823  0.00  0.00    -0.105 Cl
BRANCH  38  42
ATOM     40  N   UNL A   1     -21.117   1.070  27.822  0.00  0.00    -0.087 NA
ATOM     41  O   UNL A   1     -22.560  -0.131  28.962  0.00  0.00    -0.270 OA
ATOM     42  C   UNL A   1     -22.352   0.714  28.107  0.00  0.00    +0.276 C 
ENDBRANCH  38  42
ENDBRANCH  22  38
ENDBRANCH   1  22
TORSDOF 12
