REMARK  Name = outputs/IAG933/test6/raw/output_8201_IAG933_linker_design_.xyz
REMARK  10 active torsions:
REMARK  status: ('A' for Active; 'I' for Inactive)
REMARK    1  A    between atoms: C_1  and  C_2
REMARK    2  A    between atoms: C_1  and  C_8
REMARK    3  A    between atoms: C_1  and  N_29
REMARK    4  A    between atoms: C_13  and  N_35
REMARK    5  A    between atoms: C_14  and  C_15
REMARK    6  A    between atoms: C_21  and  O_22
REMARK    7  A    between atoms: O_22  and  C_23
REMARK    8  A    between atoms: C_23  and  C_24
REMARK    9  A    between atoms: C_28  and  N_29
REMARK   10  A    between atoms: C_36  and  C_40
REMARK                            x       y       z     vdW  Elec       q    Type
REMARK                         _______ _______ _______ _____ _____    ______ ____
ROOT
ATOM      1  C   UNL A   1     -23.251   0.390  28.744  0.00  0.00    +0.172 C 
ATOM      2  C   UNL A   1     -23.170   1.736  26.427  0.00  0.00    +0.193 C 
ATOM      3  O   UNL A   1     -25.028  -0.772  27.668  0.00  0.00    -0.273 OA
ATOM      4  C   UNL A   1     -22.021   1.479  27.196  0.00  0.00    +0.202 C 
ATOM      5  N   UNL A   1     -24.412   1.322  26.927  0.00  0.00    -0.240 N 
ATOM      6  C   UNL A   1     -22.017   0.593  28.198  0.00  0.00    +0.105 C 
ATOM      7 CL   UNL A   1     -23.008   2.345  24.820  0.00  0.00    -0.089 Cl
ATOM      8  F   UNL A   1     -20.759   2.035  26.922  0.00  0.00    -0.234 F 
ATOM      9  C   UNL A   1     -24.369   0.322  27.890  0.00  0.00    +0.248 C 
ENDROOT
BRANCH   5  10
ATOM     10  C   UNL A   1     -25.688   1.614  26.461  0.00  0.00    +0.093 C 
ATOM     11  C   UNL A   1     -26.250   2.920  26.395  0.00  0.00    +0.090 C 
ATOM     12  C   UNL A   1     -27.438   3.091  25.645  0.00  0.00    +0.108 C 
ATOM     13  N   UNL A   1     -28.075   2.089  25.003  0.00  0.00    -0.208 NA
ATOM     14  C   UNL A   1     -27.543   0.849  25.079  0.00  0.00    +0.255 C 
ATOM     15  C   UNL A   1     -26.354   0.576  25.777  0.00  0.00    +0.207 C 
ATOM     16  F   UNL A   1     -25.860  -0.681  25.795  0.00  0.00    -0.198 F 
BRANCH  11  17
ATOM     17  C   UNL A   1     -25.642   4.093  27.123  0.00  0.00    +0.268 C 
ATOM     18  N   UNL A   1     -25.614   5.252  26.449  0.00  0.00    -0.200 NA
ATOM     19  C   UNL A   1     -25.026   6.479  26.963  0.00  0.00    +0.139 C 
ATOM     20  O   UNL A   1     -25.143   3.966  28.243  0.00  0.00    -0.268 OA
ENDBRANCH  11  17
BRANCH  14  21
ATOM     21  O   UNL A   1     -28.193  -0.208  24.477  0.00  0.00    -0.456 OA
BRANCH  21  22
ATOM     22  C   UNL A   1     -29.460   0.005  23.866  0.00  0.00    +0.243 C 
BRANCH  22  23
ATOM     23  C   UNL A   1     -30.065  -1.377  23.573  0.00  0.00    +0.229 C 
ATOM     24  O   UNL A   1     -30.729  -1.878  24.721  0.00  0.00    -0.216 OA
ENDBRANCH  22  23
ENDBRANCH  21  22
ENDBRANCH  14  21
ENDBRANCH   5  10
BRANCH   1  25
ATOM     25  N   UNL A   1     -23.518  -0.195  30.002  0.00  0.00    -0.121 NA
ATOM     26  O   UNL A   1     -22.792   0.536  30.932  0.00  0.00    -0.117 OA
BRANCH  25  27
ATOM     27  C   UNL A   1     -24.855  -1.012  30.143  0.00  0.00    +0.126 C 
BRANCH  27  28
ATOM     28  C   UNL A   1     -24.973  -2.505  29.788  0.00  0.00    -0.004 C 
ATOM     29  C   UNL A   1     -23.906  -3.173  29.146  0.00  0.00    -0.003 C 
ATOM     30  C   UNL A   1     -23.989  -4.549  28.853  0.00  0.00    -0.000 C 
ATOM     31  C   UNL A   1     -25.137  -5.280  29.205  0.00  0.00    -0.000 C 
ATOM     32  C   UNL A   1     -26.232  -4.611  29.784  0.00  0.00    -0.000 C 
ATOM     33  C   UNL A   1     -26.155  -3.232  30.065  0.00  0.00    -0.003 C 
ENDBRANCH  27  28
BRANCH  27  34
ATOM     34  C   UNL A   1     -25.387  -0.679  31.571  0.00  0.00    +0.094 C 
ATOM     35  C   UNL A   1     -25.189   0.773  32.028  0.00  0.00    +0.021 C 
ATOM     36  C   UNL A   1     -25.336   0.684  33.544  0.00  0.00    +0.020 C 
ATOM     37  C   UNL A   1     -24.829  -0.715  33.905  0.00  0.00    +0.089 C 
ATOM     38  N   UNL A   1     -24.758  -1.481  32.646  0.00  0.00    -0.218 NA
ENDBRANCH  27  34
ENDBRANCH  25  27
ENDBRANCH   1  25
BRANCH   6  40
ATOM     39  N   UNL A   1     -19.956  -0.221  28.017  0.00  0.00    -0.151 NA
ATOM     40  C   UNL A   1     -20.926  -0.191  28.510  0.00  0.00    +0.100 C 
ENDBRANCH   6  40
TORSDOF 10
