REMARK  Name = outputs/IAG933/test6/raw/output_8207_IAG933_linker_design_.xyz
REMARK  12 active torsions:
REMARK  status: ('A' for Active; 'I' for Inactive)
REMARK    1  A    between atoms: C_1  and  C_2
REMARK    2  A    between atoms: C_1  and  C_8
REMARK    3  A    between atoms: C_1  and  C_40
REMARK    4  A    between atoms: C_13  and  C_30
REMARK    5  A    between atoms: C_14  and  C_15
REMARK    6  A    between atoms: C_21  and  O_22
REMARK    7  A    between atoms: O_22  and  C_23
REMARK    8  A    between atoms: C_23  and  C_24
REMARK    9  A    between atoms: C_31  and  C_40
REMARK   10  A    between atoms: C_37  and  N_39
REMARK   11  A    between atoms: C_37  and  C_45
REMARK   12  A    between atoms: C_40  and  N_42
REMARK                            x       y       z     vdW  Elec       q    Type
REMARK                         _______ _______ _______ _____ _____    ______ ____
ROOT
ATOM      1  C   UNL A   1     -21.819   1.856  26.539  0.00  0.00    -0.010 C 
ATOM      2  C   UNL A   1     -21.626   0.652  28.706  0.00  0.00    -0.022 C 
ATOM      3  C   UNL A   1     -24.358   1.270  27.056  0.00  0.00    +0.010 C 
ATOM      4  C   UNL A   1     -24.188   0.552  28.326  0.00  0.00    -0.002 C 
ATOM      5  C   UNL A   1     -23.232   1.605  26.278  0.00  0.00    +0.053 C 
ATOM      6  C   UNL A   1     -21.062   1.469  27.555  0.00  0.00    +0.053 C 
ATOM      7  C   UNL A   1     -22.973   0.380  29.029  0.00  0.00    -0.007 C 
ATOM      8 CL   UNL A   1     -23.483   1.543  24.492  0.00  0.00    -0.083 Cl
ENDROOT
BRANCH   3   9
ATOM      9  C   UNL A   1     -25.688   1.614  26.461  0.00  0.00    +0.039 C 
ATOM     10  C   UNL A   1     -26.250   2.920  26.395  0.00  0.00    +0.077 C 
ATOM     11  C   UNL A   1     -27.438   3.091  25.645  0.00  0.00    +0.107 C 
ATOM     12  N   UNL A   1     -28.075   2.089  25.003  0.00  0.00    -0.208 NA
ATOM     13  C   UNL A   1     -27.543   0.849  25.079  0.00  0.00    +0.253 C 
ATOM     14  C   UNL A   1     -26.354   0.576  25.777  0.00  0.00    +0.193 C 
ATOM     15  F   UNL A   1     -25.860  -0.681  25.795  0.00  0.00    -0.199 F 
BRANCH  10  16
ATOM     16  C   UNL A   1     -25.642   4.093  27.123  0.00  0.00    +0.266 C 
ATOM     17  N   UNL A   1     -25.614   5.252  26.449  0.00  0.00    -0.200 NA
ATOM     18  C   UNL A   1     -25.026   6.479  26.963  0.00  0.00    +0.139 C 
ATOM     19  O   UNL A   1     -25.143   3.966  28.243  0.00  0.00    -0.268 OA
ENDBRANCH  10  16
BRANCH  13  20
ATOM     20  O   UNL A   1     -28.193  -0.208  24.477  0.00  0.00    -0.456 OA
BRANCH  20  21
ATOM     21  C   UNL A   1     -29.460   0.005  23.866  0.00  0.00    +0.243 C 
BRANCH  21  22
ATOM     22  C   UNL A   1     -30.065  -1.377  23.573  0.00  0.00    +0.229 C 
ATOM     23  O   UNL A   1     -30.729  -1.878  24.721  0.00  0.00    -0.216 OA
ENDBRANCH  21  22
ENDBRANCH  20  21
ENDBRANCH  13  20
ENDBRANCH   3   9
BRANCH   4  24
ATOM     24  C   UNL A   1     -25.343  -0.059  29.001  0.00  0.00    +0.124 C 
BRANCH  24  28
ATOM     25  C   UNL A   1     -27.886   0.003  28.851  0.00  0.00    +0.324 C 
ATOM     26  N   UNL A   1     -28.973   0.923  29.058  0.00  0.00    -0.260 N 
ATOM     27  O   UNL A   1     -28.030  -1.095  29.272  0.00  0.00    -0.251 OA
ATOM     28  N   UNL A   1     -26.597   0.228  28.327  0.00  0.00    -0.185 NA
ATOM     29  C   UNL A   1     -29.153   1.351  30.529  0.00  0.00    +0.117 C 
BRANCH  26  31
ATOM     30  C   UNL A   1     -31.489   1.181  28.932  0.00  0.00    +0.024 C 
ATOM     31  C   UNL A   1     -30.259   0.274  28.737  0.00  0.00    +0.110 C 
BRANCH  31  33
ATOM     32  O   UNL A   1     -31.345   0.369  26.569  0.00  0.00    -0.219 OA
ATOM     33  C   UNL A   1     -30.264  -0.195  27.302  0.00  0.00    +0.202 C 
ENDBRANCH  31  33
ENDBRANCH  26  31
ENDBRANCH  24  28
BRANCH  24  34
ATOM     34  C   UNL A   1     -24.855  -1.012  30.143  0.00  0.00    +0.062 C 
BRANCH  34  35
ATOM     35  C   UNL A   1     -24.973  -2.505  29.788  0.00  0.00    -0.019 C 
ATOM     36  C   UNL A   1     -23.906  -3.173  29.146  0.00  0.00    -0.004 C 
ATOM     37  C   UNL A   1     -23.989  -4.549  28.853  0.00  0.00    -0.000 C 
ATOM     38  C   UNL A   1     -25.137  -5.280  29.205  0.00  0.00    -0.000 C 
ATOM     39  C   UNL A   1     -26.232  -4.611  29.784  0.00  0.00    -0.000 C 
ATOM     40  C   UNL A   1     -26.155  -3.232  30.065  0.00  0.00    -0.004 C 
ENDBRANCH  34  35
BRANCH  34  41
ATOM     41  C   UNL A   1     -25.387  -0.679  31.571  0.00  0.00    +0.079 C 
ATOM     42  C   UNL A   1     -25.189   0.773  32.028  0.00  0.00    +0.019 C 
ATOM     43  C   UNL A   1     -25.336   0.684  33.544  0.00  0.00    +0.020 C 
ATOM     44  C   UNL A   1     -24.829  -0.715  33.905  0.00  0.00    +0.089 C 
ATOM     45  N   UNL A   1     -24.758  -1.481  32.646  0.00  0.00    -0.219 NA
ENDBRANCH  34  41
ENDBRANCH  24  34
ENDBRANCH   4  24
TORSDOF 12
