REMARK  Name = outputs/IAG933/test6/raw/output_8208_IAG933_linker_design_.xyz
REMARK  15 active torsions:
REMARK  status: ('A' for Active; 'I' for Inactive)
REMARK    1  A    between atoms: C_1  and  C_2
REMARK    2  A    between atoms: C_1  and  C_8
REMARK    3  A    between atoms: C_1  and  N_28
REMARK    4  A    between atoms: C_13  and  C_29
REMARK    5  A    between atoms: C_14  and  C_15
REMARK    6  A    between atoms: C_21  and  O_22
REMARK    7  A    between atoms: O_22  and  C_23
REMARK    8  A    between atoms: C_23  and  C_24
REMARK    9  A    between atoms: N_28  and  C_34
REMARK   10  A    between atoms: C_29  and  O_30
REMARK   11  A    between atoms: C_29  and  C_34
REMARK   12  A    between atoms: O_30  and  C_38
REMARK   13  A    between atoms: C_32  and  C_36
REMARK   14  A    between atoms: C_35  and  C_36
REMARK   15  A    between atoms: C_35  and  C_38
REMARK                            x       y       z     vdW  Elec       q    Type
REMARK                         _______ _______ _______ _____ _____    ______ ____
ROOT
ATOM      1  C   UNL A   1     -24.555   1.338  27.366  0.00  0.00    +0.161 C 
ENDROOT
BRANCH   1   2
ATOM      2  C   UNL A   1     -25.688   1.614  26.461  0.00  0.00    +0.044 C 
ATOM      3  C   UNL A   1     -26.250   2.920  26.395  0.00  0.00    +0.075 C 
ATOM      4  C   UNL A   1     -27.438   3.091  25.645  0.00  0.00    +0.106 C 
ATOM      5  N   UNL A   1     -28.075   2.089  25.003  0.00  0.00    -0.208 NA
ATOM      6  C   UNL A   1     -27.543   0.849  25.079  0.00  0.00    +0.253 C 
ATOM      7  C   UNL A   1     -26.354   0.576  25.777  0.00  0.00    +0.191 C 
ATOM      8  F   UNL A   1     -25.860  -0.681  25.795  0.00  0.00    -0.200 F 
BRANCH   3   9
ATOM      9  C   UNL A   1     -25.642   4.093  27.123  0.00  0.00    +0.266 C 
ATOM     10  N   UNL A   1     -25.614   5.252  26.449  0.00  0.00    -0.200 NA
ATOM     11  C   UNL A   1     -25.026   6.479  26.963  0.00  0.00    +0.139 C 
ATOM     12  O   UNL A   1     -25.143   3.966  28.243  0.00  0.00    -0.268 OA
ENDBRANCH   3   9
BRANCH   6  13
ATOM     13  O   UNL A   1     -28.193  -0.208  24.477  0.00  0.00    -0.456 OA
BRANCH  13  14
ATOM     14  C   UNL A   1     -29.460   0.005  23.866  0.00  0.00    +0.243 C 
BRANCH  14  15
ATOM     15  C   UNL A   1     -30.065  -1.377  23.573  0.00  0.00    +0.229 C 
ATOM     16  O   UNL A   1     -30.729  -1.878  24.721  0.00  0.00    -0.216 OA
ENDBRANCH  14  15
ENDBRANCH  13  14
ENDBRANCH   6  13
ENDBRANCH   1   2
BRANCH   1  17
ATOM     17  O   UNL A   1     -23.592   0.963  26.460  0.00  0.00    -0.304 OA
BRANCH  17  20
ATOM     18  F   UNL A   1     -23.586   1.472  24.179  0.00  0.00    -0.177 F 
ATOM     19  O   UNL A   1     -23.561   3.287  25.714  0.00  0.00    -0.160 OA
ATOM     20  C   UNL A   1     -23.271   1.908  25.488  0.00  0.00    +0.361 C 
BRANCH  20  21
ATOM     21  C   UNL A   1     -21.707   1.705  25.743  0.00  0.00    +0.134 C 
BRANCH  21  22
ATOM     22  C   UNL A   1     -21.337   1.509  27.309  0.00  0.00    +0.198 C 
ATOM     23  F   UNL A   1     -19.921   1.647  27.407  0.00  0.00    -0.234 F 
BRANCH  22  24
ATOM     24  C   UNL A   1     -21.886   0.346  28.019  0.00  0.00    +0.177 C 
ATOM     25  O   UNL A   1     -22.213   0.299  29.232  0.00  0.00    -0.348 OA
ATOM     26  C   UNL A   1     -20.773  -0.242  28.965  0.00  0.00    +0.174 C 
ENDBRANCH  22  24
ENDBRANCH  21  22
ENDBRANCH  20  21
ENDBRANCH  17  20
ENDBRANCH   1  17
BRANCH   1  27
ATOM     27  C   UNL A   1     -24.849   1.048  28.780  0.00  0.00    +0.107 C 
BRANCH  27  28
ATOM     28  N   UNL A   1     -25.441  -0.158  29.142  0.00  0.00    -0.266 NA
ATOM     29  C   UNL A   1     -26.723  -0.512  28.482  0.00  0.00    +0.090 C 
BRANCH  28  30
ATOM     30  C   UNL A   1     -24.855  -1.012  30.143  0.00  0.00    +0.096 C 
BRANCH  30  31
ATOM     31  C   UNL A   1     -24.973  -2.505  29.788  0.00  0.00    -0.006 C 
ATOM     32  C   UNL A   1     -23.906  -3.173  29.146  0.00  0.00    -0.003 C 
ATOM     33  C   UNL A   1     -23.989  -4.549  28.853  0.00  0.00    -0.000 C 
ATOM     34  C   UNL A   1     -25.137  -5.280  29.205  0.00  0.00    -0.000 C 
ATOM     35  C   UNL A   1     -26.232  -4.611  29.784  0.00  0.00    -0.000 C 
ATOM     36  C   UNL A   1     -26.155  -3.232  30.065  0.00  0.00    -0.003 C 
ENDBRANCH  30  31
BRANCH  30  37
ATOM     37  C   UNL A   1     -25.387  -0.679  31.571  0.00  0.00    +0.092 C 
ATOM     38  C   UNL A   1     -25.189   0.773  32.028  0.00  0.00    +0.021 C 
ATOM     39  C   UNL A   1     -25.336   0.684  33.544  0.00  0.00    +0.020 C 
ATOM     40  C   UNL A   1     -24.829  -0.715  33.905  0.00  0.00    +0.089 C 
ATOM     41  N   UNL A   1     -24.758  -1.481  32.646  0.00  0.00    -0.218 NA
ENDBRANCH  30  37
ENDBRANCH  28  30
ENDBRANCH  27  28
ENDBRANCH   1  27
TORSDOF 15
