MODEL 820
MODEL 1
REMARK VINA RESULT:    -7.090      0.000      0.000
REMARK INTER + INTRA:          -7.906
REMARK INTER:                  -7.504
REMARK INTRA:                  -0.402
REMARK UNBOUND:                -0.402
REMARK  Name = No_820-gen_results/8p0m/2024-11-27-11-27-31/
REMARK  1 active torsions:
REMARK  status: ('A' for Active; 'I' for Inactive)
REMARK    1  A    between atoms: C_4  and  C_6
REMARK                            x       y       z     vdW  Elec       q    Type
REMARK                         _______ _______ _______ _____ _____    ______ ____
ROOT
ATOM      1  C   UNL A   1     -23.650   0.725  27.499  0.00  0.00    +0.059 A 
ATOM      2  C   UNL A   1     -22.723   0.844  27.984  0.00  0.00    +0.142 A 
ATOM      3  C   UNL A   1     -24.346  -0.596  27.744  0.00  0.00    +0.142 A 
ATOM      4  C   UNL A   1     -23.808  -1.497  28.686  0.00  0.00    +0.028 A 
ATOM      5  C   UNL A   1     -21.971   0.096  29.018  0.00  0.00    +0.030 A 
ATOM      6  C   UNL A   1     -22.609  -1.138  29.297  0.00  0.00    +0.004 A 
ATOM      7  F   UNL A   1     -22.020   2.094  27.719  0.00  0.00    -0.204 F 
ATOM      8  F   UNL A   1     -25.488  -0.864  27.178  0.00  0.00    -0.204 F 
ENDROOT
BRANCH   4   9
ATOM      9  C   UNL A   1     -24.411  -2.743  28.974  0.00  0.00    +0.002 A 
ATOM     10  C   UNL A   1     -24.040  -3.754  28.682  0.00  0.00    +0.000 A 
ATOM     11  C   UNL A   1     -24.673  -5.067  28.914  0.00  0.00    +0.000 A 
ATOM     12  C   UNL A   1     -25.871  -4.987  29.501  0.00  0.00    +0.000 A 
ATOM     13  C   UNL A   1     -25.700  -2.746  29.683  0.00  0.00    +0.000 A 
ATOM     14  C   UNL A   1     -26.411  -3.819  29.885  0.00  0.00    +0.000 A 
ENDBRANCH   4   9
TORSDOF 1
ENDMDL
ENDMDL
