REMARK  Name = No_821-gen_results/8p0m/2024-11-27-11-27-31/
REMARK  1 active torsions:
REMARK  status: ('A' for Active; 'I' for Inactive)
REMARK    1  A    between atoms: C_5  and  C_8
REMARK                            x       y       z     vdW  Elec       q    Type
REMARK                         _______ _______ _______ _____ _____    ______ ____
ROOT
ATOM      1  C   UNL A   1     -30.528   2.312  30.053  0.00  0.00    +0.065 C 
ATOM      2  C   UNL A   1     -30.423   2.819  31.261  0.00  0.00    +0.187 C 
ATOM      3  F   UNL A   1     -29.586   2.497  32.037  0.00  0.00    -0.235 F 
ATOM      4  C   UNL A   1     -31.428   3.746  31.718  0.00  0.00    +0.151 C 
ATOM      5  N   UNL A   1     -32.356   4.144  31.086  0.00  0.00    -0.203 NA
ATOM      6  C   UNL A   1     -31.522   2.659  29.131  0.00  0.00    +0.085 C 
ATOM      7  C   UNL A   1     -31.687   2.216  27.795  0.00  0.00    +0.010 C 
ATOM      8  C   UNL A   1     -32.474   3.700  29.628  0.00  0.00    +0.241 C 
ATOM      9  O   UNL A   1     -33.228   4.201  28.803  0.00  0.00    -0.273 OA
ENDROOT
BRANCH   1  14
ATOM     10  C   UNL A   1     -28.016  -0.814  28.878  0.00  0.00    +0.007 A 
ATOM     11  C   UNL A   1     -28.469  -0.785  29.829  0.00  0.00    +0.000 A 
ATOM     12  C   UNL A   1     -28.196   0.348  28.055  0.00  0.00    +0.034 A 
ATOM     13  C   UNL A   1     -29.019   1.350  28.378  0.00  0.00    +0.003 A 
ATOM     14  C   UNL A   1     -29.625   1.268  29.601  0.00  0.00    -0.019 A 
ATOM     15  C   UNL A   1     -29.382   0.182  30.400  0.00  0.00    -0.004 A 
ATOM     16 BR   UNL A   1     -27.264   0.383  26.366  0.00  0.00    -0.049 Br
ENDBRANCH   1  14
TORSDOF 1
