MODEL 821
MODEL 1
REMARK VINA RESULT:    -6.738      0.000      0.000
REMARK INTER + INTRA:          -7.520
REMARK INTER:                  -7.132
REMARK INTRA:                  -0.389
REMARK UNBOUND:                -0.389
REMARK  Name = No_821-gen_results/8p0m/2024-11-27-11-27-31/
REMARK  1 active torsions:
REMARK  status: ('A' for Active; 'I' for Inactive)
REMARK    1  A    between atoms: C_5  and  C_8
REMARK                            x       y       z     vdW  Elec       q    Type
REMARK                         _______ _______ _______ _____ _____    ______ ____
ROOT
ATOM      1  C   UNL A   1     -24.102  -1.028  29.112  0.00  0.00    +0.065 C 
ATOM      2  C   UNL A   1     -23.353  -0.548  30.079  0.00  0.00    +0.187 C 
ATOM      3  F   UNL A   1     -23.011  -1.184  31.021  0.00  0.00    -0.235 F 
ATOM      4  C   UNL A   1     -23.000   0.849  30.060  0.00  0.00    +0.151 C 
ATOM      5  N   UNL A   1     -23.294   1.636  29.216  0.00  0.00    -0.203 NA
ATOM      6  C   UNL A   1     -24.538  -0.290  28.006  0.00  0.00    +0.085 C 
ATOM      7  C   UNL A   1     -25.294  -0.726  26.889  0.00  0.00    +0.010 C 
ATOM      8  C   UNL A   1     -24.054   1.125  27.992  0.00  0.00    +0.241 C 
ATOM      9  O   UNL A   1     -24.217   1.757  26.955  0.00  0.00    -0.273 OA
ENDROOT
BRANCH   1  14
ATOM     10  C   UNL A   1     -25.359  -5.011  29.246  0.00  0.00    +0.007 A 
ATOM     11  C   UNL A   1     -24.445  -4.726  28.807  0.00  0.00    +0.000 A 
ATOM     12  C   UNL A   1     -26.217  -3.943  29.674  0.00  0.00    +0.034 A 
ATOM     13  C   UNL A   1     -25.838  -2.662  29.682  0.00  0.00    +0.003 A 
ATOM     14  C   UNL A   1     -24.603  -2.391  29.162  0.00  0.00    -0.019 A 
ATOM     15  C   UNL A   1     -23.830  -3.420  28.694  0.00  0.00    -0.004 A 
ATOM     16 BR   UNL A   1     -27.956  -4.430  30.353  0.00  0.00    -0.049 Br
ENDBRANCH   1  14
TORSDOF 1
ENDMDL
ENDMDL
