REMARK  Name = outputs/IAG933/test6/raw/output_8221_IAG933_linker_design_.xyz
REMARK  10 active torsions:
REMARK  status: ('A' for Active; 'I' for Inactive)
REMARK    1  A    between atoms: C_1  and  C_2
REMARK    2  A    between atoms: C_1  and  C_8
REMARK    3  A    between atoms: C_1  and  N_39
REMARK    4  A    between atoms: C_13  and  C_38
REMARK    5  A    between atoms: C_14  and  C_15
REMARK    6  A    between atoms: C_21  and  O_22
REMARK    7  A    between atoms: O_22  and  C_23
REMARK    8  A    between atoms: C_23  and  C_24
REMARK    9  A    between atoms: C_31  and  N_39
REMARK   10  A    between atoms: O_33  and  C_36
REMARK                            x       y       z     vdW  Elec       q    Type
REMARK                         _______ _______ _______ _____ _____    ______ ____
ROOT
ATOM      1  F   UNL A   1     -22.432  -0.316  29.568  0.00  0.00    -0.200 F 
ATOM      2  C   UNL A   1     -24.293   0.520  28.236  0.00  0.00    +0.087 C 
ATOM      3  C   UNL A   1     -21.977   1.299  27.818  0.00  0.00    +0.206 C 
ATOM      4  C   UNL A   1     -22.858   0.476  28.583  0.00  0.00    +0.184 C 
ATOM      5  C   UNL A   1     -22.294   1.708  26.544  0.00  0.00    +0.218 C 
ATOM      6  C   UNL A   1     -23.521   1.541  26.209  0.00  0.00    +0.045 C 
ATOM      7  C   UNL A   1     -24.522   1.251  27.047  0.00  0.00    +0.022 C 
ATOM      8  F   UNL A   1     -20.877   1.821  28.322  0.00  0.00    -0.198 F 
ENDROOT
BRANCH   7   9
ATOM      9  C   UNL A   1     -25.688   1.614  26.461  0.00  0.00    +0.040 C 
ATOM     10  C   UNL A   1     -26.250   2.920  26.395  0.00  0.00    +0.077 C 
ATOM     11  C   UNL A   1     -27.438   3.091  25.645  0.00  0.00    +0.107 C 
ATOM     12  N   UNL A   1     -28.075   2.089  25.003  0.00  0.00    -0.208 NA
ATOM     13  C   UNL A   1     -27.543   0.849  25.079  0.00  0.00    +0.253 C 
ATOM     14  C   UNL A   1     -26.354   0.576  25.777  0.00  0.00    +0.193 C 
ATOM     15  F   UNL A   1     -25.860  -0.681  25.795  0.00  0.00    -0.199 F 
BRANCH  10  16
ATOM     16  C   UNL A   1     -25.642   4.093  27.123  0.00  0.00    +0.266 C 
ATOM     17  N   UNL A   1     -25.614   5.252  26.449  0.00  0.00    -0.200 NA
ATOM     18  C   UNL A   1     -25.026   6.479  26.963  0.00  0.00    +0.139 C 
ATOM     19  O   UNL A   1     -25.143   3.966  28.243  0.00  0.00    -0.268 OA
ENDBRANCH  10  16
BRANCH  13  20
ATOM     20  O   UNL A   1     -28.193  -0.208  24.477  0.00  0.00    -0.456 OA
BRANCH  20  21
ATOM     21  C   UNL A   1     -29.460   0.005  23.866  0.00  0.00    +0.243 C 
BRANCH  21  22
ATOM     22  C   UNL A   1     -30.065  -1.377  23.573  0.00  0.00    +0.229 C 
ATOM     23  O   UNL A   1     -30.729  -1.878  24.721  0.00  0.00    -0.216 OA
ENDBRANCH  21  22
ENDBRANCH  20  21
ENDBRANCH  13  20
ENDBRANCH   7   9
BRANCH   2  26
ATOM     24  O   UNL A   1     -26.628   1.802  29.351  0.00  0.00    -0.222 OA
ATOM     25  C   UNL A   1     -26.545   0.571  29.180  0.00  0.00    +0.451 C 
ATOM     26  N   UNL A   1     -25.262   0.000  29.115  0.00  0.00    -0.216 N 
ATOM     27  O   UNL A   1     -27.528  -0.168  29.137  0.00  0.00    -0.222 OA
BRANCH  26  28
ATOM     28  C   UNL A   1     -24.855  -1.012  30.143  0.00  0.00    +0.121 C 
BRANCH  28  29
ATOM     29  C   UNL A   1     -24.973  -2.505  29.788  0.00  0.00    -0.003 C 
ATOM     30  C   UNL A   1     -23.906  -3.173  29.146  0.00  0.00    -0.003 C 
ATOM     31  C   UNL A   1     -23.989  -4.549  28.853  0.00  0.00    -0.000 C 
ATOM     32  C   UNL A   1     -25.137  -5.280  29.205  0.00  0.00    -0.000 C 
ATOM     33  C   UNL A   1     -26.232  -4.611  29.784  0.00  0.00    -0.000 C 
ATOM     34  C   UNL A   1     -26.155  -3.232  30.065  0.00  0.00    -0.003 C 
ENDBRANCH  28  29
BRANCH  28  35
ATOM     35  C   UNL A   1     -25.387  -0.679  31.571  0.00  0.00    +0.096 C 
ATOM     36  C   UNL A   1     -25.189   0.773  32.028  0.00  0.00    +0.021 C 
ATOM     37  C   UNL A   1     -25.336   0.684  33.544  0.00  0.00    +0.020 C 
ATOM     38  C   UNL A   1     -24.829  -0.715  33.905  0.00  0.00    +0.089 C 
ATOM     39  N   UNL A   1     -24.758  -1.481  32.646  0.00  0.00    -0.217 NA
ENDBRANCH  28  35
ENDBRANCH  26  28
ENDBRANCH   2  26
BRANCH   5  41
ATOM     40  F   UNL A   1     -22.304   2.865  24.720  0.00  0.00    +0.014 F 
ATOM     41  O   UNL A   1     -21.497   2.197  25.599  0.00  0.00    -0.289 OA
ENDBRANCH   5  41
TORSDOF 10
