REMARK  Name = outputs/IAG933/test6/raw/output_8225_IAG933_linker_design_.xyz
REMARK  13 active torsions:
REMARK  status: ('A' for Active; 'I' for Inactive)
REMARK    1  A    between atoms: C_1  and  C_2
REMARK    2  A    between atoms: C_13  and  N_29
REMARK    3  A    between atoms: C_14  and  C_15
REMARK    4  A    between atoms: C_21  and  O_22
REMARK    5  A    between atoms: O_22  and  C_23
REMARK    6  A    between atoms: C_23  and  C_24
REMARK    7  A    between atoms: C_28  and  C_31
REMARK    8  A    between atoms: C_28  and  N_36
REMARK    9  A    between atoms: C_30  and  C_33
REMARK   10  A    between atoms: C_30  and  C_39
REMARK   11  A    between atoms: C_32  and  C_33
REMARK   12  A    between atoms: C_33  and  C_34
REMARK   13  A    between atoms: O_35  and  N_36
REMARK                            x       y       z     vdW  Elec       q    Type
REMARK                         _______ _______ _______ _____ _____    ______ ____
ROOT
ATOM      1  C   UNL A   1     -22.608   0.449  29.115  0.00  0.00    +0.012 C 
ENDROOT
BRANCH   1   9
ATOM      2  C   UNL A   1     -24.855  -1.012  30.143  0.00  0.00    +0.038 C 
ATOM      3  C   UNL A   1     -25.387  -0.679  31.571  0.00  0.00    +0.077 C 
ATOM      4  C   UNL A   1     -25.189   0.773  32.028  0.00  0.00    +0.019 C 
ATOM      5  C   UNL A   1     -25.336   0.684  33.544  0.00  0.00    +0.020 C 
ATOM      6  C   UNL A   1     -24.829  -0.715  33.905  0.00  0.00    +0.089 C 
ATOM      7  N   UNL A   1     -24.758  -1.481  32.646  0.00  0.00    -0.219 NA
ATOM      8  C   UNL A   1     -24.267   1.496  31.015  0.00  0.00    +0.024 C 
ATOM      9  C   UNL A   1     -24.051   0.323  29.823  0.00  0.00    +0.008 C 
BRANCH   2  10
ATOM     10  C   UNL A   1     -24.973  -2.505  29.788  0.00  0.00    -0.021 C 
ATOM     11  C   UNL A   1     -23.906  -3.173  29.146  0.00  0.00    -0.004 C 
ATOM     12  C   UNL A   1     -23.989  -4.549  28.853  0.00  0.00    -0.000 C 
ATOM     13  C   UNL A   1     -25.137  -5.280  29.205  0.00  0.00    -0.000 C 
ATOM     14  C   UNL A   1     -26.232  -4.611  29.784  0.00  0.00    -0.000 C 
ATOM     15  C   UNL A   1     -26.155  -3.232  30.065  0.00  0.00    -0.004 C 
ENDBRANCH   2  10
BRANCH   8  16
ATOM     16  C   UNL A   1     -24.271   3.010  31.337  0.00  0.00    +0.124 C 
BRANCH  16  17
ATOM     17  N   UNL A   1     -25.434   3.723  32.022  0.00  0.00    -0.161 N 
ATOM     18  O   UNL A   1     -25.918   4.483  33.998  0.00  0.00    -0.263 OA
ATOM     19  C   UNL A   1     -25.285   3.947  33.129  0.00  0.00    +0.327 C 
BRANCH  17  20
ATOM     20  O   UNL A   1     -26.623   3.771  31.460  0.00  0.00    -0.260 OA
ATOM     21  C   UNL A   1     -27.741   3.856  32.373  0.00  0.00    +0.206 C 
ENDBRANCH  17  20
ENDBRANCH  16  17
ENDBRANCH   8  16
ENDBRANCH   1   9
BRANCH   1  22
ATOM     22  C   UNL A   1     -22.556   1.689  28.308  0.00  0.00    +0.111 C 
BRANCH  22  24
ATOM     23  N   UNL A   1     -24.709   1.290  27.303  0.00  0.00    -0.176 NA
ATOM     24  C   UNL A   1     -23.511   1.789  27.111  0.00  0.00    +0.248 C 
ATOM     25  O   UNL A   1     -23.201   2.341  26.076  0.00  0.00    -0.273 OA
BRANCH  23  26
ATOM     26  C   UNL A   1     -25.688   1.614  26.461  0.00  0.00    +0.111 C 
ATOM     27  C   UNL A   1     -26.250   2.920  26.395  0.00  0.00    +0.092 C 
ATOM     28  C   UNL A   1     -27.438   3.091  25.645  0.00  0.00    +0.108 C 
ATOM     29  N   UNL A   1     -28.075   2.089  25.003  0.00  0.00    -0.208 NA
ATOM     30  C   UNL A   1     -27.543   0.849  25.079  0.00  0.00    +0.255 C 
ATOM     31  C   UNL A   1     -26.354   0.576  25.777  0.00  0.00    +0.208 C 
ATOM     32  F   UNL A   1     -25.860  -0.681  25.795  0.00  0.00    -0.198 F 
BRANCH  27  33
ATOM     33  C   UNL A   1     -25.642   4.093  27.123  0.00  0.00    +0.268 C 
ATOM     34  N   UNL A   1     -25.614   5.252  26.449  0.00  0.00    -0.200 NA
ATOM     35  C   UNL A   1     -25.026   6.479  26.963  0.00  0.00    +0.139 C 
ATOM     36  O   UNL A   1     -25.143   3.966  28.243  0.00  0.00    -0.268 OA
ENDBRANCH  27  33
BRANCH  30  37
ATOM     37  O   UNL A   1     -28.193  -0.208  24.477  0.00  0.00    -0.456 OA
BRANCH  37  38
ATOM     38  C   UNL A   1     -29.460   0.005  23.866  0.00  0.00    +0.243 C 
BRANCH  38  39
ATOM     39  C   UNL A   1     -30.065  -1.377  23.573  0.00  0.00    +0.229 C 
ATOM     40  O   UNL A   1     -30.729  -1.878  24.721  0.00  0.00    -0.216 OA
ENDBRANCH  38  39
ENDBRANCH  37  38
ENDBRANCH  30  37
ENDBRANCH  23  26
ENDBRANCH  22  24
BRANCH  22  41
ATOM     41  C   UNL A   1     -21.081   2.013  27.754  0.00  0.00    +0.191 C 
ATOM     42  O   UNL A   1     -20.541   0.843  27.610  0.00  0.00    -0.220 OA
ENDBRANCH  22  41
ENDBRANCH   1  22
TORSDOF 13
