REMARK  Name = outputs/IAG933/test6/raw/output_8226_IAG933_linker_design_.xyz
REMARK  12 active torsions:
REMARK  status: ('A' for Active; 'I' for Inactive)
REMARK    1  A    between atoms: C_1  and  C_2
REMARK    2  A    between atoms: C_1  and  C_8
REMARK    3  A    between atoms: C_1  and  C_34
REMARK    4  A    between atoms: C_13  and  N_37
REMARK    5  A    between atoms: C_14  and  C_15
REMARK    6  A    between atoms: C_21  and  O_22
REMARK    7  A    between atoms: O_22  and  C_23
REMARK    8  A    between atoms: C_23  and  C_24
REMARK    9  A    between atoms: C_29  and  C_33
REMARK   10  A    between atoms: N_30  and  C_34
REMARK   11  A    between atoms: C_32  and  C_34
REMARK   12  A    between atoms: N_37  and  C_39
REMARK                            x       y       z     vdW  Elec       q    Type
REMARK                         _______ _______ _______ _____ _____    ______ ____
ROOT
ATOM      1  C   UNL A   1     -22.772   1.589  26.596  0.00  0.00    +0.095 C 
ATOM      2  C   UNL A   1     -22.275   0.292  29.008  0.00  0.00    -0.001 C 
ATOM      3  C   UNL A   1     -23.548   0.464  28.529  0.00  0.00    +0.013 C 
ATOM      4  C   UNL A   1     -21.213   0.747  28.227  0.00  0.00    +0.000 C 
ATOM      5  C   UNL A   1     -21.390   1.435  27.021  0.00  0.00    +0.008 C 
ATOM      6  C   UNL A   1     -23.721   1.083  27.404  0.00  0.00    +0.074 C 
ENDROOT
BRANCH   1   8
ATOM      7  O   UNL A   1     -23.346   3.520  25.422  0.00  0.00    -0.240 OA
ATOM      8  C   UNL A   1     -22.999   2.375  25.300  0.00  0.00    +0.389 C 
ATOM      9  O   UNL A   1     -22.740   1.806  24.212  0.00  0.00    -0.240 OA
ENDBRANCH   1   8
BRANCH   3  10
ATOM     10  C   UNL A   1     -24.960  -0.067  29.056  0.00  0.00    +0.128 C 
BRANCH  10  11
ATOM     11  N   UNL A   1     -26.405   0.025  28.583  0.00  0.00    -0.163 NA
ATOM     12  O   UNL A   1     -28.471   0.716  29.270  0.00  0.00    -0.221 OA
ATOM     13  O   UNL A   1     -28.188  -1.421  29.148  0.00  0.00    -0.221 OA
ATOM     14  C   UNL A   1     -27.788  -0.296  28.983  0.00  0.00    +0.463 C 
ENDBRANCH  10  11
BRANCH  10  15
ATOM     15  C   UNL A   1     -24.855  -1.012  30.143  0.00  0.00    +0.063 C 
BRANCH  15  16
ATOM     16  C   UNL A   1     -24.973  -2.505  29.788  0.00  0.00    -0.019 C 
ATOM     17  C   UNL A   1     -23.906  -3.173  29.146  0.00  0.00    -0.004 C 
ATOM     18  C   UNL A   1     -23.989  -4.549  28.853  0.00  0.00    -0.000 C 
ATOM     19  C   UNL A   1     -25.137  -5.280  29.205  0.00  0.00    -0.000 C 
ATOM     20  C   UNL A   1     -26.232  -4.611  29.784  0.00  0.00    -0.000 C 
ATOM     21  C   UNL A   1     -26.155  -3.232  30.065  0.00  0.00    -0.004 C 
ENDBRANCH  15  16
BRANCH  15  22
ATOM     22  C   UNL A   1     -25.387  -0.679  31.571  0.00  0.00    +0.079 C 
ATOM     23  C   UNL A   1     -25.189   0.773  32.028  0.00  0.00    +0.019 C 
ATOM     24  C   UNL A   1     -25.336   0.684  33.544  0.00  0.00    +0.020 C 
ATOM     25  C   UNL A   1     -24.829  -0.715  33.905  0.00  0.00    +0.089 C 
ATOM     26  N   UNL A   1     -24.758  -1.481  32.646  0.00  0.00    -0.219 NA
ENDBRANCH  15  22
ENDBRANCH  10  15
ENDBRANCH   3  10
BRANCH   6  27
ATOM     27  N   UNL A   1     -24.646   1.286  27.153  0.00  0.00    -0.210 NA
BRANCH  27  28
ATOM     28  C   UNL A   1     -25.688   1.614  26.461  0.00  0.00    +0.108 C 
ATOM     29  C   UNL A   1     -26.250   2.920  26.395  0.00  0.00    +0.092 C 
ATOM     30  C   UNL A   1     -27.438   3.091  25.645  0.00  0.00    +0.108 C 
ATOM     31  N   UNL A   1     -28.075   2.089  25.003  0.00  0.00    -0.208 NA
ATOM     32  C   UNL A   1     -27.543   0.849  25.079  0.00  0.00    +0.255 C 
ATOM     33  C   UNL A   1     -26.354   0.576  25.777  0.00  0.00    +0.208 C 
ATOM     34  F   UNL A   1     -25.860  -0.681  25.795  0.00  0.00    -0.198 F 
BRANCH  29  35
ATOM     35  C   UNL A   1     -25.642   4.093  27.123  0.00  0.00    +0.268 C 
ATOM     36  N   UNL A   1     -25.614   5.252  26.449  0.00  0.00    -0.200 NA
ATOM     37  C   UNL A   1     -25.026   6.479  26.963  0.00  0.00    +0.139 C 
ATOM     38  O   UNL A   1     -25.143   3.966  28.243  0.00  0.00    -0.268 OA
ENDBRANCH  29  35
BRANCH  32  39
ATOM     39  O   UNL A   1     -28.193  -0.208  24.477  0.00  0.00    -0.456 OA
BRANCH  39  40
ATOM     40  C   UNL A   1     -29.460   0.005  23.866  0.00  0.00    +0.243 C 
BRANCH  40  41
ATOM     41  C   UNL A   1     -30.065  -1.377  23.573  0.00  0.00    +0.229 C 
ATOM     42  O   UNL A   1     -30.729  -1.878  24.721  0.00  0.00    -0.216 OA
ENDBRANCH  40  41
ENDBRANCH  39  40
ENDBRANCH  32  39
ENDBRANCH  27  28
ENDBRANCH   6  27
TORSDOF 12
