REMARK  Name = outputs/IAG933/test6/raw/output_8228_IAG933_linker_design_.xyz
REMARK  12 active torsions:
REMARK  status: ('A' for Active; 'I' for Inactive)
REMARK    1  A    between atoms: C_1  and  C_2
REMARK    2  A    between atoms: C_1  and  C_8
REMARK    3  A    between atoms: C_1  and  C_38
REMARK    4  A    between atoms: C_13  and  C_37
REMARK    5  A    between atoms: C_14  and  C_15
REMARK    6  A    between atoms: C_21  and  O_22
REMARK    7  A    between atoms: O_22  and  C_23
REMARK    8  A    between atoms: C_23  and  C_24
REMARK    9  A    between atoms: C_29  and  C_32
REMARK   10  A    between atoms: C_32  and  C_34
REMARK   11  A    between atoms: C_33  and  C_38
REMARK   12  A    between atoms: C_38  and  N_42
REMARK                            x       y       z     vdW  Elec       q    Type
REMARK                         _______ _______ _______ _____ _____    ______ ____
ROOT
ATOM      1  O   UNL A   1     -22.424  -0.202  29.744  0.00  0.00    -0.284 OA
ATOM      2  C   UNL A   1     -22.025   2.019  26.880  0.00  0.00    +0.033 C 
ATOM      3  C   UNL A   1     -24.227   0.674  28.322  0.00  0.00    +0.039 C 
ATOM      4  C   UNL A   1     -22.828   0.494  28.741  0.00  0.00    +0.221 C 
ATOM      5  C   UNL A   1     -24.413   1.454  27.095  0.00  0.00    +0.003 C 
ATOM      6  C   UNL A   1     -23.329   2.119  26.394  0.00  0.00    +0.002 C 
ATOM      7  F   UNL A   1     -20.517   1.082  28.362  0.00  0.00    -0.201 F 
ATOM      8  C   UNL A   1     -21.788   1.187  27.988  0.00  0.00    +0.178 C 
ENDROOT
BRANCH   5   9
ATOM      9  C   UNL A   1     -25.688   1.614  26.461  0.00  0.00    +0.038 C 
ATOM     10  C   UNL A   1     -26.250   2.920  26.395  0.00  0.00    +0.076 C 
ATOM     11  C   UNL A   1     -27.438   3.091  25.645  0.00  0.00    +0.107 C 
ATOM     12  N   UNL A   1     -28.075   2.089  25.003  0.00  0.00    -0.208 NA
ATOM     13  C   UNL A   1     -27.543   0.849  25.079  0.00  0.00    +0.253 C 
ATOM     14  C   UNL A   1     -26.354   0.576  25.777  0.00  0.00    +0.193 C 
ATOM     15  F   UNL A   1     -25.860  -0.681  25.795  0.00  0.00    -0.199 F 
BRANCH  10  16
ATOM     16  C   UNL A   1     -25.642   4.093  27.123  0.00  0.00    +0.266 C 
ATOM     17  N   UNL A   1     -25.614   5.252  26.449  0.00  0.00    -0.200 NA
ATOM     18  C   UNL A   1     -25.026   6.479  26.963  0.00  0.00    +0.139 C 
ATOM     19  O   UNL A   1     -25.143   3.966  28.243  0.00  0.00    -0.268 OA
ENDBRANCH  10  16
BRANCH  13  20
ATOM     20  O   UNL A   1     -28.193  -0.208  24.477  0.00  0.00    -0.456 OA
BRANCH  20  21
ATOM     21  C   UNL A   1     -29.460   0.005  23.866  0.00  0.00    +0.243 C 
BRANCH  21  22
ATOM     22  C   UNL A   1     -30.065  -1.377  23.573  0.00  0.00    +0.229 C 
ATOM     23  O   UNL A   1     -30.729  -1.878  24.721  0.00  0.00    -0.216 OA
ENDBRANCH  21  22
ENDBRANCH  20  21
ENDBRANCH  13  20
ENDBRANCH   5   9
BRANCH   3  24
ATOM     24  C   UNL A   1     -25.393   0.090  29.113  0.00  0.00    +0.126 C 
BRANCH  24  27
ATOM     25  O   UNL A   1     -25.991   3.675  30.367  0.00  0.00    -0.273 OA
ATOM     26  C   UNL A   1     -26.704   2.735  30.008  0.00  0.00    +0.242 C 
ATOM     27  N   UNL A   1     -26.144   1.334  29.750  0.00  0.00    -0.202 NA
BRANCH  26  28
ATOM     28  C   UNL A   1     -28.177   2.882  29.731  0.00  0.00    +0.087 C 
BRANCH  28  29
ATOM     29  C   UNL A   1     -28.783   4.106  30.484  0.00  0.00    +0.009 C 
ATOM     30  C   UNL A   1     -28.742   3.776  31.986  0.00  0.00    +0.001 C 
ATOM     31  C   UNL A   1     -30.058   3.731  31.199  0.00  0.00    +0.001 C 
ENDBRANCH  28  29
ENDBRANCH  26  28
ENDBRANCH  24  27
BRANCH  24  32
ATOM     32  C   UNL A   1     -24.855  -1.012  30.143  0.00  0.00    +0.063 C 
BRANCH  32  33
ATOM     33  C   UNL A   1     -24.973  -2.505  29.788  0.00  0.00    -0.019 C 
ATOM     34  C   UNL A   1     -23.906  -3.173  29.146  0.00  0.00    -0.004 C 
ATOM     35  C   UNL A   1     -23.989  -4.549  28.853  0.00  0.00    -0.000 C 
ATOM     36  C   UNL A   1     -25.137  -5.280  29.205  0.00  0.00    -0.000 C 
ATOM     37  C   UNL A   1     -26.232  -4.611  29.784  0.00  0.00    -0.000 C 
ATOM     38  C   UNL A   1     -26.155  -3.232  30.065  0.00  0.00    -0.004 C 
ENDBRANCH  32  33
BRANCH  32  39
ATOM     39  C   UNL A   1     -25.387  -0.679  31.571  0.00  0.00    +0.079 C 
ATOM     40  C   UNL A   1     -25.189   0.773  32.028  0.00  0.00    +0.019 C 
ATOM     41  C   UNL A   1     -25.336   0.684  33.544  0.00  0.00    +0.020 C 
ATOM     42  C   UNL A   1     -24.829  -0.715  33.905  0.00  0.00    +0.089 C 
ATOM     43  N   UNL A   1     -24.758  -1.481  32.646  0.00  0.00    -0.219 NA
ENDBRANCH  32  39
ENDBRANCH  24  32
ENDBRANCH   3  24
TORSDOF 12
