MODEL 822
MODEL 1
REMARK VINA RESULT:    -7.537      0.000      0.000
REMARK INTER + INTRA:          -9.026
REMARK INTER:                  -8.859
REMARK INTRA:                  -0.167
REMARK UNBOUND:                -0.167
REMARK  Name = No_822-gen_results/8p0m/2024-11-27-11-27-31/
REMARK  3 active torsions:
REMARK  status: ('A' for Active; 'I' for Inactive)
REMARK    1  A    between atoms: C_3  and  O_14
REMARK    2  A    between atoms: C_4  and  C_10
REMARK    3  A    between atoms: O_14  and  C_15
REMARK                            x       y       z     vdW  Elec       q    Type
REMARK                         _______ _______ _______ _____ _____    ______ ____
ROOT
ATOM      1 CL   UNL A   1     -26.781  -0.250  28.162  0.00  0.00    -0.077 Cl
ATOM      2  C   UNL A   1     -25.376   0.069  28.093  0.00  0.00    +0.122 A 
ATOM      3  C   UNL A   1     -24.474  -0.323  28.729  0.00  0.00    +0.162 A 
ATOM      4  C   UNL A   1     -23.041   0.010  28.619  0.00  0.00    +0.109 A 
ATOM      5  C   UNL A   1     -22.704   0.877  27.557  0.00  0.00    +0.174 A 
ATOM      6  C   UNL A   1     -23.716   1.339  26.785  0.00  0.00    +0.196 A 
ATOM      7  C   UNL A   1     -24.982   0.968  26.965  0.00  0.00    +0.183 A 
ATOM      8  F   UNL A   1     -21.455   1.244  27.443  0.00  0.00    -0.202 F 
ATOM      9  F   UNL A   1     -25.932   1.428  26.144  0.00  0.00    -0.201 F 
ATOM     10  F   UNL A   1     -23.392   2.190  25.782  0.00  0.00    -0.199 F 
ENDROOT
BRANCH   4  11
ATOM     11  C   UNL A   1     -21.950  -0.499  29.509  0.00  0.00    +0.346 C 
ATOM     12  F   UNL A   1     -20.938  -0.869  28.883  0.00  0.00    -0.193 F 
ATOM     13  F   UNL A   1     -21.933  -0.214  30.670  0.00  0.00    -0.193 F 
ENDBRANCH   4  11
BRANCH   3  14
ATOM     14  O   UNL A   1     -24.674  -1.251  29.774  0.00  0.00    -0.453 OA
BRANCH  14  15
ATOM     15  C   UNL A   1     -24.881  -2.506  29.485  0.00  0.00    +0.145 A 
ATOM     16  C   UNL A   1     -23.882  -3.200  28.755  0.00  0.00    +0.037 A 
ATOM     17  C   UNL A   1     -24.048  -4.622  28.583  0.00  0.00    +0.003 A 
ATOM     18  C   UNL A   1     -25.250  -5.170  29.015  0.00  0.00    +0.000 A 
ATOM     19  C   UNL A   1     -26.204  -4.445  29.679  0.00  0.00    +0.003 A 
ATOM     20  C   UNL A   1     -25.993  -3.127  29.933  0.00  0.00    +0.037 A 
ENDBRANCH  14  15
ENDBRANCH   3  14
TORSDOF 3
ENDMDL
ENDMDL
