REMARK  Name = outputs/IAG933/test6/raw/output_8234_IAG933_linker_design_.xyz
REMARK  13 active torsions:
REMARK  status: ('A' for Active; 'I' for Inactive)
REMARK    1  A    between atoms: C_1  and  C_2
REMARK    2  A    between atoms: C_1  and  C_8
REMARK    3  A    between atoms: C_1  and  N_34
REMARK    4  A    between atoms: C_13  and  C_42
REMARK    5  A    between atoms: C_14  and  C_15
REMARK    6  A    between atoms: C_21  and  O_22
REMARK    7  A    between atoms: O_22  and  C_23
REMARK    8  A    between atoms: C_23  and  C_24
REMARK    9  A    between atoms: C_30  and  O_37
REMARK   10  A    between atoms: C_33  and  C_40
REMARK   11  A    between atoms: N_34  and  C_35
REMARK   12  A    between atoms: N_34  and  C_41
REMARK   13  A    between atoms: C_39  and  C_44
REMARK                            x       y       z     vdW  Elec       q    Type
REMARK                         _______ _______ _______ _____ _____    ______ ____
ROOT
ATOM      1  C   UNL A   1     -22.122   1.363  27.392  0.00  0.00    +0.211 C 
ATOM      2  C   UNL A   1     -24.731   0.127  28.155  0.00  0.00    +0.162 C 
ATOM      3  F   UNL A   1     -22.496   0.312  30.069  0.00  0.00    -0.219 F 
ATOM      4  C   UNL A   1     -22.409   0.330  28.510  0.00  0.00    +0.223 C 
ATOM      5  C   UNL A   1     -23.305   1.694  26.686  0.00  0.00    +0.145 C 
ATOM      6  C   UNL A   1     -24.590   1.175  27.076  0.00  0.00    +0.074 C 
ATOM      7  N   UNL A   1     -23.503  -0.186  28.399  0.00  0.00    -0.169 NA
ENDROOT
BRANCH   6   8
ATOM      8  C   UNL A   1     -25.688   1.614  26.461  0.00  0.00    +0.019 C 
ATOM      9  C   UNL A   1     -26.250   2.920  26.395  0.00  0.00    +0.073 C 
ATOM     10  C   UNL A   1     -27.438   3.091  25.645  0.00  0.00    +0.106 C 
ATOM     11  N   UNL A   1     -28.075   2.089  25.003  0.00  0.00    -0.208 NA
ATOM     12  C   UNL A   1     -27.543   0.849  25.079  0.00  0.00    +0.253 C 
ATOM     13  C   UNL A   1     -26.354   0.576  25.777  0.00  0.00    +0.189 C 
ATOM     14  F   UNL A   1     -25.860  -0.681  25.795  0.00  0.00    -0.200 F 
BRANCH   9  15
ATOM     15  C   UNL A   1     -25.642   4.093  27.123  0.00  0.00    +0.266 C 
ATOM     16  N   UNL A   1     -25.614   5.252  26.449  0.00  0.00    -0.200 NA
ATOM     17  C   UNL A   1     -25.026   6.479  26.963  0.00  0.00    +0.139 C 
ATOM     18  O   UNL A   1     -25.143   3.966  28.243  0.00  0.00    -0.268 OA
ENDBRANCH   9  15
BRANCH  12  19
ATOM     19  O   UNL A   1     -28.193  -0.208  24.477  0.00  0.00    -0.456 OA
BRANCH  19  20
ATOM     20  C   UNL A   1     -29.460   0.005  23.866  0.00  0.00    +0.243 C 
BRANCH  20  21
ATOM     21  C   UNL A   1     -30.065  -1.377  23.573  0.00  0.00    +0.229 C 
ATOM     22  O   UNL A   1     -30.729  -1.878  24.721  0.00  0.00    -0.216 OA
ENDBRANCH  20  21
ENDBRANCH  19  20
ENDBRANCH  12  19
ENDBRANCH   6   8
BRANCH   5  24
ATOM     23  O   UNL A   1     -21.945   2.805  25.124  0.00  0.00    -0.246 OA
ATOM     24  C   UNL A   1     -23.079   2.040  25.445  0.00  0.00    +0.367 C 
ATOM     25  O   UNL A   1     -24.015   1.978  24.505  0.00  0.00    -0.246 OA
ENDBRANCH   5  24
BRANCH   4  27
ATOM     26  C   UNL A   1     -20.019  -0.570  27.657  0.00  0.00    +0.004 C 
ATOM     27  C   UNL A   1     -20.957  -0.290  28.635  0.00  0.00    +0.052 C 
ENDBRANCH   4  27
BRANCH   1  29
ATOM     28  O   UNL A   1     -20.906   2.281  28.017  0.00  0.00    -0.035 OA
ATOM     29  O   UNL A   1     -20.798   1.595  27.141  0.00  0.00    -0.187 OA
ENDBRANCH   1  29
BRANCH   2  30
ATOM     30  N   UNL A   1     -25.671  -0.214  29.032  0.00  0.00    -0.250 N 
BRANCH  30  32
ATOM     31  C   UNL A   1     -27.863   1.055  28.871  0.00  0.00    +0.007 C 
ATOM     32  C   UNL A   1     -26.790   0.351  29.018  0.00  0.00    +0.015 C 
ENDBRANCH  30  32
BRANCH  30  33
ATOM     33  C   UNL A   1     -24.855  -1.012  30.143  0.00  0.00    +0.120 C 
BRANCH  33  34
ATOM     34  C   UNL A   1     -24.973  -2.505  29.788  0.00  0.00    -0.002 C 
ATOM     35  C   UNL A   1     -23.906  -3.173  29.146  0.00  0.00    -0.003 C 
ATOM     36  C   UNL A   1     -23.989  -4.549  28.853  0.00  0.00    -0.000 C 
ATOM     37  C   UNL A   1     -25.137  -5.280  29.205  0.00  0.00    -0.000 C 
ATOM     38  C   UNL A   1     -26.232  -4.611  29.784  0.00  0.00    -0.000 C 
ATOM     39  C   UNL A   1     -26.155  -3.232  30.065  0.00  0.00    -0.003 C 
ENDBRANCH  33  34
BRANCH  33  40
ATOM     40  C   UNL A   1     -25.387  -0.679  31.571  0.00  0.00    +0.096 C 
ATOM     41  C   UNL A   1     -25.189   0.773  32.028  0.00  0.00    +0.021 C 
ATOM     42  C   UNL A   1     -25.336   0.684  33.544  0.00  0.00    +0.020 C 
ATOM     43  C   UNL A   1     -24.829  -0.715  33.905  0.00  0.00    +0.089 C 
ATOM     44  N   UNL A   1     -24.758  -1.481  32.646  0.00  0.00    -0.217 NA
ENDBRANCH  33  40
ENDBRANCH  30  33
ENDBRANCH   2  30
TORSDOF 13
