REMARK  Name = outputs/IAG933/test6/raw/output_8237_IAG933_linker_design_.xyz
REMARK  16 active torsions:
REMARK  status: ('A' for Active; 'I' for Inactive)
REMARK    1  A    between atoms: C_1  and  C_2
REMARK    2  A    between atoms: C_1  and  C_8
REMARK    3  A    between atoms: C_1  and  C_38
REMARK    4  A    between atoms: C_13  and  C_34
REMARK    5  A    between atoms: C_14  and  C_15
REMARK    6  A    between atoms: C_21  and  O_22
REMARK    7  A    between atoms: O_22  and  C_23
REMARK    8  A    between atoms: C_23  and  C_24
REMARK    9  A    between atoms: C_30  and  C_36
REMARK   10  A    between atoms: C_32  and  C_38
REMARK   11  A    between atoms: C_32  and  O_44
REMARK   12  A    between atoms: C_34  and  O_44
REMARK   13  A    between atoms: C_36  and  C_41
REMARK   14  A    between atoms: C_38  and  C_45
REMARK   15  A    between atoms: C_39  and  S_48
REMARK   16  A    between atoms: C_45  and  S_48
REMARK                            x       y       z     vdW  Elec       q    Type
REMARK                         _______ _______ _______ _____ _____    ______ ____
ROOT
ATOM      1  C   UNL A   1     -24.651   0.220  29.213  0.00  0.00    +0.076 C 
ENDROOT
BRANCH   1   2
ATOM      2  C   UNL A   1     -23.297   0.813  28.605  0.00  0.00    +0.270 C 
ATOM      3  O   UNL A   1     -22.130   0.343  29.289  0.00  0.00    -0.190 OA
BRANCH   2   4
ATOM      4  O   UNL A   1     -23.171   0.698  27.197  0.00  0.00    -0.328 OA
BRANCH   4   5
ATOM      5  C   UNL A   1     -24.200   1.383  26.371  0.00  0.00    +0.153 C 
BRANCH   5   6
ATOM      6  C   UNL A   1     -25.688   1.614  26.461  0.00  0.00    +0.100 C 
ATOM      7  C   UNL A   1     -26.250   2.920  26.395  0.00  0.00    +0.057 C 
ATOM      8  C   UNL A   1     -27.438   3.091  25.645  0.00  0.00    +0.102 C 
ATOM      9  N   UNL A   1     -28.075   2.089  25.003  0.00  0.00    -0.212 NA
ATOM     10  C   UNL A   1     -27.543   0.849  25.079  0.00  0.00    +0.234 C 
ATOM     11  C   UNL A   1     -26.354   0.576  25.777  0.00  0.00    +0.242 C 
ATOM     12  F   UNL A   1     -25.860  -0.681  25.795  0.00  0.00    -0.227 F 
BRANCH   7  13
ATOM     13  C   UNL A   1     -25.642   4.093  27.123  0.00  0.00    +0.263 C 
ATOM     14  N   UNL A   1     -25.614   5.252  26.449  0.00  0.00    -0.200 NA
ATOM     15  C   UNL A   1     -25.026   6.479  26.963  0.00  0.00    +0.139 C 
ATOM     16  O   UNL A   1     -25.143   3.966  28.243  0.00  0.00    -0.269 OA
ENDBRANCH   7  13
BRANCH  10  17
ATOM     17  O   UNL A   1     -28.193  -0.208  24.477  0.00  0.00    -0.459 OA
BRANCH  17  18
ATOM     18  C   UNL A   1     -29.460   0.005  23.866  0.00  0.00    +0.242 C 
BRANCH  18  19
ATOM     19  C   UNL A   1     -30.065  -1.377  23.573  0.00  0.00    +0.229 C 
ATOM     20  O   UNL A   1     -30.729  -1.878  24.721  0.00  0.00    -0.216 OA
ENDBRANCH  18  19
ENDBRANCH  17  18
ENDBRANCH  10  17
ENDBRANCH   5   6
ENDBRANCH   4   5
ENDBRANCH   2   4
ENDBRANCH   1   2
BRANCH   1  21
ATOM     21  C   UNL A   1     -24.855  -1.012  30.143  0.00  0.00    +0.044 C 
BRANCH  21  22
ATOM     22  C   UNL A   1     -24.973  -2.505  29.788  0.00  0.00    -0.021 C 
ATOM     23  C   UNL A   1     -23.906  -3.173  29.146  0.00  0.00    -0.004 C 
ATOM     24  C   UNL A   1     -23.989  -4.549  28.853  0.00  0.00    -0.000 C 
ATOM     25  C   UNL A   1     -25.137  -5.280  29.205  0.00  0.00    -0.000 C 
ATOM     26  C   UNL A   1     -26.232  -4.611  29.784  0.00  0.00    -0.000 C 
ATOM     27  C   UNL A   1     -26.155  -3.232  30.065  0.00  0.00    -0.004 C 
ENDBRANCH  21  22
BRANCH  21  28
ATOM     28  C   UNL A   1     -25.387  -0.679  31.571  0.00  0.00    +0.077 C 
ATOM     29  C   UNL A   1     -25.189   0.773  32.028  0.00  0.00    +0.019 C 
ATOM     30  C   UNL A   1     -25.336   0.684  33.544  0.00  0.00    +0.020 C 
ATOM     31  C   UNL A   1     -24.829  -0.715  33.905  0.00  0.00    +0.089 C 
ATOM     32  N   UNL A   1     -24.758  -1.481  32.646  0.00  0.00    -0.219 NA
ENDBRANCH  21  28
ENDBRANCH   1  21
BRANCH   1  33
ATOM     33  C   UNL A   1     -25.950   0.189  28.347  0.00  0.00    +0.072 C 
BRANCH  33  34
ATOM     34  S   UNL A   1     -27.702  -0.588  28.555  0.00  0.00    -0.057 S 
BRANCH  34  39
ATOM     35  C   UNL A   1     -29.991   2.057  29.968  0.00  0.00    +0.189 C 
ATOM     36  C   UNL A   1     -28.988   0.560  32.455  0.00  0.00    +0.178 C 
ATOM     37  N   UNL A   1     -29.627   0.650  29.972  0.00  0.00    -0.258 N 
ATOM     38  O   UNL A   1     -29.895   4.057  31.467  0.00  0.00    -0.144 OA
ATOM     39  C   UNL A   1     -29.337   0.093  28.761  0.00  0.00    +0.277 C 
ATOM     40  O   UNL A   1     -30.101  -0.015  27.890  0.00  0.00    -0.263 OA
ATOM     41  C   UNL A   1     -29.494  -0.201  31.189  0.00  0.00    +0.110 C 
ATOM     42  S   UNL A   1     -30.328   2.672  31.308  0.00  0.00    +0.047 S 
ATOM     43  O   UNL A   1     -29.648   1.873  32.409  0.00  0.00    -0.291 OA
ATOM     44  C   UNL A   1     -31.956   2.833  31.670  0.00  0.00    +0.110 C 
BRANCH  41  46
ATOM     45  C   UNL A   1     -32.000  -0.785  31.832  0.00  0.00    +0.004 C 
ATOM     46  C   UNL A   1     -30.551  -1.259  31.651  0.00  0.00    +0.054 C 
BRANCH  46  47
ATOM     47  C   UNL A   1     -30.426  -2.470  30.774  0.00  0.00    +0.184 C 
ATOM     48  O   UNL A   1     -31.226  -2.303  29.640  0.00  0.00    -0.220 OA
ENDBRANCH  46  47
ENDBRANCH  41  46
ENDBRANCH  34  39
ENDBRANCH  33  34
ENDBRANCH   1  33
TORSDOF 16
