MODEL 823
MODEL 1
REMARK VINA RESULT:    -7.894      0.000      0.000
REMARK INTER + INTRA:         -12.045
REMARK INTER:                 -11.124
REMARK INTRA:                  -0.921
REMARK UNBOUND:                -0.921
REMARK  Name = No_823-gen_results/8p0m/2024-11-27-11-27-31/
REMARK  7 active torsions:
REMARK  status: ('A' for Active; 'I' for Inactive)
REMARK    1  A    between atoms: C_1  and  C_2
REMARK    2  A    between atoms: C_1  and  N_8
REMARK    3  A    between atoms: C_5  and  C_18
REMARK    4  A    between atoms: N_8  and  C_9
REMARK    5  A    between atoms: C_14  and  C_15
REMARK    6  A    between atoms: N_21  and  C_23
REMARK    7  A    between atoms: C_30  and  C_32
REMARK                            x       y       z     vdW  Elec       q    Type
REMARK                         _______ _______ _______ _____ _____    ______ ____
ROOT
ATOM      1  C   UNL A   1     -32.098   0.962  22.636  0.00  0.00    +0.063 C 
ATOM      2  C   UNL A   1     -31.054   1.267  23.030  0.00  0.00    +0.035 C 
ATOM      3  C   UNL A   1     -29.756   1.055  23.484  0.00  0.00    +0.020 A 
ATOM      4  C   UNL A   1     -29.136  -0.194  23.523  0.00  0.00    +0.002 A 
ATOM      5  C   UNL A   1     -27.826  -0.419  24.079  0.00  0.00    +0.005 A 
ATOM      6  C   UNL A   1     -27.204   0.753  24.565  0.00  0.00    +0.057 A 
ATOM      7  C   UNL A   1     -27.862   1.947  24.609  0.00  0.00    +0.024 A 
ATOM      8  C   UNL A   1     -29.086   2.099  24.157  0.00  0.00    +0.082 A 
ATOM      9  C   UNL A   1     -31.158   2.893  23.327  0.00  0.00    +0.100 C 
ATOM     10  N   UNL A   1     -29.919   3.260  23.954  0.00  0.00    -0.244 NA
ENDROOT
BRANCH   6  11
ATOM     11  C   UNL A   1     -25.867   0.618  25.127  0.00  0.00    +0.269 C 
ATOM     12  N   UNL A   1     -25.497   1.384  26.034  0.00  0.00    -0.175 NA
ATOM     13  O   UNL A   1     -25.015  -0.011  24.426  0.00  0.00    -0.268 OA
BRANCH  12  14
ATOM     14  C   UNL A   1     -24.151   1.321  26.642  0.00  0.00    +0.074 A 
ATOM     15  C   UNL A   1     -23.293   1.949  26.423  0.00  0.00    +0.017 A 
ATOM     16  C   UNL A   1     -21.969   1.818  27.071  0.00  0.00    +0.001 A 
ATOM     17  C   UNL A   1     -21.845   0.833  28.066  0.00  0.00    +0.004 A 
ATOM     18  C   UNL A   1     -22.963   0.051  28.307  0.00  0.00    +0.073 A 
ATOM     19  C   UNL A   1     -24.124   0.233  27.618  0.00  0.00    +0.021 A 
BRANCH  18  20
ATOM     20  C   UNL A   1     -22.879  -1.032  29.335  0.00  0.00    +0.419 C 
ATOM     21  F   UNL A   1     -22.736  -2.146  28.951  0.00  0.00    -0.166 F 
ATOM     22  F   UNL A   1     -21.880  -0.686  30.199  0.00  0.00    -0.166 F 
ATOM     23  F   UNL A   1     -24.043  -0.888  30.071  0.00  0.00    -0.166 F 
ENDBRANCH  18  20
ENDBRANCH  12  14
ENDBRANCH   6  11
BRANCH   1  24
ATOM     24  N   UNL A   1     -32.963   1.092  22.089  0.00  0.00    -0.301 N 
ATOM     25  C   UNL A   1     -34.276   1.251  22.886  0.00  0.00    +0.113 C 
BRANCH  24  26
ATOM     26  C   UNL A   1     -33.176   1.114  20.704  0.00  0.00    +0.118 C 
BRANCH  26  27
ATOM     27  C   UNL A   1     -33.510   2.173  20.225  0.00  0.00    -0.002 A 
ATOM     28  C   UNL A   1     -32.624   3.243  20.160  0.00  0.00    -0.002 A 
ATOM     29  C   UNL A   1     -32.917   4.596  19.605  0.00  0.00    +0.008 A 
ATOM     30  C   UNL A   1     -34.174   4.741  18.946  0.00  0.00    +0.098 A 
ATOM     31  C   UNL A   1     -35.033   3.624  18.971  0.00  0.00    +0.008 A 
ATOM     32  C   UNL A   1     -34.732   2.445  19.535  0.00  0.00    -0.002 A 
BRANCH  30  33
ATOM     33  C   UNL A   1     -34.487   6.032  18.376  0.00  0.00    +0.477 C 
ATOM     34  N   UNL A   1     -33.625   7.064  18.514  0.00  0.00    +0.205 NA
ATOM     35  N   UNL A   1     -35.467   6.079  17.461  0.00  0.00    +0.205 NA
ENDBRANCH  30  33
ENDBRANCH  26  27
ENDBRANCH  24  26
ENDBRANCH   1  24
TORSDOF 7
ENDMDL
ENDMDL
