REMARK  Name = outputs/IAG933/test6/raw/output_8248_IAG933_linker_design_.xyz
REMARK  9 active torsions:
REMARK  status: ('A' for Active; 'I' for Inactive)
REMARK    1  A    between atoms: C_1  and  C_2
REMARK    2  A    between atoms: C_1  and  C_8
REMARK    3  A    between atoms: C_1  and  C_40
REMARK    4  A    between atoms: C_14  and  C_15
REMARK    5  A    between atoms: C_31  and  O_56
REMARK    6  A    between atoms: O_34  and  C_49
REMARK    7  A    between atoms: C_43  and  C_50
REMARK    8  A    between atoms: C_49  and  C_52
REMARK    9  A    between atoms: C_50  and  O_56
REMARK                            x       y       z     vdW  Elec       q    Type
REMARK                         _______ _______ _______ _____ _____    ______ ____
ROOT
ATOM      1  C   UNL A   1     -25.688   1.614  26.461  0.00  0.00    +0.034 C 
ATOM      2  C   UNL A   1     -26.250   2.920  26.395  0.00  0.00    +0.074 C 
ATOM      3  C   UNL A   1     -27.438   3.091  25.645  0.00  0.00    +0.106 C 
ATOM      4  N   UNL A   1     -28.075   2.089  25.003  0.00  0.00    -0.208 NA
ATOM      5  C   UNL A   1     -27.543   0.849  25.079  0.00  0.00    +0.253 C 
ATOM      6  O   UNL A   1     -28.193  -0.208  24.477  0.00  0.00    -0.456 OA
ATOM      7  C   UNL A   1     -29.460   0.005  23.866  0.00  0.00    +0.239 C 
ATOM      8  C   UNL A   1     -30.065  -1.377  23.573  0.00  0.00    +0.192 C 
ATOM      9  O   UNL A   1     -30.729  -1.878  24.721  0.00  0.00    -0.323 OA
ATOM     10  C   UNL A   1     -26.354   0.576  25.777  0.00  0.00    +0.191 C 
ATOM     11  F   UNL A   1     -25.860  -0.681  25.795  0.00  0.00    -0.200 F 
ATOM     12  C   UNL A   1     -24.408   1.296  27.184  0.00  0.00    +0.105 C 
ATOM     13  C   UNL A   1     -31.217  -0.575  27.281  0.00  0.00    +0.066 C 
ATOM     14  C   UNL A   1     -30.707  -0.818  28.706  0.00  0.00    +0.135 C 
ATOM     15  C   UNL A   1     -27.603   1.535  29.321  0.00  0.00    -0.025 C 
ATOM     16  C   UNL A   1     -29.481  -0.126  28.927  0.00  0.00    +0.008 C 
ATOM     17  C   UNL A   1     -28.735   2.213  29.041  0.00  0.00    +0.052 C 
ATOM     18  C   UNL A   1     -29.732   1.260  28.591  0.00  0.00    -0.019 C 
ATOM     19  C   UNL A   1     -21.421   1.325  27.914  0.00  0.00    +0.027 C 
ATOM     20  C   UNL A   1     -23.374  -0.047  28.438  0.00  0.00    +0.073 C 
ATOM     21  C   UNL A   1     -25.482   0.031  29.148  0.00  0.00    +0.085 C 
ATOM     22  N   UNL A   1     -24.522   0.969  28.568  0.00  0.00    -0.264 NA
ATOM     23  C   UNL A   1     -28.615  -0.995  29.936  0.00  0.00    +0.034 C 
ATOM     24  C   UNL A   1     -31.688   0.710  27.302  0.00  0.00    +0.011 C 
ATOM     25  C   UNL A   1     -22.136   1.912  26.746  0.00  0.00    -0.029 C 
ATOM     26  C   UNL A   1     -26.803   0.415  28.693  0.00  0.00    -0.014 C 
ATOM     27  C   UNL A   1     -23.464   2.059  26.395  0.00  0.00    -0.011 C 
ATOM     28  C   UNL A   1     -31.028   1.634  28.157  0.00  0.00    -0.006 C 
ATOM     29  C   UNL A   1     -22.297   0.792  29.024  0.00  0.00    +0.022 C 
ATOM     30  O   UNL A   1     -32.452  -0.443  25.327  0.00  0.00    -0.322 OA
ATOM     31  C   UNL A   1     -32.712   0.717  26.148  0.00  0.00    +0.172 C 
ATOM     32  C   UNL A   1     -31.346  -1.148  25.853  0.00  0.00    +0.263 C 
ENDROOT
BRANCH   2  33
ATOM     33  C   UNL A   1     -25.642   4.093  27.123  0.00  0.00    +0.266 C 
ATOM     34  N   UNL A   1     -25.614   5.252  26.449  0.00  0.00    -0.200 NA
ATOM     35  C   UNL A   1     -25.026   6.479  26.963  0.00  0.00    +0.139 C 
ATOM     36  O   UNL A   1     -25.143   3.966  28.243  0.00  0.00    -0.268 OA
ENDBRANCH   2  33
BRANCH  21  37
ATOM     37  C   UNL A   1     -24.855  -1.012  30.143  0.00  0.00    +0.057 C 
BRANCH  37  38
ATOM     38  C   UNL A   1     -24.973  -2.505  29.788  0.00  0.00    -0.019 C 
ATOM     39  C   UNL A   1     -23.906  -3.173  29.146  0.00  0.00    -0.004 C 
ATOM     40  C   UNL A   1     -23.989  -4.549  28.853  0.00  0.00    -0.000 C 
ATOM     41  C   UNL A   1     -25.137  -5.280  29.205  0.00  0.00    -0.000 C 
ATOM     42  C   UNL A   1     -26.232  -4.611  29.784  0.00  0.00    -0.000 C 
ATOM     43  C   UNL A   1     -26.155  -3.232  30.065  0.00  0.00    -0.004 C 
ENDBRANCH  37  38
BRANCH  37  44
ATOM     44  C   UNL A   1     -25.387  -0.679  31.571  0.00  0.00    +0.078 C 
ATOM     45  C   UNL A   1     -25.189   0.773  32.028  0.00  0.00    +0.019 C 
ATOM     46  C   UNL A   1     -25.336   0.684  33.544  0.00  0.00    +0.020 C 
ATOM     47  C   UNL A   1     -24.829  -0.715  33.905  0.00  0.00    +0.089 C 
ATOM     48  N   UNL A   1     -24.758  -1.481  32.646  0.00  0.00    -0.219 NA
ENDBRANCH  37  44
ENDBRANCH  21  37
BRANCH  14  49
ATOM     49  O   UNL A   1     -31.073  -1.740  29.532  0.00  0.00    -0.469 OA
BRANCH  49  50
ATOM     50  C   UNL A   1     -30.802  -2.070  30.868  0.00  0.00    +0.250 C 
BRANCH  50  52
ATOM     51  N   UNL A   1     -29.051  -4.028  30.777  0.00  0.00    -0.267 NA
ATOM     52  C   UNL A   1     -30.358  -3.527  31.128  0.00  0.00    +0.096 C 
ATOM     53  C   UNL A   1     -30.019  -5.746  32.006  0.00  0.00    -0.001 C 
ATOM     54  C   UNL A   1     -30.946  -4.727  31.786  0.00  0.00    +0.019 C 
ATOM     55  C   UNL A   1     -28.844  -5.324  31.319  0.00  0.00    +0.151 C 
BRANCH  54  56
ATOM     56  C   UNL A   1     -32.473  -4.844  31.876  0.00  0.00    +0.139 C 
ATOM     57  C   UNL A   1     -33.321  -4.647  33.132  0.00  0.00    +0.037 C 
BRANCH  56  58
ATOM     58  O   UNL A   1     -32.969  -3.663  31.288  0.00  0.00    -0.349 OA
ATOM     59  C   UNL A   1     -34.296  -3.564  30.861  0.00  0.00    +0.174 C 
ENDBRANCH  56  58
ENDBRANCH  54  56
ENDBRANCH  50  52
ENDBRANCH  49  50
ENDBRANCH  14  49
TORSDOF 9
