MODEL 824
MODEL 1
REMARK VINA RESULT:    -6.682      0.000      0.000
REMARK INTER + INTRA:          -7.442
REMARK INTER:                  -7.073
REMARK INTRA:                  -0.369
REMARK UNBOUND:                -0.369
REMARK  Name = No_824-gen_results/8p0m/2024-11-27-11-27-31/
REMARK  1 active torsions:
REMARK  status: ('A' for Active; 'I' for Inactive)
REMARK    1  A    between atoms: C_6  and  C_8
REMARK                            x       y       z     vdW  Elec       q    Type
REMARK                         _______ _______ _______ _____ _____    ______ ____
ROOT
ATOM      1  C   UNL A   1     -23.517   0.554  27.716  0.00  0.00    +0.011 A 
ATOM      2  C   UNL A   1     -22.393   0.643  28.152  0.00  0.00    +0.058 A 
ATOM      3  C   UNL A   1     -21.811  -0.291  28.946  0.00  0.00    +0.011 A 
ATOM      4  C   UNL A   1     -22.557  -1.435  29.289  0.00  0.00    +0.001 A 
ATOM      5  C   UNL A   1     -24.302  -0.632  27.947  0.00  0.00    +0.001 A 
ATOM      6  C   UNL A   1     -23.775  -1.587  28.763  0.00  0.00    +0.000 A 
ATOM      7 CL   UNL A   1     -21.502   2.003  27.600  0.00  0.00    -0.082 Cl
ENDROOT
BRANCH   6   8
ATOM      8  C   UNL A   1     -24.595  -2.796  29.086  0.00  0.00    +0.000 A 
ATOM      9  C   UNL A   1     -24.285  -3.847  28.893  0.00  0.00    +0.000 A 
ATOM     10  C   UNL A   1     -25.127  -5.028  29.186  0.00  0.00    +0.000 A 
ATOM     11  C   UNL A   1     -26.393  -4.800  29.741  0.00  0.00    +0.000 A 
ATOM     12  C   UNL A   1     -26.758  -3.498  29.982  0.00  0.00    +0.000 A 
ATOM     13  C   UNL A   1     -25.931  -2.414  29.667  0.00  0.00    +0.000 A 
ENDBRANCH   6   8
TORSDOF 1
ENDMDL
ENDMDL
