REMARK  Name = No_825-gen_results/8p0m/2024-11-27-11-27-31/
REMARK  2 active torsions:
REMARK  status: ('A' for Active; 'I' for Inactive)
REMARK    1  A    between atoms: C_2  and  C_7
REMARK    2  A    between atoms: C_4  and  C_10
REMARK                            x       y       z     vdW  Elec       q    Type
REMARK                         _______ _______ _______ _____ _____    ______ ____
ROOT
ATOM      1  C   UNL A   1     -28.016  -0.814  28.878  0.00  0.00    +0.006 A 
ATOM      2  C   UNL A   1     -28.469  -0.785  29.829  0.00  0.00    +0.068 A 
ATOM      3  C   UNL A   1     -26.504  -0.778  28.877  0.00  0.00    +0.000 A 
ATOM      4  C   UNL A   1     -25.810  -0.853  30.103  0.00  0.00    +0.000 A 
ATOM      5  C   UNL A   1     -27.991  -0.892  31.226  0.00  0.00    +0.006 A 
ATOM      6  C   UNL A   1     -26.604  -0.868  31.265  0.00  0.00    +0.000 A 
ENDROOT
BRANCH   4   7
ATOM      7  C   UNL A   1     -24.371  -0.804  30.134  0.00  0.00    +0.001 A 
ATOM      8  C   UNL A   1     -23.644  -1.426  30.673  0.00  0.00    +0.000 A 
ATOM      9  C   UNL A   1     -23.782   0.285  29.279  0.00  0.00    +0.011 A 
ATOM     10  C   UNL A   1     -22.390   0.374  29.149  0.00  0.00    +0.058 A 
ATOM     11  C   UNL A   1     -22.189  -1.430  30.721  0.00  0.00    +0.001 A 
ATOM     12  C   UNL A   1     -21.637  -0.522  29.860  0.00  0.00    +0.011 A 
ATOM     13 CL   UNL A   1     -21.749   1.530  28.076  0.00  0.00    -0.082 Cl
ENDBRANCH   4   7
BRANCH   2  14
ATOM     14  C   UNL A   1     -30.074  -0.836  29.861  0.00  0.00    +0.333 C 
ATOM     15  O   UNL A   1     -30.561  -0.442  28.942  0.00  0.00    -0.254 OA
ATOM     16  F   UNL A   1     -30.720  -0.854  30.995  0.00  0.00    -0.159 F 
ENDBRANCH   2  14
TORSDOF 2
