REMARK  Name = outputs/IAG933/test6/raw/output_8256_IAG933_linker_design_.xyz
REMARK  10 active torsions:
REMARK  status: ('A' for Active; 'I' for Inactive)
REMARK    1  A    between atoms: C_1  and  C_2
REMARK    2  A    between atoms: C_1  and  C_8
REMARK    3  A    between atoms: C_1  and  C_37
REMARK    4  A    between atoms: C_13  and  C_34
REMARK    5  A    between atoms: C_14  and  C_15
REMARK    6  A    between atoms: C_21  and  O_22
REMARK    7  A    between atoms: O_22  and  C_23
REMARK    8  A    between atoms: C_23  and  C_24
REMARK    9  A    between atoms: C_28  and  C_40
REMARK   10  A    between atoms: N_29  and  C_42
REMARK                            x       y       z     vdW  Elec       q    Type
REMARK                         _______ _______ _______ _____ _____    ______ ____
ROOT
ATOM      1  C   UNL A   1     -22.794   0.291  29.056  0.00  0.00    +0.028 C 
ATOM      2  F   UNL A   1     -21.087   1.470  27.822  0.00  0.00    -0.203 F 
ATOM      3  C   UNL A   1     -24.713   1.316  27.278  0.00  0.00    +0.030 C 
ATOM      4  C   UNL A   1     -24.195   0.025  29.285  0.00  0.00    +0.001 C 
ATOM      5 CL   UNL A   1     -22.731   2.194  25.617  0.00  0.00    -0.080 Cl
ATOM      6  C   UNL A   1     -25.076   0.804  28.567  0.00  0.00    +0.071 C 
ATOM      7  C   UNL A   1     -22.370   1.087  27.974  0.00  0.00    +0.150 C 
ATOM      8  C   UNL A   1     -23.275   1.480  26.998  0.00  0.00    +0.086 C 
ENDROOT
BRANCH   3   9
ATOM      9  C   UNL A   1     -25.688   1.614  26.461  0.00  0.00    +0.040 C 
ATOM     10  C   UNL A   1     -26.250   2.920  26.395  0.00  0.00    +0.077 C 
ATOM     11  C   UNL A   1     -27.438   3.091  25.645  0.00  0.00    +0.107 C 
ATOM     12  N   UNL A   1     -28.075   2.089  25.003  0.00  0.00    -0.208 NA
ATOM     13  C   UNL A   1     -27.543   0.849  25.079  0.00  0.00    +0.253 C 
ATOM     14  C   UNL A   1     -26.354   0.576  25.777  0.00  0.00    +0.193 C 
ATOM     15  F   UNL A   1     -25.860  -0.681  25.795  0.00  0.00    -0.199 F 
BRANCH  10  16
ATOM     16  C   UNL A   1     -25.642   4.093  27.123  0.00  0.00    +0.266 C 
ATOM     17  N   UNL A   1     -25.614   5.252  26.449  0.00  0.00    -0.200 NA
ATOM     18  C   UNL A   1     -25.026   6.479  26.963  0.00  0.00    +0.139 C 
ATOM     19  O   UNL A   1     -25.143   3.966  28.243  0.00  0.00    -0.268 OA
ENDBRANCH  10  16
BRANCH  13  20
ATOM     20  O   UNL A   1     -28.193  -0.208  24.477  0.00  0.00    -0.456 OA
BRANCH  20  21
ATOM     21  C   UNL A   1     -29.460   0.005  23.866  0.00  0.00    +0.243 C 
BRANCH  21  22
ATOM     22  C   UNL A   1     -30.065  -1.377  23.573  0.00  0.00    +0.229 C 
ATOM     23  O   UNL A   1     -30.729  -1.878  24.721  0.00  0.00    -0.216 OA
ENDBRANCH  21  22
ENDBRANCH  20  21
ENDBRANCH  13  20
ENDBRANCH   3   9
BRANCH   6  24
ATOM     24  N   UNL A   1     -26.359   1.135  29.086  0.00  0.00    -0.177 NA
ATOM     25  O   UNL A   1     -27.367  -0.863  28.637  0.00  0.00    -0.270 OA
ATOM     26  C   UNL A   1     -27.457   0.308  28.956  0.00  0.00    +0.273 C 
BRANCH  26  27
ATOM     27  C   UNL A   1     -28.811   0.941  29.181  0.00  0.00    +0.193 C 
ATOM     28  C   UNL A   1     -29.733   3.319  31.079  0.00  0.00    +0.032 C 
ATOM     29  C   UNL A   1     -30.794   3.407  29.959  0.00  0.00    +0.003 C 
ATOM     30  C   UNL A   1     -28.875   2.367  28.726  0.00  0.00    +0.039 C 
ATOM     31  C   UNL A   1     -30.257   2.948  28.598  0.00  0.00    +0.003 C 
ATOM     32  C   UNL A   1     -29.449   1.834  31.509  0.00  0.00    +0.143 C 
ATOM     33  O   UNL A   1     -29.195   0.724  30.504  0.00  0.00    -0.347 OA
ENDBRANCH  26  27
ENDBRANCH   6  24
BRANCH   4  34
ATOM     34  C   UNL A   1     -24.855  -1.012  30.143  0.00  0.00    +0.062 C 
BRANCH  34  35
ATOM     35  C   UNL A   1     -24.973  -2.505  29.788  0.00  0.00    -0.017 C 
ATOM     36  C   UNL A   1     -23.906  -3.173  29.146  0.00  0.00    -0.004 C 
ATOM     37  C   UNL A   1     -23.989  -4.549  28.853  0.00  0.00    -0.000 C 
ATOM     38  C   UNL A   1     -25.137  -5.280  29.205  0.00  0.00    -0.000 C 
ATOM     39  C   UNL A   1     -26.232  -4.611  29.784  0.00  0.00    -0.000 C 
ATOM     40  C   UNL A   1     -26.155  -3.232  30.065  0.00  0.00    -0.004 C 
ENDBRANCH  34  35
BRANCH  34  41
ATOM     41  C   UNL A   1     -25.387  -0.679  31.571  0.00  0.00    +0.081 C 
ATOM     42  C   UNL A   1     -25.189   0.773  32.028  0.00  0.00    +0.019 C 
ATOM     43  C   UNL A   1     -25.336   0.684  33.544  0.00  0.00    +0.020 C 
ATOM     44  C   UNL A   1     -24.829  -0.715  33.905  0.00  0.00    +0.089 C 
ATOM     45  N   UNL A   1     -24.758  -1.481  32.646  0.00  0.00    -0.219 NA
ENDBRANCH  34  41
ENDBRANCH   4  34
TORSDOF 10
