MODEL 825
MODEL 1
REMARK VINA RESULT:    -6.810      0.000      0.000
REMARK INTER + INTRA:          -8.009
REMARK INTER:                  -7.606
REMARK INTRA:                  -0.403
REMARK UNBOUND:                -0.403
REMARK  Name = No_825-gen_results/8p0m/2024-11-27-11-27-31/
REMARK  2 active torsions:
REMARK  status: ('A' for Active; 'I' for Inactive)
REMARK    1  A    between atoms: C_2  and  C_7
REMARK    2  A    between atoms: C_4  and  C_10
REMARK                            x       y       z     vdW  Elec       q    Type
REMARK                         _______ _______ _______ _____ _____    ______ ____
ROOT
ATOM      1  C   UNL A   1     -24.259   0.475  27.076  0.00  0.00    +0.006 A 
ATOM      2  C   UNL A   1     -23.325   0.688  27.517  0.00  0.00    +0.068 A 
ATOM      3  C   UNL A   1     -24.863  -0.861  27.449  0.00  0.00    +0.000 A 
ATOM      4  C   UNL A   1     -24.239  -1.650  28.438  0.00  0.00    +0.000 A 
ATOM      5  C   UNL A   1     -22.497   0.072  28.578  0.00  0.00    +0.006 A 
ATOM      6  C   UNL A   1     -23.025  -1.156  28.950  0.00  0.00    +0.000 A 
ENDROOT
BRANCH   4   7
ATOM      7  C   UNL A   1     -24.782  -2.934  28.801  0.00  0.00    +0.001 A 
ATOM      8  C   UNL A   1     -24.382  -3.947  28.661  0.00  0.00    +0.000 A 
ATOM      9  C   UNL A   1     -26.119  -2.855  29.486  0.00  0.00    +0.011 A 
ATOM     10  C   UNL A   1     -26.706  -4.030  29.975  0.00  0.00    +0.058 A 
ATOM     11  C   UNL A   1     -24.879  -5.265  29.026  0.00  0.00    +0.001 A 
ATOM     12  C   UNL A   1     -26.036  -5.203  29.751  0.00  0.00    +0.011 A 
ATOM     13 CL   UNL A   1     -28.155  -3.904  30.860  0.00  0.00    -0.082 Cl
ENDBRANCH   4   7
BRANCH   2  14
ATOM     14  C   UNL A   1     -22.667   2.107  27.150  0.00  0.00    +0.333 C 
ATOM     15  O   UNL A   1     -23.128   2.972  27.675  0.00  0.00    -0.254 OA
ATOM     16  F   UNL A   1     -22.034   2.278  26.022  0.00  0.00    -0.159 F 
ENDBRANCH   2  14
TORSDOF 2
ENDMDL
ENDMDL
