REMARK  Name = outputs/IAG933/test6/raw/output_8261_IAG933_linker_design_.xyz
REMARK  13 active torsions:
REMARK  status: ('A' for Active; 'I' for Inactive)
REMARK    1  A    between atoms: C_1  and  C_2
REMARK    2  A    between atoms: C_1  and  C_8
REMARK    3  A    between atoms: C_1  and  C_41
REMARK    4  A    between atoms: C_13  and  C_36
REMARK    5  A    between atoms: C_14  and  C_15
REMARK    6  A    between atoms: C_21  and  O_22
REMARK    7  A    between atoms: O_22  and  C_23
REMARK    8  A    between atoms: C_23  and  C_24
REMARK    9  A    between atoms: C_28  and  C_41
REMARK   10  A    between atoms: O_34  and  C_39
REMARK   11  A    between atoms: C_36  and  C_39
REMARK   12  A    between atoms: C_36  and  N_40
REMARK   13  A    between atoms: N_40  and  C_41
REMARK                            x       y       z     vdW  Elec       q    Type
REMARK                         _______ _______ _______ _____ _____    ______ ____
ROOT
ATOM      1  N   UNL A   1     -24.526   0.683  28.423  0.00  0.00    -0.201 NA
ENDROOT
BRANCH   1   2
ATOM      2  C   UNL A   1     -24.511   1.263  27.251  0.00  0.00    +0.197 C 
BRANCH   2   3
ATOM      3  C   UNL A   1     -25.688   1.614  26.461  0.00  0.00    +0.042 C 
ATOM      4  C   UNL A   1     -26.250   2.920  26.395  0.00  0.00    +0.074 C 
ATOM      5  C   UNL A   1     -27.438   3.091  25.645  0.00  0.00    +0.106 C 
ATOM      6  N   UNL A   1     -28.075   2.089  25.003  0.00  0.00    -0.208 NA
ATOM      7  C   UNL A   1     -27.543   0.849  25.079  0.00  0.00    +0.253 C 
ATOM      8  C   UNL A   1     -26.354   0.576  25.777  0.00  0.00    +0.191 C 
ATOM      9  F   UNL A   1     -25.860  -0.681  25.795  0.00  0.00    -0.200 F 
BRANCH   4  10
ATOM     10  C   UNL A   1     -25.642   4.093  27.123  0.00  0.00    +0.266 C 
ATOM     11  N   UNL A   1     -25.614   5.252  26.449  0.00  0.00    -0.200 NA
ATOM     12  C   UNL A   1     -25.026   6.479  26.963  0.00  0.00    +0.139 C 
ATOM     13  O   UNL A   1     -25.143   3.966  28.243  0.00  0.00    -0.268 OA
ENDBRANCH   4  10
BRANCH   7  14
ATOM     14  O   UNL A   1     -28.193  -0.208  24.477  0.00  0.00    -0.456 OA
BRANCH  14  15
ATOM     15  C   UNL A   1     -29.460   0.005  23.866  0.00  0.00    +0.243 C 
BRANCH  15  16
ATOM     16  C   UNL A   1     -30.065  -1.377  23.573  0.00  0.00    +0.229 C 
ATOM     17  O   UNL A   1     -30.729  -1.878  24.721  0.00  0.00    -0.216 OA
ENDBRANCH  15  16
ENDBRANCH  14  15
ENDBRANCH   7  14
ENDBRANCH   2   3
BRANCH   2  19
ATOM     18  O   UNL A   1     -22.898   2.108  25.566  0.00  0.00    -0.248 OA
ATOM     19  C   UNL A   1     -23.243   1.659  26.896  0.00  0.00    +0.337 C 
BRANCH  19  21
ATOM     20  C   UNL A   1     -21.016   1.413  27.593  0.00  0.00    +0.256 C 
ATOM     21  O   UNL A   1     -22.377   1.813  27.896  0.00  0.00    -0.443 OA
ENDBRANCH  19  21
ENDBRANCH   2  19
ENDBRANCH   1   2
BRANCH   1  22
ATOM     22  C   UNL A   1     -25.473  -0.047  29.040  0.00  0.00    +0.098 C 
BRANCH  22  23
ATOM     23  C   UNL A   1     -26.958   0.318  29.094  0.00  0.00    -0.024 C 
ATOM     24  C   UNL A   1     -29.008  -0.899  28.411  0.00  0.00    -0.001 C 
ATOM     25  C   UNL A   1     -29.806   0.995  29.813  0.00  0.00    -0.004 C 
ATOM     26  C   UNL A   1     -29.967  -0.188  29.113  0.00  0.00    -0.000 C 
ATOM     27  C   UNL A   1     -28.694   1.836  29.999  0.00  0.00    -0.022 C 
ATOM     28  C   UNL A   1     -27.393   1.523  29.614  0.00  0.00    +0.049 C 
ATOM     29  C   UNL A   1     -27.707  -0.683  28.469  0.00  0.00    -0.007 C 
ENDBRANCH  22  23
BRANCH  22  30
ATOM     30  C   UNL A   1     -24.855  -1.012  30.143  0.00  0.00    +0.058 C 
BRANCH  30  31
ATOM     31  C   UNL A   1     -24.973  -2.505  29.788  0.00  0.00    -0.019 C 
ATOM     32  C   UNL A   1     -23.906  -3.173  29.146  0.00  0.00    -0.004 C 
ATOM     33  C   UNL A   1     -23.989  -4.549  28.853  0.00  0.00    -0.000 C 
ATOM     34  C   UNL A   1     -25.137  -5.280  29.205  0.00  0.00    -0.000 C 
ATOM     35  C   UNL A   1     -26.232  -4.611  29.784  0.00  0.00    -0.000 C 
ATOM     36  C   UNL A   1     -26.155  -3.232  30.065  0.00  0.00    -0.004 C 
ENDBRANCH  30  31
BRANCH  30  37
ATOM     37  C   UNL A   1     -25.387  -0.679  31.571  0.00  0.00    +0.079 C 
ATOM     38  C   UNL A   1     -25.189   0.773  32.028  0.00  0.00    +0.019 C 
ATOM     39  C   UNL A   1     -25.336   0.684  33.544  0.00  0.00    +0.020 C 
ATOM     40  C   UNL A   1     -24.829  -0.715  33.905  0.00  0.00    +0.089 C 
ATOM     41  N   UNL A   1     -24.758  -1.481  32.646  0.00  0.00    -0.219 NA
ENDBRANCH  30  37
ENDBRANCH  22  30
ENDBRANCH   1  22
TORSDOF 13
