REMARK  Name = outputs/IAG933/test6/raw/output_8262_IAG933_linker_design_.xyz
REMARK  15 active torsions:
REMARK  status: ('A' for Active; 'I' for Inactive)
REMARK    1  A    between atoms: C_1  and  C_2
REMARK    2  A    between atoms: C_1  and  C_8
REMARK    3  A    between atoms: C_1  and  N_47
REMARK    4  A    between atoms: C_13  and  C_33
REMARK    5  A    between atoms: C_14  and  C_15
REMARK    6  A    between atoms: C_21  and  O_22
REMARK    7  A    between atoms: O_22  and  C_23
REMARK    8  A    between atoms: C_23  and  C_24
REMARK    9  A    between atoms: C_33  and  C_37
REMARK   10  A    between atoms: C_37  and  C_40
REMARK   11  A    between atoms: C_37  and  N_47
REMARK   12  A    between atoms: C_38  and  C_39
REMARK   13  A    between atoms: C_39  and  N_48
REMARK   14  A    between atoms: C_40  and  C_42
REMARK   15  A    between atoms: C_44  and  N_47
REMARK                            x       y       z     vdW  Elec       q    Type
REMARK                         _______ _______ _______ _____ _____    ______ ____
ROOT
ATOM      1  N   UNL A   1     -25.063  -0.018  29.134  0.00  0.00    -0.259 N 
ENDROOT
BRANCH   1   3
ATOM      2  C   UNL A   1     -27.125   1.464  29.300  0.00  0.00    -0.053 C 
ATOM      3  C   UNL A   1     -26.086   0.833  29.167  0.00  0.00    +0.002 C 
BRANCH   2   4
ATOM      4  C   UNL A   1     -28.218   2.180  29.542  0.00  0.00    +0.151 C 
BRANCH   4  15
ATOM      5  C   UNL A   1     -29.245   5.150  30.279  0.00  0.00    +0.160 C 
ATOM      6  C   UNL A   1     -28.617   4.281  29.634  0.00  0.00    +0.105 C 
ATOM      7  C   UNL A   1     -26.083   4.667  32.992  0.00  0.00    +0.036 C 
ATOM      8  C   UNL A   1     -27.896   3.678  31.548  0.00  0.00    +0.076 C 
ATOM      9  O   UNL A   1     -29.000   6.055  31.193  0.00  0.00    -0.352 OA
ATOM     10  C   UNL A   1     -27.075   6.913  33.478  0.00  0.00    +0.172 C 
ATOM     11  C   UNL A   1     -27.529   4.590  32.653  0.00  0.00    +0.048 C 
ATOM     12  O   UNL A   1     -25.814   7.049  32.932  0.00  0.00    -0.351 OA
ATOM     13  C   UNL A   1     -25.353   5.871  32.337  0.00  0.00    +0.142 C 
ATOM     14  C   UNL A   1     -28.016   6.080  32.480  0.00  0.00    +0.146 C 
ATOM     15  N   UNL A   1     -28.165   3.279  30.259  0.00  0.00    -0.259 NA
ENDBRANCH   4  15
ENDBRANCH   2   4
ENDBRANCH   1   3
BRANCH   1  16
ATOM     16  C   UNL A   1     -24.855  -1.012  30.143  0.00  0.00    +0.119 C 
BRANCH  16  17
ATOM     17  C   UNL A   1     -24.973  -2.505  29.788  0.00  0.00    -0.002 C 
ATOM     18  C   UNL A   1     -23.906  -3.173  29.146  0.00  0.00    -0.003 C 
ATOM     19  C   UNL A   1     -23.989  -4.549  28.853  0.00  0.00    -0.000 C 
ATOM     20  C   UNL A   1     -25.137  -5.280  29.205  0.00  0.00    -0.000 C 
ATOM     21  C   UNL A   1     -26.232  -4.611  29.784  0.00  0.00    -0.000 C 
ATOM     22  C   UNL A   1     -26.155  -3.232  30.065  0.00  0.00    -0.003 C 
ENDBRANCH  16  17
BRANCH  16  23
ATOM     23  C   UNL A   1     -25.387  -0.679  31.571  0.00  0.00    +0.096 C 
ATOM     24  C   UNL A   1     -25.189   0.773  32.028  0.00  0.00    +0.021 C 
ATOM     25  C   UNL A   1     -25.336   0.684  33.544  0.00  0.00    +0.020 C 
ATOM     26  C   UNL A   1     -24.829  -0.715  33.905  0.00  0.00    +0.089 C 
ATOM     27  N   UNL A   1     -24.758  -1.481  32.646  0.00  0.00    -0.217 NA
ENDBRANCH  16  23
ENDBRANCH   1  16
BRANCH   1  28
ATOM     28  C   UNL A   1     -24.156   0.785  28.222  0.00  0.00    +0.147 C 
BRANCH  28  30
ATOM     29  O   UNL A   1     -22.383  -0.119  29.720  0.00  0.00    -0.290 OA
ATOM     30  C   UNL A   1     -22.633   0.618  28.727  0.00  0.00    +0.192 C 
BRANCH  30  32
ATOM     31  C   UNL A   1     -21.567   1.986  26.799  0.00  0.00    +0.003 C 
ATOM     32  C   UNL A   1     -21.474   1.288  27.968  0.00  0.00    +0.039 C 
ENDBRANCH  30  32
ENDBRANCH  28  30
BRANCH  28  33
ATOM     33  C   UNL A   1     -24.517   1.349  26.981  0.00  0.00    +0.057 C 
BRANCH  33  34
ATOM     34  C   UNL A   1     -25.688   1.614  26.461  0.00  0.00    +0.018 C 
ATOM     35  C   UNL A   1     -26.250   2.920  26.395  0.00  0.00    +0.073 C 
ATOM     36  C   UNL A   1     -27.438   3.091  25.645  0.00  0.00    +0.106 C 
ATOM     37  N   UNL A   1     -28.075   2.089  25.003  0.00  0.00    -0.208 NA
ATOM     38  C   UNL A   1     -27.543   0.849  25.079  0.00  0.00    +0.253 C 
ATOM     39  C   UNL A   1     -26.354   0.576  25.777  0.00  0.00    +0.189 C 
ATOM     40  F   UNL A   1     -25.860  -0.681  25.795  0.00  0.00    -0.200 F 
BRANCH  35  41
ATOM     41  C   UNL A   1     -25.642   4.093  27.123  0.00  0.00    +0.266 C 
ATOM     42  N   UNL A   1     -25.614   5.252  26.449  0.00  0.00    -0.200 NA
ATOM     43  C   UNL A   1     -25.026   6.479  26.963  0.00  0.00    +0.139 C 
ATOM     44  O   UNL A   1     -25.143   3.966  28.243  0.00  0.00    -0.268 OA
ENDBRANCH  35  41
BRANCH  38  45
ATOM     45  O   UNL A   1     -28.193  -0.208  24.477  0.00  0.00    -0.456 OA
BRANCH  45  46
ATOM     46  C   UNL A   1     -29.460   0.005  23.866  0.00  0.00    +0.243 C 
BRANCH  46  47
ATOM     47  C   UNL A   1     -30.065  -1.377  23.573  0.00  0.00    +0.229 C 
ATOM     48  O   UNL A   1     -30.729  -1.878  24.721  0.00  0.00    -0.216 OA
ENDBRANCH  46  47
ENDBRANCH  45  46
ENDBRANCH  38  45
ENDBRANCH  33  34
ENDBRANCH  28  33
ENDBRANCH   1  28
TORSDOF 15
