REMARK  Name = outputs/IAG933/test6/raw/output_8264_IAG933_linker_design_.xyz
REMARK  11 active torsions:
REMARK  status: ('A' for Active; 'I' for Inactive)
REMARK    1  A    between atoms: C_1  and  C_2
REMARK    2  A    between atoms: C_1  and  C_8
REMARK    3  A    between atoms: C_1  and  C_45
REMARK    4  A    between atoms: C_13  and  C_29
REMARK    5  A    between atoms: C_14  and  C_15
REMARK    6  A    between atoms: C_21  and  O_22
REMARK    7  A    between atoms: O_22  and  C_23
REMARK    8  A    between atoms: C_23  and  C_24
REMARK    9  A    between atoms: C_28  and  C_45
REMARK   10  A    between atoms: C_37  and  N_46
REMARK   11  A    between atoms: C_43  and  C_45
REMARK                            x       y       z     vdW  Elec       q    Type
REMARK                         _______ _______ _______ _____ _____    ______ ____
ROOT
ATOM      1  C   UNL A   1     -24.343   1.273  27.039  0.00  0.00    +0.100 C 
ATOM      2  C   UNL A   1     -22.238   0.459  28.923  0.00  0.00    +0.019 C 
ATOM      3  C   UNL A   1     -21.825   1.361  26.671  0.00  0.00    +0.005 C 
ATOM      4  F   UNL A   1     -23.067   1.756  24.954  0.00  0.00    -0.208 F 
ATOM      5  C   UNL A   1     -23.102   1.482  26.244  0.00  0.00    +0.122 C 
ATOM      6  C   UNL A   1     -21.389   0.886  27.924  0.00  0.00    +0.062 C 
ATOM      7  C   UNL A   1     -24.637   0.680  28.268  0.00  0.00    +0.009 C 
ATOM      8  C   UNL A   1     -23.557   0.554  28.632  0.00  0.00    -0.113 C 
ENDROOT
BRANCH   1   9
ATOM      9  C   UNL A   1     -25.688   1.614  26.461  0.00  0.00    +0.026 C 
ATOM     10  C   UNL A   1     -26.250   2.920  26.395  0.00  0.00    +0.073 C 
ATOM     11  C   UNL A   1     -27.438   3.091  25.645  0.00  0.00    +0.106 C 
ATOM     12  N   UNL A   1     -28.075   2.089  25.003  0.00  0.00    -0.208 NA
ATOM     13  C   UNL A   1     -27.543   0.849  25.079  0.00  0.00    +0.253 C 
ATOM     14  C   UNL A   1     -26.354   0.576  25.777  0.00  0.00    +0.190 C 
ATOM     15  F   UNL A   1     -25.860  -0.681  25.795  0.00  0.00    -0.200 F 
BRANCH  10  16
ATOM     16  C   UNL A   1     -25.642   4.093  27.123  0.00  0.00    +0.266 C 
ATOM     17  N   UNL A   1     -25.614   5.252  26.449  0.00  0.00    -0.200 NA
ATOM     18  C   UNL A   1     -25.026   6.479  26.963  0.00  0.00    +0.139 C 
ATOM     19  O   UNL A   1     -25.143   3.966  28.243  0.00  0.00    -0.268 OA
ENDBRANCH  10  16
BRANCH  13  20
ATOM     20  O   UNL A   1     -28.193  -0.208  24.477  0.00  0.00    -0.456 OA
BRANCH  20  21
ATOM     21  C   UNL A   1     -29.460   0.005  23.866  0.00  0.00    +0.243 C 
BRANCH  21  22
ATOM     22  C   UNL A   1     -30.065  -1.377  23.573  0.00  0.00    +0.229 C 
ATOM     23  O   UNL A   1     -30.729  -1.878  24.721  0.00  0.00    -0.216 OA
ENDBRANCH  21  22
ENDBRANCH  20  21
ENDBRANCH  13  20
ENDBRANCH   1   9
BRANCH   7  24
ATOM     24  C   UNL A   1     -25.510  -0.089  29.060  0.00  0.00    +0.110 C 
BRANCH  24  25
ATOM     25  C   UNL A   1     -27.010   0.405  29.202  0.00  0.00    +0.246 C 
ATOM     26  O   UNL A   1     -27.826  -0.440  28.919  0.00  0.00    -0.273 OA
ATOM     27  N   UNL A   1     -27.495   1.702  29.537  0.00  0.00    -0.196 NA
BRANCH  27  32
ATOM     28  C   UNL A   1     -30.313   2.168  29.331  0.00  0.00    +0.125 C 
ATOM     29  N   UNL A   1     -30.227   3.634  31.321  0.00  0.00    -0.126 NA
ATOM     30  O   UNL A   1     -28.249   2.787  32.074  0.00  0.00    -0.270 OA
ATOM     31  C   UNL A   1     -32.509   3.442  30.172  0.00  0.00    +0.113 C 
ATOM     32  C   UNL A   1     -28.799   2.342  29.790  0.00  0.00    +0.192 C 
ATOM     33  C   UNL A   1     -29.013   2.994  31.205  0.00  0.00    +0.278 C 
ATOM     34  N   UNL A   1     -31.057   3.157  30.230  0.00  0.00    -0.181 NA
ENDBRANCH  27  32
ENDBRANCH  24  25
BRANCH  24  35
ATOM     35  C   UNL A   1     -24.855  -1.012  30.143  0.00  0.00    +0.051 C 
BRANCH  35  36
ATOM     36  C   UNL A   1     -24.973  -2.505  29.788  0.00  0.00    -0.020 C 
ATOM     37  C   UNL A   1     -23.906  -3.173  29.146  0.00  0.00    -0.004 C 
ATOM     38  C   UNL A   1     -23.989  -4.549  28.853  0.00  0.00    -0.000 C 
ATOM     39  C   UNL A   1     -25.137  -5.280  29.205  0.00  0.00    -0.000 C 
ATOM     40  C   UNL A   1     -26.232  -4.611  29.784  0.00  0.00    -0.000 C 
ATOM     41  C   UNL A   1     -26.155  -3.232  30.065  0.00  0.00    -0.004 C 
ENDBRANCH  35  36
BRANCH  35  42
ATOM     42  C   UNL A   1     -25.387  -0.679  31.571  0.00  0.00    +0.078 C 
ATOM     43  C   UNL A   1     -25.189   0.773  32.028  0.00  0.00    +0.019 C 
ATOM     44  C   UNL A   1     -25.336   0.684  33.544  0.00  0.00    +0.020 C 
ATOM     45  C   UNL A   1     -24.829  -0.715  33.905  0.00  0.00    +0.089 C 
ATOM     46  N   UNL A   1     -24.758  -1.481  32.646  0.00  0.00    -0.219 NA
ENDBRANCH  35  42
ENDBRANCH  24  35
ENDBRANCH   7  24
TORSDOF 11
