REMARK  Name = outputs/IAG933/test6/raw/output_8267_IAG933_linker_design_.xyz
REMARK  13 active torsions:
REMARK  status: ('A' for Active; 'I' for Inactive)
REMARK    1  A    between atoms: C_1  and  C_2
REMARK    2  A    between atoms: C_1  and  C_8
REMARK    3  A    between atoms: C_1  and  N_33
REMARK    4  A    between atoms: C_13  and  C_34
REMARK    5  A    between atoms: C_14  and  C_15
REMARK    6  A    between atoms: C_21  and  O_22
REMARK    7  A    between atoms: O_22  and  C_23
REMARK    8  A    between atoms: C_23  and  C_24
REMARK    9  A    between atoms: N_31  and  C_40
REMARK   10  A    between atoms: C_34  and  C_37
REMARK   11  A    between atoms: C_34  and  C_41
REMARK   12  A    between atoms: C_35  and  C_41
REMARK   13  A    between atoms: C_35  and  C_42
REMARK                            x       y       z     vdW  Elec       q    Type
REMARK                         _______ _______ _______ _____ _____    ______ ____
ROOT
ATOM      1  F   UNL A   1     -20.095   2.091  28.172  0.00  0.00    -0.229 F 
ATOM      2  C   UNL A   1     -21.037   1.280  27.833  0.00  0.00    +0.248 C 
ATOM      3  C   UNL A   1     -23.321  -0.125  28.878  0.00  0.00    +0.333 C 
ATOM      4  F   UNL A   1     -21.455   2.333  25.867  0.00  0.00    -0.233 F 
ATOM      5  N   UNL A   1     -24.322   0.001  29.276  0.00  0.00    -0.034 NA
ATOM      6  C   UNL A   1     -21.829   1.452  26.708  0.00  0.00    +0.214 C 
ATOM      7  C   UNL A   1     -24.079   0.693  27.935  0.00  0.00    +0.128 C 
ATOM      8  C   UNL A   1     -21.040  -0.087  28.662  0.00  0.00    +0.301 C 
ATOM      9  C   UNL A   1     -23.166   1.131  26.791  0.00  0.00    +0.120 C 
ATOM     10  N   UNL A   1     -22.169  -0.606  29.260  0.00  0.00    -0.063 NA
ENDROOT
BRANCH   9  11
ATOM     11  N   UNL A   1     -23.628   1.126  25.625  0.00  0.00    -0.214 NA
ATOM     12  C   UNL A   1     -23.134   1.100  24.283  0.00  0.00    +0.107 C 
ENDBRANCH   9  11
BRANCH   5  13
ATOM     13  C   UNL A   1     -24.855  -1.012  30.143  0.00  0.00    +0.242 C 
BRANCH  13  14
ATOM     14  C   UNL A   1     -24.973  -2.505  29.788  0.00  0.00    +0.025 C 
ATOM     15  C   UNL A   1     -23.906  -3.173  29.146  0.00  0.00    -0.000 C 
ATOM     16  C   UNL A   1     -23.989  -4.549  28.853  0.00  0.00    -0.000 C 
ATOM     17  C   UNL A   1     -25.137  -5.280  29.205  0.00  0.00    -0.000 C 
ATOM     18  C   UNL A   1     -26.232  -4.611  29.784  0.00  0.00    -0.000 C 
ATOM     19  C   UNL A   1     -26.155  -3.232  30.065  0.00  0.00    -0.000 C 
ENDBRANCH  13  14
BRANCH  13  20
ATOM     20  C   UNL A   1     -25.387  -0.679  31.571  0.00  0.00    +0.124 C 
ATOM     21  C   UNL A   1     -25.189   0.773  32.028  0.00  0.00    +0.024 C 
ATOM     22  C   UNL A   1     -25.336   0.684  33.544  0.00  0.00    +0.020 C 
ATOM     23  C   UNL A   1     -24.829  -0.715  33.905  0.00  0.00    +0.089 C 
ATOM     24  N   UNL A   1     -24.758  -1.481  32.646  0.00  0.00    -0.215 NA
ENDBRANCH  13  20
ENDBRANCH   5  13
BRANCH   7  25
ATOM     25  C   UNL A   1     -25.238   1.206  27.842  0.00  0.00    +0.023 C 
BRANCH  25  26
ATOM     26  C   UNL A   1     -25.688   1.614  26.461  0.00  0.00    +0.071 C 
ATOM     27  C   UNL A   1     -26.250   2.920  26.395  0.00  0.00    +0.055 C 
ATOM     28  C   UNL A   1     -27.438   3.091  25.645  0.00  0.00    +0.102 C 
ATOM     29  N   UNL A   1     -28.075   2.089  25.003  0.00  0.00    -0.212 NA
ATOM     30  C   UNL A   1     -27.543   0.849  25.079  0.00  0.00    +0.234 C 
ATOM     31  C   UNL A   1     -26.354   0.576  25.777  0.00  0.00    +0.240 C 
ATOM     32  F   UNL A   1     -25.860  -0.681  25.795  0.00  0.00    -0.227 F 
BRANCH  27  33
ATOM     33  C   UNL A   1     -25.642   4.093  27.123  0.00  0.00    +0.262 C 
ATOM     34  N   UNL A   1     -25.614   5.252  26.449  0.00  0.00    -0.200 NA
ATOM     35  C   UNL A   1     -25.026   6.479  26.963  0.00  0.00    +0.139 C 
ATOM     36  O   UNL A   1     -25.143   3.966  28.243  0.00  0.00    -0.269 OA
ENDBRANCH  27  33
BRANCH  30  37
ATOM     37  O   UNL A   1     -28.193  -0.208  24.477  0.00  0.00    -0.459 OA
BRANCH  37  38
ATOM     38  C   UNL A   1     -29.460   0.005  23.866  0.00  0.00    +0.242 C 
BRANCH  38  39
ATOM     39  C   UNL A   1     -30.065  -1.377  23.573  0.00  0.00    +0.229 C 
ATOM     40  O   UNL A   1     -30.729  -1.878  24.721  0.00  0.00    -0.216 OA
ENDBRANCH  38  39
ENDBRANCH  37  38
ENDBRANCH  30  37
ENDBRANCH  25  26
BRANCH  25  41
ATOM     41  C   UNL A   1     -26.127   1.555  28.893  0.00  0.00    +0.035 C 
BRANCH  41  42
ATOM     42  C   UNL A   1     -26.877   2.758  29.724  0.00  0.00    +0.171 C 
ATOM     43  O   UNL A   1     -26.311   3.997  30.157  0.00  0.00    -0.222 OA
BRANCH  42  44
ATOM     44  C   UNL A   1     -28.134   2.868  28.939  0.00  0.00    +0.142 C 
ATOM     45  N   UNL A   1     -28.228   4.157  28.204  0.00  0.00    -0.129 NA
ENDBRANCH  42  44
ENDBRANCH  41  42
ENDBRANCH  25  41
ENDBRANCH   7  25
TORSDOF 13
