REMARK  Name = outputs/IAG933/test6/raw/output_8268_IAG933_linker_design_.xyz
REMARK  15 active torsions:
REMARK  status: ('A' for Active; 'I' for Inactive)
REMARK    1  A    between atoms: C_1  and  C_2
REMARK    2  A    between atoms: C_1  and  C_8
REMARK    3  A    between atoms: C_9  and  C_33
REMARK    4  A    between atoms: C_13  and  C_41
REMARK    5  A    between atoms: C_14  and  C_15
REMARK    6  A    between atoms: C_21  and  O_22
REMARK    7  A    between atoms: O_22  and  C_23
REMARK    8  A    between atoms: C_23  and  C_24
REMARK    9  A    between atoms: O_28  and  C_39
REMARK   10  A    between atoms: O_28  and  C_41
REMARK   11  A    between atoms: N_29  and  O_40
REMARK   12  A    between atoms: C_33  and  C_34
REMARK   13  A    between atoms: C_33  and  O_40
REMARK   14  A    between atoms: C_34  and  C_37
REMARK   15  A    between atoms: C_37  and  C_39
REMARK                            x       y       z     vdW  Elec       q    Type
REMARK                         _______ _______ _______ _____ _____    ______ ____
ROOT
ATOM      1  C   UNL A   1     -22.824   1.465  29.252  0.00  0.00    +0.032 C 
ENDROOT
BRANCH   1   3
ATOM      2  C   UNL A   1     -21.231   1.573  27.310  0.00  0.00    +0.032 C 
ATOM      3  C   UNL A   1     -22.389   0.778  27.922  0.00  0.00    +0.115 C 
BRANCH   3   4
ATOM      4  O   UNL A   1     -23.559   0.350  27.165  0.00  0.00    -0.358 OA
BRANCH   4   6
ATOM      5  C   UNL A   1     -23.374   2.304  25.833  0.00  0.00    +0.033 C 
ATOM      6  C   UNL A   1     -24.272   1.383  26.603  0.00  0.00    +0.122 C 
BRANCH   6   7
ATOM      7  C   UNL A   1     -25.688   1.614  26.461  0.00  0.00    +0.097 C 
ATOM      8  C   UNL A   1     -26.250   2.920  26.395  0.00  0.00    +0.057 C 
ATOM      9  C   UNL A   1     -27.438   3.091  25.645  0.00  0.00    +0.102 C 
ATOM     10  N   UNL A   1     -28.075   2.089  25.003  0.00  0.00    -0.212 NA
ATOM     11  C   UNL A   1     -27.543   0.849  25.079  0.00  0.00    +0.234 C 
ATOM     12  C   UNL A   1     -26.354   0.576  25.777  0.00  0.00    +0.242 C 
ATOM     13  F   UNL A   1     -25.860  -0.681  25.795  0.00  0.00    -0.227 F 
BRANCH   8  14
ATOM     14  C   UNL A   1     -25.642   4.093  27.123  0.00  0.00    +0.263 C 
ATOM     15  N   UNL A   1     -25.614   5.252  26.449  0.00  0.00    -0.200 NA
ATOM     16  C   UNL A   1     -25.026   6.479  26.963  0.00  0.00    +0.139 C 
ATOM     17  O   UNL A   1     -25.143   3.966  28.243  0.00  0.00    -0.269 OA
ENDBRANCH   8  14
BRANCH  11  18
ATOM     18  O   UNL A   1     -28.193  -0.208  24.477  0.00  0.00    -0.459 OA
BRANCH  18  19
ATOM     19  C   UNL A   1     -29.460   0.005  23.866  0.00  0.00    +0.242 C 
BRANCH  19  20
ATOM     20  C   UNL A   1     -30.065  -1.377  23.573  0.00  0.00    +0.229 C 
ATOM     21  O   UNL A   1     -30.729  -1.878  24.721  0.00  0.00    -0.216 OA
ENDBRANCH  19  20
ENDBRANCH  18  19
ENDBRANCH  11  18
ENDBRANCH   6   7
ENDBRANCH   4   6
ENDBRANCH   3   4
ENDBRANCH   1   3
BRANCH   1  22
ATOM     22  C   UNL A   1     -24.346   1.499  29.701  0.00  0.00    +0.034 C 
BRANCH  22  23
ATOM     23  C   UNL A   1     -24.234   1.683  31.294  0.00  0.00    +0.139 C 
BRANCH  23  25
ATOM     24  C   UNL A   1     -25.387  -0.679  31.571  0.00  0.00    +0.080 C 
ATOM     25  C   UNL A   1     -25.189   0.773  32.028  0.00  0.00    +0.047 C 
ATOM     26  C   UNL A   1     -25.336   0.684  33.544  0.00  0.00    +0.023 C 
ATOM     27  C   UNL A   1     -24.829  -0.715  33.905  0.00  0.00    +0.089 C 
ATOM     28  N   UNL A   1     -24.758  -1.481  32.646  0.00  0.00    -0.219 NA
BRANCH  24  29
ATOM     29  C   UNL A   1     -24.855  -1.012  30.143  0.00  0.00    +0.044 C 
BRANCH  29  30
ATOM     30  C   UNL A   1     -24.973  -2.505  29.788  0.00  0.00    -0.021 C 
ATOM     31  C   UNL A   1     -23.906  -3.173  29.146  0.00  0.00    -0.004 C 
ATOM     32  C   UNL A   1     -23.989  -4.549  28.853  0.00  0.00    -0.000 C 
ATOM     33  C   UNL A   1     -25.137  -5.280  29.205  0.00  0.00    -0.000 C 
ATOM     34  C   UNL A   1     -26.232  -4.611  29.784  0.00  0.00    -0.000 C 
ATOM     35  C   UNL A   1     -26.155  -3.232  30.065  0.00  0.00    -0.004 C 
ENDBRANCH  29  30
ENDBRANCH  24  29
ENDBRANCH  23  25
BRANCH  23  36
ATOM     36  O   UNL A   1     -23.933   3.109  31.395  0.00  0.00    -0.285 OA
BRANCH  36  37
ATOM     37  N   UNL A   1     -24.579   3.816  31.927  0.00  0.00    -0.166 NA
ATOM     38  C   UNL A   1     -25.367   5.922  32.310  0.00  0.00    +0.021 C 
ATOM     39  C   UNL A   1     -24.924   3.876  33.289  0.00  0.00    +0.101 C 
ATOM     40  C   UNL A   1     -25.551   4.726  31.370  0.00  0.00    +0.101 C 
ATOM     41  C   UNL A   1     -24.738   5.325  33.536  0.00  0.00    +0.021 C 
ENDBRANCH  36  37
ENDBRANCH  23  36
ENDBRANCH  22  23
ENDBRANCH   1  22
TORSDOF 15
