REMARK  Name = outputs/IAG933/test6/raw/output_8269_IAG933_linker_design_.xyz
REMARK  15 active torsions:
REMARK  status: ('A' for Active; 'I' for Inactive)
REMARK    1  A    between atoms: C_1  and  C_2
REMARK    2  A    between atoms: C_1  and  C_8
REMARK    3  A    between atoms: C_1  and  C_43
REMARK    4  A    between atoms: C_13  and  O_41
REMARK    5  A    between atoms: C_14  and  C_15
REMARK    6  A    between atoms: C_21  and  O_22
REMARK    7  A    between atoms: O_22  and  C_23
REMARK    8  A    between atoms: C_23  and  C_24
REMARK    9  A    between atoms: C_30  and  C_47
REMARK   10  A    between atoms: C_33  and  C_44
REMARK   11  A    between atoms: C_34  and  C_38
REMARK   12  A    between atoms: C_34  and  C_43
REMARK   13  A    between atoms: C_35  and  C_43
REMARK   14  A    between atoms: C_35  and  C_47
REMARK   15  A    between atoms: O_41  and  C_47
REMARK                            x       y       z     vdW  Elec       q    Type
REMARK                         _______ _______ _______ _____ _____    ______ ____
ROOT
ATOM      1  C   UNL A   1     -25.034  -0.046  28.965  0.00  0.00    +0.044 C 
ENDROOT
BRANCH   1   2
ATOM      2  C   UNL A   1     -23.600   0.475  28.857  0.00  0.00    +0.193 C 
ATOM      3  O   UNL A   1     -22.853   0.472  29.987  0.00  0.00    -0.219 OA
BRANCH   2   4
ATOM      4  C   UNL A   1     -23.602   1.283  27.779  0.00  0.00    +0.211 C 
BRANCH   4   6
ATOM      5 CL   UNL A   1     -22.577   2.240  25.339  0.00  0.00    -0.111 Cl
ATOM      6  C   UNL A   1     -22.321   1.499  26.968  0.00  0.00    +0.122 C 
ATOM      7  C   UNL A   1     -21.035   1.254  27.565  0.00  0.00    +0.021 C 
ENDBRANCH   4   6
BRANCH   4   8
ATOM      8  O   UNL A   1     -24.723   1.433  27.121  0.00  0.00    -0.473 OA
BRANCH   8   9
ATOM      9  C   UNL A   1     -25.688   1.614  26.461  0.00  0.00    +0.176 C 
ATOM     10  C   UNL A   1     -26.250   2.920  26.395  0.00  0.00    +0.111 C 
ATOM     11  C   UNL A   1     -27.438   3.091  25.645  0.00  0.00    +0.110 C 
ATOM     12  N   UNL A   1     -28.075   2.089  25.003  0.00  0.00    -0.208 NA
ATOM     13  C   UNL A   1     -27.543   0.849  25.079  0.00  0.00    +0.256 C 
ATOM     14  C   UNL A   1     -26.354   0.576  25.777  0.00  0.00    +0.227 C 
ATOM     15  F   UNL A   1     -25.860  -0.681  25.795  0.00  0.00    -0.196 F 
BRANCH  10  16
ATOM     16  C   UNL A   1     -25.642   4.093  27.123  0.00  0.00    +0.269 C 
ATOM     17  N   UNL A   1     -25.614   5.252  26.449  0.00  0.00    -0.200 NA
ATOM     18  C   UNL A   1     -25.026   6.479  26.963  0.00  0.00    +0.139 C 
ATOM     19  O   UNL A   1     -25.143   3.966  28.243  0.00  0.00    -0.268 OA
ENDBRANCH  10  16
BRANCH  13  20
ATOM     20  O   UNL A   1     -28.193  -0.208  24.477  0.00  0.00    -0.456 OA
BRANCH  20  21
ATOM     21  C   UNL A   1     -29.460   0.005  23.866  0.00  0.00    +0.243 C 
BRANCH  21  22
ATOM     22  C   UNL A   1     -30.065  -1.377  23.573  0.00  0.00    +0.229 C 
ATOM     23  O   UNL A   1     -30.729  -1.878  24.721  0.00  0.00    -0.216 OA
ENDBRANCH  21  22
ENDBRANCH  20  21
ENDBRANCH  13  20
ENDBRANCH   8   9
ENDBRANCH   4   8
ENDBRANCH   2   4
ENDBRANCH   1   2
BRANCH   1  24
ATOM     24  C   UNL A   1     -24.855  -1.012  30.143  0.00  0.00    +0.041 C 
BRANCH  24  25
ATOM     25  C   UNL A   1     -24.973  -2.505  29.788  0.00  0.00    -0.021 C 
ATOM     26  C   UNL A   1     -23.906  -3.173  29.146  0.00  0.00    -0.004 C 
ATOM     27  C   UNL A   1     -23.989  -4.549  28.853  0.00  0.00    -0.000 C 
ATOM     28  C   UNL A   1     -25.137  -5.280  29.205  0.00  0.00    -0.000 C 
ATOM     29  C   UNL A   1     -26.232  -4.611  29.784  0.00  0.00    -0.000 C 
ATOM     30  C   UNL A   1     -26.155  -3.232  30.065  0.00  0.00    -0.004 C 
ENDBRANCH  24  25
BRANCH  24  31
ATOM     31  C   UNL A   1     -25.387  -0.679  31.571  0.00  0.00    +0.077 C 
ATOM     32  C   UNL A   1     -25.189   0.773  32.028  0.00  0.00    +0.019 C 
ATOM     33  C   UNL A   1     -25.336   0.684  33.544  0.00  0.00    +0.020 C 
ATOM     34  C   UNL A   1     -24.829  -0.715  33.905  0.00  0.00    +0.089 C 
ATOM     35  N   UNL A   1     -24.758  -1.481  32.646  0.00  0.00    -0.219 NA
ENDBRANCH  24  31
ENDBRANCH   1  24
BRANCH   1  36
ATOM     36  C   UNL A   1     -26.497   0.307  28.933  0.00  0.00    +0.026 C 
BRANCH  36  42
ATOM     37  C   UNL A   1     -30.030  -1.077  31.306  0.00  0.00    +0.226 C 
ATOM     38  N   UNL A   1     -30.096  -1.181  29.788  0.00  0.00    -0.231 N 
ATOM     39  C   UNL A   1     -28.120   0.751  30.651  0.00  0.00    +0.057 C 
ATOM     40  C   UNL A   1     -31.387  -1.174  29.161  0.00  0.00    +0.262 C 
ATOM     41  O   UNL A   1     -32.341  -1.811  29.670  0.00  0.00    -0.272 OA
ATOM     42  C   UNL A   1     -27.833  -0.015  29.467  0.00  0.00    -0.027 C 
ATOM     43  C   UNL A   1     -28.898  -0.863  28.974  0.00  0.00    +0.061 C 
ATOM     44  O   UNL A   1     -28.762  -1.127  31.766  0.00  0.00    -0.333 OA
ATOM     45  C   UNL A   1     -28.968  -0.019  31.539  0.00  0.00    +0.168 C 
BRANCH  40  47
ATOM     46  C   UNL A   1     -33.247  -0.355  27.565  0.00  0.00    +0.046 C 
ATOM     47  C   UNL A   1     -31.747  -0.366  27.920  0.00  0.00    +0.228 C 
ATOM     48  O   UNL A   1     -30.692  -0.708  27.006  0.00  0.00    -0.213 OA
ENDBRANCH  40  47
ENDBRANCH  36  42
ENDBRANCH   1  36
TORSDOF 15
