MODEL 826
MODEL 1
REMARK VINA RESULT:    -7.413      0.000      0.000
REMARK INTER + INTRA:          -9.869
REMARK INTER:                  -8.713
REMARK INTRA:                  -1.156
REMARK UNBOUND:                -1.156
REMARK  Name = No_826-gen_results/8p0m/2024-11-27-11-27-31/
REMARK  3 active torsions:
REMARK  status: ('A' for Active; 'I' for Inactive)
REMARK    1  A    between atoms: C_10  and  C_20
REMARK    2  A    between atoms: C_13  and  C_14
REMARK    3  A    between atoms: C_18  and  C_27
REMARK                            x       y       z     vdW  Elec       q    Type
REMARK                         _______ _______ _______ _____ _____    ______ ____
ROOT
ATOM      1  C   UNL A   1     -18.383 -22.824   6.697  0.00  0.00    +0.015 C 
ATOM      2  C   UNL A   1     -17.415 -22.530   6.992  0.00  0.00    +0.108 C 
ATOM      3  C   UNL A   1     -19.442 -21.959   7.218  0.00  0.00    +0.005 C 
ATOM      4  C   UNL A   1     -19.563 -20.801   6.820  0.00  0.00    +0.011 C 
ATOM      5  C   UNL A   1     -16.252 -23.353   6.452  0.00  0.00    +0.320 C 
ATOM      6  C   UNL A   1     -18.201 -20.060   6.813  0.00  0.00    +0.001 C 
ATOM      7  C   UNL A   1     -17.090 -21.016   6.583  0.00  0.00    +0.015 C 
ATOM      8  O   UNL A   1     -15.054 -22.972   6.770  0.00  0.00    -0.443 OA
ATOM      9  C   UNL A   1     -17.090 -22.531   8.542  0.00  0.00    -0.012 C 
ATOM     10  C   UNL A   1     -16.060 -22.983   8.924  0.00  0.00    +0.072 C 
ATOM     11  C   UNL A   1     -14.829 -23.139   8.113  0.00  0.00    +0.239 C 
ATOM     12  O   UNL A   1     -16.225 -24.037   5.362  0.00  0.00    -0.250 OA
ATOM     13  C   UNL A   1     -20.787 -22.625   7.546  0.00  0.00    +0.022 C 
ATOM     14  C   UNL A   1     -21.969 -21.895   7.350  0.00  0.00    +0.005 C 
ATOM     15  C   UNL A   1     -21.926 -20.461   6.954  0.00  0.00    +0.012 C 
ATOM     16  C   UNL A   1     -20.660 -19.873   6.751  0.00  0.00    +0.103 C 
ENDROOT
BRANCH  13  17
ATOM     17  C   UNL A   1     -20.931 -23.868   7.868  0.00  0.00    -0.022 A 
ATOM     18  C   UNL A   1     -21.639 -24.746   7.054  0.00  0.00    -0.004 A 
ATOM     19  C   UNL A   1     -21.860 -26.002   7.589  0.00  0.00    -0.000 A 
ATOM     20  C   UNL A   1     -21.124 -26.485   8.638  0.00  0.00    -0.000 A 
ATOM     21  C   UNL A   1     -20.397 -25.631   9.465  0.00  0.00    -0.000 A 
ATOM     22  C   UNL A   1     -20.390 -24.349   9.117  0.00  0.00    -0.004 A 
ENDBRANCH  13  17
BRANCH  10  23
ATOM     23  C   UNL A   1     -15.835 -23.568  10.331  0.00  0.00    +0.264 C 
ATOM     24  N   UNL A   1     -14.910 -23.603  10.945  0.00  0.00    -0.200 NA
ATOM     25  O   UNL A   1     -16.967 -24.033  10.859  0.00  0.00    -0.269 OA
ATOM     26  C   UNL A   1     -14.729 -24.128  12.324  0.00  0.00    +0.139 C 
ENDBRANCH  10  23
BRANCH  16  27
ATOM     27  C   UNL A   1     -20.640 -18.455   6.369  0.00  0.00    +0.364 C 
ATOM     28  O   UNL A   1     -20.073 -18.076   5.381  0.00  0.00    -0.246 OA
ATOM     29  O   UNL A   1     -21.282 -17.606   7.196  0.00  0.00    -0.246 OA
ENDBRANCH  16  27
TORSDOF 3
ENDMDL
ENDMDL
