REMARK  Name = outputs/IAG933/test6/raw/output_827_IAG933_linker_design_.xyz
REMARK  4 active torsions:
REMARK  status: ('A' for Active; 'I' for Inactive)
REMARK    1  A    between atoms: C_1  and  C_2
REMARK    2  A    between atoms: C_1  and  C_8
REMARK    3  A    between atoms: C_1  and  C_44
REMARK    4  A    between atoms: C_14  and  C_15
REMARK                            x       y       z     vdW  Elec       q    Type
REMARK                         _______ _______ _______ _____ _____    ______ ____
ROOT
ATOM      1  C   UNL A   1     -25.688   1.614  26.461  0.00  0.00    +0.039 C 
ATOM      2  C   UNL A   1     -26.250   2.920  26.395  0.00  0.00    +0.075 C 
ATOM      3  C   UNL A   1     -27.438   3.091  25.645  0.00  0.00    +0.106 C 
ATOM      4  N   UNL A   1     -28.075   2.089  25.003  0.00  0.00    -0.208 NA
ATOM      5  C   UNL A   1     -27.543   0.849  25.079  0.00  0.00    +0.253 C 
ATOM      6  O   UNL A   1     -28.193  -0.208  24.477  0.00  0.00    -0.455 OA
ATOM      7  C   UNL A   1     -29.460   0.005  23.866  0.00  0.00    +0.254 C 
ATOM      8  C   UNL A   1     -30.065  -1.377  23.573  0.00  0.00    +0.254 C 
ATOM      9  O   UNL A   1     -30.729  -1.878  24.721  0.00  0.00    -0.461 OA
ATOM     10  C   UNL A   1     -26.354   0.576  25.777  0.00  0.00    +0.191 C 
ATOM     11  F   UNL A   1     -25.860  -0.681  25.795  0.00  0.00    -0.200 F 
ATOM     12  C   UNL A   1     -28.771  -1.891  30.805  0.00  0.00    +0.086 C 
ATOM     13  C   UNL A   1     -29.848  -0.994  28.715  0.00  0.00    +0.108 C 
ATOM     14  O   UNL A   1     -30.308  -3.192  29.466  0.00  0.00    -0.464 OA
ATOM     15  C   UNL A   1     -22.821   0.343  29.458  0.00  0.00    -0.007 C 
ATOM     16  C   UNL A   1     -30.428  -2.241  28.472  0.00  0.00    +0.205 C 
ATOM     17  C   UNL A   1     -28.730  -0.922  29.742  0.00  0.00    +0.155 C 
ATOM     18  C   UNL A   1     -21.898   1.891  26.271  0.00  0.00    +0.007 C 
ATOM     19  C   UNL A   1     -29.451  -3.138  30.530  0.00  0.00    +0.201 C 
ATOM     20  C   UNL A   1     -23.411   2.139  26.233  0.00  0.00    +0.031 C 
ATOM     21 CL   UNL A   1     -29.220  -4.460  31.588  0.00  0.00    -0.043 Cl
ATOM     22  C   UNL A   1     -31.069  -2.547  27.242  0.00  0.00    +0.131 C 
ATOM     23  C   UNL A   1     -21.560   1.129  27.573  0.00  0.00    +0.024 C 
ATOM     24  C   UNL A   1     -22.991   0.711  28.202  0.00  0.00    -0.021 C 
ATOM     25  N   UNL A   1     -25.532   0.738  28.343  0.00  0.00    -0.237 NA
ATOM     26  C   UNL A   1     -24.236   1.226  27.304  0.00  0.00    +0.123 C 
ATOM     27  C   UNL A   1     -30.740  -1.600  26.069  0.00  0.00    +0.196 C 
ATOM     28  C   UNL A   1     -25.972  -0.253  29.106  0.00  0.00    +0.207 C 
ATOM     29  N   UNL A   1     -30.725  -0.403  26.642  0.00  0.00    -0.145 NA
ATOM     30  C   UNL A   1     -30.273   0.067  27.883  0.00  0.00    +0.274 C 
ATOM     31  O   UNL A   1     -30.207   1.252  28.177  0.00  0.00    -0.268 OA
ATOM     32  O   UNL A   1     -27.534  -0.182  29.562  0.00  0.00    -0.440 OA
ENDROOT
BRANCH   2  33
ATOM     33  C   UNL A   1     -25.642   4.093  27.123  0.00  0.00    +0.266 C 
ATOM     34  N   UNL A   1     -25.614   5.252  26.449  0.00  0.00    -0.200 NA
ATOM     35  C   UNL A   1     -25.026   6.479  26.963  0.00  0.00    +0.139 C 
ATOM     36  O   UNL A   1     -25.143   3.966  28.243  0.00  0.00    -0.268 OA
ENDBRANCH   2  33
BRANCH  28  37
ATOM     37  C   UNL A   1     -24.855  -1.012  30.143  0.00  0.00    +0.114 C 
BRANCH  37  38
ATOM     38  C   UNL A   1     -24.973  -2.505  29.788  0.00  0.00    -0.012 C 
ATOM     39  C   UNL A   1     -23.906  -3.173  29.146  0.00  0.00    -0.004 C 
ATOM     40  C   UNL A   1     -23.989  -4.549  28.853  0.00  0.00    -0.000 C 
ATOM     41  C   UNL A   1     -25.137  -5.280  29.205  0.00  0.00    -0.000 C 
ATOM     42  C   UNL A   1     -26.232  -4.611  29.784  0.00  0.00    -0.000 C 
ATOM     43  C   UNL A   1     -26.155  -3.232  30.065  0.00  0.00    -0.004 C 
ENDBRANCH  37  38
BRANCH  37  44
ATOM     44  C   UNL A   1     -25.387  -0.679  31.571  0.00  0.00    +0.086 C 
ATOM     45  C   UNL A   1     -25.189   0.773  32.028  0.00  0.00    +0.020 C 
ATOM     46  C   UNL A   1     -25.336   0.684  33.544  0.00  0.00    +0.020 C 
ATOM     47  C   UNL A   1     -24.829  -0.715  33.905  0.00  0.00    +0.089 C 
ATOM     48  N   UNL A   1     -24.758  -1.481  32.646  0.00  0.00    -0.219 NA
ENDBRANCH  37  44
ENDBRANCH  28  37
TORSDOF 4
