REMARK  Name = outputs/IAG933/test6/raw/output_8272_IAG933_linker_design_.xyz
REMARK  11 active torsions:
REMARK  status: ('A' for Active; 'I' for Inactive)
REMARK    1  A    between atoms: C_1  and  C_2
REMARK    2  A    between atoms: C_1  and  C_8
REMARK    3  A    between atoms: C_9  and  C_41
REMARK    4  A    between atoms: C_13  and  C_28
REMARK    5  A    between atoms: C_14  and  C_15
REMARK    6  A    between atoms: C_21  and  O_22
REMARK    7  A    between atoms: O_22  and  C_23
REMARK    8  A    between atoms: C_23  and  C_24
REMARK    9  A    between atoms: C_33  and  C_40
REMARK   10  A    between atoms: C_33  and  C_41
REMARK   11  A    between atoms: C_41  and  O_42
REMARK                            x       y       z     vdW  Elec       q    Type
REMARK                         _______ _______ _______ _____ _____    ______ ____
ROOT
ATOM      1  C   UNL A   1     -24.278   1.362  26.591  0.00  0.00    -0.009 C 
ATOM      2  O   UNL A   1     -24.406  -0.621  27.641  0.00  0.00    -0.218 OA
ATOM      3  C   UNL A   1     -21.760   0.889  28.210  0.00  0.00    +0.216 C 
ATOM      4  O   UNL A   1     -21.073  -0.087  28.887  0.00  0.00    -0.217 OA
ATOM      5  C   UNL A   1     -21.115   1.629  27.511  0.00  0.00    +0.309 C 
ATOM      6  F   UNL A   1     -19.954   2.138  27.881  0.00  0.00    -0.201 F 
ATOM      7  C   UNL A   1     -23.580   2.040  25.421  0.00  0.00    +0.000 C 
ATOM      8  O   UNL A   1     -21.169   1.856  26.127  0.00  0.00    -0.320 OA
ATOM      9  C   UNL A   1     -23.933   0.642  27.569  0.00  0.00    +0.173 C 
ATOM     10  C   UNL A   1     -22.296   2.008  25.090  0.00  0.00    +0.171 C 
ATOM     11  C   UNL A   1     -23.040   1.018  28.729  0.00  0.00    +0.073 C 
ENDROOT
BRANCH   1  12
ATOM     12  C   UNL A   1     -25.688   1.614  26.461  0.00  0.00    +0.090 C 
ATOM     13  C   UNL A   1     -26.250   2.920  26.395  0.00  0.00    +0.059 C 
ATOM     14  C   UNL A   1     -27.438   3.091  25.645  0.00  0.00    +0.102 C 
ATOM     15  N   UNL A   1     -28.075   2.089  25.003  0.00  0.00    -0.212 NA
ATOM     16  C   UNL A   1     -27.543   0.849  25.079  0.00  0.00    +0.234 C 
ATOM     17  C   UNL A   1     -26.354   0.576  25.777  0.00  0.00    +0.244 C 
ATOM     18  F   UNL A   1     -25.860  -0.681  25.795  0.00  0.00    -0.227 F 
BRANCH  13  19
ATOM     19  C   UNL A   1     -25.642   4.093  27.123  0.00  0.00    +0.263 C 
ATOM     20  N   UNL A   1     -25.614   5.252  26.449  0.00  0.00    -0.200 NA
ATOM     21  C   UNL A   1     -25.026   6.479  26.963  0.00  0.00    +0.139 C 
ATOM     22  O   UNL A   1     -25.143   3.966  28.243  0.00  0.00    -0.269 OA
ENDBRANCH  13  19
BRANCH  16  23
ATOM     23  O   UNL A   1     -28.193  -0.208  24.477  0.00  0.00    -0.459 OA
BRANCH  23  24
ATOM     24  C   UNL A   1     -29.460   0.005  23.866  0.00  0.00    +0.242 C 
BRANCH  24  25
ATOM     25  C   UNL A   1     -30.065  -1.377  23.573  0.00  0.00    +0.229 C 
ATOM     26  O   UNL A   1     -30.729  -1.878  24.721  0.00  0.00    -0.216 OA
ENDBRANCH  24  25
ENDBRANCH  23  24
ENDBRANCH  16  23
ENDBRANCH   1  12
BRANCH  11  27
ATOM     27  C   UNL A   1     -24.246   1.414  29.604  0.00  0.00    +0.035 C 
BRANCH  27  28
ATOM     28  C   UNL A   1     -24.246   1.646  31.175  0.00  0.00    +0.117 C 
BRANCH  28  30
ATOM     29  C   UNL A   1     -25.387  -0.679  31.571  0.00  0.00    +0.080 C 
ATOM     30  C   UNL A   1     -25.189   0.773  32.028  0.00  0.00    +0.045 C 
ATOM     31  C   UNL A   1     -25.336   0.684  33.544  0.00  0.00    +0.023 C 
ATOM     32  C   UNL A   1     -24.829  -0.715  33.905  0.00  0.00    +0.089 C 
ATOM     33  N   UNL A   1     -24.758  -1.481  32.646  0.00  0.00    -0.219 NA
BRANCH  29  34
ATOM     34  C   UNL A   1     -24.855  -1.012  30.143  0.00  0.00    +0.044 C 
BRANCH  34  35
ATOM     35  C   UNL A   1     -24.973  -2.505  29.788  0.00  0.00    -0.021 C 
ATOM     36  C   UNL A   1     -23.906  -3.173  29.146  0.00  0.00    -0.004 C 
ATOM     37  C   UNL A   1     -23.989  -4.549  28.853  0.00  0.00    -0.000 C 
ATOM     38  C   UNL A   1     -25.137  -5.280  29.205  0.00  0.00    -0.000 C 
ATOM     39  C   UNL A   1     -26.232  -4.611  29.784  0.00  0.00    -0.000 C 
ATOM     40  C   UNL A   1     -26.155  -3.232  30.065  0.00  0.00    -0.004 C 
ENDBRANCH  34  35
ENDBRANCH  29  34
ENDBRANCH  28  30
BRANCH  28  42
ATOM     41  C   UNL A   1     -25.210   3.772  32.162  0.00  0.00    +0.174 C 
ATOM     42  O   UNL A   1     -24.447   3.043  31.239  0.00  0.00    -0.353 OA
ENDBRANCH  28  42
ENDBRANCH  27  28
ENDBRANCH  11  27
TORSDOF 11
