REMARK  Name = outputs/IAG933/test6/raw/output_8276_IAG933_linker_design_.xyz
REMARK  14 active torsions:
REMARK  status: ('A' for Active; 'I' for Inactive)
REMARK    1  A    between atoms: C_1  and  C_2
REMARK    2  A    between atoms: C_1  and  C_8
REMARK    3  A    between atoms: C_1  and  N_41
REMARK    4  A    between atoms: C_13  and  N_30
REMARK    5  A    between atoms: C_14  and  C_15
REMARK    6  A    between atoms: C_21  and  O_22
REMARK    7  A    between atoms: O_22  and  C_23
REMARK    8  A    between atoms: C_23  and  C_24
REMARK    9  A    between atoms: C_28  and  C_32
REMARK   10  A    between atoms: C_28  and  C_37
REMARK   11  A    between atoms: C_32  and  C_38
REMARK   12  A    between atoms: C_34  and  N_41
REMARK   13  A    between atoms: C_37  and  C_39
REMARK   14  A    between atoms: C_38  and  C_40
REMARK                            x       y       z     vdW  Elec       q    Type
REMARK                         _______ _______ _______ _____ _____    ______ ____
ROOT
ATOM      1  N   UNL A   1     -24.559   1.308  27.232  0.00  0.00    -0.123 N 
ATOM      2  C   UNL A   1     -23.197   1.745  26.746  0.00  0.00    +0.429 C 
ATOM      3  C   UNL A   1     -22.826   0.501  28.583  0.00  0.00    +0.261 C 
ATOM      4  C   UNL A   1     -24.330   0.544  28.462  0.00  0.00    +0.324 C 
ATOM      5 CL   UNL A   1     -22.834   2.472  25.227  0.00  0.00    -0.016 Cl
ATOM      6  O   UNL A   1     -22.156   1.218  27.525  0.00  0.00    -0.418 OA
ENDROOT
BRANCH   1   7
ATOM      7  C   UNL A   1     -25.688   1.614  26.461  0.00  0.00    +0.181 C 
ATOM      8  C   UNL A   1     -26.250   2.920  26.395  0.00  0.00    +0.114 C 
ATOM      9  C   UNL A   1     -27.438   3.091  25.645  0.00  0.00    +0.110 C 
ATOM     10  N   UNL A   1     -28.075   2.089  25.003  0.00  0.00    -0.208 NA
ATOM     11  C   UNL A   1     -27.543   0.849  25.079  0.00  0.00    +0.257 C 
ATOM     12  C   UNL A   1     -26.354   0.576  25.777  0.00  0.00    +0.230 C 
ATOM     13  F   UNL A   1     -25.860  -0.681  25.795  0.00  0.00    -0.196 F 
BRANCH   8  14
ATOM     14  C   UNL A   1     -25.642   4.093  27.123  0.00  0.00    +0.270 C 
ATOM     15  N   UNL A   1     -25.614   5.252  26.449  0.00  0.00    -0.200 NA
ATOM     16  C   UNL A   1     -25.026   6.479  26.963  0.00  0.00    +0.139 C 
ATOM     17  O   UNL A   1     -25.143   3.966  28.243  0.00  0.00    -0.268 OA
ENDBRANCH   8  14
BRANCH  11  18
ATOM     18  O   UNL A   1     -28.193  -0.208  24.477  0.00  0.00    -0.456 OA
BRANCH  18  19
ATOM     19  C   UNL A   1     -29.460   0.005  23.866  0.00  0.00    +0.243 C 
BRANCH  19  20
ATOM     20  C   UNL A   1     -30.065  -1.377  23.573  0.00  0.00    +0.229 C 
ATOM     21  O   UNL A   1     -30.729  -1.878  24.721  0.00  0.00    -0.216 OA
ENDBRANCH  19  20
ENDBRANCH  18  19
ENDBRANCH  11  18
ENDBRANCH   1   7
BRANCH   4  24
ATOM     22  O   UNL A   1     -27.591  -0.420  28.757  0.00  0.00    -0.247 OA
ATOM     23  C   UNL A   1     -26.763   0.359  29.165  0.00  0.00    +0.313 C 
ATOM     24  N   UNL A   1     -25.430  -0.114  29.094  0.00  0.00    -0.141 N 
BRANCH  24  25
ATOM     25  C   UNL A   1     -24.855  -1.012  30.143  0.00  0.00    +0.206 C 
BRANCH  25  26
ATOM     26  C   UNL A   1     -24.973  -2.505  29.788  0.00  0.00    +0.022 C 
ATOM     27  C   UNL A   1     -23.906  -3.173  29.146  0.00  0.00    -0.000 C 
ATOM     28  C   UNL A   1     -23.989  -4.549  28.853  0.00  0.00    -0.000 C 
ATOM     29  C   UNL A   1     -25.137  -5.280  29.205  0.00  0.00    -0.000 C 
ATOM     30  C   UNL A   1     -26.232  -4.611  29.784  0.00  0.00    -0.000 C 
ATOM     31  C   UNL A   1     -26.155  -3.232  30.065  0.00  0.00    -0.000 C 
ENDBRANCH  25  26
BRANCH  25  32
ATOM     32  C   UNL A   1     -25.387  -0.679  31.571  0.00  0.00    +0.120 C 
ATOM     33  C   UNL A   1     -25.189   0.773  32.028  0.00  0.00    +0.023 C 
ATOM     34  C   UNL A   1     -25.336   0.684  33.544  0.00  0.00    +0.020 C 
ATOM     35  C   UNL A   1     -24.829  -0.715  33.905  0.00  0.00    +0.089 C 
ATOM     36  N   UNL A   1     -24.758  -1.481  32.646  0.00  0.00    -0.215 NA
ENDBRANCH  25  32
ENDBRANCH  24  25
BRANCH  23  37
ATOM     37  C   UNL A   1     -27.070   1.822  29.770  0.00  0.00    +0.113 C 
BRANCH  37  38
ATOM     38  C   UNL A   1     -28.420   2.622  29.732  0.00  0.00    +0.012 C 
BRANCH  38  39
ATOM     39  C   UNL A   1     -28.251   3.937  30.560  0.00  0.00    +0.002 C 
BRANCH  39  40
ATOM     40  C   UNL A   1     -28.647   5.215  29.906  0.00  0.00    +0.021 C 
BRANCH  40  42
ATOM     41  N   UNL A   1     -29.793   4.367  28.029  0.00  0.00    -0.131 NA
ATOM     42  C   UNL A   1     -29.940   5.343  29.044  0.00  0.00    +0.109 C 
ENDBRANCH  40  42
ENDBRANCH  39  40
ENDBRANCH  38  39
ENDBRANCH  37  38
ENDBRANCH  23  37
ENDBRANCH   4  24
TORSDOF 14
