MODEL 827
MODEL 1
REMARK VINA RESULT:    -7.282      0.000      0.000
REMARK INTER + INTRA:         -10.583
REMARK INTER:                  -9.411
REMARK INTRA:                  -1.173
REMARK UNBOUND:                -1.173
REMARK  Name = No_827-gen_results/8p0m/2024-11-27-11-27-31/
REMARK  5 active torsions:
REMARK  status: ('A' for Active; 'I' for Inactive)
REMARK    1  A    between atoms: C_3  and  C_7
REMARK    2  A    between atoms: C_4  and  C_19
REMARK    3  A    between atoms: C_7  and  C_8
REMARK    4  A    between atoms: C_7  and  C_14
REMARK    5  A    between atoms: C_19  and  C_20
REMARK                            x       y       z     vdW  Elec       q    Type
REMARK                         _______ _______ _______ _____ _____    ______ ____
ROOT
ATOM      1  C   UNL A   1     -24.158  -0.874  30.163  0.00  0.00    +0.139 C 
ENDROOT
BRANCH   1   2
ATOM      2  C   UNL A   1     -24.728  -1.978  29.623  0.00  0.00    -0.010 A 
ATOM      3  C   UNL A   1     -25.800  -2.719  30.148  0.00  0.00    -0.001 A 
ATOM      4  C   UNL A   1     -26.082  -4.010  29.612  0.00  0.00    +0.029 A 
ATOM      5  C   UNL A   1     -25.060  -4.750  28.964  0.00  0.00    +0.140 A 
ATOM      6  C   UNL A   1     -23.864  -4.096  28.604  0.00  0.00    +0.029 A 
ATOM      7  C   UNL A   1     -23.636  -2.798  29.096  0.00  0.00    -0.001 A 
ATOM      8  F   UNL A   1     -25.235  -5.984  28.619  0.00  0.00    -0.204 F 
ENDBRANCH   1   2
BRANCH   1  11
ATOM      9  C   UNL A   1     -21.779  -0.441  29.264  0.00  0.00    -0.004 A 
ATOM     10  C   UNL A   1     -21.230   0.128  28.568  0.00  0.00    -0.000 A 
ATOM     11  C   UNL A   1     -23.209  -0.134  29.276  0.00  0.00    -0.014 A 
ATOM     12  C   UNL A   1     -23.762   0.799  28.433  0.00  0.00    -0.014 A 
ATOM     13  C   UNL A   1     -21.539   1.153  27.571  0.00  0.00    -0.000 A 
ATOM     14  C   UNL A   1     -22.921   1.458  27.574  0.00  0.00    -0.004 A 
BRANCH  12  15
ATOM     15  C   UNL A   1     -25.161   1.188  28.353  0.00  0.00    +0.140 C 
BRANCH  15  16
ATOM     16  C   UNL A   1     -25.911   0.742  27.137  0.00  0.00    +0.369 C 
ATOM     17  O   UNL A   1     -25.664  -0.298  26.695  0.00  0.00    -0.245 OA
ATOM     18  O   UNL A   1     -26.524   1.627  26.526  0.00  0.00    -0.245 OA
ENDBRANCH  15  16
ENDBRANCH  12  15
ENDBRANCH   1  11
BRANCH   1  19
ATOM     19  C   UNL A   1     -24.084  -0.684  31.521  0.00  0.00    +0.405 C 
ATOM     20  F   UNL A   1     -24.963  -0.731  32.130  0.00  0.00    -0.169 F 
ATOM     21  F   UNL A   1     -23.451   0.511  31.628  0.00  0.00    -0.169 F 
ATOM     22  F   UNL A   1     -23.056  -1.421  32.101  0.00  0.00    -0.169 F 
ENDBRANCH   1  19
TORSDOF 5
ENDMDL
ENDMDL
