REMARK  Name = outputs/IAG933/test6/raw/output_8289_IAG933_linker_design_.xyz
REMARK  11 active torsions:
REMARK  status: ('A' for Active; 'I' for Inactive)
REMARK    1  A    between atoms: C_1  and  C_2
REMARK    2  A    between atoms: C_1  and  C_8
REMARK    3  A    between atoms: C_1  and  C_29
REMARK    4  A    between atoms: C_13  and  N_38
REMARK    5  A    between atoms: C_14  and  C_15
REMARK    6  A    between atoms: C_21  and  O_22
REMARK    7  A    between atoms: O_22  and  C_23
REMARK    8  A    between atoms: C_23  and  C_24
REMARK    9  A    between atoms: C_28  and  C_30
REMARK   10  A    between atoms: C_30  and  C_33
REMARK   11  A    between atoms: C_30  and  N_38
REMARK                            x       y       z     vdW  Elec       q    Type
REMARK                         _______ _______ _______ _____ _____    ______ ____
ROOT
ATOM      1  C   UNL A   1     -23.003   1.042  27.445  0.00  0.00    +0.157 C 
ENDROOT
BRANCH   1   4
ATOM      2  C   UNL A   1     -25.073   0.161  29.207  0.00  0.00    +0.287 C 
ATOM      3  N   UNL A   1     -26.211   0.899  28.762  0.00  0.00    +0.161 NA
ATOM      4  C   UNL A   1     -22.943   0.488  28.750  0.00  0.00    +0.095 C 
ATOM      5  O   UNL A   1     -23.673   2.098  30.181  0.00  0.00    -0.413 OA
ATOM      6  O   UNL A   1     -22.192  -0.271  29.407  0.00  0.00    -0.539 OA
ATOM      7  N   UNL A   1     -23.949   1.075  29.368  0.00  0.00    -0.224 N 
BRANCH   2   8
ATOM      8  C   UNL A   1     -24.855  -1.012  30.143  0.00  0.00    +0.125 C 
BRANCH   8   9
ATOM      9  C   UNL A   1     -24.973  -2.505  29.788  0.00  0.00    -0.012 C 
ATOM     10  C   UNL A   1     -23.906  -3.173  29.146  0.00  0.00    -0.004 C 
ATOM     11  C   UNL A   1     -23.989  -4.549  28.853  0.00  0.00    -0.000 C 
ATOM     12  C   UNL A   1     -25.137  -5.280  29.205  0.00  0.00    -0.000 C 
ATOM     13  C   UNL A   1     -26.232  -4.611  29.784  0.00  0.00    -0.000 C 
ATOM     14  C   UNL A   1     -26.155  -3.232  30.065  0.00  0.00    -0.004 C 
ENDBRANCH   8   9
BRANCH   8  15
ATOM     15  C   UNL A   1     -25.387  -0.679  31.571  0.00  0.00    +0.086 C 
ATOM     16  C   UNL A   1     -25.189   0.773  32.028  0.00  0.00    +0.020 C 
ATOM     17  C   UNL A   1     -25.336   0.684  33.544  0.00  0.00    +0.020 C 
ATOM     18  C   UNL A   1     -24.829  -0.715  33.905  0.00  0.00    +0.089 C 
ATOM     19  N   UNL A   1     -24.758  -1.481  32.646  0.00  0.00    -0.219 NA
ENDBRANCH   8  15
ENDBRANCH   2   8
ENDBRANCH   1   4
BRANCH   1  22
ATOM     20  F   UNL A   1     -22.768   1.445  24.749  0.00  0.00    -0.143 F 
ATOM     21  O   UNL A   1     -23.351   3.265  25.735  0.00  0.00    -0.236 OA
ATOM     22  N   UNL A   1     -24.246   1.469  26.691  0.00  0.00    -0.240 N 
ATOM     23  C   UNL A   1     -23.492   2.034  25.683  0.00  0.00    +0.394 C 
BRANCH  22  24
ATOM     24  C   UNL A   1     -25.688   1.614  26.461  0.00  0.00    +0.148 C 
ATOM     25  C   UNL A   1     -26.250   2.920  26.395  0.00  0.00    +0.073 C 
ATOM     26  C   UNL A   1     -27.438   3.091  25.645  0.00  0.00    +0.104 C 
ATOM     27  N   UNL A   1     -28.075   2.089  25.003  0.00  0.00    -0.212 NA
ATOM     28  C   UNL A   1     -27.543   0.849  25.079  0.00  0.00    +0.236 C 
ATOM     29  C   UNL A   1     -26.354   0.576  25.777  0.00  0.00    +0.258 C 
ATOM     30  F   UNL A   1     -25.860  -0.681  25.795  0.00  0.00    -0.225 F 
BRANCH  25  31
ATOM     31  C   UNL A   1     -25.642   4.093  27.123  0.00  0.00    +0.264 C 
ATOM     32  N   UNL A   1     -25.614   5.252  26.449  0.00  0.00    -0.200 NA
ATOM     33  C   UNL A   1     -25.026   6.479  26.963  0.00  0.00    +0.139 C 
ATOM     34  O   UNL A   1     -25.143   3.966  28.243  0.00  0.00    -0.269 OA
ENDBRANCH  25  31
BRANCH  28  35
ATOM     35  O   UNL A   1     -28.193  -0.208  24.477  0.00  0.00    -0.459 OA
BRANCH  35  36
ATOM     36  C   UNL A   1     -29.460   0.005  23.866  0.00  0.00    +0.242 C 
BRANCH  36  37
ATOM     37  C   UNL A   1     -30.065  -1.377  23.573  0.00  0.00    +0.229 C 
ATOM     38  O   UNL A   1     -30.729  -1.878  24.721  0.00  0.00    -0.216 OA
ENDBRANCH  36  37
ENDBRANCH  35  36
ENDBRANCH  28  35
ENDBRANCH  22  24
ENDBRANCH   1  22
BRANCH   1  39
ATOM     39  C   UNL A   1     -21.722   1.426  27.282  0.00  0.00    +0.219 C 
ATOM     40  F   UNL A   1     -21.008   1.992  26.335  0.00  0.00    -0.232 F 
ENDBRANCH   1  39
TORSDOF 11
