REMARK  Name = outputs/IAG933/test6/raw/output_8296_IAG933_linker_design_.xyz
REMARK  13 active torsions:
REMARK  status: ('A' for Active; 'I' for Inactive)
REMARK    1  A    between atoms: C_1  and  C_2
REMARK    2  A    between atoms: C_1  and  C_8
REMARK    3  A    between atoms: C_1  and  N_38
REMARK    4  A    between atoms: C_13  and  C_33
REMARK    5  A    between atoms: C_14  and  C_15
REMARK    6  A    between atoms: C_21  and  O_22
REMARK    7  A    between atoms: O_22  and  C_23
REMARK    8  A    between atoms: C_23  and  C_24
REMARK    9  A    between atoms: C_29  and  C_40
REMARK   10  A    between atoms: C_30  and  C_33
REMARK   11  A    between atoms: C_30  and  N_38
REMARK   12  A    between atoms: C_36  and  N_38
REMARK   13  A    between atoms: N_39  and  C_41
REMARK                            x       y       z     vdW  Elec       q    Type
REMARK                         _______ _______ _______ _____ _____    ______ ____
ROOT
ATOM      1  C   UNL A   1     -24.720   1.226  27.317  0.00  0.00    +0.037 C 
ATOM      2 CL   UNL A   1     -22.318   3.003  24.584  0.00  0.00    -0.053 Cl
ATOM      3  C   UNL A   1     -23.646   2.000  26.615  0.00  0.00    -0.074 C 
ATOM      4  C   UNL A   1     -22.470   2.214  26.086  0.00  0.00    +0.175 C 
ENDROOT
BRANCH   1   5
ATOM      5  C   UNL A   1     -25.688   1.614  26.461  0.00  0.00    +0.043 C 
ATOM      6  C   UNL A   1     -26.250   2.920  26.395  0.00  0.00    +0.077 C 
ATOM      7  C   UNL A   1     -27.438   3.091  25.645  0.00  0.00    +0.107 C 
ATOM      8  N   UNL A   1     -28.075   2.089  25.003  0.00  0.00    -0.208 NA
ATOM      9  C   UNL A   1     -27.543   0.849  25.079  0.00  0.00    +0.253 C 
ATOM     10  C   UNL A   1     -26.354   0.576  25.777  0.00  0.00    +0.193 C 
ATOM     11  F   UNL A   1     -25.860  -0.681  25.795  0.00  0.00    -0.199 F 
BRANCH   6  12
ATOM     12  C   UNL A   1     -25.642   4.093  27.123  0.00  0.00    +0.266 C 
ATOM     13  N   UNL A   1     -25.614   5.252  26.449  0.00  0.00    -0.200 NA
ATOM     14  C   UNL A   1     -25.026   6.479  26.963  0.00  0.00    +0.139 C 
ATOM     15  O   UNL A   1     -25.143   3.966  28.243  0.00  0.00    -0.268 OA
ENDBRANCH   6  12
BRANCH   9  16
ATOM     16  O   UNL A   1     -28.193  -0.208  24.477  0.00  0.00    -0.456 OA
BRANCH  16  17
ATOM     17  C   UNL A   1     -29.460   0.005  23.866  0.00  0.00    +0.243 C 
BRANCH  17  18
ATOM     18  C   UNL A   1     -30.065  -1.377  23.573  0.00  0.00    +0.229 C 
ATOM     19  O   UNL A   1     -30.729  -1.878  24.721  0.00  0.00    -0.216 OA
ENDBRANCH  17  18
ENDBRANCH  16  17
ENDBRANCH   9  16
ENDBRANCH   1   5
BRANCH   4  22
ATOM     20  C   UNL A   1     -21.512   1.221  27.753  0.00  0.00    +0.234 C 
ATOM     21  F   UNL A   1     -20.385   0.853  28.395  0.00  0.00    -0.182 F 
ATOM     22  N   UNL A   1     -21.433   1.786  26.663  0.00  0.00    -0.198 NA
BRANCH  20  25
ATOM     23  O   UNL A   1     -22.338  -0.567  30.293  0.00  0.00    -0.231 OA
ATOM     24  C   UNL A   1     -22.579   0.085  29.379  0.00  0.00    +0.138 C 
ATOM     25  C   UNL A   1     -22.528   0.713  28.448  0.00  0.00    +0.134 C 
ENDBRANCH  20  25
ENDBRANCH   4  22
BRANCH   1  26
ATOM     26  C   UNL A   1     -24.532   0.619  28.261  0.00  0.00    +0.136 C 
BRANCH  26  27
ATOM     27  N   UNL A   1     -25.345  -0.125  29.101  0.00  0.00    -0.238 N 
BRANCH  27  29
ATOM     28  N   UNL A   1     -27.812  -0.259  28.727  0.00  0.00    -0.174 NA
ATOM     29  C   UNL A   1     -26.686  -0.101  28.875  0.00  0.00    +0.171 C 
ENDBRANCH  27  29
BRANCH  27  30
ATOM     30  C   UNL A   1     -24.855  -1.012  30.143  0.00  0.00    +0.121 C 
BRANCH  30  31
ATOM     31  C   UNL A   1     -24.973  -2.505  29.788  0.00  0.00    -0.002 C 
ATOM     32  C   UNL A   1     -23.906  -3.173  29.146  0.00  0.00    -0.003 C 
ATOM     33  C   UNL A   1     -23.989  -4.549  28.853  0.00  0.00    -0.000 C 
ATOM     34  C   UNL A   1     -25.137  -5.280  29.205  0.00  0.00    -0.000 C 
ATOM     35  C   UNL A   1     -26.232  -4.611  29.784  0.00  0.00    -0.000 C 
ATOM     36  C   UNL A   1     -26.155  -3.232  30.065  0.00  0.00    -0.003 C 
ENDBRANCH  30  31
BRANCH  30  37
ATOM     37  C   UNL A   1     -25.387  -0.679  31.571  0.00  0.00    +0.096 C 
ATOM     38  C   UNL A   1     -25.189   0.773  32.028  0.00  0.00    +0.021 C 
ATOM     39  C   UNL A   1     -25.336   0.684  33.544  0.00  0.00    +0.020 C 
ATOM     40  C   UNL A   1     -24.829  -0.715  33.905  0.00  0.00    +0.089 C 
ATOM     41  N   UNL A   1     -24.758  -1.481  32.646  0.00  0.00    -0.217 NA
ENDBRANCH  30  37
ENDBRANCH  27  30
ENDBRANCH  26  27
ENDBRANCH   1  26
TORSDOF 13
