REMARK  Name = outputs/IAG933/test6/raw/output_8299_IAG933_linker_design_.xyz
REMARK  14 active torsions:
REMARK  status: ('A' for Active; 'I' for Inactive)
REMARK    1  A    between atoms: C_1  and  C_2
REMARK    2  A    between atoms: C_1  and  C_8
REMARK    3  A    between atoms: C_1  and  N_36
REMARK    4  A    between atoms: C_13  and  C_32
REMARK    5  A    between atoms: C_14  and  C_15
REMARK    6  A    between atoms: C_21  and  O_22
REMARK    7  A    between atoms: O_22  and  C_23
REMARK    8  A    between atoms: C_23  and  C_24
REMARK    9  A    between atoms: C_29  and  O_30
REMARK   10  A    between atoms: C_29  and  N_42
REMARK   11  A    between atoms: O_30  and  C_38
REMARK   12  A    between atoms: C_33  and  C_38
REMARK   13  A    between atoms: N_36  and  C_37
REMARK   14  A    between atoms: N_36  and  C_40
REMARK                            x       y       z     vdW  Elec       q    Type
REMARK                         _______ _______ _______ _____ _____    ______ ____
ROOT
ATOM      1  N   UNL A   1     -25.403  -0.110  29.033  0.00  0.00    -0.302 N 
ENDROOT
BRANCH   1   6
ATOM      2  C   UNL A   1     -21.729   1.417  27.977  0.00  0.00    +0.034 C 
ATOM      3  C   UNL A   1     -24.493   1.415  27.130  0.00  0.00    +0.158 C 
ATOM      4  O   UNL A   1     -23.379   1.765  26.338  0.00  0.00    -0.350 OA
ATOM      5  C   UNL A   1     -22.404   2.473  27.084  0.00  0.00    +0.143 C 
ATOM      6  C   UNL A   1     -24.182   0.479  28.151  0.00  0.00    +0.104 C 
ATOM      7  C   UNL A   1     -22.717   0.760  28.886  0.00  0.00    +0.025 C 
BRANCH   3   8
ATOM      8  C   UNL A   1     -25.688   1.614  26.461  0.00  0.00    +0.044 C 
ATOM      9  C   UNL A   1     -26.250   2.920  26.395  0.00  0.00    +0.075 C 
ATOM     10  C   UNL A   1     -27.438   3.091  25.645  0.00  0.00    +0.106 C 
ATOM     11  N   UNL A   1     -28.075   2.089  25.003  0.00  0.00    -0.208 NA
ATOM     12  C   UNL A   1     -27.543   0.849  25.079  0.00  0.00    +0.253 C 
ATOM     13  C   UNL A   1     -26.354   0.576  25.777  0.00  0.00    +0.191 C 
ATOM     14  F   UNL A   1     -25.860  -0.681  25.795  0.00  0.00    -0.200 F 
BRANCH   9  15
ATOM     15  C   UNL A   1     -25.642   4.093  27.123  0.00  0.00    +0.266 C 
ATOM     16  N   UNL A   1     -25.614   5.252  26.449  0.00  0.00    -0.200 NA
ATOM     17  C   UNL A   1     -25.026   6.479  26.963  0.00  0.00    +0.139 C 
ATOM     18  O   UNL A   1     -25.143   3.966  28.243  0.00  0.00    -0.268 OA
ENDBRANCH   9  15
BRANCH  12  19
ATOM     19  O   UNL A   1     -28.193  -0.208  24.477  0.00  0.00    -0.456 OA
BRANCH  19  20
ATOM     20  C   UNL A   1     -29.460   0.005  23.866  0.00  0.00    +0.243 C 
BRANCH  20  21
ATOM     21  C   UNL A   1     -30.065  -1.377  23.573  0.00  0.00    +0.229 C 
ATOM     22  O   UNL A   1     -30.729  -1.878  24.721  0.00  0.00    -0.216 OA
ENDBRANCH  20  21
ENDBRANCH  19  20
ENDBRANCH  12  19
ENDBRANCH   3   8
ENDBRANCH   1   6
BRANCH   1  24
ATOM     23  C   UNL A   1     -28.034   0.590  29.281  0.00  0.00    +0.021 C 
ATOM     24  C   UNL A   1     -26.950  -0.268  28.811  0.00  0.00    +0.059 C 
BRANCH  23  25
ATOM     25  C   UNL A   1     -27.594   1.941  29.837  0.00  0.00    +0.172 C 
BRANCH  25  26
ATOM     26  O   UNL A   1     -27.899   1.950  31.270  0.00  0.00    -0.328 OA
BRANCH  26  27
ATOM     27  C   UNL A   1     -27.861   3.252  31.915  0.00  0.00    +0.262 C 
BRANCH  27  31
ATOM     28  O   UNL A   1     -24.700   4.280  33.019  0.00  0.00    -0.247 OA
ATOM     29  N   UNL A   1     -26.646   5.173  33.524  0.00  0.00    -0.068 NA
ATOM     30  C   UNL A   1     -25.877   4.449  32.752  0.00  0.00    +0.361 C 
ATOM     31  N   UNL A   1     -26.519   3.879  31.641  0.00  0.00    -0.154 NA
ENDBRANCH  27  31
ENDBRANCH  26  27
ENDBRANCH  25  26
ENDBRANCH  23  25
ENDBRANCH   1  24
BRANCH   1  32
ATOM     32  C   UNL A   1     -24.855  -1.012  30.143  0.00  0.00    +0.111 C 
BRANCH  32  33
ATOM     33  C   UNL A   1     -24.973  -2.505  29.788  0.00  0.00    -0.003 C 
ATOM     34  C   UNL A   1     -23.906  -3.173  29.146  0.00  0.00    -0.003 C 
ATOM     35  C   UNL A   1     -23.989  -4.549  28.853  0.00  0.00    -0.000 C 
ATOM     36  C   UNL A   1     -25.137  -5.280  29.205  0.00  0.00    -0.000 C 
ATOM     37  C   UNL A   1     -26.232  -4.611  29.784  0.00  0.00    -0.000 C 
ATOM     38  C   UNL A   1     -26.155  -3.232  30.065  0.00  0.00    -0.003 C 
ENDBRANCH  32  33
BRANCH  32  39
ATOM     39  C   UNL A   1     -25.387  -0.679  31.571  0.00  0.00    +0.095 C 
ATOM     40  C   UNL A   1     -25.189   0.773  32.028  0.00  0.00    +0.021 C 
ATOM     41  C   UNL A   1     -25.336   0.684  33.544  0.00  0.00    +0.020 C 
ATOM     42  C   UNL A   1     -24.829  -0.715  33.905  0.00  0.00    +0.089 C 
ATOM     43  N   UNL A   1     -24.758  -1.481  32.646  0.00  0.00    -0.217 NA
ENDBRANCH  32  39
ENDBRANCH   1  32
TORSDOF 14
