MODEL 829
MODEL 1
REMARK VINA RESULT:    -6.698      0.000      0.000
REMARK INTER + INTRA:          -9.150
REMARK INTER:                  -8.265
REMARK INTRA:                  -0.886
REMARK UNBOUND:                -0.886
REMARK  Name = No_829-gen_results/8p0m/2024-11-27-11-27-31/
REMARK  4 active torsions:
REMARK  status: ('A' for Active; 'I' for Inactive)
REMARK    1  A    between atoms: C_4  and  C_7
REMARK    2  A    between atoms: C_7  and  C_8
REMARK    3  A    between atoms: C_8  and  C_9
REMARK    4  A    between atoms: C_9  and  C_10
REMARK                            x       y       z     vdW  Elec       q    Type
REMARK                         _______ _______ _______ _____ _____    ______ ____
ROOT
ATOM      1  C   UNL A   1     -23.131   0.558  29.711  0.00  0.00    +0.028 C 
ENDROOT
BRANCH   1   5
ATOM      2  C   UNL A   1     -24.034   2.108  26.311  0.00  0.00    +0.011 A 
ATOM      3  C   UNL A   1     -23.058   2.169  25.918  0.00  0.00    +0.001 A 
ATOM      4  C   UNL A   1     -24.171   1.496  27.642  0.00  0.00    +0.054 A 
ATOM      5  C   UNL A   1     -23.017   1.141  28.400  0.00  0.00    -0.012 A 
ATOM      6  C   UNL A   1     -21.808   1.335  27.780  0.00  0.00    -0.003 A 
ATOM      7  C   UNL A   1     -21.741   1.877  26.545  0.00  0.00    -0.000 A 
ATOM      8 CL   UNL A   1     -25.686   1.233  28.412  0.00  0.00    -0.083 Cl
ENDBRANCH   1   5
BRANCH   1   9
ATOM      9  C   UNL A   1     -22.853  -0.823  29.785  0.00  0.00    +0.009 C 
BRANCH   9  10
ATOM     10  C   UNL A   1     -23.367  -1.739  28.976  0.00  0.00    +0.027 C 
BRANCH  10  11
ATOM     11  C   UNL A   1     -24.260  -2.639  29.112  0.00  0.00    -0.022 A 
ATOM     12  C   UNL A   1     -25.553  -2.437  29.690  0.00  0.00    -0.004 A 
ATOM     13  C   UNL A   1     -23.941  -4.019  28.759  0.00  0.00    -0.004 A 
ATOM     14  C   UNL A   1     -24.861  -5.094  28.973  0.00  0.00    -0.000 A 
ATOM     15  C   UNL A   1     -26.463  -3.519  29.879  0.00  0.00    -0.000 A 
ATOM     16  C   UNL A   1     -26.057  -4.821  29.599  0.00  0.00    -0.000 A 
ENDBRANCH  10  11
ENDBRANCH   9  10
ENDBRANCH   1   9
TORSDOF 4
ENDMDL
ENDMDL
