MODEL 82
MODEL 1
REMARK VINA RESULT:    -6.756      0.000      0.000
REMARK INTER + INTRA:          -8.539
REMARK INTER:                  -7.941
REMARK INTRA:                  -0.598
REMARK UNBOUND:                -0.598
REMARK  Name = No_82-gen_results/8p0m/2024-11-27-11-27-31/
REMARK  3 active torsions:
REMARK  status: ('A' for Active; 'I' for Inactive)
REMARK    1  A    between atoms: C_2  and  C_7
REMARK    2  A    between atoms: C_7  and  N_8
REMARK    3  A    between atoms: C_7  and  C_9
REMARK                            x       y       z     vdW  Elec       q    Type
REMARK                         _______ _______ _______ _____ _____    ______ ____
ROOT
ATOM      1  C   UNL A   1     -23.912  -1.355  29.917  0.00  0.00    +0.141 C 
ENDROOT
BRANCH   1   3
ATOM      2  C   UNL A   1     -23.732  -3.407  28.936  0.00  0.00    -0.002 A 
ATOM      3  C   UNL A   1     -24.380  -2.848  29.552  0.00  0.00    +0.002 A 
ATOM      4  C   UNL A   1     -24.202  -4.803  28.597  0.00  0.00    -0.000 A 
ATOM      5  C   UNL A   1     -25.496  -5.210  28.986  0.00  0.00    -0.000 A 
ATOM      6  C   UNL A   1     -25.762  -3.017  30.053  0.00  0.00    -0.002 A 
ATOM      7  C   UNL A   1     -26.231  -4.289  29.754  0.00  0.00    -0.000 A 
ENDBRANCH   1   3
BRANCH   1   8
ATOM      8  C   UNL A   1     -23.947  -0.525  28.633  0.00  0.00    +0.002 A 
ATOM      9  C   UNL A   1     -25.003  -0.560  27.797  0.00  0.00    -0.002 A 
ATOM     10  C   UNL A   1     -25.031   0.329  26.726  0.00  0.00    -0.000 A 
ATOM     11  C   UNL A   1     -23.916   1.135  26.498  0.00  0.00    -0.000 A 
ATOM     12  C   UNL A   1     -22.848   1.154  27.380  0.00  0.00    -0.000 A 
ATOM     13  C   UNL A   1     -22.869   0.371  28.499  0.00  0.00    -0.002 A 
ENDBRANCH   1   8
BRANCH   1  14
ATOM     14  N   UNL A   1     -24.383  -0.769  30.841  0.00  0.00    -0.184 NA
ATOM     15  C   UNL A   1     -24.253  -0.537  31.989  0.00  0.00    +0.326 C 
ATOM     16 CL   UNL A   1     -25.112   0.380  33.005  0.00  0.00    -0.021 Cl
ATOM     17  O   UNL A   1     -23.122  -1.001  32.548  0.00  0.00    -0.255 OA
ENDBRANCH   1  14
TORSDOF 3
ENDMDL
ENDMDL
