REMARK  Name = outputs/IAG933/test6/raw/output_8300_IAG933_linker_design_.xyz
REMARK  12 active torsions:
REMARK  status: ('A' for Active; 'I' for Inactive)
REMARK    1  A    between atoms: C_1  and  C_2
REMARK    2  A    between atoms: C_1  and  C_8
REMARK    3  A    between atoms: C_1  and  N_30
REMARK    4  A    between atoms: C_13  and  C_43
REMARK    5  A    between atoms: C_14  and  C_15
REMARK    6  A    between atoms: C_21  and  O_22
REMARK    7  A    between atoms: O_22  and  C_23
REMARK    8  A    between atoms: C_23  and  C_24
REMARK    9  A    between atoms: C_28  and  C_33
REMARK   10  A    between atoms: C_28  and  N_34
REMARK   11  A    between atoms: C_29  and  C_38
REMARK   12  A    between atoms: S_36  and  C_38
REMARK                            x       y       z     vdW  Elec       q    Type
REMARK                         _______ _______ _______ _____ _____    ______ ____
ROOT
ATOM      1  C   UNL A   1     -25.040   0.500  28.408  0.00  0.00    +0.074 C 
ATOM      2  N   UNL A   1     -24.198  -0.249  29.093  0.00  0.00    -0.255 NA
ATOM      3 CL   UNL A   1     -22.845   2.043  25.251  0.00  0.00    -0.115 Cl
ATOM      4  C   UNL A   1     -22.729   0.095  28.781  0.00  0.00    +0.152 C 
ATOM      5  C   UNL A   1     -22.233   0.824  27.479  0.00  0.00    +0.052 C 
ATOM      6  C   UNL A   1     -23.310   1.814  26.959  0.00  0.00    +0.088 C 
ATOM      7  C   UNL A   1     -24.693   1.340  27.402  0.00  0.00    +0.056 C 
ATOM      8  N   UNL A   1     -22.280   0.819  30.015  0.00  0.00    -0.115 NA
ENDROOT
BRANCH   7   9
ATOM      9  C   UNL A   1     -25.688   1.614  26.461  0.00  0.00    +0.018 C 
ATOM     10  C   UNL A   1     -26.250   2.920  26.395  0.00  0.00    +0.073 C 
ATOM     11  C   UNL A   1     -27.438   3.091  25.645  0.00  0.00    +0.106 C 
ATOM     12  N   UNL A   1     -28.075   2.089  25.003  0.00  0.00    -0.208 NA
ATOM     13  C   UNL A   1     -27.543   0.849  25.079  0.00  0.00    +0.253 C 
ATOM     14  C   UNL A   1     -26.354   0.576  25.777  0.00  0.00    +0.189 C 
ATOM     15  F   UNL A   1     -25.860  -0.681  25.795  0.00  0.00    -0.200 F 
BRANCH  10  16
ATOM     16  C   UNL A   1     -25.642   4.093  27.123  0.00  0.00    +0.266 C 
ATOM     17  N   UNL A   1     -25.614   5.252  26.449  0.00  0.00    -0.200 NA
ATOM     18  C   UNL A   1     -25.026   6.479  26.963  0.00  0.00    +0.139 C 
ATOM     19  O   UNL A   1     -25.143   3.966  28.243  0.00  0.00    -0.268 OA
ENDBRANCH  10  16
BRANCH  13  20
ATOM     20  O   UNL A   1     -28.193  -0.208  24.477  0.00  0.00    -0.456 OA
BRANCH  20  21
ATOM     21  C   UNL A   1     -29.460   0.005  23.866  0.00  0.00    +0.243 C 
BRANCH  21  22
ATOM     22  C   UNL A   1     -30.065  -1.377  23.573  0.00  0.00    +0.229 C 
ATOM     23  O   UNL A   1     -30.729  -1.878  24.721  0.00  0.00    -0.216 OA
ENDBRANCH  21  22
ENDBRANCH  20  21
ENDBRANCH  13  20
ENDBRANCH   7   9
BRANCH   2  24
ATOM     24  C   UNL A   1     -24.855  -1.012  30.143  0.00  0.00    +0.097 C 
BRANCH  24  25
ATOM     25  C   UNL A   1     -24.973  -2.505  29.788  0.00  0.00    -0.006 C 
ATOM     26  C   UNL A   1     -23.906  -3.173  29.146  0.00  0.00    -0.003 C 
ATOM     27  C   UNL A   1     -23.989  -4.549  28.853  0.00  0.00    -0.000 C 
ATOM     28  C   UNL A   1     -25.137  -5.280  29.205  0.00  0.00    -0.000 C 
ATOM     29  C   UNL A   1     -26.232  -4.611  29.784  0.00  0.00    -0.000 C 
ATOM     30  C   UNL A   1     -26.155  -3.232  30.065  0.00  0.00    -0.003 C 
ENDBRANCH  24  25
BRANCH  24  31
ATOM     31  C   UNL A   1     -25.387  -0.679  31.571  0.00  0.00    +0.092 C 
ATOM     32  C   UNL A   1     -25.189   0.773  32.028  0.00  0.00    +0.021 C 
ATOM     33  C   UNL A   1     -25.336   0.684  33.544  0.00  0.00    +0.020 C 
ATOM     34  C   UNL A   1     -24.829  -0.715  33.905  0.00  0.00    +0.089 C 
ATOM     35  N   UNL A   1     -24.758  -1.481  32.646  0.00  0.00    -0.218 NA
ENDBRANCH  24  31
ENDBRANCH   2  24
BRANCH   1  36
ATOM     36  C   UNL A   1     -26.567   0.493  28.919  0.00  0.00    +0.064 C 
BRANCH  36  38
ATOM     37  C   UNL A   1     -30.162  -2.026  29.572  0.00  0.00    +0.057 C 
ATOM     38  S   UNL A   1     -28.352  -0.290  29.049  0.00  0.00    -0.178 S 
ATOM     39  C   UNL A   1     -29.629  -1.764  30.791  0.00  0.00    +0.016 C 
ATOM     40  C   UNL A   1     -29.960  -0.877  28.537  0.00  0.00    +0.052 C 
ATOM     41  C   UNL A   1     -28.721  -0.557  30.813  0.00  0.00    +0.048 C 
BRANCH  37  42
ATOM     42  C   UNL A   1     -31.559  -2.833  29.730  0.00  0.00    +0.213 C 
ATOM     43  O   UNL A   1     -32.463  -2.027  30.335  0.00  0.00    -0.205 OA
BRANCH  42  45
ATOM     44  C   UNL A   1     -32.450  -4.803  31.179  0.00  0.00    +0.092 C 
ATOM     45  N   UNL A   1     -31.411  -4.193  30.287  0.00  0.00    -0.245 NA
ATOM     46  C   UNL A   1     -30.957  -5.160  29.217  0.00  0.00    +0.092 C 
ENDBRANCH  42  45
ENDBRANCH  37  42
ENDBRANCH  36  38
ENDBRANCH   1  36
TORSDOF 12
