REMARK  Name = outputs/IAG933/test6/raw/output_8307_IAG933_linker_design_.xyz
REMARK  11 active torsions:
REMARK  status: ('A' for Active; 'I' for Inactive)
REMARK    1  A    between atoms: C_1  and  C_2
REMARK    2  A    between atoms: C_1  and  C_8
REMARK    3  A    between atoms: C_9  and  C_46
REMARK    4  A    between atoms: C_13  and  C_31
REMARK    5  A    between atoms: C_14  and  C_15
REMARK    6  A    between atoms: C_21  and  O_22
REMARK    7  A    between atoms: O_22  and  C_23
REMARK    8  A    between atoms: C_23  and  C_24
REMARK    9  A    between atoms: N_37  and  C_45
REMARK   10  A    between atoms: C_38  and  C_46
REMARK   11  A    between atoms: C_45  and  C_46
REMARK                            x       y       z     vdW  Elec       q    Type
REMARK                         _______ _______ _______ _____ _____    ______ ____
ROOT
ATOM      1  C   UNL A   1     -24.482   1.935  31.318  0.00  0.00    +0.038 C 
ENDROOT
BRANCH   1   6
ATOM      2  C   UNL A   1     -23.338   1.657  26.831  0.00  0.00    +0.022 C 
ATOM      3  C   UNL A   1     -24.698   1.475  27.371  0.00  0.00    +0.097 C 
ATOM      4  C   UNL A   1     -22.686   1.525  29.360  0.00  0.00    +0.018 C 
ATOM      5  C   UNL A   1     -20.986   1.840  27.365  0.00  0.00    +0.000 C 
ATOM      6  C   UNL A   1     -24.196   1.894  29.763  0.00  0.00    +0.075 C 
ATOM      7  N   UNL A   1     -25.179   1.441  28.948  0.00  0.00    -0.216 NA
ATOM      8  C   UNL A   1     -22.385   1.597  27.834  0.00  0.00    +0.003 C 
BRANCH   3   9
ATOM      9  C   UNL A   1     -25.688   1.614  26.461  0.00  0.00    +0.032 C 
ATOM     10  C   UNL A   1     -26.250   2.920  26.395  0.00  0.00    +0.074 C 
ATOM     11  C   UNL A   1     -27.438   3.091  25.645  0.00  0.00    +0.106 C 
ATOM     12  N   UNL A   1     -28.075   2.089  25.003  0.00  0.00    -0.208 NA
ATOM     13  C   UNL A   1     -27.543   0.849  25.079  0.00  0.00    +0.253 C 
ATOM     14  C   UNL A   1     -26.354   0.576  25.777  0.00  0.00    +0.190 C 
ATOM     15  F   UNL A   1     -25.860  -0.681  25.795  0.00  0.00    -0.200 F 
BRANCH  10  16
ATOM     16  C   UNL A   1     -25.642   4.093  27.123  0.00  0.00    +0.266 C 
ATOM     17  N   UNL A   1     -25.614   5.252  26.449  0.00  0.00    -0.200 NA
ATOM     18  C   UNL A   1     -25.026   6.479  26.963  0.00  0.00    +0.139 C 
ATOM     19  O   UNL A   1     -25.143   3.966  28.243  0.00  0.00    -0.268 OA
ENDBRANCH  10  16
BRANCH  13  20
ATOM     20  O   UNL A   1     -28.193  -0.208  24.477  0.00  0.00    -0.456 OA
BRANCH  20  21
ATOM     21  C   UNL A   1     -29.460   0.005  23.866  0.00  0.00    +0.243 C 
BRANCH  21  22
ATOM     22  C   UNL A   1     -30.065  -1.377  23.573  0.00  0.00    +0.229 C 
ATOM     23  O   UNL A   1     -30.729  -1.878  24.721  0.00  0.00    -0.216 OA
ENDBRANCH  21  22
ENDBRANCH  20  21
ENDBRANCH  13  20
ENDBRANCH   3   9
ENDBRANCH   1   6
BRANCH   1  25
ATOM     24  C   UNL A   1     -25.387  -0.679  31.571  0.00  0.00    +0.077 C 
ATOM     25  C   UNL A   1     -25.189   0.773  32.028  0.00  0.00    +0.021 C 
ATOM     26  C   UNL A   1     -25.336   0.684  33.544  0.00  0.00    +0.020 C 
ATOM     27  C   UNL A   1     -24.829  -0.715  33.905  0.00  0.00    +0.089 C 
ATOM     28  N   UNL A   1     -24.758  -1.481  32.646  0.00  0.00    -0.219 NA
BRANCH  24  29
ATOM     29  C   UNL A   1     -24.855  -1.012  30.143  0.00  0.00    +0.044 C 
BRANCH  29  30
ATOM     30  C   UNL A   1     -24.973  -2.505  29.788  0.00  0.00    -0.021 C 
ATOM     31  C   UNL A   1     -23.906  -3.173  29.146  0.00  0.00    -0.004 C 
ATOM     32  C   UNL A   1     -23.989  -4.549  28.853  0.00  0.00    -0.000 C 
ATOM     33  C   UNL A   1     -25.137  -5.280  29.205  0.00  0.00    -0.000 C 
ATOM     34  C   UNL A   1     -26.232  -4.611  29.784  0.00  0.00    -0.000 C 
ATOM     35  C   UNL A   1     -26.155  -3.232  30.065  0.00  0.00    -0.004 C 
ENDBRANCH  29  30
ENDBRANCH  24  29
ENDBRANCH   1  25
BRANCH   1  36
ATOM     36  C   UNL A   1     -25.115   3.403  31.708  0.00  0.00    +0.097 C 
BRANCH  36  42
ATOM     37  C   UNL A   1     -28.233   5.103  33.189  0.00  0.00    +0.070 C 
ATOM     38  C   UNL A   1     -27.113   4.862  32.303  0.00  0.00    +0.057 C 
ATOM     39  C   UNL A   1     -27.012   5.672  31.204  0.00  0.00    +0.033 C 
ATOM     40  N   UNL A   1     -28.856   7.082  32.131  0.00  0.00    -0.174 NA
ATOM     41  O   UNL A   1     -30.483   5.818  33.370  0.00  0.00    -0.268 OA
ATOM     42  N   UNL A   1     -26.233   3.859  32.670  0.00  0.00    -0.286 N 
ATOM     43  C   UNL A   1     -27.903   6.765  31.121  0.00  0.00    +0.090 C 
ATOM     44  C   UNL A   1     -29.192   6.023  32.945  0.00  0.00    +0.270 C 
ATOM     45  C   UNL A   1     -27.928   4.051  34.299  0.00  0.00    +0.022 C 
ATOM     46  C   UNL A   1     -26.640   3.486  33.940  0.00  0.00    +0.066 C 
ENDBRANCH  36  42
ENDBRANCH   1  36
TORSDOF 11
