REMARK  Name = outputs/IAG933/test6/raw/output_8308_IAG933_linker_design_.xyz
REMARK  12 active torsions:
REMARK  status: ('A' for Active; 'I' for Inactive)
REMARK    1  A    between atoms: C_1  and  C_2
REMARK    2  A    between atoms: C_1  and  C_8
REMARK    3  A    between atoms: C_1  and  C_39
REMARK    4  A    between atoms: C_13  and  C_30
REMARK    5  A    between atoms: C_14  and  C_15
REMARK    6  A    between atoms: C_21  and  O_22
REMARK    7  A    between atoms: O_22  and  C_23
REMARK    8  A    between atoms: C_23  and  C_24
REMARK    9  A    between atoms: C_29  and  C_38
REMARK   10  A    between atoms: C_30  and  C_31
REMARK   11  A    between atoms: C_30  and  C_33
REMARK   12  A    between atoms: C_31  and  C_38
REMARK                            x       y       z     vdW  Elec       q    Type
REMARK                         _______ _______ _______ _____ _____    ______ ____
ROOT
ATOM      1  C   UNL A   1     -24.607   1.176  27.445  0.00  0.00    +0.103 C 
ENDROOT
BRANCH   1   4
ATOM      2  N   UNL A   1     -28.171   1.200  29.480  0.00  0.00    -0.053 N 
ATOM      3  C   UNL A   1     -27.288   2.127  29.867  0.00  0.00    +0.362 C 
ATOM      4  C   UNL A   1     -25.348   0.917  28.672  0.00  0.00    +0.111 C 
ATOM      5  O   UNL A   1     -28.019   0.393  28.371  0.00  0.00    -0.245 OA
ATOM      6  O   UNL A   1     -27.532   3.069  30.626  0.00  0.00    -0.247 OA
ATOM      7  N   UNL A   1     -28.904   0.580  30.691  0.00  0.00    +0.015 NA
ATOM      8  C   UNL A   1     -25.901  -0.417  29.152  0.00  0.00    +0.058 C 
ATOM      9  C   UNL A   1     -27.300  -0.675  28.525  0.00  0.00    +0.175 C 
ATOM     10  N   UNL A   1     -26.077   1.940  29.325  0.00  0.00    -0.186 NA
BRANCH   8  11
ATOM     11  C   UNL A   1     -24.855  -1.012  30.143  0.00  0.00    +0.043 C 
BRANCH  11  12
ATOM     12  C   UNL A   1     -24.973  -2.505  29.788  0.00  0.00    -0.021 C 
ATOM     13  C   UNL A   1     -23.906  -3.173  29.146  0.00  0.00    -0.004 C 
ATOM     14  C   UNL A   1     -23.989  -4.549  28.853  0.00  0.00    -0.000 C 
ATOM     15  C   UNL A   1     -25.137  -5.280  29.205  0.00  0.00    -0.000 C 
ATOM     16  C   UNL A   1     -26.232  -4.611  29.784  0.00  0.00    -0.000 C 
ATOM     17  C   UNL A   1     -26.155  -3.232  30.065  0.00  0.00    -0.004 C 
ENDBRANCH  11  12
BRANCH  11  18
ATOM     18  C   UNL A   1     -25.387  -0.679  31.571  0.00  0.00    +0.077 C 
ATOM     19  C   UNL A   1     -25.189   0.773  32.028  0.00  0.00    +0.019 C 
ATOM     20  C   UNL A   1     -25.336   0.684  33.544  0.00  0.00    +0.020 C 
ATOM     21  C   UNL A   1     -24.829  -0.715  33.905  0.00  0.00    +0.089 C 
ATOM     22  N   UNL A   1     -24.758  -1.481  32.646  0.00  0.00    -0.219 NA
ENDBRANCH  11  18
ENDBRANCH   8  11
ENDBRANCH   1   4
BRANCH   1  23
ATOM     23  C   UNL A   1     -25.688   1.614  26.461  0.00  0.00    +0.024 C 
ATOM     24  C   UNL A   1     -26.250   2.920  26.395  0.00  0.00    +0.073 C 
ATOM     25  C   UNL A   1     -27.438   3.091  25.645  0.00  0.00    +0.106 C 
ATOM     26  N   UNL A   1     -28.075   2.089  25.003  0.00  0.00    -0.208 NA
ATOM     27  C   UNL A   1     -27.543   0.849  25.079  0.00  0.00    +0.253 C 
ATOM     28  C   UNL A   1     -26.354   0.576  25.777  0.00  0.00    +0.190 C 
ATOM     29  F   UNL A   1     -25.860  -0.681  25.795  0.00  0.00    -0.200 F 
BRANCH  24  30
ATOM     30  C   UNL A   1     -25.642   4.093  27.123  0.00  0.00    +0.266 C 
ATOM     31  N   UNL A   1     -25.614   5.252  26.449  0.00  0.00    -0.200 NA
ATOM     32  C   UNL A   1     -25.026   6.479  26.963  0.00  0.00    +0.139 C 
ATOM     33  O   UNL A   1     -25.143   3.966  28.243  0.00  0.00    -0.268 OA
ENDBRANCH  24  30
BRANCH  27  34
ATOM     34  O   UNL A   1     -28.193  -0.208  24.477  0.00  0.00    -0.456 OA
BRANCH  34  35
ATOM     35  C   UNL A   1     -29.460   0.005  23.866  0.00  0.00    +0.243 C 
BRANCH  35  36
ATOM     36  C   UNL A   1     -30.065  -1.377  23.573  0.00  0.00    +0.229 C 
ATOM     37  O   UNL A   1     -30.729  -1.878  24.721  0.00  0.00    -0.216 OA
ENDBRANCH  35  36
ENDBRANCH  34  35
ENDBRANCH  27  34
ENDBRANCH   1  23
BRANCH   1  38
ATOM     38  C   UNL A   1     -23.168   1.078  27.775  0.00  0.00    +0.160 C 
ATOM     39  O   UNL A   1     -22.750   0.417  28.732  0.00  0.00    -0.295 OA
BRANCH  38  40
ATOM     40  C   UNL A   1     -22.184   1.582  27.043  0.00  0.00    +0.080 C 
ATOM     41  C   UNL A   1     -20.830   1.236  27.239  0.00  0.00    +0.013 C 
BRANCH  40  42
ATOM     42  C   UNL A   1     -22.701   2.251  25.813  0.00  0.00    -0.019 C 
ATOM     43  C   UNL A   1     -23.219   1.605  24.744  0.00  0.00    -0.004 C 
ENDBRANCH  40  42
ENDBRANCH  38  40
ENDBRANCH   1  38
TORSDOF 12
