REMARK  Name = outputs/IAG933/test6/raw/output_8309_IAG933_linker_design_.xyz
REMARK  12 active torsions:
REMARK  status: ('A' for Active; 'I' for Inactive)
REMARK    1  A    between atoms: C_1  and  C_2
REMARK    2  A    between atoms: C_1  and  C_8
REMARK    3  A    between atoms: C_1  and  N_41
REMARK    4  A    between atoms: C_13  and  C_40
REMARK    5  A    between atoms: C_14  and  C_15
REMARK    6  A    between atoms: C_21  and  O_22
REMARK    7  A    between atoms: O_22  and  C_23
REMARK    8  A    between atoms: C_23  and  C_24
REMARK    9  A    between atoms: N_28  and  C_32
REMARK   10  A    between atoms: C_30  and  C_34
REMARK   11  A    between atoms: C_32  and  O_43
REMARK   12  A    between atoms: C_36  and  O_43
REMARK                            x       y       z     vdW  Elec       q    Type
REMARK                         _______ _______ _______ _____ _____    ______ ____
ROOT
ATOM      1  C   UNL A   1     -23.474   0.566  28.939  0.00  0.00    +0.093 C 
ATOM      2  O   UNL A   1     -22.564   0.571  29.880  0.00  0.00    -0.537 OA
ATOM      3  O   UNL A   1     -25.342  -0.198  28.059  0.00  0.00    -0.419 OA
ATOM      4  N   UNL A   1     -24.552  -0.104  29.130  0.00  0.00    -0.277 N 
ENDROOT
BRANCH   1   6
ATOM      5  C   UNL A   1     -21.890   1.478  27.300  0.00  0.00    +0.353 C 
ATOM      6  C   UNL A   1     -23.253   1.243  27.653  0.00  0.00    +0.070 C 
ATOM      7  C   UNL A   1     -23.748   2.119  25.505  0.00  0.00    +0.036 C 
ATOM      8  F   UNL A   1     -20.836   1.157  28.079  0.00  0.00    -0.183 F 
ATOM      9  C   UNL A   1     -24.232   1.590  26.641  0.00  0.00    -0.008 C 
ATOM     10  O   UNL A   1     -21.512   1.970  26.138  0.00  0.00    -0.443 OA
ATOM     11  C   UNL A   1     -22.402   2.242  25.212  0.00  0.00    +0.175 C 
BRANCH   9  12
ATOM     12  C   UNL A   1     -25.688   1.614  26.461  0.00  0.00    +0.092 C 
ATOM     13  C   UNL A   1     -26.250   2.920  26.395  0.00  0.00    +0.059 C 
ATOM     14  C   UNL A   1     -27.438   3.091  25.645  0.00  0.00    +0.102 C 
ATOM     15  N   UNL A   1     -28.075   2.089  25.003  0.00  0.00    -0.212 NA
ATOM     16  C   UNL A   1     -27.543   0.849  25.079  0.00  0.00    +0.234 C 
ATOM     17  C   UNL A   1     -26.354   0.576  25.777  0.00  0.00    +0.244 C 
ATOM     18  F   UNL A   1     -25.860  -0.681  25.795  0.00  0.00    -0.227 F 
BRANCH  13  19
ATOM     19  C   UNL A   1     -25.642   4.093  27.123  0.00  0.00    +0.263 C 
ATOM     20  N   UNL A   1     -25.614   5.252  26.449  0.00  0.00    -0.200 NA
ATOM     21  C   UNL A   1     -25.026   6.479  26.963  0.00  0.00    +0.139 C 
ATOM     22  O   UNL A   1     -25.143   3.966  28.243  0.00  0.00    -0.269 OA
ENDBRANCH  13  19
BRANCH  16  23
ATOM     23  O   UNL A   1     -28.193  -0.208  24.477  0.00  0.00    -0.459 OA
BRANCH  23  24
ATOM     24  C   UNL A   1     -29.460   0.005  23.866  0.00  0.00    +0.242 C 
BRANCH  24  25
ATOM     25  C   UNL A   1     -30.065  -1.377  23.573  0.00  0.00    +0.229 C 
ATOM     26  O   UNL A   1     -30.729  -1.878  24.721  0.00  0.00    -0.216 OA
ENDBRANCH  24  25
ENDBRANCH  23  24
ENDBRANCH  16  23
ENDBRANCH   9  12
ENDBRANCH   1   6
BRANCH   4  27
ATOM     27  C   UNL A   1     -24.855  -1.012  30.143  0.00  0.00    +0.123 C 
BRANCH  27  28
ATOM     28  C   UNL A   1     -24.973  -2.505  29.788  0.00  0.00    -0.002 C 
ATOM     29  C   UNL A   1     -23.906  -3.173  29.146  0.00  0.00    -0.003 C 
ATOM     30  C   UNL A   1     -23.989  -4.549  28.853  0.00  0.00    -0.000 C 
ATOM     31  C   UNL A   1     -25.137  -5.280  29.205  0.00  0.00    -0.000 C 
ATOM     32  C   UNL A   1     -26.232  -4.611  29.784  0.00  0.00    -0.000 C 
ATOM     33  C   UNL A   1     -26.155  -3.232  30.065  0.00  0.00    -0.003 C 
ENDBRANCH  27  28
BRANCH  27  34
ATOM     34  C   UNL A   1     -25.387  -0.679  31.571  0.00  0.00    +0.129 C 
ATOM     35  C   UNL A   1     -25.189   0.773  32.028  0.00  0.00    +0.051 C 
ATOM     36  C   UNL A   1     -25.336   0.684  33.544  0.00  0.00    +0.059 C 
ATOM     37  C   UNL A   1     -24.829  -0.715  33.905  0.00  0.00    +0.095 C 
ATOM     38  N   UNL A   1     -24.758  -1.481  32.646  0.00  0.00    -0.212 NA
ATOM     39  N   UNL A   1     -25.088   2.026  31.301  0.00  0.00    -0.150 NA
BRANCH  39  40
ATOM     40  C   UNL A   1     -24.924   3.230  31.902  0.00  0.00    +0.425 C 
ATOM     41  O   UNL A   1     -23.824   3.787  31.943  0.00  0.00    -0.224 OA
BRANCH  40  42
ATOM     42  O   UNL A   1     -25.951   3.807  32.470  0.00  0.00    -0.433 OA
BRANCH  42  44
ATOM     43  C   UNL A   1     -26.108   6.262  32.515  0.00  0.00    +0.051 C 
ATOM     44  C   UNL A   1     -25.739   4.994  33.268  0.00  0.00    +0.210 C 
ENDBRANCH  42  44
ENDBRANCH  40  42
ENDBRANCH  39  40
ENDBRANCH  27  34
ENDBRANCH   4  27
TORSDOF 12
