REMARK  Name = outputs/IAG933/test6/raw/output_8310_IAG933_linker_design_.xyz
REMARK  11 active torsions:
REMARK  status: ('A' for Active; 'I' for Inactive)
REMARK    1  A    between atoms: C_1  and  C_2
REMARK    2  A    between atoms: C_1  and  C_8
REMARK    3  A    between atoms: C_1  and  O_32
REMARK    4  A    between atoms: C_21  and  O_22
REMARK    5  A    between atoms: O_22  and  C_23
REMARK    6  A    between atoms: C_23  and  C_24
REMARK    7  A    between atoms: C_31  and  C_41
REMARK    8  A    between atoms: C_31  and  O_44
REMARK    9  A    between atoms: O_32  and  C_33
REMARK   10  A    between atoms: C_40  and  C_43
REMARK   11  A    between atoms: C_42  and  O_44
REMARK                            x       y       z     vdW  Elec       q    Type
REMARK                         _______ _______ _______ _____ _____    ______ ____
ROOT
ATOM      1  C   UNL A   1     -25.688   1.614  26.461  0.00  0.00    +0.077 C 
ATOM      2  C   UNL A   1     -26.250   2.920  26.395  0.00  0.00    +0.053 C 
ATOM      3  C   UNL A   1     -25.642   4.093  27.123  0.00  0.00    +0.220 C 
ATOM      4  N   UNL A   1     -25.614   5.252  26.449  0.00  0.00    -0.236 NA
ATOM      5  C   UNL A   1     -25.026   6.479  26.963  0.00  0.00    +0.155 C 
ATOM      6  O   UNL A   1     -25.143   3.966  28.243  0.00  0.00    -0.437 OA
ATOM      7  C   UNL A   1     -27.438   3.091  25.645  0.00  0.00    +0.102 C 
ATOM      8  N   UNL A   1     -28.075   2.089  25.003  0.00  0.00    -0.212 NA
ATOM      9  C   UNL A   1     -27.543   0.849  25.079  0.00  0.00    +0.234 C 
ATOM     10  C   UNL A   1     -26.354   0.576  25.777  0.00  0.00    +0.240 C 
ATOM     11  F   UNL A   1     -25.860  -0.681  25.795  0.00  0.00    -0.227 F 
ATOM     12  C   UNL A   1     -25.038   2.706  28.653  0.00  0.00    +0.290 C 
ATOM     13  C   UNL A   1     -24.660   1.674  27.564  0.00  0.00    +0.091 C 
ENDROOT
BRANCH  13  20
ATOM     14  C   UNL A   1     -21.400   0.275  29.194  0.00  0.00    +0.017 C 
ATOM     15  O   UNL A   1     -21.160   1.850  27.411  0.00  0.00    -0.421 OA
ATOM     16  C   UNL A   1     -23.645   0.289  28.610  0.00  0.00    +0.131 C 
ATOM     17  C   UNL A   1     -20.632   1.018  28.380  0.00  0.00    +0.178 C 
ATOM     18  C   UNL A   1     -22.375   1.700  26.852  0.00  0.00    +0.324 C 
ATOM     19  C   UNL A   1     -22.744   0.187  29.469  0.00  0.00    +0.059 C 
ATOM     20  C   UNL A   1     -23.522   1.237  27.592  0.00  0.00    +0.133 C 
ATOM     21  O   UNL A   1     -22.453   2.057  25.608  0.00  0.00    -0.250 OA
BRANCH  16  22
ATOM     22  O   UNL A   1     -24.912  -0.292  28.922  0.00  0.00    -0.352 OA
BRANCH  22  23
ATOM     23  C   UNL A   1     -24.855  -1.012  30.143  0.00  0.00    +0.153 C 
BRANCH  23  24
ATOM     24  C   UNL A   1     -24.973  -2.505  29.788  0.00  0.00    +0.006 C 
ATOM     25  C   UNL A   1     -23.906  -3.173  29.146  0.00  0.00    -0.002 C 
ATOM     26  C   UNL A   1     -23.989  -4.549  28.853  0.00  0.00    -0.000 C 
ATOM     27  C   UNL A   1     -25.137  -5.280  29.205  0.00  0.00    -0.000 C 
ATOM     28  C   UNL A   1     -26.232  -4.611  29.784  0.00  0.00    -0.000 C 
ATOM     29  C   UNL A   1     -26.155  -3.232  30.065  0.00  0.00    -0.002 C 
ENDBRANCH  23  24
BRANCH  23  30
ATOM     30  C   UNL A   1     -25.387  -0.679  31.571  0.00  0.00    +0.104 C 
ATOM     31  C   UNL A   1     -25.189   0.773  32.028  0.00  0.00    +0.022 C 
ATOM     32  C   UNL A   1     -25.336   0.684  33.544  0.00  0.00    +0.020 C 
ATOM     33  C   UNL A   1     -24.829  -0.715  33.905  0.00  0.00    +0.089 C 
ATOM     34  N   UNL A   1     -24.758  -1.481  32.646  0.00  0.00    -0.217 NA
ENDBRANCH  23  30
ENDBRANCH  22  23
ENDBRANCH  16  22
ENDBRANCH  13  20
BRANCH   9  35
ATOM     35  O   UNL A   1     -28.193  -0.208  24.477  0.00  0.00    -0.459 OA
BRANCH  35  36
ATOM     36  C   UNL A   1     -29.460   0.005  23.866  0.00  0.00    +0.242 C 
BRANCH  36  37
ATOM     37  C   UNL A   1     -30.065  -1.377  23.573  0.00  0.00    +0.229 C 
ATOM     38  O   UNL A   1     -30.729  -1.878  24.721  0.00  0.00    -0.216 OA
ENDBRANCH  36  37
ENDBRANCH  35  36
ENDBRANCH   9  35
BRANCH  12  39
ATOM     39  O   UNL A   1     -25.291   2.485  30.059  0.00  0.00    -0.319 OA
BRANCH  39  40
ATOM     40  C   UNL A   1     -25.559   3.648  30.811  0.00  0.00    +0.162 C 
BRANCH  40  45
ATOM     41  N   UNL A   1     -27.218   4.322  32.552  0.00  0.00    -0.271 NA
ATOM     42  C   UNL A   1     -28.471   4.916  30.936  0.00  0.00    +0.019 C 
ATOM     43  C   UNL A   1     -27.954   3.440  30.711  0.00  0.00    +0.020 C 
ATOM     44  C   UNL A   1     -28.445   3.914  33.349  0.00  0.00    +0.090 C 
ATOM     45  C   UNL A   1     -26.712   3.350  31.733  0.00  0.00    +0.087 C 
ATOM     46  C   UNL A   1     -27.384   5.591  31.746  0.00  0.00    +0.072 C 
ENDBRANCH  40  45
ENDBRANCH  39  40
ENDBRANCH  12  39
TORSDOF 11
