MODEL 831
MODEL 1
REMARK VINA RESULT:    -6.573      0.000      0.000
REMARK INTER + INTRA:          -7.704
REMARK INTER:                  -7.342
REMARK INTRA:                  -0.362
REMARK UNBOUND:                -0.362
REMARK  Name = No_831-gen_results/8p0m/2024-11-27-11-27-31/
REMARK  2 active torsions:
REMARK  status: ('A' for Active; 'I' for Inactive)
REMARK    1  A    between atoms: C_4  and  C_8
REMARK    2  A    between atoms: C_8  and  C_9
REMARK                            x       y       z     vdW  Elec       q    Type
REMARK                         _______ _______ _______ _____ _____    ______ ____
ROOT
ATOM      1  C   UNL A   1     -23.833   0.807  27.126  0.00  0.00    +0.011 A 
ATOM      2  C   UNL A   1     -22.830   1.126  27.179  0.00  0.00    +0.058 A 
ATOM      3  C   UNL A   1     -24.194  -0.357  28.022  0.00  0.00    -0.003 A 
ATOM      4  C   UNL A   1     -23.244  -0.835  28.949  0.00  0.00    -0.018 A 
ATOM      5  C   UNL A   1     -21.678   0.831  28.061  0.00  0.00    +0.011 A 
ATOM      6  C   UNL A   1     -21.974  -0.231  28.904  0.00  0.00    -0.003 A 
ATOM      7 CL   UNL A   1     -22.550   2.468  26.004  0.00  0.00    -0.082 Cl
ENDROOT
BRANCH   4   8
ATOM      8  C   UNL A   1     -23.546  -1.932  29.833  0.00  0.00    +0.053 C 
BRANCH   8   9
ATOM      9  C   UNL A   1     -24.500  -2.847  29.539  0.00  0.00    -0.018 A 
ATOM     10  C   UNL A   1     -25.842  -2.624  30.066  0.00  0.00    -0.004 A 
ATOM     11  C   UNL A   1     -24.200  -4.085  28.987  0.00  0.00    -0.004 A 
ATOM     12  C   UNL A   1     -25.166  -5.154  29.171  0.00  0.00    -0.000 A 
ATOM     13  C   UNL A   1     -26.790  -3.631  30.056  0.00  0.00    -0.000 A 
ATOM     14  C   UNL A   1     -26.486  -4.880  29.653  0.00  0.00    -0.000 A 
ENDBRANCH   8   9
ENDBRANCH   4   8
TORSDOF 2
ENDMDL
ENDMDL
