REMARK  Name = outputs/IAG933/test6/raw/output_832_IAG933_linker_design_.xyz
REMARK  14 active torsions:
REMARK  status: ('A' for Active; 'I' for Inactive)
REMARK    1  A    between atoms: C_1  and  C_2
REMARK    2  A    between atoms: C_1  and  C_8
REMARK    3  A    between atoms: C_1  and  C_39
REMARK    4  A    between atoms: C_13  and  C_43
REMARK    5  A    between atoms: C_14  and  C_15
REMARK    6  A    between atoms: C_21  and  O_22
REMARK    7  A    between atoms: O_22  and  C_23
REMARK    8  A    between atoms: C_23  and  C_24
REMARK    9  A    between atoms: C_32  and  C_39
REMARK   10  A    between atoms: C_32  and  C_44
REMARK   11  A    between atoms: C_34  and  C_37
REMARK   12  A    between atoms: C_34  and  N_40
REMARK   13  A    between atoms: C_35  and  C_39
REMARK   14  A    between atoms: C_36  and  N_40
REMARK                            x       y       z     vdW  Elec       q    Type
REMARK                         _______ _______ _______ _____ _____    ______ ____
ROOT
ATOM      1  C   UNL A   1     -22.813   0.807  28.671  0.00  0.00    +0.014 C 
ATOM      2  N   UNL A   1     -20.419   1.265  28.292  0.00  0.00    -0.128 NA
ATOM      3  C   UNL A   1     -23.356   2.075  26.276  0.00  0.00    +0.001 C 
ATOM      4  C   UNL A   1     -22.067   2.139  26.758  0.00  0.00    +0.018 C 
ATOM      5  C   UNL A   1     -24.160   0.744  28.196  0.00  0.00    -0.018 C 
ATOM      6  C   UNL A   1     -21.822   1.427  27.937  0.00  0.00    +0.089 C 
ATOM      7  C   UNL A   1     -24.372   1.422  26.986  0.00  0.00    -0.001 C 
ENDROOT
BRANCH   7   8
ATOM      8  C   UNL A   1     -25.688   1.614  26.461  0.00  0.00    +0.038 C 
ATOM      9  C   UNL A   1     -26.250   2.920  26.395  0.00  0.00    +0.076 C 
ATOM     10  C   UNL A   1     -27.438   3.091  25.645  0.00  0.00    +0.107 C 
ATOM     11  N   UNL A   1     -28.075   2.089  25.003  0.00  0.00    -0.208 NA
ATOM     12  C   UNL A   1     -27.543   0.849  25.079  0.00  0.00    +0.253 C 
ATOM     13  C   UNL A   1     -26.354   0.576  25.777  0.00  0.00    +0.193 C 
ATOM     14  F   UNL A   1     -25.860  -0.681  25.795  0.00  0.00    -0.199 F 
BRANCH   9  15
ATOM     15  C   UNL A   1     -25.642   4.093  27.123  0.00  0.00    +0.266 C 
ATOM     16  N   UNL A   1     -25.614   5.252  26.449  0.00  0.00    -0.200 NA
ATOM     17  C   UNL A   1     -25.026   6.479  26.963  0.00  0.00    +0.139 C 
ATOM     18  O   UNL A   1     -25.143   3.966  28.243  0.00  0.00    -0.268 OA
ENDBRANCH   9  15
BRANCH  12  19
ATOM     19  O   UNL A   1     -28.193  -0.208  24.477  0.00  0.00    -0.456 OA
BRANCH  19  20
ATOM     20  C   UNL A   1     -29.460   0.005  23.866  0.00  0.00    +0.243 C 
BRANCH  20  21
ATOM     21  C   UNL A   1     -30.065  -1.377  23.573  0.00  0.00    +0.229 C 
ATOM     22  O   UNL A   1     -30.729  -1.878  24.721  0.00  0.00    -0.216 OA
ENDBRANCH  20  21
ENDBRANCH  19  20
ENDBRANCH  12  19
ENDBRANCH   7   8
BRANCH   5  23
ATOM     23  C   UNL A   1     -25.258   0.038  29.002  0.00  0.00    +0.062 C 
BRANCH  23  24
ATOM     24  C   UNL A   1     -26.864   0.229  28.900  0.00  0.00    +0.180 C 
ATOM     25  O   UNL A   1     -27.709  -0.951  28.700  0.00  0.00    -0.218 OA
BRANCH  24  27
ATOM     26  C   UNL A   1     -27.302   2.679  29.971  0.00  0.00    +0.077 C 
ATOM     27  C   UNL A   1     -27.828   1.218  29.762  0.00  0.00    +0.024 C 
BRANCH  26  28
ATOM     28  N   UNL A   1     -28.240   3.766  30.492  0.00  0.00    -0.216 N 
ATOM     29  N   UNL A   1     -29.465   3.936  29.975  0.00  0.00    -0.016 NA
BRANCH  28  30
ATOM     30  C   UNL A   1     -27.679   4.670  31.492  0.00  0.00    +0.147 C 
BRANCH  30  31
ATOM     31  C   UNL A   1     -26.625   5.540  30.727  0.00  0.00    +0.205 C 
ATOM     32  O   UNL A   1     -25.230   5.133  30.797  0.00  0.00    -0.218 OA
ENDBRANCH  30  31
ENDBRANCH  28  30
ENDBRANCH  26  28
ENDBRANCH  24  27
ENDBRANCH  23  24
BRANCH  23  33
ATOM     33  C   UNL A   1     -24.855  -1.012  30.143  0.00  0.00    +0.045 C 
BRANCH  33  34
ATOM     34  C   UNL A   1     -24.973  -2.505  29.788  0.00  0.00    -0.021 C 
ATOM     35  C   UNL A   1     -23.906  -3.173  29.146  0.00  0.00    -0.004 C 
ATOM     36  C   UNL A   1     -23.989  -4.549  28.853  0.00  0.00    -0.000 C 
ATOM     37  C   UNL A   1     -25.137  -5.280  29.205  0.00  0.00    -0.000 C 
ATOM     38  C   UNL A   1     -26.232  -4.611  29.784  0.00  0.00    -0.000 C 
ATOM     39  C   UNL A   1     -26.155  -3.232  30.065  0.00  0.00    -0.004 C 
ENDBRANCH  33  34
BRANCH  33  40
ATOM     40  C   UNL A   1     -25.387  -0.679  31.571  0.00  0.00    +0.077 C 
ATOM     41  C   UNL A   1     -25.189   0.773  32.028  0.00  0.00    +0.019 C 
ATOM     42  C   UNL A   1     -25.336   0.684  33.544  0.00  0.00    +0.020 C 
ATOM     43  C   UNL A   1     -24.829  -0.715  33.905  0.00  0.00    +0.089 C 
ATOM     44  N   UNL A   1     -24.758  -1.481  32.646  0.00  0.00    -0.219 NA
ENDBRANCH  33  40
ENDBRANCH  23  33
ENDBRANCH   5  23
TORSDOF 14
