REMARK  Name = outputs/IAG933/test6/raw/output_8320_IAG933_linker_design_.xyz
REMARK  11 active torsions:
REMARK  status: ('A' for Active; 'I' for Inactive)
REMARK    1  A    between atoms: C_1  and  C_2
REMARK    2  A    between atoms: C_1  and  C_8
REMARK    3  A    between atoms: C_1  and  C_36
REMARK    4  A    between atoms: C_13  and  C_45
REMARK    5  A    between atoms: C_14  and  C_15
REMARK    6  A    between atoms: C_21  and  O_22
REMARK    7  A    between atoms: O_22  and  C_23
REMARK    8  A    between atoms: C_23  and  C_24
REMARK    9  A    between atoms: C_28  and  O_41
REMARK   10  A    between atoms: C_29  and  C_43
REMARK   11  A    between atoms: O_41  and  C_45
REMARK                            x       y       z     vdW  Elec       q    Type
REMARK                         _______ _______ _______ _____ _____    ______ ____
ROOT
ATOM      1  C   UNL A   1     -25.157   0.884  28.547  0.00  0.00    +0.265 C 
ATOM      2  C   UNL A   1     -27.915   0.617  28.888  0.00  0.00    +0.232 C 
ATOM      3  N   UNL A   1     -26.489   0.946  29.174  0.00  0.00    -0.241 N 
ATOM      4  C   UNL A   1     -25.596  -0.238  29.032  0.00  0.00    +0.144 C 
ATOM      5  O   UNL A   1     -28.029  -0.609  28.684  0.00  0.00    -0.274 OA
ENDROOT
BRANCH   2  13
ATOM      6  O   UNL A   1     -28.353   1.699  31.515  0.00  0.00    -0.284 OA
ATOM      7  C   UNL A   1     -29.420   3.943  28.989  0.00  0.00    +0.001 C 
ATOM      8  C   UNL A   1     -31.732   1.965  29.734  0.00  0.00    +0.026 C 
ATOM      9  C   UNL A   1     -32.092   3.205  28.914  0.00  0.00    +0.004 C 
ATOM     10  C   UNL A   1     -29.013   2.738  28.229  0.00  0.00    +0.013 C 
ATOM     11  C   UNL A   1     -30.329   1.720  30.187  0.00  0.00    +0.006 C 
ATOM     12  C   UNL A   1     -30.894   4.168  29.034  0.00  0.00    +0.000 C 
ATOM     13  C   UNL A   1     -29.279   1.439  29.025  0.00  0.00    +0.098 C 
ATOM     14  C   UNL A   1     -29.726   1.797  31.458  0.00  0.00    +0.226 C 
ENDBRANCH   2  13
BRANCH   4  15
ATOM     15  C   UNL A   1     -24.855  -1.012  30.143  0.00  0.00    +0.062 C 
BRANCH  15  16
ATOM     16  C   UNL A   1     -24.973  -2.505  29.788  0.00  0.00    -0.019 C 
ATOM     17  C   UNL A   1     -23.906  -3.173  29.146  0.00  0.00    -0.004 C 
ATOM     18  C   UNL A   1     -23.989  -4.549  28.853  0.00  0.00    -0.000 C 
ATOM     19  C   UNL A   1     -25.137  -5.280  29.205  0.00  0.00    -0.000 C 
ATOM     20  C   UNL A   1     -26.232  -4.611  29.784  0.00  0.00    -0.000 C 
ATOM     21  C   UNL A   1     -26.155  -3.232  30.065  0.00  0.00    -0.004 C 
ENDBRANCH  15  16
BRANCH  15  22
ATOM     22  C   UNL A   1     -25.387  -0.679  31.571  0.00  0.00    +0.079 C 
ATOM     23  C   UNL A   1     -25.189   0.773  32.028  0.00  0.00    +0.019 C 
ATOM     24  C   UNL A   1     -25.336   0.684  33.544  0.00  0.00    +0.020 C 
ATOM     25  C   UNL A   1     -24.829  -0.715  33.905  0.00  0.00    +0.089 C 
ATOM     26  N   UNL A   1     -24.758  -1.481  32.646  0.00  0.00    -0.219 NA
ENDBRANCH  15  22
ENDBRANCH   4  15
BRANCH   1  27
ATOM     27  O   UNL A   1     -24.043   0.843  27.992  0.00  0.00    -0.463 OA
BRANCH  27  30
ATOM     28  C   UNL A   1     -22.684   1.846  26.336  0.00  0.00    +0.007 C 
ATOM     29  C   UNL A   1     -21.529   1.418  27.205  0.00  0.00    +0.034 C 
ATOM     30  C   UNL A   1     -24.075   1.411  26.810  0.00  0.00    +0.121 C 
BRANCH  30  31
ATOM     31  C   UNL A   1     -25.688   1.614  26.461  0.00  0.00    +0.126 C 
ATOM     32  C   UNL A   1     -26.250   2.920  26.395  0.00  0.00    +0.062 C 
ATOM     33  C   UNL A   1     -27.438   3.091  25.645  0.00  0.00    +0.103 C 
ATOM     34  N   UNL A   1     -28.075   2.089  25.003  0.00  0.00    -0.212 NA
ATOM     35  C   UNL A   1     -27.543   0.849  25.079  0.00  0.00    +0.234 C 
ATOM     36  C   UNL A   1     -26.354   0.576  25.777  0.00  0.00    +0.247 C 
ATOM     37  F   UNL A   1     -25.860  -0.681  25.795  0.00  0.00    -0.226 F 
BRANCH  32  38
ATOM     38  C   UNL A   1     -25.642   4.093  27.123  0.00  0.00    +0.263 C 
ATOM     39  N   UNL A   1     -25.614   5.252  26.449  0.00  0.00    -0.200 NA
ATOM     40  C   UNL A   1     -25.026   6.479  26.963  0.00  0.00    +0.139 C 
ATOM     41  O   UNL A   1     -25.143   3.966  28.243  0.00  0.00    -0.269 OA
ENDBRANCH  32  38
BRANCH  35  42
ATOM     42  O   UNL A   1     -28.193  -0.208  24.477  0.00  0.00    -0.459 OA
BRANCH  42  43
ATOM     43  C   UNL A   1     -29.460   0.005  23.866  0.00  0.00    +0.242 C 
BRANCH  43  44
ATOM     44  C   UNL A   1     -30.065  -1.377  23.573  0.00  0.00    +0.229 C 
ATOM     45  O   UNL A   1     -30.729  -1.878  24.721  0.00  0.00    -0.216 OA
ENDBRANCH  43  44
ENDBRANCH  42  43
ENDBRANCH  35  42
ENDBRANCH  30  31
ENDBRANCH  27  30
ENDBRANCH   1  27
TORSDOF 11
