REMARK  Name = outputs/IAG933/test6/raw/output_8329_IAG933_linker_design_.xyz
REMARK  15 active torsions:
REMARK  status: ('A' for Active; 'I' for Inactive)
REMARK    1  A    between atoms: C_1  and  C_2
REMARK    2  A    between atoms: C_1  and  C_8
REMARK    3  A    between atoms: C_1  and  N_44
REMARK    4  A    between atoms: C_14  and  C_15
REMARK    5  A    between atoms: C_15  and  O_18
REMARK    6  A    between atoms: O_18  and  C_33
REMARK    7  A    between atoms: C_21  and  O_22
REMARK    8  A    between atoms: O_22  and  C_23
REMARK    9  A    between atoms: C_23  and  C_24
REMARK   10  A    between atoms: C_28  and  C_32
REMARK   11  A    between atoms: C_32  and  C_33
REMARK   12  A    between atoms: C_33  and  C_38
REMARK   13  A    between atoms: C_34  and  C_35
REMARK   14  A    between atoms: C_36  and  O_43
REMARK   15  A    between atoms: C_38  and  C_39
REMARK                            x       y       z     vdW  Elec       q    Type
REMARK                         _______ _______ _______ _____ _____    ______ ____
ROOT
ATOM      1  C   UNL A   1     -25.015   3.429  29.458  0.00  0.00    +0.202 C 
ENDROOT
BRANCH   1   3
ATOM      2  O   UNL A   1     -27.075   2.805  30.006  0.00  0.00    -0.217 OA
ATOM      3  C   UNL A   1     -26.028   3.658  30.616  0.00  0.00    +0.223 C 
BRANCH   3   7
ATOM      4  N   UNL A   1     -25.986   7.182  30.981  0.00  0.00    -0.192 NA
ATOM      5  C   UNL A   1     -27.334   7.183  31.145  0.00  0.00    +0.197 C 
ATOM      6  C   UNL A   1     -25.590   6.392  30.608  0.00  0.00    +0.227 C 
ATOM      7  C   UNL A   1     -26.441   5.215  30.505  0.00  0.00    +0.214 C 
ATOM      8  N   UNL A   1     -27.658   5.850  30.882  0.00  0.00    -0.240 NA
BRANCH   6  10
ATOM      9  C   UNL A   1     -24.184   8.165  30.831  0.00  0.00    +0.254 C 
ATOM     10  O   UNL A   1     -24.694   6.812  30.492  0.00  0.00    -0.458 OA
ENDBRANCH   6  10
ENDBRANCH   3   7
ENDBRANCH   1   3
BRANCH   1  11
ATOM     11  O   UNL A   1     -25.143   3.966  28.243  0.00  0.00    -0.461 OA
BRANCH  11  12
ATOM     12  C   UNL A   1     -25.642   4.093  27.123  0.00  0.00    +0.222 C 
ATOM     13  N   UNL A   1     -25.614   5.252  26.449  0.00  0.00    -0.236 NA
ATOM     14  C   UNL A   1     -25.026   6.479  26.963  0.00  0.00    +0.155 C 
BRANCH  12  16
ATOM     15  C   UNL A   1     -25.688   1.614  26.461  0.00  0.00    +0.041 C 
ATOM     16  C   UNL A   1     -26.250   2.920  26.395  0.00  0.00    +0.074 C 
ATOM     17  C   UNL A   1     -27.438   3.091  25.645  0.00  0.00    +0.107 C 
ATOM     18  N   UNL A   1     -28.075   2.089  25.003  0.00  0.00    -0.208 NA
ATOM     19  C   UNL A   1     -27.543   0.849  25.079  0.00  0.00    +0.253 C 
ATOM     20  C   UNL A   1     -26.354   0.576  25.777  0.00  0.00    +0.193 C 
ATOM     21  F   UNL A   1     -25.860  -0.681  25.795  0.00  0.00    -0.199 F 
BRANCH  19  22
ATOM     22  O   UNL A   1     -28.193  -0.208  24.477  0.00  0.00    -0.456 OA
BRANCH  22  23
ATOM     23  C   UNL A   1     -29.460   0.005  23.866  0.00  0.00    +0.243 C 
BRANCH  23  24
ATOM     24  C   UNL A   1     -30.065  -1.377  23.573  0.00  0.00    +0.229 C 
ATOM     25  O   UNL A   1     -30.729  -1.878  24.721  0.00  0.00    -0.216 OA
ENDBRANCH  23  24
ENDBRANCH  22  23
ENDBRANCH  19  22
ENDBRANCH  12  16
ENDBRANCH  11  12
ENDBRANCH   1  11
BRANCH   1  26
ATOM     26  C   UNL A   1     -24.113   2.291  29.953  0.00  0.00    +0.065 C 
BRANCH  26  27
ATOM     27  C   UNL A   1     -23.786   1.164  29.004  0.00  0.00    +0.098 C 
ATOM     28  C   UNL A   1     -22.377   0.805  28.846  0.00  0.00    +0.139 C 
ATOM     29  N   UNL A   1     -22.643  -0.669  29.041  0.00  0.00    -0.144 NA
ATOM     30  N   UNL A   1     -23.598  -0.213  29.759  0.00  0.00    -0.199 NA
BRANCH  28  32
ATOM     31  O   UNL A   1     -22.635   2.502  27.025  0.00  0.00    -0.219 OA
ATOM     32  C   UNL A   1     -21.824   1.333  27.458  0.00  0.00    +0.202 C 
ENDBRANCH  28  32
BRANCH  30  33
ATOM     33  C   UNL A   1     -24.855  -1.012  30.143  0.00  0.00    +0.112 C 
BRANCH  33  34
ATOM     34  C   UNL A   1     -24.973  -2.505  29.788  0.00  0.00    -0.005 C 
ATOM     35  C   UNL A   1     -23.906  -3.173  29.146  0.00  0.00    -0.003 C 
ATOM     36  C   UNL A   1     -23.989  -4.549  28.853  0.00  0.00    -0.000 C 
ATOM     37  C   UNL A   1     -25.137  -5.280  29.205  0.00  0.00    -0.000 C 
ATOM     38  C   UNL A   1     -26.232  -4.611  29.784  0.00  0.00    -0.000 C 
ATOM     39  C   UNL A   1     -26.155  -3.232  30.065  0.00  0.00    -0.003 C 
ENDBRANCH  33  34
BRANCH  33  40
ATOM     40  C   UNL A   1     -25.387  -0.679  31.571  0.00  0.00    +0.093 C 
ATOM     41  C   UNL A   1     -25.189   0.773  32.028  0.00  0.00    +0.021 C 
ATOM     42  C   UNL A   1     -25.336   0.684  33.544  0.00  0.00    +0.020 C 
ATOM     43  C   UNL A   1     -24.829  -0.715  33.905  0.00  0.00    +0.089 C 
ATOM     44  N   UNL A   1     -24.758  -1.481  32.646  0.00  0.00    -0.218 NA
ENDBRANCH  33  40
ENDBRANCH  30  33
ENDBRANCH  26  27
ENDBRANCH   1  26
TORSDOF 15
