MODEL 832
MODEL 1
REMARK VINA RESULT:    -3.933      0.000      0.000
REMARK INTER + INTRA:          -4.163
REMARK INTER:                  -4.163
REMARK INTRA:                   0.000
REMARK UNBOUND:                 0.000
REMARK  Name = No_832-gen_results/8p0m/2024-11-27-11-27-31/
REMARK  1 active torsions:
REMARK  status: ('A' for Active; 'I' for Inactive)
REMARK    1  A    between atoms: C_2  and  C_4
REMARK                            x       y       z     vdW  Elec       q    Type
REMARK                         _______ _______ _______ _____ _____    ______ ____
ROOT
ATOM      1  F   UNL A   1     -10.067  -9.407  18.934  0.00  0.00    -0.192 F 
ATOM      2  C   UNL A   1      -9.510  -9.259  20.028  0.00  0.00    +0.384 C 
ATOM      3  F   UNL A   1     -10.016  -9.225  20.990  0.00  0.00    -0.192 F 
ENDROOT
BRANCH   2   4
ATOM      4  C   UNL A   1      -8.027  -9.304  20.000  0.00  0.00    +0.384 C 
ATOM      5  F   UNL A   1      -7.642  -9.875  20.990  0.00  0.00    -0.192 F 
ATOM      6  F   UNL A   1      -7.537  -8.072  20.009  0.00  0.00    -0.192 F 
ENDBRANCH   2   4
TORSDOF 1
ENDMDL
ENDMDL
