REMARK  Name = outputs/IAG933/test6/raw/output_833_IAG933_linker_design_.xyz
REMARK  14 active torsions:
REMARK  status: ('A' for Active; 'I' for Inactive)
REMARK    1  A    between atoms: C_1  and  C_2
REMARK    2  A    between atoms: C_1  and  C_8
REMARK    3  A    between atoms: C_1  and  C_47
REMARK    4  A    between atoms: C_13  and  C_42
REMARK    5  A    between atoms: C_14  and  C_15
REMARK    6  A    between atoms: C_21  and  O_22
REMARK    7  A    between atoms: O_22  and  C_23
REMARK    8  A    between atoms: C_23  and  C_24
REMARK    9  A    between atoms: S_28  and  C_31
REMARK   10  A    between atoms: S_28  and  C_43
REMARK   11  A    between atoms: C_29  and  O_45
REMARK   12  A    between atoms: C_30  and  C_42
REMARK   13  A    between atoms: N_32  and  C_43
REMARK   14  A    between atoms: C_35  and  C_42
REMARK                            x       y       z     vdW  Elec       q    Type
REMARK                         _______ _______ _______ _____ _____    ______ ____
ROOT
ATOM      1  N   UNL A   1     -26.211   1.717  29.122  0.00  0.00    -0.252 NA
ATOM      2  C   UNL A   1     -24.970   1.113  28.718  0.00  0.00    +0.082 C 
ATOM      3  C   UNL A   1     -25.666  -0.046  29.264  0.00  0.00    +0.080 C 
ENDROOT
BRANCH   3   4
ATOM      4  C   UNL A   1     -24.855  -1.012  30.143  0.00  0.00    +0.054 C 
BRANCH   4   5
ATOM      5  C   UNL A   1     -24.973  -2.505  29.788  0.00  0.00    -0.020 C 
ATOM      6  C   UNL A   1     -23.906  -3.173  29.146  0.00  0.00    -0.004 C 
ATOM      7  C   UNL A   1     -23.989  -4.549  28.853  0.00  0.00    -0.000 C 
ATOM      8  C   UNL A   1     -25.137  -5.280  29.205  0.00  0.00    -0.000 C 
ATOM      9  C   UNL A   1     -26.232  -4.611  29.784  0.00  0.00    -0.000 C 
ATOM     10  C   UNL A   1     -26.155  -3.232  30.065  0.00  0.00    -0.004 C 
ENDBRANCH   4   5
BRANCH   4  11
ATOM     11  C   UNL A   1     -25.387  -0.679  31.571  0.00  0.00    +0.078 C 
ATOM     12  C   UNL A   1     -25.189   0.773  32.028  0.00  0.00    +0.019 C 
ATOM     13  C   UNL A   1     -25.336   0.684  33.544  0.00  0.00    +0.020 C 
ATOM     14  C   UNL A   1     -24.829  -0.715  33.905  0.00  0.00    +0.089 C 
ATOM     15  N   UNL A   1     -24.758  -1.481  32.646  0.00  0.00    -0.219 NA
ENDBRANCH   4  11
ENDBRANCH   3   4
BRANCH   2  16
ATOM     16  C   UNL A   1     -24.502   1.285  27.286  0.00  0.00    +0.059 C 
BRANCH  16  17
ATOM     17  C   UNL A   1     -25.688   1.614  26.461  0.00  0.00    +0.021 C 
ATOM     18  C   UNL A   1     -26.250   2.920  26.395  0.00  0.00    +0.073 C 
ATOM     19  C   UNL A   1     -27.438   3.091  25.645  0.00  0.00    +0.106 C 
ATOM     20  N   UNL A   1     -28.075   2.089  25.003  0.00  0.00    -0.208 NA
ATOM     21  C   UNL A   1     -27.543   0.849  25.079  0.00  0.00    +0.253 C 
ATOM     22  C   UNL A   1     -26.354   0.576  25.777  0.00  0.00    +0.189 C 
ATOM     23  F   UNL A   1     -25.860  -0.681  25.795  0.00  0.00    -0.200 F 
BRANCH  18  24
ATOM     24  C   UNL A   1     -25.642   4.093  27.123  0.00  0.00    +0.266 C 
ATOM     25  N   UNL A   1     -25.614   5.252  26.449  0.00  0.00    -0.200 NA
ATOM     26  C   UNL A   1     -25.026   6.479  26.963  0.00  0.00    +0.139 C 
ATOM     27  O   UNL A   1     -25.143   3.966  28.243  0.00  0.00    -0.268 OA
ENDBRANCH  18  24
BRANCH  21  28
ATOM     28  O   UNL A   1     -28.193  -0.208  24.477  0.00  0.00    -0.456 OA
BRANCH  28  29
ATOM     29  C   UNL A   1     -29.460   0.005  23.866  0.00  0.00    +0.243 C 
BRANCH  29  30
ATOM     30  C   UNL A   1     -30.065  -1.377  23.573  0.00  0.00    +0.229 C 
ATOM     31  O   UNL A   1     -30.729  -1.878  24.721  0.00  0.00    -0.216 OA
ENDBRANCH  29  30
ENDBRANCH  28  29
ENDBRANCH  21  28
ENDBRANCH  16  17
BRANCH  16  32
ATOM     32  C   UNL A   1     -22.819   1.821  27.396  0.00  0.00    -0.039 C 
ATOM     33  C   UNL A   1     -21.846   1.283  28.202  0.00  0.00    -0.009 C 
ATOM     34  C   UNL A   1     -22.400   2.123  25.940  0.00  0.00    +0.027 C 
ENDBRANCH  16  32
ENDBRANCH   2  16
BRANCH   1  35
ATOM     35  C   UNL A   1     -27.684   1.684  29.360  0.00  0.00    +0.231 C 
BRANCH  35  36
ATOM     36  S   UNL A   1     -28.395   3.071  30.159  0.00  0.00    +0.024 S 
ATOM     37  O   UNL A   1     -28.703   3.018  31.540  0.00  0.00    -0.167 OA
ATOM     38  O   UNL A   1     -27.473   4.154  30.152  0.00  0.00    -0.167 OA
BRANCH  36  40
ATOM     39  C   UNL A   1     -32.013   4.092  27.884  0.00  0.00    +0.149 C 
ATOM     40  C   UNL A   1     -29.783   3.245  29.227  0.00  0.00    +0.108 C 
ATOM     41  C   UNL A   1     -31.352   2.978  27.398  0.00  0.00    +0.039 C 
ATOM     42  C   UNL A   1     -31.483   4.881  28.879  0.00  0.00    +0.093 C 
ATOM     43 CL   UNL A   1     -32.082   6.617  29.067  0.00  0.00    -0.079 Cl
ATOM     44  C   UNL A   1     -30.541   4.332  29.716  0.00  0.00    +0.033 C 
ATOM     45  C   UNL A   1     -30.203   2.531  28.056  0.00  0.00    +0.022 C 
BRANCH  39  47
ATOM     46  C   UNL A   1     -33.855   3.620  26.418  0.00  0.00    +0.253 C 
ATOM     47  O   UNL A   1     -33.252   4.537  27.428  0.00  0.00    -0.471 OA
ENDBRANCH  39  47
ENDBRANCH  36  40
ENDBRANCH  35  36
ENDBRANCH   1  35
TORSDOF 14
