REMARK  Name = outputs/IAG933/test6/raw/output_8331_IAG933_linker_design_.xyz
REMARK  12 active torsions:
REMARK  status: ('A' for Active; 'I' for Inactive)
REMARK    1  A    between atoms: C_1  and  C_2
REMARK    2  A    between atoms: C_1  and  C_8
REMARK    3  A    between atoms: C_1  and  C_37
REMARK    4  A    between atoms: C_21  and  O_22
REMARK    5  A    between atoms: O_22  and  C_23
REMARK    6  A    between atoms: C_23  and  C_24
REMARK    7  A    between atoms: C_29  and  C_37
REMARK    8  A    between atoms: C_31  and  O_34
REMARK    9  A    between atoms: C_32  and  C_33
REMARK   10  A    between atoms: C_33  and  C_45
REMARK   11  A    between atoms: C_35  and  C_38
REMARK   12  A    between atoms: C_37  and  C_38
REMARK                            x       y       z     vdW  Elec       q    Type
REMARK                         _______ _______ _______ _____ _____    ______ ____
ROOT
ATOM      1  C   UNL A   1     -25.688   1.614  26.461  0.00  0.00    +0.070 C 
ATOM      2  C   UNL A   1     -26.250   2.920  26.395  0.00  0.00    +0.053 C 
ATOM      3  C   UNL A   1     -25.642   4.093  27.123  0.00  0.00    +0.218 C 
ATOM      4  N   UNL A   1     -25.614   5.252  26.449  0.00  0.00    -0.236 NA
ATOM      5  C   UNL A   1     -25.026   6.479  26.963  0.00  0.00    +0.155 C 
ATOM      6  O   UNL A   1     -25.143   3.966  28.243  0.00  0.00    -0.461 OA
ATOM      7  C   UNL A   1     -27.438   3.091  25.645  0.00  0.00    +0.102 C 
ATOM      8  N   UNL A   1     -28.075   2.089  25.003  0.00  0.00    -0.212 NA
ATOM      9  C   UNL A   1     -27.543   0.849  25.079  0.00  0.00    +0.234 C 
ATOM     10  C   UNL A   1     -26.354   0.576  25.777  0.00  0.00    +0.240 C 
ATOM     11  F   UNL A   1     -25.860  -0.681  25.795  0.00  0.00    -0.227 F 
ATOM     12  C   UNL A   1     -25.218   0.987  28.718  0.00  0.00    +0.011 C 
ATOM     13  C   UNL A   1     -24.819   2.148  29.551  0.00  0.00    +0.044 C 
ATOM     14  C   UNL A   1     -25.190   1.363  27.431  0.00  0.00    +0.008 C 
ATOM     15  C   UNL A   1     -25.150   3.701  29.612  0.00  0.00    +0.207 C 
ENDROOT
BRANCH   9  16
ATOM     16  O   UNL A   1     -28.193  -0.208  24.477  0.00  0.00    -0.459 OA
BRANCH  16  17
ATOM     17  C   UNL A   1     -29.460   0.005  23.866  0.00  0.00    +0.242 C 
BRANCH  17  18
ATOM     18  C   UNL A   1     -30.065  -1.377  23.573  0.00  0.00    +0.229 C 
ATOM     19  O   UNL A   1     -30.729  -1.878  24.721  0.00  0.00    -0.216 OA
ENDBRANCH  17  18
ENDBRANCH  16  17
ENDBRANCH   9  16
BRANCH  13  20
ATOM     20  C   UNL A   1     -23.299   2.164  29.691  0.00  0.00    +0.012 C 
BRANCH  20  26
ATOM     21  O   UNL A   1     -21.300   1.529  26.446  0.00  0.00    -0.328 OA
ATOM     22  C   UNL A   1     -22.725   1.642  26.678  0.00  0.00    +0.238 C 
ATOM     23  F   UNL A   1     -22.186  -0.254  29.536  0.00  0.00    -0.234 F 
ATOM     24  C   UNL A   1     -21.900   0.523  28.511  0.00  0.00    +0.195 C 
ATOM     25  C   UNL A   1     -20.680   0.687  27.466  0.00  0.00    +0.180 C 
ATOM     26  C   UNL A   1     -22.776   1.773  28.270  0.00  0.00    +0.092 C 
BRANCH  22  27
ATOM     27  O   UNL A   1     -23.505   1.784  25.491  0.00  0.00    -0.328 OA
ATOM     28  C   UNL A   1     -22.947   2.842  24.633  0.00  0.00    +0.177 C 
ENDBRANCH  22  27
ENDBRANCH  20  26
ENDBRANCH  13  20
BRANCH  12  29
ATOM     29  C   UNL A   1     -25.748  -0.087  29.248  0.00  0.00    +0.063 C 
BRANCH  29  31
ATOM     30  O   UNL A   1     -27.911  -1.335  28.682  0.00  0.00    -0.296 OA
ATOM     31  C   UNL A   1     -27.323  -0.311  29.038  0.00  0.00    +0.151 C 
BRANCH  31  32
ATOM     32  C   UNL A   1     -28.108   1.040  29.227  0.00  0.00    +0.065 C 
ATOM     33  C   UNL A   1     -28.970   1.006  27.955  0.00  0.00    +0.008 C 
ENDBRANCH  31  32
ENDBRANCH  29  31
BRANCH  29  34
ATOM     34  C   UNL A   1     -24.855  -1.012  30.143  0.00  0.00    +0.045 C 
BRANCH  34  35
ATOM     35  C   UNL A   1     -24.973  -2.505  29.788  0.00  0.00    -0.021 C 
ATOM     36  C   UNL A   1     -23.906  -3.173  29.146  0.00  0.00    -0.004 C 
ATOM     37  C   UNL A   1     -23.989  -4.549  28.853  0.00  0.00    -0.000 C 
ATOM     38  C   UNL A   1     -25.137  -5.280  29.205  0.00  0.00    -0.000 C 
ATOM     39  C   UNL A   1     -26.232  -4.611  29.784  0.00  0.00    -0.000 C 
ATOM     40  C   UNL A   1     -26.155  -3.232  30.065  0.00  0.00    -0.004 C 
ENDBRANCH  34  35
BRANCH  34  41
ATOM     41  C   UNL A   1     -25.387  -0.679  31.571  0.00  0.00    +0.077 C 
ATOM     42  C   UNL A   1     -25.189   0.773  32.028  0.00  0.00    +0.019 C 
ATOM     43  C   UNL A   1     -25.336   0.684  33.544  0.00  0.00    +0.020 C 
ATOM     44  C   UNL A   1     -24.829  -0.715  33.905  0.00  0.00    +0.089 C 
ATOM     45  N   UNL A   1     -24.758  -1.481  32.646  0.00  0.00    -0.219 NA
ENDBRANCH  34  41
ENDBRANCH  29  34
ENDBRANCH  12  29
TORSDOF 12
