REMARK  Name = outputs/IAG933/test6/raw/output_8333_IAG933_linker_design_.xyz
REMARK  16 active torsions:
REMARK  status: ('A' for Active; 'I' for Inactive)
REMARK    1  A    between atoms: C_1  and  C_2
REMARK    2  A    between atoms: C_1  and  C_8
REMARK    3  A    between atoms: C_1  and  C_28
REMARK    4  A    between atoms: C_13  and  C_33
REMARK    5  A    between atoms: C_14  and  C_15
REMARK    6  A    between atoms: C_21  and  O_22
REMARK    7  A    between atoms: O_22  and  C_23
REMARK    8  A    between atoms: C_23  and  C_24
REMARK    9  A    between atoms: C_28  and  C_30
REMARK   10  A    between atoms: C_28  and  C_41
REMARK   11  A    between atoms: O_29  and  C_41
REMARK   12  A    between atoms: C_30  and  O_35
REMARK   13  A    between atoms: C_31  and  C_42
REMARK   14  A    between atoms: C_32  and  O_35
REMARK   15  A    between atoms: C_33  and  C_41
REMARK   16  A    between atoms: N_40  and  C_43
REMARK                            x       y       z     vdW  Elec       q    Type
REMARK                         _______ _______ _______ _____ _____    ______ ____
ROOT
ATOM      1  C   UNL A   1     -25.133  -0.172  28.841  0.00  0.00    +0.076 C 
ENDROOT
BRANCH   1   2
ATOM      2  C   UNL A   1     -26.595   0.245  28.794  0.00  0.00    +0.208 C 
BRANCH   2   3
ATOM      3  O   UNL A   1     -27.193   1.049  29.886  0.00  0.00    -0.478 OA
BRANCH   3   5
ATOM      4  C   UNL A   1     -30.354   1.439  28.224  0.00  0.00    -0.017 C 
ATOM      5  C   UNL A   1     -28.436   1.557  29.404  0.00  0.00    +0.140 C 
ATOM      6  C   UNL A   1     -28.701   2.872  28.946  0.00  0.00    +0.034 C 
ATOM      7  C   UNL A   1     -29.511   0.733  28.984  0.00  0.00    +0.171 C 
ATOM      8  C   UNL A   1     -29.899   2.803  28.182  0.00  0.00    -0.004 C 
BRANCH   7  12
ATOM      9  O   UNL A   1     -29.204  -2.465  29.912  0.00  0.00    -0.247 OA
ATOM     10  C   UNL A   1     -29.276  -1.322  30.131  0.00  0.00    +0.360 C 
ATOM     11  N   UNL A   1     -28.968  -0.756  31.298  0.00  0.00    -0.068 NA
ATOM     12  N   UNL A   1     -29.617  -0.593  29.052  0.00  0.00    -0.176 NA
ENDBRANCH   7  12
BRANCH   4  13
ATOM     13  C   UNL A   1     -31.474   0.862  27.468  0.00  0.00    +0.024 C 
ATOM     14  C   UNL A   1     -32.403   1.866  26.839  0.00  0.00    +0.005 C 
ENDBRANCH   4  13
ENDBRANCH   3   5
ENDBRANCH   2   3
ENDBRANCH   1   2
BRANCH   1  15
ATOM     15  C   UNL A   1     -24.094   0.771  28.249  0.00  0.00    +0.120 C 
BRANCH  15  16
ATOM     16  O   UNL A   1     -22.819   0.201  28.522  0.00  0.00    -0.353 OA
ATOM     17  C   UNL A   1     -21.794   1.011  28.037  0.00  0.00    +0.174 C 
ENDBRANCH  15  16
BRANCH  15  18
ATOM     18  C   UNL A   1     -24.260   1.231  26.776  0.00  0.00    +0.037 C 
BRANCH  18  19
ATOM     19  C   UNL A   1     -25.688   1.614  26.461  0.00  0.00    +0.073 C 
ATOM     20  C   UNL A   1     -26.250   2.920  26.395  0.00  0.00    +0.055 C 
ATOM     21  C   UNL A   1     -27.438   3.091  25.645  0.00  0.00    +0.102 C 
ATOM     22  N   UNL A   1     -28.075   2.089  25.003  0.00  0.00    -0.212 NA
ATOM     23  C   UNL A   1     -27.543   0.849  25.079  0.00  0.00    +0.234 C 
ATOM     24  C   UNL A   1     -26.354   0.576  25.777  0.00  0.00    +0.240 C 
ATOM     25  F   UNL A   1     -25.860  -0.681  25.795  0.00  0.00    -0.227 F 
BRANCH  20  26
ATOM     26  C   UNL A   1     -25.642   4.093  27.123  0.00  0.00    +0.262 C 
ATOM     27  N   UNL A   1     -25.614   5.252  26.449  0.00  0.00    -0.200 NA
ATOM     28  C   UNL A   1     -25.026   6.479  26.963  0.00  0.00    +0.139 C 
ATOM     29  O   UNL A   1     -25.143   3.966  28.243  0.00  0.00    -0.269 OA
ENDBRANCH  20  26
BRANCH  23  30
ATOM     30  O   UNL A   1     -28.193  -0.208  24.477  0.00  0.00    -0.459 OA
BRANCH  30  31
ATOM     31  C   UNL A   1     -29.460   0.005  23.866  0.00  0.00    +0.242 C 
BRANCH  31  32
ATOM     32  C   UNL A   1     -30.065  -1.377  23.573  0.00  0.00    +0.229 C 
ATOM     33  O   UNL A   1     -30.729  -1.878  24.721  0.00  0.00    -0.216 OA
ENDBRANCH  31  32
ENDBRANCH  30  31
ENDBRANCH  23  30
ENDBRANCH  18  19
ENDBRANCH  15  18
ENDBRANCH   1  15
BRANCH   1  34
ATOM     34  C   UNL A   1     -24.855  -1.012  30.143  0.00  0.00    +0.044 C 
BRANCH  34  35
ATOM     35  C   UNL A   1     -24.973  -2.505  29.788  0.00  0.00    -0.021 C 
ATOM     36  C   UNL A   1     -23.906  -3.173  29.146  0.00  0.00    -0.004 C 
ATOM     37  C   UNL A   1     -23.989  -4.549  28.853  0.00  0.00    -0.000 C 
ATOM     38  C   UNL A   1     -25.137  -5.280  29.205  0.00  0.00    -0.000 C 
ATOM     39  C   UNL A   1     -26.232  -4.611  29.784  0.00  0.00    -0.000 C 
ATOM     40  C   UNL A   1     -26.155  -3.232  30.065  0.00  0.00    -0.004 C 
ENDBRANCH  34  35
BRANCH  34  41
ATOM     41  C   UNL A   1     -25.387  -0.679  31.571  0.00  0.00    +0.077 C 
ATOM     42  C   UNL A   1     -25.189   0.773  32.028  0.00  0.00    +0.019 C 
ATOM     43  C   UNL A   1     -25.336   0.684  33.544  0.00  0.00    +0.020 C 
ATOM     44  C   UNL A   1     -24.829  -0.715  33.905  0.00  0.00    +0.089 C 
ATOM     45  N   UNL A   1     -24.758  -1.481  32.646  0.00  0.00    -0.219 NA
ENDBRANCH  34  41
ENDBRANCH   1  34
TORSDOF 16
