REMARK  Name = outputs/IAG933/test6/raw/output_8335_IAG933_linker_design_.xyz
REMARK  12 active torsions:
REMARK  status: ('A' for Active; 'I' for Inactive)
REMARK    1  A    between atoms: C_1  and  C_2
REMARK    2  A    between atoms: C_1  and  C_8
REMARK    3  A    between atoms: C_1  and  N_30
REMARK    4  A    between atoms: C_13  and  C_29
REMARK    5  A    between atoms: C_14  and  C_15
REMARK    6  A    between atoms: C_21  and  O_22
REMARK    7  A    between atoms: O_22  and  C_23
REMARK    8  A    between atoms: C_23  and  C_24
REMARK    9  A    between atoms: N_30  and  C_44
REMARK   10  A    between atoms: C_34  and  C_39
REMARK   11  A    between atoms: C_40  and  O_46
REMARK   12  A    between atoms: O_42  and  C_45
REMARK                            x       y       z     vdW  Elec       q    Type
REMARK                         _______ _______ _______ _____ _____    ______ ____
ROOT
ATOM      1  N   UNL A   1     -25.504  -0.089  29.123  0.00  0.00    -0.250 N 
ATOM      2  O   UNL A   1     -27.397  -1.107  28.430  0.00  0.00    -0.274 OA
ATOM      3  C   UNL A   1     -27.026  -0.148  28.969  0.00  0.00    +0.232 C 
ENDROOT
BRANCH   1  10
ATOM      4  C   UNL A   1     -24.540   1.240  27.203  0.00  0.00    +0.056 C 
ATOM      5  C   UNL A   1     -22.666   1.907  25.295  0.00  0.00    +0.040 C 
ATOM      6  O   UNL A   1     -21.917   1.893  26.570  0.00  0.00    -0.463 OA
ATOM      7  S   UNL A   1     -22.718   0.411  28.779  0.00  0.00    -0.052 S 
ATOM      8  C   UNL A   1     -21.366   1.196  27.734  0.00  0.00    +0.269 C 
ATOM      9  C   UNL A   1     -23.299   1.649  26.421  0.00  0.00    +0.142 C 
ATOM     10  C   UNL A   1     -24.462   0.577  28.402  0.00  0.00    +0.086 C 
BRANCH   4  11
ATOM     11  C   UNL A   1     -25.688   1.614  26.461  0.00  0.00    +0.043 C 
ATOM     12  C   UNL A   1     -26.250   2.920  26.395  0.00  0.00    +0.077 C 
ATOM     13  C   UNL A   1     -27.438   3.091  25.645  0.00  0.00    +0.107 C 
ATOM     14  N   UNL A   1     -28.075   2.089  25.003  0.00  0.00    -0.208 NA
ATOM     15  C   UNL A   1     -27.543   0.849  25.079  0.00  0.00    +0.253 C 
ATOM     16  C   UNL A   1     -26.354   0.576  25.777  0.00  0.00    +0.193 C 
ATOM     17  F   UNL A   1     -25.860  -0.681  25.795  0.00  0.00    -0.199 F 
BRANCH  12  18
ATOM     18  C   UNL A   1     -25.642   4.093  27.123  0.00  0.00    +0.266 C 
ATOM     19  N   UNL A   1     -25.614   5.252  26.449  0.00  0.00    -0.200 NA
ATOM     20  C   UNL A   1     -25.026   6.479  26.963  0.00  0.00    +0.139 C 
ATOM     21  O   UNL A   1     -25.143   3.966  28.243  0.00  0.00    -0.268 OA
ENDBRANCH  12  18
BRANCH  15  22
ATOM     22  O   UNL A   1     -28.193  -0.208  24.477  0.00  0.00    -0.456 OA
BRANCH  22  23
ATOM     23  C   UNL A   1     -29.460   0.005  23.866  0.00  0.00    +0.243 C 
BRANCH  23  24
ATOM     24  C   UNL A   1     -30.065  -1.377  23.573  0.00  0.00    +0.229 C 
ATOM     25  O   UNL A   1     -30.729  -1.878  24.721  0.00  0.00    -0.216 OA
ENDBRANCH  23  24
ENDBRANCH  22  23
ENDBRANCH  15  22
ENDBRANCH   4  11
ENDBRANCH   1  10
BRANCH   3  28
ATOM     26  C   UNL A   1     -28.237   1.651  30.846  0.00  0.00    +0.041 C 
ATOM     27  C   UNL A   1     -30.341   0.989  30.411  0.00  0.00    +0.060 C 
ATOM     28  C   UNL A   1     -28.129   0.779  29.675  0.00  0.00    +0.107 C 
ATOM     29  C   UNL A   1     -29.609   1.929  31.062  0.00  0.00    +0.118 C 
ATOM     30  C   UNL A   1     -29.440   0.636  29.284  0.00  0.00    +0.126 C 
BRANCH  30  32
ATOM     31  C   UNL A   1     -30.967   0.743  27.251  0.00  0.00    +0.174 C 
ATOM     32  O   UNL A   1     -29.826   0.223  27.966  0.00  0.00    -0.353 OA
ENDBRANCH  30  32
BRANCH  29  34
ATOM     33  C   UNL A   1     -31.118   3.200  32.721  0.00  0.00    +0.174 C 
ATOM     34  O   UNL A   1     -30.251   3.130  31.537  0.00  0.00    -0.353 OA
ENDBRANCH  29  34
ENDBRANCH   3  28
BRANCH   1  35
ATOM     35  C   UNL A   1     -24.855  -1.012  30.143  0.00  0.00    +0.118 C 
BRANCH  35  36
ATOM     36  C   UNL A   1     -24.973  -2.505  29.788  0.00  0.00    -0.003 C 
ATOM     37  C   UNL A   1     -23.906  -3.173  29.146  0.00  0.00    -0.003 C 
ATOM     38  C   UNL A   1     -23.989  -4.549  28.853  0.00  0.00    -0.000 C 
ATOM     39  C   UNL A   1     -25.137  -5.280  29.205  0.00  0.00    -0.000 C 
ATOM     40  C   UNL A   1     -26.232  -4.611  29.784  0.00  0.00    -0.000 C 
ATOM     41  C   UNL A   1     -26.155  -3.232  30.065  0.00  0.00    -0.003 C 
ENDBRANCH  35  36
BRANCH  35  42
ATOM     42  C   UNL A   1     -25.387  -0.679  31.571  0.00  0.00    +0.096 C 
ATOM     43  C   UNL A   1     -25.189   0.773  32.028  0.00  0.00    +0.021 C 
ATOM     44  C   UNL A   1     -25.336   0.684  33.544  0.00  0.00    +0.020 C 
ATOM     45  C   UNL A   1     -24.829  -0.715  33.905  0.00  0.00    +0.089 C 
ATOM     46  N   UNL A   1     -24.758  -1.481  32.646  0.00  0.00    -0.217 NA
ENDBRANCH  35  42
ENDBRANCH   1  35
TORSDOF 12
