REMARK  Name = outputs/IAG933/test6/raw/output_834_IAG933_linker_design_.xyz
REMARK  18 active torsions:
REMARK  status: ('A' for Active; 'I' for Inactive)
REMARK    1  A    between atoms: C_1  and  C_2
REMARK    2  A    between atoms: C_1  and  C_8
REMARK    3  A    between atoms: C_1  and  N_43
REMARK    4  A    between atoms: C_13  and  C_29
REMARK    5  A    between atoms: C_14  and  C_15
REMARK    6  A    between atoms: C_21  and  O_22
REMARK    7  A    between atoms: O_22  and  C_23
REMARK    8  A    between atoms: C_23  and  C_24
REMARK    9  A    between atoms: C_29  and  N_42
REMARK   10  A    between atoms: C_29  and  N_43
REMARK   11  A    between atoms: C_31  and  C_36
REMARK   12  A    between atoms: C_31  and  O_37
REMARK   13  A    between atoms: C_32  and  O_35
REMARK   14  A    between atoms: C_32  and  C_39
REMARK   15  A    between atoms: O_35  and  C_38
REMARK   16  A    between atoms: C_36  and  C_39
REMARK   17  A    between atoms: C_38  and  C_41
REMARK   18  A    between atoms: C_41  and  N_43
REMARK                            x       y       z     vdW  Elec       q    Type
REMARK                         _______ _______ _______ _____ _____    ______ ____
ROOT
ATOM      1  N   UNL A   1     -25.222  -0.039  29.015  0.00  0.00    -0.253 NA
ENDROOT
BRANCH   1   2
ATOM      2  C   UNL A   1     -24.855  -1.012  30.143  0.00  0.00    +0.097 C 
BRANCH   2   3
ATOM      3  C   UNL A   1     -24.973  -2.505  29.788  0.00  0.00    -0.006 C 
ATOM      4  C   UNL A   1     -23.906  -3.173  29.146  0.00  0.00    -0.003 C 
ATOM      5  C   UNL A   1     -23.989  -4.549  28.853  0.00  0.00    -0.000 C 
ATOM      6  C   UNL A   1     -25.137  -5.280  29.205  0.00  0.00    -0.000 C 
ATOM      7  C   UNL A   1     -26.232  -4.611  29.784  0.00  0.00    -0.000 C 
ATOM      8  C   UNL A   1     -26.155  -3.232  30.065  0.00  0.00    -0.003 C 
ENDBRANCH   2   3
BRANCH   2   9
ATOM      9  C   UNL A   1     -25.387  -0.679  31.571  0.00  0.00    +0.092 C 
ATOM     10  C   UNL A   1     -25.189   0.773  32.028  0.00  0.00    +0.021 C 
ATOM     11  C   UNL A   1     -25.336   0.684  33.544  0.00  0.00    +0.020 C 
ATOM     12  C   UNL A   1     -24.829  -0.715  33.905  0.00  0.00    +0.089 C 
ATOM     13  N   UNL A   1     -24.758  -1.481  32.646  0.00  0.00    -0.218 NA
ENDBRANCH   2   9
ENDBRANCH   1   2
BRANCH   1  14
ATOM     14  C   UNL A   1     -26.552  -0.614  28.685  0.00  0.00    +0.106 C 
BRANCH  14  15
ATOM     15  C   UNL A   1     -27.498  -0.050  29.780  0.00  0.00    +0.160 C 
BRANCH  15  16
ATOM     16  O   UNL A   1     -28.472   0.967  29.374  0.00  0.00    -0.352 OA
BRANCH  16  17
ATOM     17  C   UNL A   1     -29.428   0.310  28.502  0.00  0.00    +0.142 C 
BRANCH  17  18
ATOM     18  C   UNL A   1     -30.506   1.135  27.813  0.00  0.00    +0.035 C 
BRANCH  18  19
ATOM     19  C   UNL A   1     -30.290   2.460  27.377  0.00  0.00    +0.035 C 
BRANCH  19  20
ATOM     20  C   UNL A   1     -29.761   3.393  28.453  0.00  0.00    +0.142 C 
BRANCH  20  22
ATOM     21  C   UNL A   1     -30.562   5.868  27.171  0.00  0.00    +0.174 C 
ATOM     22  O   UNL A   1     -30.006   4.985  28.287  0.00  0.00    -0.351 OA
ENDBRANCH  20  22
ENDBRANCH  19  20
ENDBRANCH  18  19
ENDBRANCH  17  18
ENDBRANCH  16  17
ENDBRANCH  15  16
ENDBRANCH  14  15
ENDBRANCH   1  14
BRANCH   1  23
ATOM     23  C   UNL A   1     -24.980   1.177  27.890  0.00  0.00    +0.152 C 
BRANCH  23  24
ATOM     24  C   UNL A   1     -25.688   1.614  26.461  0.00  0.00    +0.102 C 
ATOM     25  C   UNL A   1     -26.250   2.920  26.395  0.00  0.00    +0.058 C 
ATOM     26  C   UNL A   1     -27.438   3.091  25.645  0.00  0.00    +0.102 C 
ATOM     27  N   UNL A   1     -28.075   2.089  25.003  0.00  0.00    -0.212 NA
ATOM     28  C   UNL A   1     -27.543   0.849  25.079  0.00  0.00    +0.234 C 
ATOM     29  C   UNL A   1     -26.354   0.576  25.777  0.00  0.00    +0.243 C 
ATOM     30  F   UNL A   1     -25.860  -0.681  25.795  0.00  0.00    -0.227 F 
BRANCH  25  31
ATOM     31  C   UNL A   1     -25.642   4.093  27.123  0.00  0.00    +0.263 C 
ATOM     32  N   UNL A   1     -25.614   5.252  26.449  0.00  0.00    -0.200 NA
ATOM     33  C   UNL A   1     -25.026   6.479  26.963  0.00  0.00    +0.139 C 
ATOM     34  O   UNL A   1     -25.143   3.966  28.243  0.00  0.00    -0.269 OA
ENDBRANCH  25  31
BRANCH  28  35
ATOM     35  O   UNL A   1     -28.193  -0.208  24.477  0.00  0.00    -0.459 OA
BRANCH  35  36
ATOM     36  C   UNL A   1     -29.460   0.005  23.866  0.00  0.00    +0.242 C 
BRANCH  36  37
ATOM     37  C   UNL A   1     -30.065  -1.377  23.573  0.00  0.00    +0.229 C 
ATOM     38  O   UNL A   1     -30.729  -1.878  24.721  0.00  0.00    -0.216 OA
ENDBRANCH  36  37
ENDBRANCH  35  36
ENDBRANCH  28  35
ENDBRANCH  23  24
BRANCH  23  43
ATOM     39  N   UNL A   1     -22.085   0.240  29.150  0.00  0.00    -0.110 NA
ATOM     40  C   UNL A   1     -22.595   0.842  28.004  0.00  0.00    +0.208 C 
ATOM     41  C   UNL A   1     -21.665   1.558  26.987  0.00  0.00    +0.204 C 
ATOM     42  O   UNL A   1     -22.994   1.299  26.458  0.00  0.00    -0.277 OA
ATOM     43  N   UNL A   1     -23.623   1.103  27.629  0.00  0.00    -0.133 NA
ENDBRANCH  23  43
ENDBRANCH   1  23
TORSDOF 18
