REMARK  Name = outputs/IAG933/test6/raw/output_8344_IAG933_linker_design_.xyz
REMARK  15 active torsions:
REMARK  status: ('A' for Active; 'I' for Inactive)
REMARK    1  A    between atoms: C_1  and  C_2
REMARK    2  A    between atoms: C_1  and  C_8
REMARK    3  A    between atoms: C_1  and  C_37
REMARK    4  A    between atoms: C_13  and  N_33
REMARK    5  A    between atoms: C_14  and  C_15
REMARK    6  A    between atoms: C_21  and  O_22
REMARK    7  A    between atoms: O_22  and  C_23
REMARK    8  A    between atoms: C_23  and  C_24
REMARK    9  A    between atoms: N_28  and  C_29
REMARK   10  A    between atoms: N_28  and  C_37
REMARK   11  A    between atoms: C_29  and  N_33
REMARK   12  A    between atoms: C_29  and  C_43
REMARK   13  A    between atoms: C_36  and  C_38
REMARK   14  A    between atoms: C_37  and  O_45
REMARK   15  A    between atoms: C_38  and  O_45
REMARK                            x       y       z     vdW  Elec       q    Type
REMARK                         _______ _______ _______ _____ _____    ______ ____
ROOT
ATOM      1  C   UNL A   1     -25.494  -0.188  29.034  0.00  0.00    +0.196 C 
ENDROOT
BRANCH   1   2
ATOM      2  C   UNL A   1     -24.855  -1.012  30.143  0.00  0.00    +0.083 C 
BRANCH   2   3
ATOM      3  C   UNL A   1     -24.973  -2.505  29.788  0.00  0.00    -0.017 C 
ATOM      4  C   UNL A   1     -23.906  -3.173  29.146  0.00  0.00    -0.004 C 
ATOM      5  C   UNL A   1     -23.989  -4.549  28.853  0.00  0.00    -0.000 C 
ATOM      6  C   UNL A   1     -25.137  -5.280  29.205  0.00  0.00    -0.000 C 
ATOM      7  C   UNL A   1     -26.232  -4.611  29.784  0.00  0.00    -0.000 C 
ATOM      8  C   UNL A   1     -26.155  -3.232  30.065  0.00  0.00    -0.004 C 
ENDBRANCH   2   3
BRANCH   2   9
ATOM      9  C   UNL A   1     -25.387  -0.679  31.571  0.00  0.00    +0.081 C 
ATOM     10  C   UNL A   1     -25.189   0.773  32.028  0.00  0.00    +0.019 C 
ATOM     11  C   UNL A   1     -25.336   0.684  33.544  0.00  0.00    +0.020 C 
ATOM     12  C   UNL A   1     -24.829  -0.715  33.905  0.00  0.00    +0.089 C 
ATOM     13  N   UNL A   1     -24.758  -1.481  32.646  0.00  0.00    -0.219 NA
ENDBRANCH   2   9
ENDBRANCH   1   2
BRANCH   1  14
ATOM     14  N   UNL A   1     -24.571  -0.235  28.129  0.00  0.00    -0.173 NA
BRANCH  14  15
ATOM     15  C   UNL A   1     -23.720   0.876  27.850  0.00  0.00    +0.178 C 
BRANCH  15  18
ATOM     16  C   UNL A   1     -21.297   1.330  27.718  0.00  0.00    +0.039 C 
ATOM     17  O   UNL A   1     -22.143   0.133  29.623  0.00  0.00    -0.220 OA
ATOM     18  C   UNL A   1     -22.527   0.913  28.299  0.00  0.00    +0.184 C 
ENDBRANCH  15  18
BRANCH  15  20
ATOM     19 CL   UNL A   1     -23.239   1.825  25.261  0.00  0.00    -0.018 Cl
ATOM     20  N   UNL A   1     -24.244   1.490  26.648  0.00  0.00    -0.175 NA
BRANCH  20  21
ATOM     21  C   UNL A   1     -25.688   1.614  26.461  0.00  0.00    +0.144 C 
ATOM     22  C   UNL A   1     -26.250   2.920  26.395  0.00  0.00    +0.071 C 
ATOM     23  C   UNL A   1     -27.438   3.091  25.645  0.00  0.00    +0.103 C 
ATOM     24  N   UNL A   1     -28.075   2.089  25.003  0.00  0.00    -0.212 NA
ATOM     25  C   UNL A   1     -27.543   0.849  25.079  0.00  0.00    +0.236 C 
ATOM     26  C   UNL A   1     -26.354   0.576  25.777  0.00  0.00    +0.256 C 
ATOM     27  F   UNL A   1     -25.860  -0.681  25.795  0.00  0.00    -0.225 F 
BRANCH  22  28
ATOM     28  C   UNL A   1     -25.642   4.093  27.123  0.00  0.00    +0.264 C 
ATOM     29  N   UNL A   1     -25.614   5.252  26.449  0.00  0.00    -0.200 NA
ATOM     30  C   UNL A   1     -25.026   6.479  26.963  0.00  0.00    +0.139 C 
ATOM     31  O   UNL A   1     -25.143   3.966  28.243  0.00  0.00    -0.269 OA
ENDBRANCH  22  28
BRANCH  25  32
ATOM     32  O   UNL A   1     -28.193  -0.208  24.477  0.00  0.00    -0.459 OA
BRANCH  32  33
ATOM     33  C   UNL A   1     -29.460   0.005  23.866  0.00  0.00    +0.242 C 
BRANCH  33  34
ATOM     34  C   UNL A   1     -30.065  -1.377  23.573  0.00  0.00    +0.229 C 
ATOM     35  O   UNL A   1     -30.729  -1.878  24.721  0.00  0.00    -0.216 OA
ENDBRANCH  33  34
ENDBRANCH  32  33
ENDBRANCH  25  32
ENDBRANCH  20  21
ENDBRANCH  15  20
ENDBRANCH  14  15
ENDBRANCH   1  14
BRANCH   1  36
ATOM     36  O   UNL A   1     -26.805   0.345  29.078  0.00  0.00    -0.339 OA
BRANCH  36  37
ATOM     37  C   UNL A   1     -27.839  -0.078  30.030  0.00  0.00    +0.146 C 
BRANCH  37  41
ATOM     38  C   UNL A   1     -29.386   0.126  28.029  0.00  0.00    +0.005 C 
ATOM     39  C   UNL A   1     -29.980  -1.523  29.804  0.00  0.00    +0.154 C 
ATOM     40  C   UNL A   1     -31.837  -1.248  28.169  0.00  0.00    +0.003 C 
ATOM     41  C   UNL A   1     -29.269  -0.175  29.530  0.00  0.00    +0.060 C 
ATOM     42  C   UNL A   1     -33.212  -0.558  28.116  0.00  0.00    +0.000 C 
ATOM     43  O   UNL A   1     -29.281  -2.437  30.623  0.00  0.00    -0.223 OA
ATOM     44  C   UNL A   1     -30.663  -0.540  27.425  0.00  0.00    +0.000 C 
ATOM     45  C   UNL A   1     -31.498  -1.413  29.659  0.00  0.00    +0.033 C 
ENDBRANCH  37  41
ENDBRANCH  36  37
ENDBRANCH   1  36
TORSDOF 15
