REMARK  Name = outputs/IAG933/test6/raw/output_8346_IAG933_linker_design_.xyz
REMARK  8 active torsions:
REMARK  status: ('A' for Active; 'I' for Inactive)
REMARK    1  A    between atoms: C_1  and  C_2
REMARK    2  A    between atoms: C_1  and  C_8
REMARK    3  A    between atoms: C_1  and  N_30
REMARK    4  A    between atoms: C_13  and  N_35
REMARK    5  A    between atoms: C_14  and  C_15
REMARK    6  A    between atoms: C_21  and  O_22
REMARK    7  A    between atoms: O_22  and  C_23
REMARK    8  A    between atoms: C_23  and  C_24
REMARK                            x       y       z     vdW  Elec       q    Type
REMARK                         _______ _______ _______ _____ _____    ______ ____
ROOT
ATOM      1  C   UNL A   1     -22.815   1.793  26.965  0.00  0.00    +0.206 C 
ATOM      2  C   UNL A   1     -19.753  -0.288  28.014  0.00  0.00    +0.029 C 
ATOM      3  N   UNL A   1     -24.904  -0.144  29.282  0.00  0.00    -0.260 N 
ATOM      4  C   UNL A   1     -20.919   0.435  28.091  0.00  0.00    -0.009 C 
ATOM      5  F   UNL A   1     -20.584   1.838  26.212  0.00  0.00    -0.225 F 
ATOM      6  C   UNL A   1     -22.765   0.100  29.748  0.00  0.00    +0.048 C 
ATOM      7  O   UNL A   1     -27.057   0.501  28.716  0.00  0.00    -0.252 OA
ATOM      8  N   UNL A   1     -25.087   1.101  27.638  0.00  0.00    -0.252 N 
ATOM      9  C   UNL A   1     -23.726   0.359  28.915  0.00  0.00    +0.107 C 
ATOM     10  O   UNL A   1     -23.125   2.650  26.127  0.00  0.00    -0.291 OA
ATOM     11  C   UNL A   1     -23.845   1.194  27.801  0.00  0.00    +0.156 C 
ATOM     12  C   UNL A   1     -25.879   0.404  28.624  0.00  0.00    +0.308 C 
ATOM     13  C   UNL A   1     -21.430   1.368  27.074  0.00  0.00    +0.237 C 
ATOM     14  C   UNL A   1     -21.631  -0.009  29.295  0.00  0.00    -0.030 C 
ENDROOT
BRANCH   8  15
ATOM     15  C   UNL A   1     -25.688   1.614  26.461  0.00  0.00    +0.147 C 
ATOM     16  C   UNL A   1     -26.250   2.920  26.395  0.00  0.00    +0.073 C 
ATOM     17  C   UNL A   1     -27.438   3.091  25.645  0.00  0.00    +0.104 C 
ATOM     18  N   UNL A   1     -28.075   2.089  25.003  0.00  0.00    -0.212 NA
ATOM     19  C   UNL A   1     -27.543   0.849  25.079  0.00  0.00    +0.236 C 
ATOM     20  C   UNL A   1     -26.354   0.576  25.777  0.00  0.00    +0.258 C 
ATOM     21  F   UNL A   1     -25.860  -0.681  25.795  0.00  0.00    -0.225 F 
BRANCH  16  22
ATOM     22  C   UNL A   1     -25.642   4.093  27.123  0.00  0.00    +0.264 C 
ATOM     23  N   UNL A   1     -25.614   5.252  26.449  0.00  0.00    -0.200 NA
ATOM     24  C   UNL A   1     -25.026   6.479  26.963  0.00  0.00    +0.139 C 
ATOM     25  O   UNL A   1     -25.143   3.966  28.243  0.00  0.00    -0.269 OA
ENDBRANCH  16  22
BRANCH  19  26
ATOM     26  O   UNL A   1     -28.193  -0.208  24.477  0.00  0.00    -0.459 OA
BRANCH  26  27
ATOM     27  C   UNL A   1     -29.460   0.005  23.866  0.00  0.00    +0.242 C 
BRANCH  27  28
ATOM     28  C   UNL A   1     -30.065  -1.377  23.573  0.00  0.00    +0.229 C 
ATOM     29  O   UNL A   1     -30.729  -1.878  24.721  0.00  0.00    -0.216 OA
ENDBRANCH  27  28
ENDBRANCH  26  27
ENDBRANCH  19  26
ENDBRANCH   8  15
BRANCH   3  30
ATOM     30  C   UNL A   1     -24.855  -1.012  30.143  0.00  0.00    +0.115 C 
BRANCH  30  31
ATOM     31  C   UNL A   1     -24.973  -2.505  29.788  0.00  0.00    -0.003 C 
ATOM     32  C   UNL A   1     -23.906  -3.173  29.146  0.00  0.00    -0.003 C 
ATOM     33  C   UNL A   1     -23.989  -4.549  28.853  0.00  0.00    -0.000 C 
ATOM     34  C   UNL A   1     -25.137  -5.280  29.205  0.00  0.00    -0.000 C 
ATOM     35  C   UNL A   1     -26.232  -4.611  29.784  0.00  0.00    -0.000 C 
ATOM     36  C   UNL A   1     -26.155  -3.232  30.065  0.00  0.00    -0.003 C 
ENDBRANCH  30  31
BRANCH  30  37
ATOM     37  C   UNL A   1     -25.387  -0.679  31.571  0.00  0.00    +0.095 C 
ATOM     38  C   UNL A   1     -25.189   0.773  32.028  0.00  0.00    +0.021 C 
ATOM     39  C   UNL A   1     -25.336   0.684  33.544  0.00  0.00    +0.020 C 
ATOM     40  C   UNL A   1     -24.829  -0.715  33.905  0.00  0.00    +0.089 C 
ATOM     41  N   UNL A   1     -24.758  -1.481  32.646  0.00  0.00    -0.217 NA
ENDBRANCH  30  37
ENDBRANCH   3  30
TORSDOF 8
