REMARK  Name = outputs/IAG933/test6/raw/output_8348_IAG933_linker_design_.xyz
REMARK  10 active torsions:
REMARK  status: ('A' for Active; 'I' for Inactive)
REMARK    1  A    between atoms: C_1  and  C_2
REMARK    2  A    between atoms: C_1  and  C_8
REMARK    3  A    between atoms: C_1  and  C_29
REMARK    4  A    between atoms: C_21  and  O_22
REMARK    5  A    between atoms: O_22  and  C_23
REMARK    6  A    between atoms: C_23  and  C_24
REMARK    7  A    between atoms: C_28  and  C_36
REMARK    8  A    between atoms: C_29  and  C_42
REMARK    9  A    between atoms: C_33  and  C_38
REMARK   10  A    between atoms: C_40  and  C_42
REMARK                            x       y       z     vdW  Elec       q    Type
REMARK                         _______ _______ _______ _____ _____    ______ ____
ROOT
ATOM      1  C   UNL A   1     -25.688   1.614  26.461  0.00  0.00    +0.118 C 
ATOM      2  C   UNL A   1     -26.250   2.920  26.395  0.00  0.00    +0.063 C 
ATOM      3  C   UNL A   1     -25.642   4.093  27.123  0.00  0.00    +0.219 C 
ATOM      4  N   UNL A   1     -25.614   5.252  26.449  0.00  0.00    -0.236 NA
ATOM      5  C   UNL A   1     -25.026   6.479  26.963  0.00  0.00    +0.155 C 
ATOM      6  O   UNL A   1     -25.143   3.966  28.243  0.00  0.00    -0.463 OA
ATOM      7  C   UNL A   1     -27.438   3.091  25.645  0.00  0.00    +0.103 C 
ATOM      8  N   UNL A   1     -28.075   2.089  25.003  0.00  0.00    -0.212 NA
ATOM      9  C   UNL A   1     -27.543   0.849  25.079  0.00  0.00    +0.235 C 
ATOM     10  C   UNL A   1     -26.354   0.576  25.777  0.00  0.00    +0.250 C 
ATOM     11  F   UNL A   1     -25.860  -0.681  25.795  0.00  0.00    -0.226 F 
ATOM     12  S   UNL A   1     -24.200   1.205  26.794  0.00  0.00    -0.118 S 
ATOM     13  C   UNL A   1     -24.719   2.822  29.095  0.00  0.00    +0.191 C 
ATOM     14  C   UNL A   1     -24.233   1.220  28.589  0.00  0.00    +0.198 C 
ENDROOT
BRANCH  13  16
ATOM     15  C   UNL A   1     -26.303   6.844  30.805  0.00  0.00    +0.090 C 
ATOM     16  C   UNL A   1     -25.869   3.533  30.061  0.00  0.00    +0.068 C 
ATOM     17  C   UNL A   1     -25.509   4.565  32.625  0.00  0.00    +0.018 C 
ATOM     18  N   UNL A   1     -26.996   5.479  30.738  0.00  0.00    -0.272 NA
ATOM     19  C   UNL A   1     -27.386   3.414  29.536  0.00  0.00    +0.124 C 
ATOM     20  C   UNL A   1     -26.077   4.558  31.176  0.00  0.00    +0.062 C 
ATOM     21  C   UNL A   1     -27.959   4.704  29.866  0.00  0.00    +0.084 C 
BRANCH  19  22
ATOM     22  C   UNL A   1     -28.524   2.370  29.103  0.00  0.00    +0.366 C 
ATOM     23  O   UNL A   1     -29.392   2.467  29.894  0.00  0.00    -0.246 OA
ATOM     24  O   UNL A   1     -28.617   1.776  28.111  0.00  0.00    -0.246 OA
ENDBRANCH  19  22
ENDBRANCH  13  16
BRANCH  14  26
ATOM     25  O   UNL A   1     -22.156   0.050  29.334  0.00  0.00    -0.244 OA
ATOM     26  C   UNL A   1     -22.573   0.971  28.710  0.00  0.00    +0.379 C 
ATOM     27  O   UNL A   1     -21.930   1.802  28.116  0.00  0.00    -0.244 OA
ENDBRANCH  14  26
BRANCH  14  28
ATOM     28  C   UNL A   1     -25.168   0.082  29.126  0.00  0.00    +0.180 C 
ATOM     29  O   UNL A   1     -26.477  -0.156  28.649  0.00  0.00    -0.221 OA
BRANCH  28  30
ATOM     30  C   UNL A   1     -24.855  -1.012  30.143  0.00  0.00    +0.070 C 
BRANCH  30  31
ATOM     31  C   UNL A   1     -24.973  -2.505  29.788  0.00  0.00    -0.019 C 
ATOM     32  C   UNL A   1     -23.906  -3.173  29.146  0.00  0.00    -0.004 C 
ATOM     33  C   UNL A   1     -23.989  -4.549  28.853  0.00  0.00    -0.000 C 
ATOM     34  C   UNL A   1     -25.137  -5.280  29.205  0.00  0.00    -0.000 C 
ATOM     35  C   UNL A   1     -26.232  -4.611  29.784  0.00  0.00    -0.000 C 
ATOM     36  C   UNL A   1     -26.155  -3.232  30.065  0.00  0.00    -0.004 C 
ENDBRANCH  30  31
BRANCH  30  37
ATOM     37  C   UNL A   1     -25.387  -0.679  31.571  0.00  0.00    +0.079 C 
ATOM     38  C   UNL A   1     -25.189   0.773  32.028  0.00  0.00    +0.019 C 
ATOM     39  C   UNL A   1     -25.336   0.684  33.544  0.00  0.00    +0.020 C 
ATOM     40  C   UNL A   1     -24.829  -0.715  33.905  0.00  0.00    +0.089 C 
ATOM     41  N   UNL A   1     -24.758  -1.481  32.646  0.00  0.00    -0.219 NA
ENDBRANCH  30  37
ENDBRANCH  28  30
ENDBRANCH  14  28
BRANCH   9  42
ATOM     42  O   UNL A   1     -28.193  -0.208  24.477  0.00  0.00    -0.459 OA
BRANCH  42  43
ATOM     43  C   UNL A   1     -29.460   0.005  23.866  0.00  0.00    +0.242 C 
BRANCH  43  44
ATOM     44  C   UNL A   1     -30.065  -1.377  23.573  0.00  0.00    +0.229 C 
ATOM     45  O   UNL A   1     -30.729  -1.878  24.721  0.00  0.00    -0.216 OA
ENDBRANCH  43  44
ENDBRANCH  42  43
ENDBRANCH   9  42
TORSDOF 10
