REMARK  Name = outputs/IAG933/test6/raw/output_835_IAG933_linker_design_.xyz
REMARK  15 active torsions:
REMARK  status: ('A' for Active; 'I' for Inactive)
REMARK    1  A    between atoms: C_1  and  C_2
REMARK    2  A    between atoms: C_1  and  C_8
REMARK    3  A    between atoms: C_9  and  C_33
REMARK    4  A    between atoms: C_13  and  C_28
REMARK    5  A    between atoms: C_14  and  C_15
REMARK    6  A    between atoms: C_21  and  O_22
REMARK    7  A    between atoms: O_22  and  C_23
REMARK    8  A    between atoms: C_23  and  C_24
REMARK    9  A    between atoms: C_28  and  O_40
REMARK   10  A    between atoms: CA_30  and  N_34
REMARK   11  A    between atoms: CA_30  and  C_36
REMARK   12  A    between atoms: C_33  and  N_34
REMARK   13  A    between atoms: C_33  and  C_35
REMARK   14  A    between atoms: C_35  and  C_42
REMARK   15  A    between atoms: C_42  and  C_43
REMARK                            x       y       z     vdW  Elec       q    Type
REMARK                         _______ _______ _______ _____ _____    ______ ____
ROOT
ATOM      1  C   UNL A   1     -24.352   1.489  26.930  0.00  0.00    +0.162 C 
ATOM      2  CA  UNL A   1     -23.933   1.496  28.220  0.00  0.00    +0.179 C 
ENDROOT
BRANCH   1   3
ATOM      3  C   UNL A   1     -25.688   1.614  26.461  0.00  0.00    +0.073 C 
ATOM      4  C   UNL A   1     -26.250   2.920  26.395  0.00  0.00    +0.080 C 
ATOM      5  C   UNL A   1     -27.438   3.091  25.645  0.00  0.00    +0.107 C 
ATOM      6  N   UNL A   1     -28.075   2.089  25.003  0.00  0.00    -0.208 NA
ATOM      7  C   UNL A   1     -27.543   0.849  25.079  0.00  0.00    +0.253 C 
ATOM      8  C   UNL A   1     -26.354   0.576  25.777  0.00  0.00    +0.196 C 
ATOM      9  F   UNL A   1     -25.860  -0.681  25.795  0.00  0.00    -0.199 F 
BRANCH   4  10
ATOM     10  C   UNL A   1     -25.642   4.093  27.123  0.00  0.00    +0.267 C 
ATOM     11  N   UNL A   1     -25.614   5.252  26.449  0.00  0.00    -0.200 NA
ATOM     12  C   UNL A   1     -25.026   6.479  26.963  0.00  0.00    +0.139 C 
ATOM     13  O   UNL A   1     -25.143   3.966  28.243  0.00  0.00    -0.268 OA
ENDBRANCH   4  10
BRANCH   7  14
ATOM     14  O   UNL A   1     -28.193  -0.208  24.477  0.00  0.00    -0.456 OA
BRANCH  14  15
ATOM     15  C   UNL A   1     -29.460   0.005  23.866  0.00  0.00    +0.243 C 
BRANCH  15  16
ATOM     16  C   UNL A   1     -30.065  -1.377  23.573  0.00  0.00    +0.229 C 
ATOM     17  O   UNL A   1     -30.729  -1.878  24.721  0.00  0.00    -0.216 OA
ENDBRANCH  15  16
ENDBRANCH  14  15
ENDBRANCH   7  14
ENDBRANCH   1   3
BRANCH   2  18
ATOM     18  C   UNL A   1     -22.485   1.095  28.499  0.00  0.00    +0.405 C 
ATOM     19  O   UNL A   1     -22.369   0.060  29.298  0.00  0.00    -0.239 OA
ATOM     20  OXT UNL A   1     -21.537   1.740  27.908  0.00  0.00    -0.239 OA
ENDBRANCH   2  18
BRANCH   1  22
ATOM     21  C   UNL A   1     -22.772   2.399  25.223  0.00  0.00    +0.253 C 
ATOM     22  O   UNL A   1     -23.562   1.352  25.823  0.00  0.00    -0.470 OA
ENDBRANCH   1  22
BRANCH   2  23
ATOM     23  N   UNL A   1     -24.732   1.510  29.612  0.00  0.00    -0.231 NA
BRANCH  23  24
ATOM     24  C   UNL A   1     -25.377   1.850  30.904  0.00  0.00    +0.094 C 
BRANCH  24  26
ATOM     25  C   UNL A   1     -25.387  -0.679  31.571  0.00  0.00    +0.079 C 
ATOM     26  C   UNL A   1     -25.189   0.773  32.028  0.00  0.00    +0.038 C 
ATOM     27  C   UNL A   1     -25.336   0.684  33.544  0.00  0.00    +0.022 C 
ATOM     28  C   UNL A   1     -24.829  -0.715  33.905  0.00  0.00    +0.089 C 
ATOM     29  N   UNL A   1     -24.758  -1.481  32.646  0.00  0.00    -0.219 NA
BRANCH  25  30
ATOM     30  C   UNL A   1     -24.855  -1.012  30.143  0.00  0.00    +0.044 C 
BRANCH  30  31
ATOM     31  C   UNL A   1     -24.973  -2.505  29.788  0.00  0.00    -0.021 C 
ATOM     32  C   UNL A   1     -23.906  -3.173  29.146  0.00  0.00    -0.004 C 
ATOM     33  C   UNL A   1     -23.989  -4.549  28.853  0.00  0.00    -0.000 C 
ATOM     34  C   UNL A   1     -25.137  -5.280  29.205  0.00  0.00    -0.000 C 
ATOM     35  C   UNL A   1     -26.232  -4.611  29.784  0.00  0.00    -0.000 C 
ATOM     36  C   UNL A   1     -26.155  -3.232  30.065  0.00  0.00    -0.004 C 
ENDBRANCH  30  31
ENDBRANCH  25  30
ENDBRANCH  24  26
BRANCH  24  37
ATOM     37  C   UNL A   1     -24.666   3.175  31.434  0.00  0.00    +0.022 C 
BRANCH  37  38
ATOM     38  C   UNL A   1     -25.119   4.058  32.467  0.00  0.00    +0.003 C 
BRANCH  38  44
ATOM     39  N   UNL A   1     -27.257   6.325  34.160  0.00  0.00    -0.218 NA
ATOM     40  C   UNL A   1     -27.550   4.301  32.166  0.00  0.00    +0.003 C 
ATOM     41  C   UNL A   1     -28.137   5.237  34.476  0.00  0.00    +0.089 C 
ATOM     42  C   UNL A   1     -27.863   4.045  33.666  0.00  0.00    +0.019 C 
ATOM     43  C   UNL A   1     -26.103   6.073  33.289  0.00  0.00    +0.089 C 
ATOM     44  C   UNL A   1     -26.165   4.995  32.201  0.00  0.00    +0.018 C 
ENDBRANCH  38  44
ENDBRANCH  37  38
ENDBRANCH  24  37
ENDBRANCH  23  24
ENDBRANCH   2  23
TORSDOF 15
