REMARK  Name = outputs/IAG933/test6/raw/output_8354_IAG933_linker_design_.xyz
REMARK  14 active torsions:
REMARK  status: ('A' for Active; 'I' for Inactive)
REMARK    1  A    between atoms: C_1  and  C_2
REMARK    2  A    between atoms: C_1  and  C_8
REMARK    3  A    between atoms: C_1  and  N_42
REMARK    4  A    between atoms: C_13  and  C_34
REMARK    5  A    between atoms: C_14  and  C_15
REMARK    6  A    between atoms: C_21  and  O_22
REMARK    7  A    between atoms: O_22  and  C_23
REMARK    8  A    between atoms: C_23  and  C_24
REMARK    9  A    between atoms: C_28  and  C_36
REMARK   10  A    between atoms: C_29  and  N_35
REMARK   11  A    between atoms: S_30  and  C_33
REMARK   12  A    between atoms: S_30  and  C_36
REMARK   13  A    between atoms: C_32  and  O_39
REMARK   14  A    between atoms: N_35  and  O_39
REMARK                            x       y       z     vdW  Elec       q    Type
REMARK                         _______ _______ _______ _____ _____    ______ ____
ROOT
ATOM      1  C   UNL A   1     -23.434   1.167  27.804  0.00  0.00    +0.167 C 
ATOM      2  C   UNL A   1     -25.521   1.123  28.864  0.00  0.00    +0.113 C 
ATOM      3  C   UNL A   1     -24.740   1.322  27.485  0.00  0.00    +0.056 C 
ATOM      4  F   UNL A   1     -22.189   0.516  29.757  0.00  0.00    -0.217 F 
ATOM      5  C   UNL A   1     -23.383   0.587  29.009  0.00  0.00    +0.242 C 
ATOM      6  N   UNL A   1     -24.513   0.149  29.328  0.00  0.00    -0.234 NA
ENDROOT
BRANCH   3   7
ATOM      7  C   UNL A   1     -25.688   1.614  26.461  0.00  0.00    +0.074 C 
ATOM      8  C   UNL A   1     -26.250   2.920  26.395  0.00  0.00    +0.055 C 
ATOM      9  C   UNL A   1     -27.438   3.091  25.645  0.00  0.00    +0.102 C 
ATOM     10  N   UNL A   1     -28.075   2.089  25.003  0.00  0.00    -0.212 NA
ATOM     11  C   UNL A   1     -27.543   0.849  25.079  0.00  0.00    +0.234 C 
ATOM     12  C   UNL A   1     -26.354   0.576  25.777  0.00  0.00    +0.240 C 
ATOM     13  F   UNL A   1     -25.860  -0.681  25.795  0.00  0.00    -0.227 F 
BRANCH   8  14
ATOM     14  C   UNL A   1     -25.642   4.093  27.123  0.00  0.00    +0.262 C 
ATOM     15  N   UNL A   1     -25.614   5.252  26.449  0.00  0.00    -0.200 NA
ATOM     16  C   UNL A   1     -25.026   6.479  26.963  0.00  0.00    +0.139 C 
ATOM     17  O   UNL A   1     -25.143   3.966  28.243  0.00  0.00    -0.269 OA
ENDBRANCH   8  14
BRANCH  11  18
ATOM     18  O   UNL A   1     -28.193  -0.208  24.477  0.00  0.00    -0.459 OA
BRANCH  18  19
ATOM     19  C   UNL A   1     -29.460   0.005  23.866  0.00  0.00    +0.242 C 
BRANCH  19  20
ATOM     20  C   UNL A   1     -30.065  -1.377  23.573  0.00  0.00    +0.229 C 
ATOM     21  O   UNL A   1     -30.729  -1.878  24.721  0.00  0.00    -0.216 OA
ENDBRANCH  19  20
ENDBRANCH  18  19
ENDBRANCH  11  18
ENDBRANCH   3   7
BRANCH   6  22
ATOM     22  C   UNL A   1     -24.855  -1.012  30.143  0.00  0.00    +0.099 C 
BRANCH  22  23
ATOM     23  C   UNL A   1     -24.973  -2.505  29.788  0.00  0.00    -0.006 C 
ATOM     24  C   UNL A   1     -23.906  -3.173  29.146  0.00  0.00    -0.003 C 
ATOM     25  C   UNL A   1     -23.989  -4.549  28.853  0.00  0.00    -0.000 C 
ATOM     26  C   UNL A   1     -25.137  -5.280  29.205  0.00  0.00    -0.000 C 
ATOM     27  C   UNL A   1     -26.232  -4.611  29.784  0.00  0.00    -0.000 C 
ATOM     28  C   UNL A   1     -26.155  -3.232  30.065  0.00  0.00    -0.003 C 
ENDBRANCH  22  23
BRANCH  22  29
ATOM     29  C   UNL A   1     -25.387  -0.679  31.571  0.00  0.00    +0.092 C 
ATOM     30  C   UNL A   1     -25.189   0.773  32.028  0.00  0.00    +0.021 C 
ATOM     31  C   UNL A   1     -25.336   0.684  33.544  0.00  0.00    +0.020 C 
ATOM     32  C   UNL A   1     -24.829  -0.715  33.905  0.00  0.00    +0.089 C 
ATOM     33  N   UNL A   1     -24.758  -1.481  32.646  0.00  0.00    -0.218 NA
ENDBRANCH  22  29
ENDBRANCH   6  22
BRANCH   2  34
ATOM     34  S   UNL A   1     -27.154   0.392  28.949  0.00  0.00    -0.093 S 
BRANCH  34  36
ATOM     35  O   UNL A   1     -29.644  -0.588  27.928  0.00  0.00    -0.211 OA
ATOM     36  C   UNL A   1     -28.598   0.445  27.913  0.00  0.00    +0.201 C 
BRANCH  36  37
ATOM     37  C   UNL A   1     -29.016   1.719  28.564  0.00  0.00    +0.044 C 
ATOM     38  C   UNL A   1     -30.006   2.463  27.805  0.00  0.00    +0.004 C 
ENDBRANCH  36  37
ENDBRANCH  34  36
ENDBRANCH   2  34
BRANCH   1  39
ATOM     39  N   UNL A   1     -21.970   1.306  27.331  0.00  0.00    -0.021 NA
BRANCH  39  40
ATOM     40  O   UNL A   1     -21.520   2.117  26.345  0.00  0.00    -0.339 OA
BRANCH  40  41
ATOM     41  C   UNL A   1     -22.363   2.348  25.259  0.00  0.00    +0.439 C 
ATOM     42  O   UNL A   1     -23.409   2.081  25.065  0.00  0.00    -0.236 OA
ENDBRANCH  40  41
ENDBRANCH  39  40
ENDBRANCH   1  39
TORSDOF 14
