REMARK  Name = outputs/IAG933/test6/raw/output_8356_IAG933_linker_design_.xyz
REMARK  13 active torsions:
REMARK  status: ('A' for Active; 'I' for Inactive)
REMARK    1  A    between atoms: C_1  and  C_2
REMARK    2  A    between atoms: C_1  and  C_8
REMARK    3  A    between atoms: C_1  and  C_31
REMARK    4  A    between atoms: C_13  and  C_33
REMARK    5  A    between atoms: C_14  and  C_15
REMARK    6  A    between atoms: C_21  and  O_22
REMARK    7  A    between atoms: O_22  and  C_23
REMARK    8  A    between atoms: C_23  and  C_24
REMARK    9  A    between atoms: N_28  and  C_31
REMARK   10  A    between atoms: C_31  and  C_35
REMARK   11  A    between atoms: C_33  and  C_37
REMARK   12  A    between atoms: C_33  and  C_39
REMARK   13  A    between atoms: C_38  and  C_39
REMARK                            x       y       z     vdW  Elec       q    Type
REMARK                         _______ _______ _______ _____ _____    ______ ____
ROOT
ATOM      1  C   UNL A   1     -21.714   1.714  27.532  0.00  0.00    -0.001 C 
ATOM      2  O   UNL A   1     -22.459  -0.427  29.523  0.00  0.00    -0.453 OA
ATOM      3  C   UNL A   1     -21.222  -0.789  29.311  0.00  0.00    +0.179 C 
ATOM      4  C   UNL A   1     -23.303   0.310  28.790  0.00  0.00    +0.139 C 
ATOM      5  C   UNL A   1     -23.033   1.187  27.743  0.00  0.00    +0.010 C 
ATOM      6  C   UNL A   1     -20.539  -0.093  28.566  0.00  0.00    +0.041 C 
ATOM      7  C   UNL A   1     -20.573   1.108  27.908  0.00  0.00    +0.003 C 
ENDROOT
BRANCH   4   8
ATOM      8  C   UNL A   1     -24.650   0.239  29.091  0.00  0.00    +0.157 C 
BRANCH   8   9
ATOM      9  N   UNL A   1     -25.921   0.939  28.847  0.00  0.00    -0.199 NA
ATOM     10  C   UNL A   1     -28.020   1.771  29.393  0.00  0.00    +0.096 C 
ATOM     11  C   UNL A   1     -27.212   0.678  28.953  0.00  0.00    +0.242 C 
ATOM     12  O   UNL A   1     -27.677  -0.482  28.769  0.00  0.00    -0.273 OA
ENDBRANCH   8   9
BRANCH   8  13
ATOM     13  C   UNL A   1     -24.855  -1.012  30.143  0.00  0.00    +0.066 C 
BRANCH  13  14
ATOM     14  C   UNL A   1     -24.973  -2.505  29.788  0.00  0.00    -0.019 C 
ATOM     15  C   UNL A   1     -23.906  -3.173  29.146  0.00  0.00    -0.004 C 
ATOM     16  C   UNL A   1     -23.989  -4.549  28.853  0.00  0.00    -0.000 C 
ATOM     17  C   UNL A   1     -25.137  -5.280  29.205  0.00  0.00    -0.000 C 
ATOM     18  C   UNL A   1     -26.232  -4.611  29.784  0.00  0.00    -0.000 C 
ATOM     19  C   UNL A   1     -26.155  -3.232  30.065  0.00  0.00    -0.004 C 
ENDBRANCH  13  14
BRANCH  13  20
ATOM     20  C   UNL A   1     -25.387  -0.679  31.571  0.00  0.00    +0.079 C 
ATOM     21  C   UNL A   1     -25.189   0.773  32.028  0.00  0.00    +0.019 C 
ATOM     22  C   UNL A   1     -25.336   0.684  33.544  0.00  0.00    +0.020 C 
ATOM     23  C   UNL A   1     -24.829  -0.715  33.905  0.00  0.00    +0.089 C 
ATOM     24  N   UNL A   1     -24.758  -1.481  32.646  0.00  0.00    -0.219 NA
ENDBRANCH  13  20
ENDBRANCH   8  13
ENDBRANCH   4   8
BRANCH   5  25
ATOM     25  C   UNL A   1     -24.198   1.507  26.850  0.00  0.00    +0.038 C 
BRANCH  25  26
ATOM     26  C   UNL A   1     -25.688   1.614  26.461  0.00  0.00    +0.074 C 
ATOM     27  C   UNL A   1     -26.250   2.920  26.395  0.00  0.00    +0.055 C 
ATOM     28  C   UNL A   1     -27.438   3.091  25.645  0.00  0.00    +0.102 C 
ATOM     29  N   UNL A   1     -28.075   2.089  25.003  0.00  0.00    -0.212 NA
ATOM     30  C   UNL A   1     -27.543   0.849  25.079  0.00  0.00    +0.234 C 
ATOM     31  C   UNL A   1     -26.354   0.576  25.777  0.00  0.00    +0.240 C 
ATOM     32  F   UNL A   1     -25.860  -0.681  25.795  0.00  0.00    -0.227 F 
BRANCH  27  33
ATOM     33  C   UNL A   1     -25.642   4.093  27.123  0.00  0.00    +0.262 C 
ATOM     34  N   UNL A   1     -25.614   5.252  26.449  0.00  0.00    -0.200 NA
ATOM     35  C   UNL A   1     -25.026   6.479  26.963  0.00  0.00    +0.139 C 
ATOM     36  O   UNL A   1     -25.143   3.966  28.243  0.00  0.00    -0.269 OA
ENDBRANCH  27  33
BRANCH  30  37
ATOM     37  O   UNL A   1     -28.193  -0.208  24.477  0.00  0.00    -0.459 OA
BRANCH  37  38
ATOM     38  C   UNL A   1     -29.460   0.005  23.866  0.00  0.00    +0.242 C 
BRANCH  38  39
ATOM     39  C   UNL A   1     -30.065  -1.377  23.573  0.00  0.00    +0.229 C 
ATOM     40  O   UNL A   1     -30.729  -1.878  24.721  0.00  0.00    -0.216 OA
ENDBRANCH  38  39
ENDBRANCH  37  38
ENDBRANCH  30  37
ENDBRANCH  25  26
BRANCH  25  41
ATOM     41  C   UNL A   1     -23.706   2.306  26.155  0.00  0.00    +0.077 C 
BRANCH  41  43
ATOM     42  F   UNL A   1     -21.887   2.402  24.711  0.00  0.00    -0.198 F 
ATOM     43  C   UNL A   1     -23.072   2.049  24.952  0.00  0.00    +0.319 C 
ATOM     44  F   UNL A   1     -23.558   1.224  24.080  0.00  0.00    -0.198 F 
ENDBRANCH  41  43
ENDBRANCH  25  41
ENDBRANCH   5  25
TORSDOF 13
