REMARK  Name = outputs/IAG933/test6/raw/output_8357_IAG933_linker_design_.xyz
REMARK  9 active torsions:
REMARK  status: ('A' for Active; 'I' for Inactive)
REMARK    1  A    between atoms: C_1  and  C_2
REMARK    2  A    between atoms: C_1  and  C_8
REMARK    3  A    between atoms: C_1  and  C_32
REMARK    4  A    between atoms: C_13  and  C_43
REMARK    5  A    between atoms: C_14  and  C_15
REMARK    6  A    between atoms: C_21  and  O_22
REMARK    7  A    between atoms: O_22  and  C_23
REMARK    8  A    between atoms: C_23  and  C_24
REMARK    9  A    between atoms: C_30  and  C_32
REMARK                            x       y       z     vdW  Elec       q    Type
REMARK                         _______ _______ _______ _____ _____    ______ ____
ROOT
ATOM      1  F   UNL A   1     -19.461   2.067  27.676  0.00  0.00    -0.233 F 
ATOM      2  C   UNL A   1     -22.113   1.937  26.407  0.00  0.00    +0.113 C 
ATOM      3  C   UNL A   1     -24.673   0.927  28.621  0.00  0.00    +0.093 C 
ATOM      4  F   UNL A   1     -21.206   2.432  25.540  0.00  0.00    -0.209 F 
ATOM      5  C   UNL A   1     -20.326   0.938  27.421  0.00  0.00    +0.181 C 
ATOM      6  C   UNL A   1     -20.423  -0.046  28.354  0.00  0.00    +0.040 C 
ATOM      7  C   UNL A   1     -22.309  -0.218  29.929  0.00  0.00    +0.034 C 
ATOM      8  C   UNL A   1     -22.289   0.944  28.329  0.00  0.00    +0.060 C 
ATOM      9  C   UNL A   1     -21.342  -1.020  29.025  0.00  0.00    +0.006 C 
ATOM     10  C   UNL A   1     -23.283   0.501  29.253  0.00  0.00    +0.144 C 
ATOM     11  F   UNL A   1     -23.211   1.542  30.149  0.00  0.00    -0.239 F 
ATOM     12  C   UNL A   1     -23.538   2.027  26.420  0.00  0.00    +0.061 C 
ATOM     13  C   UNL A   1     -21.729   1.306  27.402  0.00  0.00    +0.014 C 
ATOM     14  C   UNL A   1     -24.561   1.418  27.191  0.00  0.00    +0.041 C 
ENDROOT
BRANCH  14  15
ATOM     15  C   UNL A   1     -25.688   1.614  26.461  0.00  0.00    +0.017 C 
ATOM     16  C   UNL A   1     -26.250   2.920  26.395  0.00  0.00    +0.073 C 
ATOM     17  C   UNL A   1     -27.438   3.091  25.645  0.00  0.00    +0.106 C 
ATOM     18  N   UNL A   1     -28.075   2.089  25.003  0.00  0.00    -0.208 NA
ATOM     19  C   UNL A   1     -27.543   0.849  25.079  0.00  0.00    +0.253 C 
ATOM     20  C   UNL A   1     -26.354   0.576  25.777  0.00  0.00    +0.189 C 
ATOM     21  F   UNL A   1     -25.860  -0.681  25.795  0.00  0.00    -0.200 F 
BRANCH  16  22
ATOM     22  C   UNL A   1     -25.642   4.093  27.123  0.00  0.00    +0.266 C 
ATOM     23  N   UNL A   1     -25.614   5.252  26.449  0.00  0.00    -0.200 NA
ATOM     24  C   UNL A   1     -25.026   6.479  26.963  0.00  0.00    +0.139 C 
ATOM     25  O   UNL A   1     -25.143   3.966  28.243  0.00  0.00    -0.268 OA
ENDBRANCH  16  22
BRANCH  19  26
ATOM     26  O   UNL A   1     -28.193  -0.208  24.477  0.00  0.00    -0.456 OA
BRANCH  26  27
ATOM     27  C   UNL A   1     -29.460   0.005  23.866  0.00  0.00    +0.243 C 
BRANCH  27  28
ATOM     28  C   UNL A   1     -30.065  -1.377  23.573  0.00  0.00    +0.229 C 
ATOM     29  O   UNL A   1     -30.729  -1.878  24.721  0.00  0.00    -0.216 OA
ENDBRANCH  27  28
ENDBRANCH  26  27
ENDBRANCH  19  26
ENDBRANCH  14  15
BRANCH   3  30
ATOM     30  C   UNL A   1     -25.453  -0.102  29.016  0.00  0.00    +0.158 C 
ATOM     31  O   UNL A   1     -26.562  -0.329  28.506  0.00  0.00    -0.296 OA
BRANCH  30  32
ATOM     32  C   UNL A   1     -24.855  -1.012  30.143  0.00  0.00    +0.096 C 
BRANCH  32  33
ATOM     33  C   UNL A   1     -24.973  -2.505  29.788  0.00  0.00    -0.014 C 
ATOM     34  C   UNL A   1     -23.906  -3.173  29.146  0.00  0.00    -0.004 C 
ATOM     35  C   UNL A   1     -23.989  -4.549  28.853  0.00  0.00    -0.000 C 
ATOM     36  C   UNL A   1     -25.137  -5.280  29.205  0.00  0.00    -0.000 C 
ATOM     37  C   UNL A   1     -26.232  -4.611  29.784  0.00  0.00    -0.000 C 
ATOM     38  C   UNL A   1     -26.155  -3.232  30.065  0.00  0.00    -0.004 C 
ENDBRANCH  32  33
BRANCH  32  39
ATOM     39  C   UNL A   1     -25.387  -0.679  31.571  0.00  0.00    +0.084 C 
ATOM     40  C   UNL A   1     -25.189   0.773  32.028  0.00  0.00    +0.020 C 
ATOM     41  C   UNL A   1     -25.336   0.684  33.544  0.00  0.00    +0.020 C 
ATOM     42  C   UNL A   1     -24.829  -0.715  33.905  0.00  0.00    +0.089 C 
ATOM     43  N   UNL A   1     -24.758  -1.481  32.646  0.00  0.00    -0.219 NA
ENDBRANCH  32  39
ENDBRANCH  30  32
ENDBRANCH   3  30
TORSDOF 9
