REMARK  Name = outputs/IAG933/test6/raw/output_8359_IAG933_linker_design_.xyz
REMARK  17 active torsions:
REMARK  status: ('A' for Active; 'I' for Inactive)
REMARK    1  A    between atoms: C_1  and  C_2
REMARK    2  A    between atoms: C_1  and  C_8
REMARK    3  A    between atoms: C_9  and  N_41
REMARK    4  A    between atoms: C_13  and  C_34
REMARK    5  A    between atoms: C_14  and  C_15
REMARK    6  A    between atoms: C_21  and  O_22
REMARK    7  A    between atoms: O_22  and  C_23
REMARK    8  A    between atoms: C_23  and  C_24
REMARK    9  A    between atoms: C_28  and  C_42
REMARK   10  A    between atoms: C_30  and  O_31
REMARK   11  A    between atoms: O_31  and  C_37
REMARK   12  A    between atoms: C_34  and  C_39
REMARK   13  A    between atoms: C_34  and  C_43
REMARK   14  A    between atoms: N_36  and  C_39
REMARK   15  A    between atoms: N_36  and  N_41
REMARK   16  A    between atoms: C_37  and  C_43
REMARK   17  A    between atoms: N_41  and  C_42
REMARK                            x       y       z     vdW  Elec       q    Type
REMARK                         _______ _______ _______ _____ _____    ______ ____
ROOT
ATOM      1  N   UNL A   1     -25.392   1.599  29.653  0.00  0.00    -0.146 NA
ENDROOT
BRANCH   1   2
ATOM      2  C   UNL A   1     -25.042   0.612  28.548  0.00  0.00    +0.112 C 
BRANCH   2   3
ATOM      3  C   UNL A   1     -24.466   1.154  27.184  0.00  0.00    +0.046 C 
BRANCH   3   4
ATOM      4  C   UNL A   1     -25.688   1.614  26.461  0.00  0.00    +0.017 C 
ATOM      5  C   UNL A   1     -26.250   2.920  26.395  0.00  0.00    +0.073 C 
ATOM      6  C   UNL A   1     -27.438   3.091  25.645  0.00  0.00    +0.106 C 
ATOM      7  N   UNL A   1     -28.075   2.089  25.003  0.00  0.00    -0.208 NA
ATOM      8  C   UNL A   1     -27.543   0.849  25.079  0.00  0.00    +0.253 C 
ATOM      9  C   UNL A   1     -26.354   0.576  25.777  0.00  0.00    +0.189 C 
ATOM     10  F   UNL A   1     -25.860  -0.681  25.795  0.00  0.00    -0.200 F 
BRANCH   5  11
ATOM     11  C   UNL A   1     -25.642   4.093  27.123  0.00  0.00    +0.266 C 
ATOM     12  N   UNL A   1     -25.614   5.252  26.449  0.00  0.00    -0.200 NA
ATOM     13  C   UNL A   1     -25.026   6.479  26.963  0.00  0.00    +0.139 C 
ATOM     14  O   UNL A   1     -25.143   3.966  28.243  0.00  0.00    -0.268 OA
ENDBRANCH   5  11
BRANCH   8  15
ATOM     15  O   UNL A   1     -28.193  -0.208  24.477  0.00  0.00    -0.456 OA
BRANCH  15  16
ATOM     16  C   UNL A   1     -29.460   0.005  23.866  0.00  0.00    +0.243 C 
BRANCH  16  17
ATOM     17  C   UNL A   1     -30.065  -1.377  23.573  0.00  0.00    +0.229 C 
ATOM     18  O   UNL A   1     -30.729  -1.878  24.721  0.00  0.00    -0.216 OA
ENDBRANCH  16  17
ENDBRANCH  15  16
ENDBRANCH   8  15
ENDBRANCH   3   4
BRANCH   3  19
ATOM     19  C   UNL A   1     -23.494   2.150  26.548  0.00  0.00    +0.040 C 
BRANCH  19  20
ATOM     20  C   UNL A   1     -22.147   1.750  25.938  0.00  0.00    +0.161 C 
BRANCH  20  21
ATOM     21  O   UNL A   1     -21.191   1.824  27.045  0.00  0.00    -0.283 OA
BRANCH  21  22
ATOM     22  C   UNL A   1     -21.698   1.338  28.389  0.00  0.00    +0.069 C 
ATOM     23  C   UNL A   1     -22.489   0.857  29.212  0.00  0.00    +0.018 C 
ENDBRANCH  21  22
ENDBRANCH  20  21
ENDBRANCH  19  20
ENDBRANCH   3  19
ENDBRANCH   2   3
ENDBRANCH   1   2
BRANCH   1  24
ATOM     24  N   UNL A   1     -25.313   1.712  30.969  0.00  0.00    -0.199 NA
BRANCH  24  26
ATOM     25  C   UNL A   1     -25.387  -0.679  31.571  0.00  0.00    +0.093 C 
ATOM     26  C   UNL A   1     -25.189   0.773  32.028  0.00  0.00    +0.092 C 
ATOM     27  C   UNL A   1     -25.336   0.684  33.544  0.00  0.00    +0.038 C 
ATOM     28  C   UNL A   1     -24.829  -0.715  33.905  0.00  0.00    +0.090 C 
ATOM     29  N   UNL A   1     -24.758  -1.481  32.646  0.00  0.00    -0.218 NA
BRANCH  25  30
ATOM     30  C   UNL A   1     -24.855  -1.012  30.143  0.00  0.00    +0.045 C 
BRANCH  30  31
ATOM     31  C   UNL A   1     -24.973  -2.505  29.788  0.00  0.00    -0.021 C 
ATOM     32  C   UNL A   1     -23.906  -3.173  29.146  0.00  0.00    -0.004 C 
ATOM     33  C   UNL A   1     -23.989  -4.549  28.853  0.00  0.00    -0.000 C 
ATOM     34  C   UNL A   1     -25.137  -5.280  29.205  0.00  0.00    -0.000 C 
ATOM     35  C   UNL A   1     -26.232  -4.611  29.784  0.00  0.00    -0.000 C 
ATOM     36  C   UNL A   1     -26.155  -3.232  30.065  0.00  0.00    -0.004 C 
ENDBRANCH  30  31
ENDBRANCH  25  30
ENDBRANCH  24  26
BRANCH  24  37
ATOM     37  C   UNL A   1     -24.892   3.049  31.484  0.00  0.00    +0.116 C 
BRANCH  37  38
ATOM     38  C   UNL A   1     -26.160   3.687  31.843  0.00  0.00    -0.005 C 
ATOM     39  C   UNL A   1     -27.407   5.646  32.671  0.00  0.00    -0.004 C 
ATOM     40  C   UNL A   1     -28.546   3.464  32.389  0.00  0.00    -0.004 C 
ATOM     41  C   UNL A   1     -26.211   5.076  32.148  0.00  0.00    -0.003 C 
ATOM     42  C   UNL A   1     -27.311   2.888  31.957  0.00  0.00    -0.003 C 
ATOM     43  C   UNL A   1     -28.576   4.854  32.746  0.00  0.00    -0.022 C 
ATOM     44  C   UNL A   1     -29.875   5.474  33.227  0.00  0.00    +0.031 C 
ENDBRANCH  37  38
ENDBRANCH  24  37
ENDBRANCH   1  24
TORSDOF 17
