MODEL 835
MODEL 1
REMARK VINA RESULT:    -6.279      0.000      0.000
REMARK INTER + INTRA:         -13.508
REMARK INTER:                 -10.684
REMARK INTRA:                  -2.824
REMARK UNBOUND:                -2.824
REMARK  Name = No_835-gen_results/8p0m/2024-11-27-11-27-31/
REMARK  12 active torsions:
REMARK  status: ('A' for Active; 'I' for Inactive)
REMARK    1  A    between atoms: C_1  and  N_12
REMARK    2  A    between atoms: C_5  and  C_7
REMARK    3  A    between atoms: N_8  and  C_10
REMARK    4  A    between atoms: C_10  and  C_31
REMARK    5  A    between atoms: N_12  and  C_13
REMARK    6  A    between atoms: N_12  and  C_14
REMARK    7  A    between atoms: C_19  and  C_20
REMARK    8  A    between atoms: C_20  and  O_22
REMARK    9  A    between atoms: O_22  and  C_23
REMARK   10  A    between atoms: C_23  and  C_24
REMARK   11  A    between atoms: C_32  and  C_33
REMARK   12  A    between atoms: C_33  and  C_34
REMARK                            x       y       z     vdW  Elec       q    Type
REMARK                         _______ _______ _______ _____ _____    ______ ____
ROOT
ATOM      1  N   UNL A   1     -30.061  -9.269   7.749  0.00  0.00    -0.274 N 
ENDROOT
BRANCH   1   2
ATOM      2  C   UNL A   1     -29.396  -7.966   7.614  0.00  0.00    +0.063 A 
ATOM      3  C   UNL A   1     -28.226  -7.912   7.312  0.00  0.00    +0.071 A 
ATOM      4  C   UNL A   1     -27.523  -6.730   7.185  0.00  0.00    +0.013 A 
ATOM      5  C   UNL A   1     -28.207  -5.514   7.465  0.00  0.00    +0.005 A 
ATOM      6  C   UNL A   1     -29.460  -5.636   7.963  0.00  0.00    +0.056 A 
ATOM      7  C   UNL A   1     -30.041  -6.814   8.089  0.00  0.00    +0.020 A 
ATOM      8 CL   UNL A   1     -27.219  -9.293   6.713  0.00  0.00    -0.081 Cl
BRANCH   6   9
ATOM      9  C   UNL A   1     -30.144  -4.364   8.275  0.00  0.00    +0.265 C 
ATOM     10  N   UNL A   1     -30.965  -4.389   9.156  0.00  0.00    -0.197 NA
ATOM     11  O   UNL A   1     -29.664  -3.278   7.886  0.00  0.00    -0.268 OA
BRANCH  10  12
ATOM     12  C   UNL A   1     -31.754  -3.160   9.538  0.00  0.00    +0.141 C 
BRANCH  12  13
ATOM     13  C   UNL A   1     -32.183  -3.249  10.824  0.00  0.00    -0.007 C 
ATOM     14  C   UNL A   1     -32.442  -4.190  11.266  0.00  0.00    -0.024 C 
BRANCH  14  15
ATOM     15  C   UNL A   1     -33.272  -4.763  11.371  0.00  0.00    +0.052 C 
BRANCH  15  16
ATOM     16  C   UNL A   1     -33.640  -6.132  10.987  0.00  0.00    -0.021 C 
ATOM     17  C   UNL A   1     -32.713  -7.012  11.035  0.00  0.00    -0.005 C 
ENDBRANCH  15  16
ENDBRANCH  14  15
ENDBRANCH  12  13
ENDBRANCH  10  12
ENDBRANCH   6   9
ENDBRANCH   1   2
BRANCH   1  18
ATOM     18  C   UNL A   1     -29.853  -9.972   8.992  0.00  0.00    +0.052 A 
ATOM     19  C   UNL A   1     -29.103 -10.611   9.393  0.00  0.00    +0.015 A 
ATOM     20  C   UNL A   1     -29.030 -11.245  10.644  0.00  0.00    +0.008 A 
ATOM     21  C   UNL A   1     -31.256 -10.035   9.646  0.00  0.00    +0.015 A 
ATOM     22  C   UNL A   1     -31.305 -10.646  10.895  0.00  0.00    +0.008 A 
ATOM     23  C   UNL A   1     -30.208 -11.272  11.370  0.00  0.00    +0.076 A 
BRANCH  23  24
ATOM     24  C   UNL A   1     -30.246 -11.989  12.696  0.00  0.00    +0.343 C 
ATOM     25  O   UNL A   1     -30.905 -11.833  13.558  0.00  0.00    -0.245 OA
BRANCH  24  26
ATOM     26  O   UNL A   1     -29.541 -13.170  12.655  0.00  0.00    -0.412 OA
BRANCH  26  27
ATOM     27  C   UNL A   1     -30.041 -14.245  12.354  0.00  0.00    +0.416 C 
ATOM     28  O   UNL A   1     -29.046 -15.124  13.118  0.00  0.00    -0.165 OA
BRANCH  27  29
ATOM     29  C   UNL A   1     -30.344 -14.771  11.245  0.00  0.00    +0.466 C 
ATOM     30  F   UNL A   1     -30.334 -16.024  11.277  0.00  0.00    -0.164 F 
ATOM     31  F   UNL A   1     -29.413 -14.468  10.264  0.00  0.00    -0.164 F 
ATOM     32  F   UNL A   1     -31.537 -14.359  10.723  0.00  0.00    -0.164 F 
ENDBRANCH  27  29
ENDBRANCH  26  27
ENDBRANCH  24  26
ENDBRANCH  23  24
ENDBRANCH   1  18
BRANCH   1  33
ATOM     33  C   UNL A   1     -30.864  -9.713   6.951  0.00  0.00    +0.158 C 
ATOM     34 CL   UNL A   1     -32.242  -8.939   6.481  0.00  0.00    -0.092 Cl
ATOM     35  C   UNL A   1     -30.484 -10.857   6.044  0.00  0.00    +0.040 C 
ENDBRANCH   1  33
TORSDOF 12
ENDMDL
ENDMDL
