REMARK  Name = outputs/IAG933/test6/raw/output_8360_IAG933_linker_design_.xyz
REMARK  13 active torsions:
REMARK  status: ('A' for Active; 'I' for Inactive)
REMARK    1  A    between atoms: C_1  and  C_2
REMARK    2  A    between atoms: C_1  and  C_8
REMARK    3  A    between atoms: C_1  and  C_42
REMARK    4  A    between atoms: C_13  and  N_34
REMARK    5  A    between atoms: C_14  and  C_15
REMARK    6  A    between atoms: C_21  and  O_22
REMARK    7  A    between atoms: O_22  and  C_23
REMARK    8  A    between atoms: C_23  and  C_24
REMARK    9  A    between atoms: C_28  and  C_31
REMARK   10  A    between atoms: C_29  and  C_33
REMARK   11  A    between atoms: C_29  and  N_40
REMARK   12  A    between atoms: C_31  and  N_36
REMARK   13  A    between atoms: C_38  and  N_40
REMARK                            x       y       z     vdW  Elec       q    Type
REMARK                         _______ _______ _______ _____ _____    ______ ____
ROOT
ATOM      1  C   UNL A   1     -25.414   0.746  28.471  0.00  0.00    +0.091 C 
ATOM      2  N   UNL A   1     -24.814   1.218  27.419  0.00  0.00    -0.252 NA
ATOM      3  N   UNL A   1     -23.267   0.325  28.654  0.00  0.00    -0.255 NA
ATOM      4  C   UNL A   1     -23.559   1.102  27.486  0.00  0.00    +0.150 C 
ATOM      5  C   UNL A   1     -24.535  -0.026  29.192  0.00  0.00    +0.080 C 
ENDROOT
BRANCH   2   6
ATOM      6  C   UNL A   1     -25.688   1.614  26.461  0.00  0.00    +0.129 C 
ATOM      7  C   UNL A   1     -26.250   2.920  26.395  0.00  0.00    +0.070 C 
ATOM      8  C   UNL A   1     -27.438   3.091  25.645  0.00  0.00    +0.103 C 
ATOM      9  N   UNL A   1     -28.075   2.089  25.003  0.00  0.00    -0.212 NA
ATOM     10  C   UNL A   1     -27.543   0.849  25.079  0.00  0.00    +0.235 C 
ATOM     11  C   UNL A   1     -26.354   0.576  25.777  0.00  0.00    +0.255 C 
ATOM     12  F   UNL A   1     -25.860  -0.681  25.795  0.00  0.00    -0.225 F 
BRANCH   7  13
ATOM     13  C   UNL A   1     -25.642   4.093  27.123  0.00  0.00    +0.264 C 
ATOM     14  N   UNL A   1     -25.614   5.252  26.449  0.00  0.00    -0.200 NA
ATOM     15  C   UNL A   1     -25.026   6.479  26.963  0.00  0.00    +0.139 C 
ATOM     16  O   UNL A   1     -25.143   3.966  28.243  0.00  0.00    -0.269 OA
ENDBRANCH   7  13
BRANCH  10  17
ATOM     17  O   UNL A   1     -28.193  -0.208  24.477  0.00  0.00    -0.459 OA
BRANCH  17  18
ATOM     18  C   UNL A   1     -29.460   0.005  23.866  0.00  0.00    +0.242 C 
BRANCH  18  19
ATOM     19  C   UNL A   1     -30.065  -1.377  23.573  0.00  0.00    +0.229 C 
ATOM     20  O   UNL A   1     -30.729  -1.878  24.721  0.00  0.00    -0.216 OA
ENDBRANCH  18  19
ENDBRANCH  17  18
ENDBRANCH  10  17
ENDBRANCH   2   6
BRANCH   5  21
ATOM     21  C   UNL A   1     -24.855  -1.012  30.143  0.00  0.00    +0.054 C 
BRANCH  21  22
ATOM     22  C   UNL A   1     -24.973  -2.505  29.788  0.00  0.00    -0.020 C 
ATOM     23  C   UNL A   1     -23.906  -3.173  29.146  0.00  0.00    -0.004 C 
ATOM     24  C   UNL A   1     -23.989  -4.549  28.853  0.00  0.00    -0.000 C 
ATOM     25  C   UNL A   1     -25.137  -5.280  29.205  0.00  0.00    -0.000 C 
ATOM     26  C   UNL A   1     -26.232  -4.611  29.784  0.00  0.00    -0.000 C 
ATOM     27  C   UNL A   1     -26.155  -3.232  30.065  0.00  0.00    -0.004 C 
ENDBRANCH  21  22
BRANCH  21  28
ATOM     28  C   UNL A   1     -25.387  -0.679  31.571  0.00  0.00    +0.078 C 
ATOM     29  C   UNL A   1     -25.189   0.773  32.028  0.00  0.00    +0.019 C 
ATOM     30  C   UNL A   1     -25.336   0.684  33.544  0.00  0.00    +0.020 C 
ATOM     31  C   UNL A   1     -24.829  -0.715  33.905  0.00  0.00    +0.089 C 
ATOM     32  N   UNL A   1     -24.758  -1.481  32.646  0.00  0.00    -0.219 NA
ENDBRANCH  21  28
ENDBRANCH   5  21
BRANCH   1  33
ATOM     33  C   UNL A   1     -26.696   0.849  28.685  0.00  0.00    +0.108 C 
BRANCH  33  34
ATOM     34  N   UNL A   1     -27.341   0.925  29.828  0.00  0.00    -0.191 NA
BRANCH  34  38
ATOM     35  C   UNL A   1     -29.461   1.110  30.598  0.00  0.00    +0.051 C 
ATOM     36  C   UNL A   1     -28.839   3.159  29.475  0.00  0.00    +0.051 C 
ATOM     37  O   UNL A   1     -27.741   2.501  31.423  0.00  0.00    -0.208 OA
ATOM     38  C   UNL A   1     -28.238   1.929  30.308  0.00  0.00    +0.186 C 
ENDBRANCH  34  38
ENDBRANCH  33  34
ENDBRANCH   1  33
BRANCH   3  39
ATOM     39  C   UNL A   1     -22.375  -0.055  29.625  0.00  0.00    +0.100 C 
BRANCH  39  40
ATOM     40  C   UNL A   1     -20.992  -0.350  29.127  0.00  0.00    -0.013 C 
ATOM     41  C   UNL A   1     -20.117   0.130  28.074  0.00  0.00    -0.029 C 
ATOM     42  C   UNL A   1     -20.538   1.482  27.361  0.00  0.00    +0.030 C 
ENDBRANCH  39  40
ENDBRANCH   3  39
TORSDOF 13
