REMARK  Name = outputs/IAG933/test6/raw/output_8367_IAG933_linker_design_.xyz
REMARK  16 active torsions:
REMARK  status: ('A' for Active; 'I' for Inactive)
REMARK    1  A    between atoms: C_1  and  C_2
REMARK    2  A    between atoms: C_1  and  C_8
REMARK    3  A    between atoms: C_9  and  C_42
REMARK    4  A    between atoms: C_13  and  C_41
REMARK    5  A    between atoms: C_14  and  C_15
REMARK    6  A    between atoms: C_21  and  O_22
REMARK    7  A    between atoms: O_22  and  C_23
REMARK    8  A    between atoms: C_23  and  C_24
REMARK    9  A    between atoms: C_28  and  C_39
REMARK   10  A    between atoms: O_32  and  C_34
REMARK   11  A    between atoms: C_35  and  N_37
REMARK   12  A    between atoms: C_35  and  C_42
REMARK   13  A    between atoms: C_36  and  N_37
REMARK   14  A    between atoms: C_36  and  C_41
REMARK   15  A    between atoms: C_36  and  O_43
REMARK   16  A    between atoms: C_39  and  C_42
REMARK                            x       y       z     vdW  Elec       q    Type
REMARK                         _______ _______ _______ _____ _____    ______ ____
ROOT
ATOM      1  C   UNL A   1     -24.212   1.402  29.925  0.00  0.00    +0.091 C 
ENDROOT
BRANCH   1   2
ATOM      2  N   UNL A   1     -24.456   1.685  28.681  0.00  0.00    -0.195 NA
BRANCH   2   3
ATOM      3  C   UNL A   1     -23.250   1.486  27.712  0.00  0.00    +0.153 C 
ATOM      4  C   UNL A   1     -21.818   1.823  26.704  0.00  0.00    +0.048 C 
BRANCH   3   6
ATOM      5  C   UNL A   1     -22.189  -0.265  29.174  0.00  0.00    +0.176 C 
ATOM      6  O   UNL A   1     -22.187   1.063  28.516  0.00  0.00    -0.341 OA
ENDBRANCH   3   6
BRANCH   3   7
ATOM      7  C   UNL A   1     -24.164   1.354  26.483  0.00  0.00    +0.052 C 
BRANCH   7   8
ATOM      8  C   UNL A   1     -25.688   1.614  26.461  0.00  0.00    +0.074 C 
ATOM      9  C   UNL A   1     -26.250   2.920  26.395  0.00  0.00    +0.055 C 
ATOM     10  C   UNL A   1     -27.438   3.091  25.645  0.00  0.00    +0.102 C 
ATOM     11  N   UNL A   1     -28.075   2.089  25.003  0.00  0.00    -0.212 NA
ATOM     12  C   UNL A   1     -27.543   0.849  25.079  0.00  0.00    +0.234 C 
ATOM     13  C   UNL A   1     -26.354   0.576  25.777  0.00  0.00    +0.240 C 
ATOM     14  F   UNL A   1     -25.860  -0.681  25.795  0.00  0.00    -0.227 F 
BRANCH   9  15
ATOM     15  C   UNL A   1     -25.642   4.093  27.123  0.00  0.00    +0.262 C 
ATOM     16  N   UNL A   1     -25.614   5.252  26.449  0.00  0.00    -0.200 NA
ATOM     17  C   UNL A   1     -25.026   6.479  26.963  0.00  0.00    +0.139 C 
ATOM     18  O   UNL A   1     -25.143   3.966  28.243  0.00  0.00    -0.269 OA
ENDBRANCH   9  15
BRANCH  12  19
ATOM     19  O   UNL A   1     -28.193  -0.208  24.477  0.00  0.00    -0.459 OA
BRANCH  19  20
ATOM     20  C   UNL A   1     -29.460   0.005  23.866  0.00  0.00    +0.242 C 
BRANCH  20  21
ATOM     21  C   UNL A   1     -30.065  -1.377  23.573  0.00  0.00    +0.229 C 
ATOM     22  O   UNL A   1     -30.729  -1.878  24.721  0.00  0.00    -0.216 OA
ENDBRANCH  20  21
ENDBRANCH  19  20
ENDBRANCH  12  19
ENDBRANCH   7   8
ENDBRANCH   3   7
ENDBRANCH   2   3
ENDBRANCH   1   2
BRANCH   1  23
ATOM     23  C   UNL A   1     -24.827   1.881  31.121  0.00  0.00    +0.019 C 
BRANCH  23  25
ATOM     24  C   UNL A   1     -25.387  -0.679  31.571  0.00  0.00    +0.077 C 
ATOM     25  C   UNL A   1     -25.189   0.773  32.028  0.00  0.00    +0.019 C 
ATOM     26  C   UNL A   1     -25.336   0.684  33.544  0.00  0.00    +0.020 C 
ATOM     27  C   UNL A   1     -24.829  -0.715  33.905  0.00  0.00    +0.089 C 
ATOM     28  N   UNL A   1     -24.758  -1.481  32.646  0.00  0.00    -0.219 NA
BRANCH  24  29
ATOM     29  C   UNL A   1     -24.855  -1.012  30.143  0.00  0.00    +0.044 C 
BRANCH  29  30
ATOM     30  C   UNL A   1     -24.973  -2.505  29.788  0.00  0.00    -0.021 C 
ATOM     31  C   UNL A   1     -23.906  -3.173  29.146  0.00  0.00    -0.004 C 
ATOM     32  C   UNL A   1     -23.989  -4.549  28.853  0.00  0.00    -0.000 C 
ATOM     33  C   UNL A   1     -25.137  -5.280  29.205  0.00  0.00    -0.000 C 
ATOM     34  C   UNL A   1     -26.232  -4.611  29.784  0.00  0.00    -0.000 C 
ATOM     35  C   UNL A   1     -26.155  -3.232  30.065  0.00  0.00    -0.004 C 
ENDBRANCH  29  30
ENDBRANCH  24  29
ENDBRANCH  23  25
BRANCH  23  36
ATOM     36  C   UNL A   1     -25.041   3.199  31.183  0.00  0.00    +0.002 C 
BRANCH  36  37
ATOM     37  C   UNL A   1     -25.108   3.668  32.336  0.00  0.00    +0.003 C 
ATOM     38  C   UNL A   1     -26.267   5.528  34.354  0.00  0.00    +0.030 C 
ATOM     39  C   UNL A   1     -24.701   5.124  32.525  0.00  0.00    +0.000 C 
ATOM     40  C   UNL A   1     -26.594   3.610  32.975  0.00  0.00    +0.030 C 
ATOM     41  C   UNL A   1     -26.636   4.070  34.405  0.00  0.00    +0.115 C 
ATOM     42  C   UNL A   1     -24.847   5.588  33.920  0.00  0.00    +0.003 C 
BRANCH  41  43
ATOM     43  O   UNL A   1     -27.826   3.575  35.052  0.00  0.00    -0.354 OA
ATOM     44  C   UNL A   1     -28.152   2.196  35.022  0.00  0.00    +0.174 C 
ENDBRANCH  41  43
ENDBRANCH  36  37
ENDBRANCH  23  36
ENDBRANCH   1  23
TORSDOF 16
