REMARK  Name = outputs/IAG933/test6/raw/output_8369_IAG933_linker_design_.xyz
REMARK  11 active torsions:
REMARK  status: ('A' for Active; 'I' for Inactive)
REMARK    1  A    between atoms: C_1  and  C_2
REMARK    2  A    between atoms: C_1  and  C_8
REMARK    3  A    between atoms: C_1  and  N_36
REMARK    4  A    between atoms: C_13  and  C_28
REMARK    5  A    between atoms: C_14  and  C_15
REMARK    6  A    between atoms: C_21  and  O_22
REMARK    7  A    between atoms: O_22  and  C_23
REMARK    8  A    between atoms: C_23  and  C_24
REMARK    9  A    between atoms: C_35  and  C_42
REMARK   10  A    between atoms: N_36  and  C_39
REMARK   11  A    between atoms: N_36  and  C_40
REMARK                            x       y       z     vdW  Elec       q    Type
REMARK                         _______ _______ _______ _____ _____    ______ ____
ROOT
ATOM      1  C   UNL A   1     -24.555   1.251  27.291  0.00  0.00    +0.020 C 
ATOM      2  C   UNL A   1     -22.322   1.148  27.535  0.00  0.00    +0.092 C 
ATOM      3  C   UNL A   1     -20.786  -0.237  28.834  0.00  0.00    +0.098 C 
ATOM      4  N   UNL A   1     -22.041  -0.408  29.246  0.00  0.00    -0.246 NA
ATOM      5  C   UNL A   1     -22.839   0.384  28.486  0.00  0.00    +0.081 C 
ATOM      6  C   UNL A   1     -23.195   1.587  26.715  0.00  0.00    +0.068 C 
ATOM      7  C   UNL A   1     -20.951   1.417  27.418  0.00  0.00    -0.014 C 
ATOM      8  C   UNL A   1     -24.225   0.490  28.366  0.00  0.00    +0.066 C 
ATOM      9  C   UNL A   1     -20.148   0.668  28.164  0.00  0.00    +0.017 C 
ENDROOT
BRANCH   1  10
ATOM     10  C   UNL A   1     -25.688   1.614  26.461  0.00  0.00    +0.039 C 
ATOM     11  C   UNL A   1     -26.250   2.920  26.395  0.00  0.00    +0.077 C 
ATOM     12  C   UNL A   1     -27.438   3.091  25.645  0.00  0.00    +0.107 C 
ATOM     13  N   UNL A   1     -28.075   2.089  25.003  0.00  0.00    -0.208 NA
ATOM     14  C   UNL A   1     -27.543   0.849  25.079  0.00  0.00    +0.253 C 
ATOM     15  C   UNL A   1     -26.354   0.576  25.777  0.00  0.00    +0.193 C 
ATOM     16  F   UNL A   1     -25.860  -0.681  25.795  0.00  0.00    -0.199 F 
BRANCH  11  17
ATOM     17  C   UNL A   1     -25.642   4.093  27.123  0.00  0.00    +0.266 C 
ATOM     18  N   UNL A   1     -25.614   5.252  26.449  0.00  0.00    -0.200 NA
ATOM     19  C   UNL A   1     -25.026   6.479  26.963  0.00  0.00    +0.139 C 
ATOM     20  O   UNL A   1     -25.143   3.966  28.243  0.00  0.00    -0.268 OA
ENDBRANCH  11  17
BRANCH  14  21
ATOM     21  O   UNL A   1     -28.193  -0.208  24.477  0.00  0.00    -0.456 OA
BRANCH  21  22
ATOM     22  C   UNL A   1     -29.460   0.005  23.866  0.00  0.00    +0.243 C 
BRANCH  22  23
ATOM     23  C   UNL A   1     -30.065  -1.377  23.573  0.00  0.00    +0.229 C 
ATOM     24  O   UNL A   1     -30.729  -1.878  24.721  0.00  0.00    -0.216 OA
ENDBRANCH  22  23
ENDBRANCH  21  22
ENDBRANCH  14  21
ENDBRANCH   1  10
BRANCH   6  27
ATOM     25  O   UNL A   1     -22.644   1.585  24.397  0.00  0.00    -0.241 OA
ATOM     26  O   UNL A   1     -23.610   3.382  25.273  0.00  0.00    -0.241 OA
ATOM     27  C   UNL A   1     -23.093   2.219  25.328  0.00  0.00    +0.385 C 
ENDBRANCH   6  27
BRANCH   8  28
ATOM     28  N   UNL A   1     -25.179  -0.075  29.073  0.00  0.00    -0.281 N 
BRANCH  28  30
ATOM     29  C   UNL A   1     -28.840   1.218  28.943  0.00  0.00    +0.032 C 
ATOM     30  C   UNL A   1     -26.665   0.254  28.954  0.00  0.00    +0.061 C 
ATOM     31  C   UNL A   1     -27.581   0.982  29.595  0.00  0.00    -0.010 C 
ENDBRANCH  28  30
BRANCH  28  32
ATOM     32  C   UNL A   1     -24.855  -1.012  30.143  0.00  0.00    +0.116 C 
BRANCH  32  33
ATOM     33  C   UNL A   1     -24.973  -2.505  29.788  0.00  0.00    -0.003 C 
ATOM     34  C   UNL A   1     -23.906  -3.173  29.146  0.00  0.00    -0.003 C 
ATOM     35  C   UNL A   1     -23.989  -4.549  28.853  0.00  0.00    -0.000 C 
ATOM     36  C   UNL A   1     -25.137  -5.280  29.205  0.00  0.00    -0.000 C 
ATOM     37  C   UNL A   1     -26.232  -4.611  29.784  0.00  0.00    -0.000 C 
ATOM     38  C   UNL A   1     -26.155  -3.232  30.065  0.00  0.00    -0.003 C 
ENDBRANCH  32  33
BRANCH  32  39
ATOM     39  C   UNL A   1     -25.387  -0.679  31.571  0.00  0.00    +0.095 C 
ATOM     40  C   UNL A   1     -25.189   0.773  32.028  0.00  0.00    +0.021 C 
ATOM     41  C   UNL A   1     -25.336   0.684  33.544  0.00  0.00    +0.020 C 
ATOM     42  C   UNL A   1     -24.829  -0.715  33.905  0.00  0.00    +0.089 C 
ATOM     43  N   UNL A   1     -24.758  -1.481  32.646  0.00  0.00    -0.217 NA
ENDBRANCH  32  39
ENDBRANCH  28  32
ENDBRANCH   8  28
TORSDOF 11
