MODEL 836
MODEL 1
REMARK VINA RESULT:    -6.538      0.000      0.000
REMARK INTER + INTRA:          -6.538
REMARK INTER:                  -6.538
REMARK INTRA:                   0.000
REMARK UNBOUND:                 0.000
REMARK  Name = No_836-gen_results/8p0m/2024-11-27-11-27-31/
REMARK  0 active torsions:
REMARK  status: ('A' for Active; 'I' for Inactive)
REMARK                            x       y       z     vdW  Elec       q    Type
REMARK                         _______ _______ _______ _____ _____    ______ ____
ROOT
ATOM      1  C   UNL A   1     -26.413  -4.046  29.788  0.00  0.00    +0.000 A 
ATOM      2  C   UNL A   1     -25.904  -2.953  29.869  0.00  0.00    +0.000 A 
ATOM      3  C   UNL A   1     -24.615  -2.724  29.401  0.00  0.00    +0.000 A 
ATOM      4  C   UNL A   1     -23.828  -3.794  28.846  0.00  0.00    +0.000 A 
ATOM      5  C   UNL A   1     -24.485  -5.031  28.811  0.00  0.00    +0.000 A 
ATOM      6  C   UNL A   1     -25.699  -5.199  29.283  0.00  0.00    +0.000 A 
ATOM      7  C   UNL A   1     -26.683  -1.906  30.530  0.00  0.00    +0.000 A 
ATOM      8  C   UNL A   1     -26.088  -0.689  30.687  0.00  0.00    +0.000 A 
ATOM      9  C   UNL A   1     -24.713  -0.433  30.141  0.00  0.00    +0.000 A 
ATOM     10  C   UNL A   1     -23.983  -1.424  29.562  0.00  0.00    +0.000 A 
ATOM     11  C   UNL A   1     -22.637  -1.112  29.072  0.00  0.00    +0.000 A 
ATOM     12  C   UNL A   1     -22.311   0.113  28.614  0.00  0.00    +0.000 A 
ATOM     13  C   UNL A   1     -23.077   1.235  29.118  0.00  0.00    +0.000 A 
ATOM     14  C   UNL A   1     -24.278   1.011  29.952  0.00  0.00    +0.000 A 
ENDROOT
TORSDOF 0
ENDMDL
ENDMDL
