REMARK  Name = No_837-gen_results/8p0m/2024-11-27-11-27-31/
REMARK  5 active torsions:
REMARK  status: ('A' for Active; 'I' for Inactive)
REMARK    1  A    between atoms: C_3  and  N_6
REMARK    2  A    between atoms: N_4  and  C_9
REMARK    3  A    between atoms: N_6  and  C_22
REMARK    4  A    between atoms: C_8  and  C_16
REMARK    5  A    between atoms: C_22  and  C_23
REMARK                            x       y       z     vdW  Elec       q    Type
REMARK                         _______ _______ _______ _____ _____    ______ ____
ROOT
ATOM      1  O   UNL A   1     -28.123  -1.335  28.487  0.00  0.00    -0.273 OA
ATOM      2  C   UNL A   1     -28.521  -0.436  29.078  0.00  0.00    +0.245 C 
ATOM      3  C   UNL A   1     -29.698   0.051  28.976  0.00  0.00    +0.150 C 
ATOM      4  N   UNL A   1     -27.541   0.176  30.005  0.00  0.00    -0.257 N 
ATOM      5  C   UNL A   1     -27.889   1.266  30.818  0.00  0.00    +0.103 C 
ATOM      6  C   UNL A   1     -30.083   1.282  29.816  0.00  0.00    +0.033 C 
ATOM      7  C   UNL A   1     -29.126   1.775  30.708  0.00  0.00    +0.044 C 
ENDROOT
BRANCH   4   8
ATOM      8  C   UNL A   1     -26.209  -0.451  30.159  0.00  0.00    +0.061 C 
ATOM      9  C   UNL A   1     -25.911  -0.955  31.168  0.00  0.00    +0.015 C 
ATOM     10  C   UNL A   1     -25.987  -0.519  32.205  0.00  0.00    +0.002 C 
ATOM     11  C   UNL A   1     -25.378   0.718  32.625  0.00  0.00    +0.008 C 
ATOM     12  C   UNL A   1     -24.459   1.297  31.753  0.00  0.00    +0.041 C 
ATOM     13  C   UNL A   1     -25.203   0.671  29.932  0.00  0.00    +0.056 C 
ATOM     14  C   UNL A   1     -24.518   1.043  30.486  0.00  0.00    -0.099 C 
ENDBRANCH   4   8
BRANCH   7  15
ATOM     15  C   UNL A   1     -29.466   2.923  31.535  0.00  0.00    -0.021 A 
ATOM     16  C   UNL A   1     -30.324   3.476  31.748  0.00  0.00    -0.004 A 
ATOM     17  C   UNL A   1     -30.532   4.637  32.626  0.00  0.00    -0.000 A 
ATOM     18  C   UNL A   1     -29.405   5.073  33.285  0.00  0.00    -0.000 A 
ATOM     19  C   UNL A   1     -28.215   3.454  32.318  0.00  0.00    -0.004 A 
ATOM     20  C   UNL A   1     -28.239   4.470  33.109  0.00  0.00    -0.000 A 
ENDBRANCH   7  15
BRANCH   3  21
ATOM     21  N   UNL A   1     -30.529  -0.322  28.207  0.00  0.00    -0.205 NA
BRANCH  21  22
ATOM     22  C   UNL A   1     -31.854   0.058  28.066  0.00  0.00    +0.115 C 
BRANCH  22  23
ATOM     23  C   UNL A   1     -32.624  -0.409  27.356  0.00  0.00    -0.012 C 
ATOM     24  C   UNL A   1     -33.914  -0.099  27.178  0.00  0.00    -0.029 C 
ATOM     25  C   UNL A   1     -34.812  -0.713  26.329  0.00  0.00    +0.030 C 
ENDBRANCH  22  23
ENDBRANCH  21  22
ENDBRANCH   3  21
TORSDOF 5
