REMARK  Name = outputs/IAG933/test6/raw/output_8375_IAG933_linker_design_.xyz
REMARK  11 active torsions:
REMARK  status: ('A' for Active; 'I' for Inactive)
REMARK    1  A    between atoms: C_1  and  C_2
REMARK    2  A    between atoms: C_1  and  C_8
REMARK    3  A    between atoms: C_1  and  C_43
REMARK    4  A    between atoms: C_14  and  C_15
REMARK    5  A    between atoms: C_15  and  O_18
REMARK    6  A    between atoms: O_18  and  C_41
REMARK    7  A    between atoms: C_21  and  O_22
REMARK    8  A    between atoms: O_22  and  C_23
REMARK    9  A    between atoms: C_23  and  C_24
REMARK   10  A    between atoms: C_30  and  C_36
REMARK   11  A    between atoms: C_36  and  C_41
REMARK                            x       y       z     vdW  Elec       q    Type
REMARK                         _______ _______ _______ _____ _____    ______ ____
ROOT
ATOM      1  N   UNL A   1     -28.000   4.412  31.255  0.00  0.00    -0.306 N 
ATOM      2  C   UNL A   1     -25.789   4.388  30.442  0.00  0.00    +0.029 C 
ATOM      3  C   UNL A   1     -28.495   3.648  30.199  0.00  0.00    +0.077 C 
ATOM      4  C   UNL A   1     -29.944   3.769  29.708  0.00  0.00    +0.022 C 
ATOM      5  C   UNL A   1     -26.790   4.918  31.265  0.00  0.00    +0.060 C 
ATOM      6  C   UNL A   1     -28.744   4.831  32.408  0.00  0.00    +0.112 C 
ATOM      7  C   UNL A   1     -26.166   3.321  29.591  0.00  0.00    +0.160 C 
ATOM      8  C   UNL A   1     -27.551   2.959  29.434  0.00  0.00    +0.064 C 
ENDROOT
BRANCH   7   9
ATOM      9  O   UNL A   1     -25.143   3.966  28.243  0.00  0.00    -0.463 OA
BRANCH   9  10
ATOM     10  C   UNL A   1     -25.642   4.093  27.123  0.00  0.00    +0.222 C 
ATOM     11  N   UNL A   1     -25.614   5.252  26.449  0.00  0.00    -0.236 NA
ATOM     12  C   UNL A   1     -25.026   6.479  26.963  0.00  0.00    +0.155 C 
BRANCH  10  14
ATOM     13  C   UNL A   1     -25.688   1.614  26.461  0.00  0.00    +0.041 C 
ATOM     14  C   UNL A   1     -26.250   2.920  26.395  0.00  0.00    +0.074 C 
ATOM     15  C   UNL A   1     -27.438   3.091  25.645  0.00  0.00    +0.107 C 
ATOM     16  N   UNL A   1     -28.075   2.089  25.003  0.00  0.00    -0.208 NA
ATOM     17  C   UNL A   1     -27.543   0.849  25.079  0.00  0.00    +0.253 C 
ATOM     18  C   UNL A   1     -26.354   0.576  25.777  0.00  0.00    +0.193 C 
ATOM     19  F   UNL A   1     -25.860  -0.681  25.795  0.00  0.00    -0.199 F 
BRANCH  17  20
ATOM     20  O   UNL A   1     -28.193  -0.208  24.477  0.00  0.00    -0.456 OA
BRANCH  20  21
ATOM     21  C   UNL A   1     -29.460   0.005  23.866  0.00  0.00    +0.243 C 
BRANCH  21  22
ATOM     22  C   UNL A   1     -30.065  -1.377  23.573  0.00  0.00    +0.229 C 
ATOM     23  O   UNL A   1     -30.729  -1.878  24.721  0.00  0.00    -0.216 OA
ENDBRANCH  21  22
ENDBRANCH  20  21
ENDBRANCH  17  20
ENDBRANCH  10  14
ENDBRANCH   9  10
ENDBRANCH   7   9
BRANCH   7  24
ATOM     24  C   UNL A   1     -25.321   2.052  29.008  0.00  0.00    +0.094 C 
BRANCH  24  26
ATOM     25  O   UNL A   1     -23.340   2.047  28.240  0.00  0.00    -0.462 OA
ATOM     26  C   UNL A   1     -24.086   1.262  28.974  0.00  0.00    +0.207 C 
ATOM     27  C   UNL A   1     -21.721   0.311  28.522  0.00  0.00    +0.147 C 
ATOM     28  C   UNL A   1     -22.206   1.428  27.866  0.00  0.00    +0.217 C 
ATOM     29  N   UNL A   1     -22.546  -0.363  29.325  0.00  0.00    -0.244 NA
ATOM     30 CL   UNL A   1     -21.483   2.086  26.462  0.00  0.00    -0.041 Cl
ATOM     31  C   UNL A   1     -23.841  -0.045  29.526  0.00  0.00    +0.082 C 
BRANCH  31  32
ATOM     32  C   UNL A   1     -24.855  -1.012  30.143  0.00  0.00    +0.078 C 
BRANCH  32  33
ATOM     33  C   UNL A   1     -24.973  -2.505  29.788  0.00  0.00    -0.016 C 
ATOM     34  C   UNL A   1     -23.906  -3.173  29.146  0.00  0.00    -0.004 C 
ATOM     35  C   UNL A   1     -23.989  -4.549  28.853  0.00  0.00    -0.000 C 
ATOM     36  C   UNL A   1     -25.137  -5.280  29.205  0.00  0.00    -0.000 C 
ATOM     37  C   UNL A   1     -26.232  -4.611  29.784  0.00  0.00    -0.000 C 
ATOM     38  C   UNL A   1     -26.155  -3.232  30.065  0.00  0.00    -0.004 C 
ENDBRANCH  32  33
BRANCH  32  39
ATOM     39  C   UNL A   1     -25.387  -0.679  31.571  0.00  0.00    +0.082 C 
ATOM     40  C   UNL A   1     -25.189   0.773  32.028  0.00  0.00    +0.020 C 
ATOM     41  C   UNL A   1     -25.336   0.684  33.544  0.00  0.00    +0.020 C 
ATOM     42  C   UNL A   1     -24.829  -0.715  33.905  0.00  0.00    +0.089 C 
ATOM     43  N   UNL A   1     -24.758  -1.481  32.646  0.00  0.00    -0.219 NA
ENDBRANCH  32  39
ENDBRANCH  31  32
ENDBRANCH  24  26
ENDBRANCH   7  24
TORSDOF 11
