MODEL 837
MODEL 1
REMARK VINA RESULT:    -8.282      0.000      0.000
REMARK INTER + INTRA:         -10.992
REMARK INTER:                 -10.702
REMARK INTRA:                  -0.289
REMARK UNBOUND:                -0.289
REMARK  Name = No_837-gen_results/8p0m/2024-11-27-11-27-31/
REMARK  5 active torsions:
REMARK  status: ('A' for Active; 'I' for Inactive)
REMARK    1  A    between atoms: C_3  and  N_6
REMARK    2  A    between atoms: N_4  and  C_9
REMARK    3  A    between atoms: N_6  and  C_22
REMARK    4  A    between atoms: C_8  and  C_16
REMARK    5  A    between atoms: C_22  and  C_23
REMARK                            x       y       z     vdW  Elec       q    Type
REMARK                         _______ _______ _______ _____ _____    ______ ____
ROOT
ATOM      1  O   UNL A   1      -8.911   1.643  33.676  0.00  0.00    -0.273 OA
ATOM      2  C   UNL A   1      -9.227   1.067  34.616  0.00  0.00    +0.245 C 
ATOM      3  C   UNL A   1      -8.533   0.164  35.195  0.00  0.00    +0.150 C 
ATOM      4  N   UNL A   1     -10.562   1.433  35.145  0.00  0.00    -0.257 N 
ATOM      5  C   UNL A   1     -11.074   0.835  36.307  0.00  0.00    +0.103 C 
ATOM      6  C   UNL A   1      -9.101  -0.546  36.438  0.00  0.00    +0.033 C 
ATOM      7  C   UNL A   1     -10.343  -0.113  36.912  0.00  0.00    +0.044 C 
ENDROOT
BRANCH   4   8
ATOM      8  C   UNL A   1     -11.313   2.533  34.500  0.00  0.00    +0.061 C 
ATOM      9  C   UNL A   1     -11.279   3.609  34.949  0.00  0.00    +0.015 C 
ATOM     10  C   UNL A   1     -11.462   3.916  36.018  0.00  0.00    +0.002 C 
ATOM     11  C   UNL A   1     -12.661   3.625  36.765  0.00  0.00    +0.008 C 
ATOM     12  C   UNL A   1     -13.745   3.125  36.048  0.00  0.00    +0.041 C 
ATOM     13  C   UNL A   1     -12.775   2.104  34.538  0.00  0.00    +0.056 C 
ATOM     14  C   UNL A   1     -13.552   2.499  34.932  0.00  0.00    -0.099 C 
ENDBRANCH   4   8
BRANCH   7  15
ATOM     15  C   UNL A   1     -10.897  -0.746  38.100  0.00  0.00    -0.021 A 
ATOM     16  C   UNL A   1     -10.935  -0.540  39.121  0.00  0.00    -0.004 A 
ATOM     17  C   UNL A   1     -11.546  -1.280  40.235  0.00  0.00    -0.000 A 
ATOM     18  C   UNL A   1     -12.181  -2.447  39.874  0.00  0.00    -0.000 A 
ATOM     19  C   UNL A   1     -11.643  -2.079  37.742  0.00  0.00    -0.004 A 
ATOM     20  C   UNL A   1     -12.211  -2.842  38.610  0.00  0.00    -0.000 A 
ENDBRANCH   7  15
BRANCH   3  21
ATOM     21  N   UNL A   1      -7.487  -0.252  34.804  0.00  0.00    -0.205 NA
BRANCH  21  22
ATOM     22  C   UNL A   1      -7.024  -1.553  34.694  0.00  0.00    +0.115 C 
BRANCH  22  23
ATOM     23  C   UNL A   1      -6.056  -1.890  34.180  0.00  0.00    -0.012 C 
ATOM     24  C   UNL A   1      -4.793  -1.823  34.619  0.00  0.00    -0.029 C 
ATOM     25  C   UNL A   1      -3.653  -2.216  33.948  0.00  0.00    +0.030 C 
ENDBRANCH  22  23
ENDBRANCH  21  22
ENDBRANCH   3  21
TORSDOF 5
ENDMDL
ENDMDL
