REMARK  Name = outputs/IAG933/test6/raw/output_838_IAG933_linker_design_.xyz
REMARK  13 active torsions:
REMARK  status: ('A' for Active; 'I' for Inactive)
REMARK    1  A    between atoms: C_1  and  C_2
REMARK    2  A    between atoms: C_1  and  C_8
REMARK    3  A    between atoms: C_1  and  N_39
REMARK    4  A    between atoms: C_13  and  C_42
REMARK    5  A    between atoms: C_14  and  C_15
REMARK    6  A    between atoms: C_21  and  O_22
REMARK    7  A    between atoms: O_22  and  C_23
REMARK    8  A    between atoms: C_23  and  C_24
REMARK    9  A    between atoms: C_28  and  C_30
REMARK   10  A    between atoms: C_28  and  N_39
REMARK   11  A    between atoms: C_28  and  C_42
REMARK   12  A    between atoms: C_29  and  C_34
REMARK   13  A    between atoms: C_34  and  N_39
REMARK                            x       y       z     vdW  Elec       q    Type
REMARK                         _______ _______ _______ _____ _____    ______ ____
ROOT
ATOM      1  C   UNL A   1     -25.282   0.938  28.609  0.00  0.00    +0.066 C 
ENDROOT
BRANCH   1   2
ATOM      2  C   UNL A   1     -26.772   0.811  28.982  0.00  0.00    +0.037 C 
ATOM      3  C   UNL A   1     -27.351   1.967  29.532  0.00  0.00    -0.025 C 
ATOM      4  C   UNL A   1     -29.344   3.483  29.330  0.00  0.00    -0.001 C 
ATOM      5  C   UNL A   1     -30.560   3.368  28.422  0.00  0.00    -0.000 C 
ATOM      6  C   UNL A   1     -27.530  -0.250  28.489  0.00  0.00    +0.010 C 
ATOM      7  C   UNL A   1     -30.433   1.999  27.675  0.00  0.00    -0.004 C 
ATOM      8  C   UNL A   1     -28.601   2.281  29.062  0.00  0.00    -0.008 C 
ATOM      9  C   UNL A   1     -29.227   1.371  28.219  0.00  0.00    -0.022 C 
ATOM     10  C   UNL A   1     -28.818   0.063  27.996  0.00  0.00    +0.027 C 
ENDBRANCH   1   2
BRANCH   1  11
ATOM     11  N   UNL A   1     -24.336  -0.113  29.138  0.00  0.00    -0.270 NA
BRANCH  11  12
ATOM     12  C   UNL A   1     -24.855  -1.012  30.143  0.00  0.00    +0.096 C 
BRANCH  12  13
ATOM     13  C   UNL A   1     -24.973  -2.505  29.788  0.00  0.00    -0.006 C 
ATOM     14  C   UNL A   1     -23.906  -3.173  29.146  0.00  0.00    -0.003 C 
ATOM     15  C   UNL A   1     -23.989  -4.549  28.853  0.00  0.00    -0.000 C 
ATOM     16  C   UNL A   1     -25.137  -5.280  29.205  0.00  0.00    -0.000 C 
ATOM     17  C   UNL A   1     -26.232  -4.611  29.784  0.00  0.00    -0.000 C 
ATOM     18  C   UNL A   1     -26.155  -3.232  30.065  0.00  0.00    -0.003 C 
ENDBRANCH  12  13
BRANCH  12  19
ATOM     19  C   UNL A   1     -25.387  -0.679  31.571  0.00  0.00    +0.092 C 
ATOM     20  C   UNL A   1     -25.189   0.773  32.028  0.00  0.00    +0.021 C 
ATOM     21  C   UNL A   1     -25.336   0.684  33.544  0.00  0.00    +0.020 C 
ATOM     22  C   UNL A   1     -24.829  -0.715  33.905  0.00  0.00    +0.089 C 
ATOM     23  N   UNL A   1     -24.758  -1.481  32.646  0.00  0.00    -0.218 NA
ENDBRANCH  12  19
ENDBRANCH  11  12
BRANCH  11  24
ATOM     24  C   UNL A   1     -22.894  -0.247  28.536  0.00  0.00    +0.072 C 
BRANCH  24  25
ATOM     25  C   UNL A   1     -22.093   1.040  28.755  0.00  0.00    +0.017 C 
ATOM     26  C   UNL A   1     -21.330   1.479  27.536  0.00  0.00    +0.002 C 
ENDBRANCH  24  25
ENDBRANCH  11  24
ENDBRANCH   1  11
BRANCH   1  27
ATOM     27  C   UNL A   1     -24.643   1.207  27.150  0.00  0.00    +0.045 C 
BRANCH  27  28
ATOM     28  C   UNL A   1     -25.688   1.614  26.461  0.00  0.00    +0.017 C 
ATOM     29  C   UNL A   1     -26.250   2.920  26.395  0.00  0.00    +0.073 C 
ATOM     30  C   UNL A   1     -27.438   3.091  25.645  0.00  0.00    +0.106 C 
ATOM     31  N   UNL A   1     -28.075   2.089  25.003  0.00  0.00    -0.208 NA
ATOM     32  C   UNL A   1     -27.543   0.849  25.079  0.00  0.00    +0.253 C 
ATOM     33  C   UNL A   1     -26.354   0.576  25.777  0.00  0.00    +0.189 C 
ATOM     34  F   UNL A   1     -25.860  -0.681  25.795  0.00  0.00    -0.200 F 
BRANCH  29  35
ATOM     35  C   UNL A   1     -25.642   4.093  27.123  0.00  0.00    +0.266 C 
ATOM     36  N   UNL A   1     -25.614   5.252  26.449  0.00  0.00    -0.200 NA
ATOM     37  C   UNL A   1     -25.026   6.479  26.963  0.00  0.00    +0.139 C 
ATOM     38  O   UNL A   1     -25.143   3.966  28.243  0.00  0.00    -0.268 OA
ENDBRANCH  29  35
BRANCH  32  39
ATOM     39  O   UNL A   1     -28.193  -0.208  24.477  0.00  0.00    -0.456 OA
BRANCH  39  40
ATOM     40  C   UNL A   1     -29.460   0.005  23.866  0.00  0.00    +0.243 C 
BRANCH  40  41
ATOM     41  C   UNL A   1     -30.065  -1.377  23.573  0.00  0.00    +0.229 C 
ATOM     42  O   UNL A   1     -30.729  -1.878  24.721  0.00  0.00    -0.216 OA
ENDBRANCH  40  41
ENDBRANCH  39  40
ENDBRANCH  32  39
ENDBRANCH  27  28
ENDBRANCH   1  27
TORSDOF 13
