REMARK  Name = outputs/IAG933/test6/raw/output_8380_IAG933_linker_design_.xyz
REMARK  11 active torsions:
REMARK  status: ('A' for Active; 'I' for Inactive)
REMARK    1  A    between atoms: C_1  and  C_2
REMARK    2  A    between atoms: C_1  and  C_8
REMARK    3  A    between atoms: C_1  and  C_30
REMARK    4  A    between atoms: C_13  and  C_39
REMARK    5  A    between atoms: C_14  and  C_15
REMARK    6  A    between atoms: C_21  and  O_22
REMARK    7  A    between atoms: O_22  and  C_23
REMARK    8  A    between atoms: C_23  and  C_24
REMARK    9  A    between atoms: C_29  and  C_39
REMARK   10  A    between atoms: C_30  and  C_34
REMARK   11  A    between atoms: N_35  and  C_39
REMARK                            x       y       z     vdW  Elec       q    Type
REMARK                         _______ _______ _______ _____ _____    ______ ____
ROOT
ATOM      1  C   UNL A   1     -24.701   1.246  27.415  0.00  0.00    +0.136 C 
ENDROOT
BRANCH   1   2
ATOM      2  C   UNL A   1     -25.688   1.614  26.461  0.00  0.00    +0.097 C 
ATOM      3  C   UNL A   1     -26.250   2.920  26.395  0.00  0.00    +0.057 C 
ATOM      4  C   UNL A   1     -27.438   3.091  25.645  0.00  0.00    +0.102 C 
ATOM      5  N   UNL A   1     -28.075   2.089  25.003  0.00  0.00    -0.212 NA
ATOM      6  C   UNL A   1     -27.543   0.849  25.079  0.00  0.00    +0.234 C 
ATOM      7  C   UNL A   1     -26.354   0.576  25.777  0.00  0.00    +0.242 C 
ATOM      8  F   UNL A   1     -25.860  -0.681  25.795  0.00  0.00    -0.227 F 
BRANCH   3   9
ATOM      9  C   UNL A   1     -25.642   4.093  27.123  0.00  0.00    +0.263 C 
ATOM     10  N   UNL A   1     -25.614   5.252  26.449  0.00  0.00    -0.200 NA
ATOM     11  C   UNL A   1     -25.026   6.479  26.963  0.00  0.00    +0.139 C 
ATOM     12  O   UNL A   1     -25.143   3.966  28.243  0.00  0.00    -0.269 OA
ENDBRANCH   3   9
BRANCH   6  13
ATOM     13  O   UNL A   1     -28.193  -0.208  24.477  0.00  0.00    -0.459 OA
BRANCH  13  14
ATOM     14  C   UNL A   1     -29.460   0.005  23.866  0.00  0.00    +0.242 C 
BRANCH  14  15
ATOM     15  C   UNL A   1     -30.065  -1.377  23.573  0.00  0.00    +0.229 C 
ATOM     16  O   UNL A   1     -30.729  -1.878  24.721  0.00  0.00    -0.216 OA
ENDBRANCH  14  15
ENDBRANCH  13  14
ENDBRANCH   6  13
ENDBRANCH   1   2
BRANCH   1  18
ATOM     17  C   UNL A   1     -23.254   2.057  25.937  0.00  0.00    +0.001 C 
ATOM     18  C   UNL A   1     -23.337   1.499  27.189  0.00  0.00    +0.039 C 
ATOM     19  O   UNL A   1     -22.448   0.684  29.308  0.00  0.00    -0.287 OA
ATOM     20  C   UNL A   1     -20.880   2.092  26.569  0.00  0.00    +0.003 C 
ATOM     21  C   UNL A   1     -21.025   1.465  27.753  0.00  0.00    +0.042 C 
ATOM     22  C   UNL A   1     -22.313   1.191  28.122  0.00  0.00    +0.194 C 
ATOM     23  C   UNL A   1     -21.875   2.381  25.657  0.00  0.00    -0.000 C 
ENDBRANCH   1  18
BRANCH   1  25
ATOM     24  C   UNL A   1     -25.538  -0.119  29.104  0.00  0.00    +0.115 C 
ATOM     25  N   UNL A   1     -24.571   0.482  28.371  0.00  0.00    -0.267 NA
BRANCH  24  27
ATOM     26  N   UNL A   1     -27.391   1.420  29.300  0.00  0.00    -0.083 NA
ATOM     27  C   UNL A   1     -26.938   0.215  28.949  0.00  0.00    +0.298 C 
ATOM     28  O   UNL A   1     -27.700  -0.634  28.529  0.00  0.00    -0.265 OA
ENDBRANCH  24  27
BRANCH  24  29
ATOM     29  C   UNL A   1     -24.855  -1.012  30.143  0.00  0.00    +0.083 C 
BRANCH  29  30
ATOM     30  C   UNL A   1     -24.973  -2.505  29.788  0.00  0.00    -0.015 C 
ATOM     31  C   UNL A   1     -23.906  -3.173  29.146  0.00  0.00    -0.004 C 
ATOM     32  C   UNL A   1     -23.989  -4.549  28.853  0.00  0.00    -0.000 C 
ATOM     33  C   UNL A   1     -25.137  -5.280  29.205  0.00  0.00    -0.000 C 
ATOM     34  C   UNL A   1     -26.232  -4.611  29.784  0.00  0.00    -0.000 C 
ATOM     35  C   UNL A   1     -26.155  -3.232  30.065  0.00  0.00    -0.004 C 
ENDBRANCH  29  30
BRANCH  29  36
ATOM     36  C   UNL A   1     -25.387  -0.679  31.571  0.00  0.00    +0.083 C 
ATOM     37  C   UNL A   1     -25.189   0.773  32.028  0.00  0.00    +0.020 C 
ATOM     38  C   UNL A   1     -25.336   0.684  33.544  0.00  0.00    +0.020 C 
ATOM     39  C   UNL A   1     -24.829  -0.715  33.905  0.00  0.00    +0.089 C 
ATOM     40  N   UNL A   1     -24.758  -1.481  32.646  0.00  0.00    -0.219 NA
ENDBRANCH  29  36
ENDBRANCH  24  29
ENDBRANCH   1  25
TORSDOF 11
