REMARK  Name = outputs/IAG933/test6/raw/output_8388_IAG933_linker_design_.xyz
REMARK  11 active torsions:
REMARK  status: ('A' for Active; 'I' for Inactive)
REMARK    1  A    between atoms: C_1  and  C_2
REMARK    2  A    between atoms: C_1  and  C_8
REMARK    3  A    between atoms: C_1  and  O_32
REMARK    4  A    between atoms: C_21  and  O_22
REMARK    5  A    between atoms: O_22  and  C_23
REMARK    6  A    between atoms: C_23  and  C_24
REMARK    7  A    between atoms: O_32  and  C_44
REMARK    8  A    between atoms: C_35  and  C_47
REMARK    9  A    between atoms: C_36  and  C_48
REMARK   10  A    between atoms: N_38  and  C_43
REMARK   11  A    between atoms: N_38  and  C_48
REMARK                            x       y       z     vdW  Elec       q    Type
REMARK                         _______ _______ _______ _____ _____    ______ ____
ROOT
ATOM      1  C   UNL A   1     -25.688   1.614  26.461  0.00  0.00    +0.018 C 
ATOM      2  C   UNL A   1     -26.250   2.920  26.395  0.00  0.00    +0.070 C 
ATOM      3  C   UNL A   1     -25.642   4.093  27.123  0.00  0.00    +0.222 C 
ATOM      4  N   UNL A   1     -25.614   5.252  26.449  0.00  0.00    -0.236 NA
ATOM      5  C   UNL A   1     -25.026   6.479  26.963  0.00  0.00    +0.155 C 
ATOM      6  O   UNL A   1     -25.143   3.966  28.243  0.00  0.00    -0.465 OA
ATOM      7  C   UNL A   1     -27.438   3.091  25.645  0.00  0.00    +0.106 C 
ATOM      8  N   UNL A   1     -28.075   2.089  25.003  0.00  0.00    -0.208 NA
ATOM      9  C   UNL A   1     -27.543   0.849  25.079  0.00  0.00    +0.253 C 
ATOM     10  C   UNL A   1     -26.354   0.576  25.777  0.00  0.00    +0.189 C 
ATOM     11  F   UNL A   1     -25.860  -0.681  25.795  0.00  0.00    -0.200 F 
ATOM     12  C   UNL A   1     -25.492   2.818  29.077  0.00  0.00    +0.171 C 
ATOM     13  O   UNL A   1     -22.937  -0.473  28.473  0.00  0.00    -0.195 OA
ATOM     14  O   UNL A   1     -25.224   5.575  30.068  0.00  0.00    -0.218 OA
ATOM     15  C   UNL A   1     -25.582   4.283  30.358  0.00  0.00    +0.206 C 
ATOM     16  C   UNL A   1     -24.603   1.925  28.846  0.00  0.00    +0.097 C 
ATOM     17  C   UNL A   1     -26.910   2.769  29.652  0.00  0.00    +0.066 C 
ATOM     18  C   UNL A   1     -23.525   1.542  29.752  0.00  0.00    +0.068 C 
ATOM     19  C   UNL A   1     -26.993   3.988  30.221  0.00  0.00    +0.116 C 
ATOM     20  C   UNL A   1     -24.045   0.508  28.606  0.00  0.00    +0.223 C 
ATOM     21  C   UNL A   1     -24.206   1.363  27.109  0.00  0.00    +0.066 C 
ENDROOT
BRANCH  19  24
ATOM     22  C   UNL A   1     -27.807   5.324  31.950  0.00  0.00    +0.448 C 
ATOM     23  O   UNL A   1     -26.692   5.565  32.488  0.00  0.00    -0.222 OA
ATOM     24  N   UNL A   1     -28.006   4.728  30.776  0.00  0.00    -0.235 N 
ATOM     25  O   UNL A   1     -28.697   5.872  32.683  0.00  0.00    -0.222 OA
BRANCH  24  26
ATOM     26  C   UNL A   1     -29.317   4.929  30.067  0.00  0.00    +0.161 C 
BRANCH  26  27
ATOM     27  C   UNL A   1     -29.170   6.083  29.128  0.00  0.00    +0.171 C 
ATOM     28  O   UNL A   1     -28.154   6.614  28.963  0.00  0.00    -0.294 OA
ATOM     29  C   UNL A   1     -30.345   6.608  28.317  0.00  0.00    +0.074 C 
ENDBRANCH  26  27
ENDBRANCH  24  26
ENDBRANCH  19  24
BRANCH  21  31
ATOM     30  O   UNL A   1     -21.295   1.930  27.685  0.00  0.00    -0.220 OA
ATOM     31  C   UNL A   1     -22.424   1.603  26.935  0.00  0.00    +0.187 C 
ENDBRANCH  21  31
BRANCH   9  32
ATOM     32  O   UNL A   1     -28.193  -0.208  24.477  0.00  0.00    -0.456 OA
BRANCH  32  33
ATOM     33  C   UNL A   1     -29.460   0.005  23.866  0.00  0.00    +0.243 C 
BRANCH  33  34
ATOM     34  C   UNL A   1     -30.065  -1.377  23.573  0.00  0.00    +0.229 C 
ATOM     35  O   UNL A   1     -30.729  -1.878  24.721  0.00  0.00    -0.216 OA
ENDBRANCH  33  34
ENDBRANCH  32  33
ENDBRANCH   9  32
BRANCH  20  36
ATOM     36  O   UNL A   1     -25.261  -0.248  28.998  0.00  0.00    -0.328 OA
BRANCH  36  37
ATOM     37  C   UNL A   1     -24.855  -1.012  30.143  0.00  0.00    +0.156 C 
BRANCH  37  38
ATOM     38  C   UNL A   1     -24.973  -2.505  29.788  0.00  0.00    +0.006 C 
ATOM     39  C   UNL A   1     -23.906  -3.173  29.146  0.00  0.00    -0.002 C 
ATOM     40  C   UNL A   1     -23.989  -4.549  28.853  0.00  0.00    -0.000 C 
ATOM     41  C   UNL A   1     -25.137  -5.280  29.205  0.00  0.00    -0.000 C 
ATOM     42  C   UNL A   1     -26.232  -4.611  29.784  0.00  0.00    -0.000 C 
ATOM     43  C   UNL A   1     -26.155  -3.232  30.065  0.00  0.00    -0.002 C 
ENDBRANCH  37  38
BRANCH  37  44
ATOM     44  C   UNL A   1     -25.387  -0.679  31.571  0.00  0.00    +0.104 C 
ATOM     45  C   UNL A   1     -25.189   0.773  32.028  0.00  0.00    +0.022 C 
ATOM     46  C   UNL A   1     -25.336   0.684  33.544  0.00  0.00    +0.020 C 
ATOM     47  C   UNL A   1     -24.829  -0.715  33.905  0.00  0.00    +0.089 C 
ATOM     48  N   UNL A   1     -24.758  -1.481  32.646  0.00  0.00    -0.217 NA
ENDBRANCH  37  44
ENDBRANCH  36  37
ENDBRANCH  20  36
TORSDOF 11
