MODEL 838
MODEL 1
REMARK VINA RESULT:    -8.260      0.000      0.000
REMARK INTER + INTRA:          -9.886
REMARK INTER:                  -9.708
REMARK INTRA:                  -0.177
REMARK UNBOUND:                -0.177
REMARK  Name = No_838-gen_results/8p0m/2024-11-27-11-27-31/
REMARK  3 active torsions:
REMARK  status: ('A' for Active; 'I' for Inactive)
REMARK    1  A    between atoms: C_6  and  C_14
REMARK    2  A    between atoms: N_15  and  C_17
REMARK    3  A    between atoms: C_20  and  C_26
REMARK                            x       y       z     vdW  Elec       q    Type
REMARK                         _______ _______ _______ _____ _____    ______ ____
ROOT
ATOM      1  C   UNL A   1     -10.936   1.505  34.482  0.00  0.00    +0.007 A 
ATOM      2  C   UNL A   1     -12.007   1.786  34.968  0.00  0.00    +0.028 A 
ATOM      3  C   UNL A   1     -12.119   2.125  36.312  0.00  0.00    +0.002 A 
ATOM      4  C   UNL A   1     -10.968   2.108  37.179  0.00  0.00    +0.000 A 
ATOM      5  C   UNL A   1      -9.774   1.749  36.539  0.00  0.00    +0.005 A 
ATOM      6  C   UNL A   1      -9.725   1.421  35.268  0.00  0.00    +0.056 A 
ATOM      7  C   UNL A   1     -13.300   1.828  34.233  0.00  0.00    +0.140 A 
ATOM      8  C   UNL A   1     -14.258   2.630  34.538  0.00  0.00    +0.033 A 
ATOM      9  C   UNL A   1     -14.390   3.049  35.998  0.00  0.00    +0.037 A 
ATOM     10  C   UNL A   1     -13.279   2.906  36.819  0.00  0.00    +0.004 A 
ATOM     11  C   UNL A   1     -15.607   3.685  36.485  0.00  0.00    +0.170 A 
ATOM     12  N   UNL A   1     -15.943   3.551  37.748  0.00  0.00    -0.226 NA
ATOM     13  N   UNL A   1     -16.524   4.136  35.662  0.00  0.00    -0.107 NA
ATOM     14  C   UNL A   1     -15.170   2.986  38.716  0.00  0.00    +0.100 A 
ATOM     15  C   UNL A   1     -13.764   2.746  38.336  0.00  0.00    +0.021 A 
ATOM     16  F   UNL A   1     -13.233   1.341  33.002  0.00  0.00    -0.204 F 
ENDROOT
BRANCH   6  17
ATOM     17  C   UNL A   1      -8.439   0.909  34.746  0.00  0.00    +0.269 C 
ATOM     18  N   UNL A   1      -7.814  -0.121  35.302  0.00  0.00    -0.175 NA
ATOM     19  O   UNL A   1      -7.825   1.501  33.816  0.00  0.00    -0.268 OA
BRANCH  18  20
ATOM     20  C   UNL A   1      -6.524  -0.654  35.008  0.00  0.00    +0.074 A 
ATOM     21  C   UNL A   1      -6.529  -1.737  34.400  0.00  0.00    +0.017 A 
ATOM     22  C   UNL A   1      -5.246  -2.319  34.156  0.00  0.00    +0.001 A 
ATOM     23  C   UNL A   1      -4.088  -1.697  34.676  0.00  0.00    -0.000 A 
ATOM     24  C   UNL A   1      -4.210  -0.502  35.372  0.00  0.00    +0.001 A 
ATOM     25  C   UNL A   1      -5.449  -0.006  35.589  0.00  0.00    +0.017 A 
BRANCH  23  26
ATOM     26  C   UNL A   1      -2.717  -2.248  34.432  0.00  0.00    -0.005 C 
ATOM     27  C   UNL A   1      -1.978  -1.737  33.739  0.00  0.00    -0.026 C 
ATOM     28  C   UNL A   1      -2.338  -0.485  32.953  0.00  0.00    +0.031 C 
ENDBRANCH  23  26
ENDBRANCH  18  20
ENDBRANCH   6  17
TORSDOF 3
ENDMDL
ENDMDL
