REMARK  Name = outputs/IAG933/test6/raw/output_8393_IAG933_linker_design_.xyz
REMARK  12 active torsions:
REMARK  status: ('A' for Active; 'I' for Inactive)
REMARK    1  A    between atoms: C_1  and  C_2
REMARK    2  A    between atoms: C_1  and  C_8
REMARK    3  A    between atoms: C_1  and  C_40
REMARK    4  A    between atoms: C_13  and  C_43
REMARK    5  A    between atoms: C_14  and  C_15
REMARK    6  A    between atoms: C_21  and  O_22
REMARK    7  A    between atoms: O_22  and  C_23
REMARK    8  A    between atoms: C_23  and  C_24
REMARK    9  A    between atoms: C_28  and  C_40
REMARK   10  A    between atoms: C_29  and  C_31
REMARK   11  A    between atoms: C_29  and  C_34
REMARK   12  A    between atoms: C_39  and  C_40
REMARK                            x       y       z     vdW  Elec       q    Type
REMARK                         _______ _______ _______ _____ _____    ______ ____
ROOT
ATOM      1  C   UNL A   1     -25.200  -0.142  28.973  0.00  0.00    +0.046 C 
ENDROOT
BRANCH   1   6
ATOM      2  C   UNL A   1     -28.232   1.542  30.499  0.00  0.00    +0.017 C 
ATOM      3  O   UNL A   1     -28.810  -0.322  27.615  0.00  0.00    -0.250 OA
ATOM      4  C   UNL A   1     -28.908   0.949  29.513  0.00  0.00    +0.110 C 
ATOM      5  C   UNL A   1     -26.904   1.853  30.171  0.00  0.00    +0.044 C 
ATOM      6  C   UNL A   1     -26.252   0.844  29.330  0.00  0.00    +0.169 C 
ATOM      7  C   UNL A   1     -28.291   0.146  28.677  0.00  0.00    +0.317 C 
ATOM      8  O   UNL A   1     -26.883  -0.171  29.019  0.00  0.00    -0.452 OA
BRANCH   2   9
ATOM      9  C   UNL A   1     -28.960   1.590  31.939  0.00  0.00    +0.033 C 
BRANCH   9  10
ATOM     10  C   UNL A   1     -29.070   2.898  32.835  0.00  0.00    +0.151 C 
ATOM     11  C   UNL A   1     -27.518   4.444  33.724  0.00  0.00    +0.329 C 
ATOM     12  O   UNL A   1     -27.442   3.412  34.726  0.00  0.00    -0.186 OA
ATOM     13  O   UNL A   1     -28.670   2.932  35.197  0.00  0.00    -0.215 OA
ATOM     14  O   UNL A   1     -28.202   3.994  32.533  0.00  0.00    -0.325 OA
ATOM     15  C   UNL A   1     -29.691   2.709  34.185  0.00  0.00    +0.212 C 
ENDBRANCH   9  10
ENDBRANCH   2   9
ENDBRANCH   1   6
BRANCH   1  16
ATOM     16  C   UNL A   1     -24.129   0.372  28.161  0.00  0.00    +0.008 C 
ATOM     17  C   UNL A   1     -22.742   0.052  28.481  0.00  0.00    +0.001 C 
ATOM     18  C   UNL A   1     -21.788   1.177  28.135  0.00  0.00    +0.000 C 
ATOM     19  C   UNL A   1     -24.331   1.417  27.160  0.00  0.00    +0.025 C 
ATOM     20  C   UNL A   1     -21.927   1.826  26.824  0.00  0.00    +0.000 C 
ATOM     21  C   UNL A   1     -23.231   1.554  26.102  0.00  0.00    +0.004 C 
BRANCH  19  22
ATOM     22  C   UNL A   1     -25.688   1.614  26.461  0.00  0.00    +0.016 C 
ATOM     23  C   UNL A   1     -26.250   2.920  26.395  0.00  0.00    +0.073 C 
ATOM     24  C   UNL A   1     -27.438   3.091  25.645  0.00  0.00    +0.106 C 
ATOM     25  N   UNL A   1     -28.075   2.089  25.003  0.00  0.00    -0.208 NA
ATOM     26  C   UNL A   1     -27.543   0.849  25.079  0.00  0.00    +0.253 C 
ATOM     27  C   UNL A   1     -26.354   0.576  25.777  0.00  0.00    +0.189 C 
ATOM     28  F   UNL A   1     -25.860  -0.681  25.795  0.00  0.00    -0.200 F 
BRANCH  23  29
ATOM     29  C   UNL A   1     -25.642   4.093  27.123  0.00  0.00    +0.266 C 
ATOM     30  N   UNL A   1     -25.614   5.252  26.449  0.00  0.00    -0.200 NA
ATOM     31  C   UNL A   1     -25.026   6.479  26.963  0.00  0.00    +0.139 C 
ATOM     32  O   UNL A   1     -25.143   3.966  28.243  0.00  0.00    -0.268 OA
ENDBRANCH  23  29
BRANCH  26  33
ATOM     33  O   UNL A   1     -28.193  -0.208  24.477  0.00  0.00    -0.456 OA
BRANCH  33  34
ATOM     34  C   UNL A   1     -29.460   0.005  23.866  0.00  0.00    +0.243 C 
BRANCH  34  35
ATOM     35  C   UNL A   1     -30.065  -1.377  23.573  0.00  0.00    +0.229 C 
ATOM     36  O   UNL A   1     -30.729  -1.878  24.721  0.00  0.00    -0.216 OA
ENDBRANCH  34  35
ENDBRANCH  33  34
ENDBRANCH  26  33
ENDBRANCH  19  22
ENDBRANCH   1  16
BRANCH   1  37
ATOM     37  C   UNL A   1     -24.855  -1.012  30.143  0.00  0.00    +0.042 C 
BRANCH  37  38
ATOM     38  C   UNL A   1     -24.973  -2.505  29.788  0.00  0.00    -0.021 C 
ATOM     39  C   UNL A   1     -23.906  -3.173  29.146  0.00  0.00    -0.004 C 
ATOM     40  C   UNL A   1     -23.989  -4.549  28.853  0.00  0.00    -0.000 C 
ATOM     41  C   UNL A   1     -25.137  -5.280  29.205  0.00  0.00    -0.000 C 
ATOM     42  C   UNL A   1     -26.232  -4.611  29.784  0.00  0.00    -0.000 C 
ATOM     43  C   UNL A   1     -26.155  -3.232  30.065  0.00  0.00    -0.004 C 
ENDBRANCH  37  38
BRANCH  37  44
ATOM     44  C   UNL A   1     -25.387  -0.679  31.571  0.00  0.00    +0.077 C 
ATOM     45  C   UNL A   1     -25.189   0.773  32.028  0.00  0.00    +0.019 C 
ATOM     46  C   UNL A   1     -25.336   0.684  33.544  0.00  0.00    +0.020 C 
ATOM     47  C   UNL A   1     -24.829  -0.715  33.905  0.00  0.00    +0.089 C 
ATOM     48  N   UNL A   1     -24.758  -1.481  32.646  0.00  0.00    -0.219 NA
ENDBRANCH  37  44
ENDBRANCH   1  37
TORSDOF 12
