REMARK  Name = outputs/IAG933/test6/raw/output_8398_IAG933_linker_design_.xyz
REMARK  9 active torsions:
REMARK  status: ('A' for Active; 'I' for Inactive)
REMARK    1  A    between atoms: C_1  and  C_2
REMARK    2  A    between atoms: C_13  and  C_37
REMARK    3  A    between atoms: C_14  and  C_15
REMARK    4  A    between atoms: C_21  and  O_22
REMARK    5  A    between atoms: O_22  and  C_23
REMARK    6  A    between atoms: C_23  and  C_24
REMARK    7  A    between atoms: C_28  and  C_37
REMARK    8  A    between atoms: C_29  and  N_35
REMARK    9  A    between atoms: C_29  and  C_37
REMARK                            x       y       z     vdW  Elec       q    Type
REMARK                         _______ _______ _______ _____ _____    ______ ____
ROOT
ATOM      1  C   UNL A   1     -24.855  -1.012  30.143  0.00  0.00    +0.084 C 
ATOM      2  C   UNL A   1     -25.387  -0.679  31.571  0.00  0.00    +0.082 C 
ATOM      3  C   UNL A   1     -25.189   0.773  32.028  0.00  0.00    +0.033 C 
ATOM      4  C   UNL A   1     -25.336   0.684  33.544  0.00  0.00    +0.021 C 
ATOM      5  C   UNL A   1     -24.829  -0.715  33.905  0.00  0.00    +0.089 C 
ATOM      6  N   UNL A   1     -24.758  -1.481  32.646  0.00  0.00    -0.219 NA
ATOM      7  C   UNL A   1     -24.063   1.079  28.293  0.00  0.00    +0.178 C 
ATOM      8  O   UNL A   1     -25.988  -0.394  28.203  0.00  0.00    -0.205 OA
ATOM      9  C   UNL A   1     -24.710   1.840  30.977  0.00  0.00    +0.063 C 
ATOM     10  N   UNL A   1     -24.862   1.474  29.436  0.00  0.00    -0.233 NA
ATOM     11  C   UNL A   1     -25.077   3.149  31.770  0.00  0.00    +0.018 C 
ATOM     12  C   UNL A   1     -24.838  -0.043  28.889  0.00  0.00    +0.210 C 
ENDROOT
BRANCH   1  13
ATOM     13  C   UNL A   1     -24.973  -2.505  29.788  0.00  0.00    -0.017 C 
ATOM     14  C   UNL A   1     -23.906  -3.173  29.146  0.00  0.00    -0.004 C 
ATOM     15  C   UNL A   1     -23.989  -4.549  28.853  0.00  0.00    -0.000 C 
ATOM     16  C   UNL A   1     -25.137  -5.280  29.205  0.00  0.00    -0.000 C 
ATOM     17  C   UNL A   1     -26.232  -4.611  29.784  0.00  0.00    -0.000 C 
ATOM     18  C   UNL A   1     -26.155  -3.232  30.065  0.00  0.00    -0.004 C 
ENDBRANCH   1  13
BRANCH   7  22
ATOM     19  C   UNL A   1     -21.351   1.101  28.195  0.00  0.00    +0.315 C 
ATOM     20  N   UNL A   1     -20.697   0.128  28.455  0.00  0.00    -0.098 NA
ATOM     21  F   UNL A   1     -20.592   2.090  27.909  0.00  0.00    -0.163 F 
ATOM     22  N   UNL A   1     -22.624   1.075  28.410  0.00  0.00    -0.177 NA
ENDBRANCH   7  22
BRANCH   7  23
ATOM     23  C   UNL A   1     -24.468   1.456  27.017  0.00  0.00    +0.126 C 
BRANCH  23  24
ATOM     24  C   UNL A   1     -25.688   1.614  26.461  0.00  0.00    +0.026 C 
ATOM     25  C   UNL A   1     -26.250   2.920  26.395  0.00  0.00    +0.073 C 
ATOM     26  C   UNL A   1     -27.438   3.091  25.645  0.00  0.00    +0.106 C 
ATOM     27  N   UNL A   1     -28.075   2.089  25.003  0.00  0.00    -0.208 NA
ATOM     28  C   UNL A   1     -27.543   0.849  25.079  0.00  0.00    +0.253 C 
ATOM     29  C   UNL A   1     -26.354   0.576  25.777  0.00  0.00    +0.190 C 
ATOM     30  F   UNL A   1     -25.860  -0.681  25.795  0.00  0.00    -0.200 F 
BRANCH  25  31
ATOM     31  C   UNL A   1     -25.642   4.093  27.123  0.00  0.00    +0.266 C 
ATOM     32  N   UNL A   1     -25.614   5.252  26.449  0.00  0.00    -0.200 NA
ATOM     33  C   UNL A   1     -25.026   6.479  26.963  0.00  0.00    +0.139 C 
ATOM     34  O   UNL A   1     -25.143   3.966  28.243  0.00  0.00    -0.268 OA
ENDBRANCH  25  31
BRANCH  28  35
ATOM     35  O   UNL A   1     -28.193  -0.208  24.477  0.00  0.00    -0.456 OA
BRANCH  35  36
ATOM     36  C   UNL A   1     -29.460   0.005  23.866  0.00  0.00    +0.243 C 
BRANCH  36  37
ATOM     37  C   UNL A   1     -30.065  -1.377  23.573  0.00  0.00    +0.229 C 
ATOM     38  O   UNL A   1     -30.729  -1.878  24.721  0.00  0.00    -0.216 OA
ENDBRANCH  36  37
ENDBRANCH  35  36
ENDBRANCH  28  35
ENDBRANCH  23  24
BRANCH  23  39
ATOM     39  C   UNL A   1     -23.494   1.792  26.055  0.00  0.00    +0.215 C 
ATOM     40  O   UNL A   1     -22.340   2.146  26.159  0.00  0.00    -0.288 OA
ENDBRANCH  23  39
ENDBRANCH   7  23
TORSDOF 9
