REMARK  Name = outputs/IAG933/test6/raw/output_8399_IAG933_linker_design_.xyz
REMARK  10 active torsions:
REMARK  status: ('A' for Active; 'I' for Inactive)
REMARK    1  A    between atoms: C_1  and  C_2
REMARK    2  A    between atoms: C_1  and  C_8
REMARK    3  A    between atoms: C_1  and  N_37
REMARK    4  A    between atoms: C_13  and  N_31
REMARK    5  A    between atoms: C_14  and  C_15
REMARK    6  A    between atoms: C_21  and  O_22
REMARK    7  A    between atoms: O_22  and  C_23
REMARK    8  A    between atoms: C_23  and  C_24
REMARK    9  A    between atoms: N_31  and  C_36
REMARK   10  A    between atoms: N_31  and  C_38
REMARK                            x       y       z     vdW  Elec       q    Type
REMARK                         _______ _______ _______ _____ _____    ______ ____
ROOT
ATOM      1  N   UNL A   1     -24.777   1.305  27.350  0.00  0.00    -0.254 N 
ENDROOT
BRANCH   1   9
ATOM      2  O   UNL A   1     -21.092   1.900  26.206  0.00  0.00    -0.444 OA
ATOM      3  C   UNL A   1     -22.600   0.705  28.035  0.00  0.00    -0.067 C 
ATOM      4  C   UNL A   1     -22.494   1.969  26.047  0.00  0.00    +0.363 C 
ATOM      5  C   UNL A   1     -21.817   0.164  28.790  0.00  0.00    +0.106 C 
ATOM      6  C   UNL A   1     -20.515   0.555  28.279  0.00  0.00    +0.100 C 
ATOM      7  N   UNL A   1     -22.086  -0.516  29.900  0.00  0.00    -0.124 NA
ATOM      8  O   UNL A   1     -22.853   2.608  25.067  0.00  0.00    -0.243 OA
ATOM      9  C   UNL A   1     -23.334   1.308  27.088  0.00  0.00    +0.166 C 
ATOM     10  C   UNL A   1     -20.648   1.445  27.291  0.00  0.00    +0.216 C 
ENDBRANCH   1   9
BRANCH   1  11
ATOM     11  C   UNL A   1     -25.688   1.614  26.461  0.00  0.00    +0.075 C 
ATOM     12  C   UNL A   1     -26.250   2.920  26.395  0.00  0.00    +0.070 C 
ATOM     13  C   UNL A   1     -27.438   3.091  25.645  0.00  0.00    +0.160 C 
ATOM     14  N   UNL A   1     -28.075   2.089  25.003  0.00  0.00    -0.234 NA
ATOM     15  C   UNL A   1     -27.543   0.849  25.079  0.00  0.00    +0.235 C 
ATOM     16  C   UNL A   1     -26.354   0.576  25.777  0.00  0.00    +0.271 C 
ATOM     17  F   UNL A   1     -25.860  -0.681  25.795  0.00  0.00    -0.221 F 
BRANCH  12  18
ATOM     18  C   UNL A   1     -25.642   4.093  27.123  0.00  0.00    +0.264 C 
ATOM     19  N   UNL A   1     -25.614   5.252  26.449  0.00  0.00    -0.200 NA
ATOM     20  C   UNL A   1     -25.026   6.479  26.963  0.00  0.00    +0.139 C 
ATOM     21  O   UNL A   1     -25.143   3.966  28.243  0.00  0.00    -0.269 OA
ENDBRANCH  12  18
BRANCH  15  22
ATOM     22  O   UNL A   1     -28.193  -0.208  24.477  0.00  0.00    -0.459 OA
BRANCH  22  23
ATOM     23  C   UNL A   1     -29.460   0.005  23.866  0.00  0.00    +0.242 C 
BRANCH  23  24
ATOM     24  C   UNL A   1     -30.065  -1.377  23.573  0.00  0.00    +0.229 C 
ATOM     25  O   UNL A   1     -30.729  -1.878  24.721  0.00  0.00    -0.216 OA
ENDBRANCH  23  24
ENDBRANCH  22  23
ENDBRANCH  15  22
ENDBRANCH   1  11
BRANCH   1  27
ATOM     26  N   UNL A   1     -25.111  -0.147  29.171  0.00  0.00    -0.251 N 
ATOM     27  C   UNL A   1     -25.285   1.017  28.611  0.00  0.00    +0.236 C 
ATOM     28  O   UNL A   1     -27.184  -0.709  28.416  0.00  0.00    -0.271 OA
ATOM     29  C   UNL A   1     -26.214  -0.127  28.543  0.00  0.00    +0.266 C 
BRANCH  26  30
ATOM     30  C   UNL A   1     -24.855  -1.012  30.143  0.00  0.00    +0.116 C 
BRANCH  30  31
ATOM     31  C   UNL A   1     -24.973  -2.505  29.788  0.00  0.00    -0.003 C 
ATOM     32  C   UNL A   1     -23.906  -3.173  29.146  0.00  0.00    -0.003 C 
ATOM     33  C   UNL A   1     -23.989  -4.549  28.853  0.00  0.00    -0.000 C 
ATOM     34  C   UNL A   1     -25.137  -5.280  29.205  0.00  0.00    -0.000 C 
ATOM     35  C   UNL A   1     -26.232  -4.611  29.784  0.00  0.00    -0.000 C 
ATOM     36  C   UNL A   1     -26.155  -3.232  30.065  0.00  0.00    -0.003 C 
ENDBRANCH  30  31
BRANCH  30  37
ATOM     37  C   UNL A   1     -25.387  -0.679  31.571  0.00  0.00    +0.095 C 
ATOM     38  C   UNL A   1     -25.189   0.773  32.028  0.00  0.00    +0.021 C 
ATOM     39  C   UNL A   1     -25.336   0.684  33.544  0.00  0.00    +0.020 C 
ATOM     40  C   UNL A   1     -24.829  -0.715  33.905  0.00  0.00    +0.089 C 
ATOM     41  N   UNL A   1     -24.758  -1.481  32.646  0.00  0.00    -0.217 NA
ENDBRANCH  30  37
ENDBRANCH  26  30
ENDBRANCH   1  27
TORSDOF 10
