MODEL 839
MODEL 1
REMARK VINA RESULT:    -4.343      0.000      0.000
REMARK INTER + INTRA:          -4.343
REMARK INTER:                  -4.343
REMARK INTRA:                   0.000
REMARK UNBOUND:                 0.000
REMARK  Name = No_839-gen_results/8p0m/2024-11-27-11-27-31/
REMARK  0 active torsions:
REMARK  status: ('A' for Active; 'I' for Inactive)
REMARK                            x       y       z     vdW  Elec       q    Type
REMARK                         _______ _______ _______ _____ _____    ______ ____
ROOT
ATOM      1  C   UNL A   1     -26.182  -4.683  29.678  0.00  0.00    +0.007 A 
ATOM      2  C   UNL A   1     -26.161  -3.630  29.700  0.00  0.00    +0.035 A 
ATOM      3  C   UNL A   1     -25.055  -5.350  29.006  0.00  0.00    +0.001 A 
ATOM      4  C   UNL A   1     -23.937  -4.596  28.544  0.00  0.00    +0.000 A 
ATOM      5  C   UNL A   1     -25.115  -2.630  29.353  0.00  0.00    +0.007 A 
ATOM      6  C   UNL A   1     -24.057  -3.210  28.718  0.00  0.00    +0.001 A 
ATOM      7 BR   UNL A   1     -27.664  -2.711  30.611  0.00  0.00    -0.049 Br
ENDROOT
TORSDOF 0
ENDMDL
ENDMDL
