MODEL 83
MODEL 1
REMARK VINA RESULT:    -5.395      0.000      0.000
REMARK INTER + INTRA:          -6.997
REMARK INTER:                  -6.657
REMARK INTRA:                  -0.340
REMARK UNBOUND:                -0.340
REMARK  Name = No_83-gen_results/8p0m/2024-11-27-11-27-31/
REMARK  4 active torsions:
REMARK  status: ('A' for Active; 'I' for Inactive)
REMARK    1  A    between atoms: C_5  and  O_7
REMARK    2  A    between atoms: O_7  and  C_8
REMARK    3  A    between atoms: C_8  and  C_9
REMARK    4  A    between atoms: C_8  and  C_14
REMARK                            x       y       z     vdW  Elec       q    Type
REMARK                         _______ _______ _______ _____ _____    ______ ____
ROOT
ATOM      1  C   UNL A   1     -28.762 -11.647  29.584  0.00  0.00    +0.051 A 
ATOM      2  C   UNL A   1     -29.411 -11.438  28.585  0.00  0.00    +0.088 A 
ATOM      3  C   UNL A   1     -30.429 -10.488  28.512  0.00  0.00    +0.151 A 
ATOM      4  C   UNL A   1     -30.812  -9.934  29.331  0.00  0.00    +0.034 A 
ATOM      5  C   UNL A   1     -29.227 -10.951  30.812  0.00  0.00    +0.141 A 
ATOM      6  C   UNL A   1     -30.225 -10.048  30.671  0.00  0.00    +0.039 A 
ATOM      7 CL   UNL A   1     -28.883 -12.325  27.140  0.00  0.00    -0.080 Cl
ATOM      8  F   UNL A   1     -31.007 -10.370  27.171  0.00  0.00    -0.203 F 
ENDROOT
BRANCH   5   9
ATOM      9  O   UNL A   1     -28.632 -11.105  32.000  0.00  0.00    -0.461 OA
BRANCH   9  10
ATOM     10  C   UNL A   1     -28.564 -12.311  32.580  0.00  0.00    +0.332 C 
BRANCH  10  11
ATOM     11  C   UNL A   1     -27.314 -12.492  33.157  0.00  0.00    +0.412 C 
ATOM     12  O   UNL A   1     -26.483 -12.706  32.494  0.00  0.00    -0.241 OA
ATOM     13  O   UNL A   1     -27.109 -12.403  34.419  0.00  0.00    -0.241 OA
ENDBRANCH  10  11
BRANCH  10  14
ATOM     14  C   UNL A   1     -29.612 -13.141  32.656  0.00  0.00    +0.263 C 
ATOM     15  O   UNL A   1     -29.654 -14.046  32.153  0.00  0.00    -0.284 OA
ENDBRANCH  10  14
ENDBRANCH   9  10
ENDBRANCH   5   9
TORSDOF 4
ENDMDL
ENDMDL
