REMARK  Name = No_84-gen_results/8p0m/2024-11-27-11-27-31/
REMARK  1 active torsions:
REMARK  status: ('A' for Active; 'I' for Inactive)
REMARK    1  A    between atoms: C_3  and  C_7
REMARK                            x       y       z     vdW  Elec       q    Type
REMARK                         _______ _______ _______ _____ _____    ______ ____
ROOT
ATOM      1  C   UNL A   1     -28.016  -0.814  28.878  0.00  0.00    +0.000 C 
ATOM      2  C   UNL A   1     -28.469  -0.785  29.829  0.00  0.00    +0.000 C 
ATOM      3  C   UNL A   1     -27.087   0.290  28.638  0.00  0.00    +0.000 C 
ATOM      4  C   UNL A   1     -26.024   0.364  29.253  0.00  0.00    +0.000 C 
ATOM      5  C   UNL A   1     -26.246   0.433  30.799  0.00  0.00    +0.000 C 
ATOM      6  C   UNL A   1     -27.708  -0.688  31.198  0.00  0.00    +0.000 C 
ENDROOT
BRANCH   3   7
ATOM      7  C   UNL A   1     -27.174   1.078  27.374  0.00  0.00    +0.000 C 
ATOM      8  C   UNL A   1     -26.719   2.226  27.330  0.00  0.00    +0.000 C 
ENDBRANCH   3   7
TORSDOF 1
