REMARK  Name = outputs/IAG933/test6/raw/output_8409_IAG933_linker_design_.xyz
REMARK  17 active torsions:
REMARK  status: ('A' for Active; 'I' for Inactive)
REMARK    1  A    between atoms: C_1  and  C_2
REMARK    2  A    between atoms: C_1  and  C_8
REMARK    3  A    between atoms: C_1  and  O_39
REMARK    4  A    between atoms: C_14  and  C_15
REMARK    5  A    between atoms: C_15  and  O_18
REMARK    6  A    between atoms: O_18  and  C_34
REMARK    7  A    between atoms: C_21  and  O_22
REMARK    8  A    between atoms: O_22  and  C_23
REMARK    9  A    between atoms: C_23  and  C_24
REMARK   10  A    between atoms: C_28  and  C_30
REMARK   11  A    between atoms: C_28  and  O_36
REMARK   12  A    between atoms: C_30  and  N_35
REMARK   13  A    between atoms: C_34  and  O_36
REMARK   14  A    between atoms: C_34  and  N_40
REMARK   15  A    between atoms: C_37  and  O_39
REMARK   16  A    between atoms: C_37  and  N_40
REMARK   17  A    between atoms: C_37  and  C_44
REMARK                            x       y       z     vdW  Elec       q    Type
REMARK                         _______ _______ _______ _____ _____    ______ ____
ROOT
ATOM      1  C   UNL A   1     -25.371   3.337  29.398  0.00  0.00    +0.380 C 
ENDROOT
BRANCH   1   2
ATOM      2  N   UNL A   1     -24.770   2.288  29.773  0.00  0.00    -0.120 NA
BRANCH   2   3
ATOM      3  C   UNL A   1     -24.162   1.197  29.094  0.00  0.00    +0.218 C 
BRANCH   3   9
ATOM      4  C   UNL A   1     -22.534   1.799  27.697  0.00  0.00    -0.001 C 
ATOM      5  C   UNL A   1     -20.803  -0.149  28.686  0.00  0.00    -0.000 C 
ATOM      6  C   UNL A   1     -20.428   0.694  27.669  0.00  0.00    -0.000 C 
ATOM      7  C   UNL A   1     -22.024   0.005  29.266  0.00  0.00    -0.001 C 
ATOM      8  C   UNL A   1     -21.261   1.685  27.161  0.00  0.00    -0.000 C 
ATOM      9  C   UNL A   1     -22.890   0.958  28.738  0.00  0.00    +0.022 C 
ENDBRANCH   3   9
BRANCH   3  10
ATOM     10  O   UNL A   1     -25.015   0.095  29.296  0.00  0.00    -0.332 OA
BRANCH  10  11
ATOM     11  C   UNL A   1     -24.855  -1.012  30.143  0.00  0.00    +0.155 C 
BRANCH  11  12
ATOM     12  C   UNL A   1     -24.973  -2.505  29.788  0.00  0.00    +0.006 C 
ATOM     13  C   UNL A   1     -23.906  -3.173  29.146  0.00  0.00    -0.002 C 
ATOM     14  C   UNL A   1     -23.989  -4.549  28.853  0.00  0.00    -0.000 C 
ATOM     15  C   UNL A   1     -25.137  -5.280  29.205  0.00  0.00    -0.000 C 
ATOM     16  C   UNL A   1     -26.232  -4.611  29.784  0.00  0.00    -0.000 C 
ATOM     17  C   UNL A   1     -26.155  -3.232  30.065  0.00  0.00    -0.002 C 
ENDBRANCH  11  12
BRANCH  11  18
ATOM     18  C   UNL A   1     -25.387  -0.679  31.571  0.00  0.00    +0.104 C 
ATOM     19  C   UNL A   1     -25.189   0.773  32.028  0.00  0.00    +0.022 C 
ATOM     20  C   UNL A   1     -25.336   0.684  33.544  0.00  0.00    +0.020 C 
ATOM     21  C   UNL A   1     -24.829  -0.715  33.905  0.00  0.00    +0.089 C 
ATOM     22  N   UNL A   1     -24.758  -1.481  32.646  0.00  0.00    -0.217 NA
ENDBRANCH  11  18
ENDBRANCH  10  11
ENDBRANCH   3  10
ENDBRANCH   2   3
ENDBRANCH   1   2
BRANCH   1  23
ATOM     23  O   UNL A   1     -26.287   3.918  30.172  0.00  0.00    -0.304 OA
BRANCH  23  24
ATOM     24  C   UNL A   1     -27.662   3.500  30.439  0.00  0.00    +0.171 C 
BRANCH  24  25
ATOM     25  C   UNL A   1     -28.341   2.944  29.188  0.00  0.00    +0.149 C 
BRANCH  25  28
ATOM     26  C   UNL A   1     -28.757   0.563  28.778  0.00  0.00    +0.359 C 
ATOM     27  O   UNL A   1     -29.472   0.458  27.783  0.00  0.00    -0.247 OA
ATOM     28  N   UNL A   1     -28.771   1.620  29.585  0.00  0.00    -0.183 NA
ATOM     29  N   UNL A   1     -27.940  -0.613  29.090  0.00  0.00    -0.068 NA
ENDBRANCH  25  28
ENDBRANCH  24  25
ENDBRANCH  23  24
ENDBRANCH   1  23
BRANCH   1  30
ATOM     30  O   UNL A   1     -25.143   3.966  28.243  0.00  0.00    -0.423 OA
BRANCH  30  31
ATOM     31  C   UNL A   1     -25.642   4.093  27.123  0.00  0.00    +0.225 C 
ATOM     32  N   UNL A   1     -25.614   5.252  26.449  0.00  0.00    -0.236 NA
ATOM     33  C   UNL A   1     -25.026   6.479  26.963  0.00  0.00    +0.155 C 
BRANCH  31  35
ATOM     34  C   UNL A   1     -25.688   1.614  26.461  0.00  0.00    +0.041 C 
ATOM     35  C   UNL A   1     -26.250   2.920  26.395  0.00  0.00    +0.074 C 
ATOM     36  C   UNL A   1     -27.438   3.091  25.645  0.00  0.00    +0.107 C 
ATOM     37  N   UNL A   1     -28.075   2.089  25.003  0.00  0.00    -0.208 NA
ATOM     38  C   UNL A   1     -27.543   0.849  25.079  0.00  0.00    +0.253 C 
ATOM     39  C   UNL A   1     -26.354   0.576  25.777  0.00  0.00    +0.193 C 
ATOM     40  F   UNL A   1     -25.860  -0.681  25.795  0.00  0.00    -0.199 F 
BRANCH  38  41
ATOM     41  O   UNL A   1     -28.193  -0.208  24.477  0.00  0.00    -0.456 OA
BRANCH  41  42
ATOM     42  C   UNL A   1     -29.460   0.005  23.866  0.00  0.00    +0.243 C 
BRANCH  42  43
ATOM     43  C   UNL A   1     -30.065  -1.377  23.573  0.00  0.00    +0.229 C 
ATOM     44  O   UNL A   1     -30.729  -1.878  24.721  0.00  0.00    -0.216 OA
ENDBRANCH  42  43
ENDBRANCH  41  42
ENDBRANCH  38  41
ENDBRANCH  31  35
ENDBRANCH  30  31
ENDBRANCH   1  30
TORSDOF 17
