REMARK  Name = outputs/IAG933/test6/raw/output_8417_IAG933_linker_design_.xyz
REMARK  13 active torsions:
REMARK  status: ('A' for Active; 'I' for Inactive)
REMARK    1  A    between atoms: C_1  and  C_2
REMARK    2  A    between atoms: C_1  and  C_8
REMARK    3  A    between atoms: C_1  and  C_30
REMARK    4  A    between atoms: C_13  and  C_37
REMARK    5  A    between atoms: C_14  and  C_15
REMARK    6  A    between atoms: C_21  and  O_22
REMARK    7  A    between atoms: O_22  and  C_23
REMARK    8  A    between atoms: C_23  and  C_24
REMARK    9  A    between atoms: N_28  and  C_37
REMARK   10  A    between atoms: C_29  and  CA_31
REMARK   11  A    between atoms: C_32  and  O_34
REMARK   12  A    between atoms: O_34  and  C_39
REMARK   13  A    between atoms: C_37  and  N_40
REMARK                            x       y       z     vdW  Elec       q    Type
REMARK                         _______ _______ _______ _____ _____    ______ ____
ROOT
ATOM      1  C   UNL A   1     -24.734   1.389  27.300  0.00  0.00    +0.218 C 
ENDROOT
BRANCH   1   2
ATOM      2  C   UNL A   1     -25.688   1.614  26.461  0.00  0.00    +0.056 C 
ATOM      3  C   UNL A   1     -26.250   2.920  26.395  0.00  0.00    +0.076 C 
ATOM      4  C   UNL A   1     -27.438   3.091  25.645  0.00  0.00    +0.106 C 
ATOM      5  N   UNL A   1     -28.075   2.089  25.003  0.00  0.00    -0.208 NA
ATOM      6  C   UNL A   1     -27.543   0.849  25.079  0.00  0.00    +0.253 C 
ATOM      7  C   UNL A   1     -26.354   0.576  25.777  0.00  0.00    +0.192 C 
ATOM      8  F   UNL A   1     -25.860  -0.681  25.795  0.00  0.00    -0.200 F 
BRANCH   3   9
ATOM      9  C   UNL A   1     -25.642   4.093  27.123  0.00  0.00    +0.266 C 
ATOM     10  N   UNL A   1     -25.614   5.252  26.449  0.00  0.00    -0.200 NA
ATOM     11  C   UNL A   1     -25.026   6.479  26.963  0.00  0.00    +0.139 C 
ATOM     12  O   UNL A   1     -25.143   3.966  28.243  0.00  0.00    -0.268 OA
ENDBRANCH   3   9
BRANCH   6  13
ATOM     13  O   UNL A   1     -28.193  -0.208  24.477  0.00  0.00    -0.456 OA
BRANCH  13  14
ATOM     14  C   UNL A   1     -29.460   0.005  23.866  0.00  0.00    +0.243 C 
BRANCH  14  15
ATOM     15  C   UNL A   1     -30.065  -1.377  23.573  0.00  0.00    +0.229 C 
ATOM     16  O   UNL A   1     -30.729  -1.878  24.721  0.00  0.00    -0.216 OA
ENDBRANCH  14  15
ENDBRANCH  13  14
ENDBRANCH   6  13
ENDBRANCH   1   2
BRANCH   1  17
ATOM     17  N   UNL A   1     -25.135   0.931  28.491  0.00  0.00    -0.180 NA
ATOM     18  C   UNL A   1     -25.677  -0.163  29.037  0.00  0.00    +0.248 C 
ATOM     19  O   UNL A   1     -26.867  -0.450  28.797  0.00  0.00    -0.273 OA
BRANCH  18  20
ATOM     20  C   UNL A   1     -24.855  -1.012  30.143  0.00  0.00    +0.116 C 
BRANCH  20  21
ATOM     21  C   UNL A   1     -24.973  -2.505  29.788  0.00  0.00    -0.013 C 
ATOM     22  C   UNL A   1     -23.906  -3.173  29.146  0.00  0.00    -0.004 C 
ATOM     23  C   UNL A   1     -23.989  -4.549  28.853  0.00  0.00    -0.000 C 
ATOM     24  C   UNL A   1     -25.137  -5.280  29.205  0.00  0.00    -0.000 C 
ATOM     25  C   UNL A   1     -26.232  -4.611  29.784  0.00  0.00    -0.000 C 
ATOM     26  C   UNL A   1     -26.155  -3.232  30.065  0.00  0.00    -0.004 C 
ENDBRANCH  20  21
BRANCH  20  27
ATOM     27  C   UNL A   1     -25.387  -0.679  31.571  0.00  0.00    +0.086 C 
ATOM     28  C   UNL A   1     -25.189   0.773  32.028  0.00  0.00    +0.020 C 
ATOM     29  C   UNL A   1     -25.336   0.684  33.544  0.00  0.00    +0.020 C 
ATOM     30  C   UNL A   1     -24.829  -0.715  33.905  0.00  0.00    +0.089 C 
ATOM     31  N   UNL A   1     -24.758  -1.481  32.646  0.00  0.00    -0.219 NA
ENDBRANCH  20  27
ENDBRANCH  18  20
ENDBRANCH   1  17
BRANCH   1  34
ATOM     32  C   UNL A   1     -22.927   2.092  25.873  0.00  0.00    +0.424 C 
ATOM     33  O   UNL A   1     -23.230   2.761  24.876  0.00  0.00    -0.225 OA
ATOM     34  N   UNL A   1     -23.776   1.754  26.889  0.00  0.00    -0.144 NA
BRANCH  32  35
ATOM     35  O   UNL A   1     -21.667   1.900  26.231  0.00  0.00    -0.418 OA
BRANCH  35  38
ATOM     36  CA  UNL A   1     -22.465   1.098  28.377  0.00  0.00    +0.167 C 
ATOM     37  N   UNL A   1     -21.355   1.404  28.787  0.00  0.00    -0.172 NA
ATOM     38  C   UNL A   1     -21.508   1.377  27.663  0.00  0.00    +0.265 C 
BRANCH  36  39
ATOM     39  C   UNL A   1     -22.452   0.257  29.471  0.00  0.00    +0.205 C 
ATOM     40  O   UNL A   1     -22.261  -0.303  30.299  0.00  0.00    -0.219 OA
ENDBRANCH  36  39
ENDBRANCH  35  38
ENDBRANCH  32  35
ENDBRANCH   1  34
TORSDOF 13
