REMARK  Name = outputs/IAG933/test6/raw/output_8418_IAG933_linker_design_.xyz
REMARK  13 active torsions:
REMARK  status: ('A' for Active; 'I' for Inactive)
REMARK    1  A    between atoms: C_1  and  C_2
REMARK    2  A    between atoms: C_1  and  C_8
REMARK    3  A    between atoms: C_1  and  N_41
REMARK    4  A    between atoms: C_13  and  N_35
REMARK    5  A    between atoms: C_14  and  C_15
REMARK    6  A    between atoms: C_21  and  O_22
REMARK    7  A    between atoms: O_22  and  C_23
REMARK    8  A    between atoms: C_23  and  C_24
REMARK    9  A    between atoms: C_28  and  C_29
REMARK   10  A    between atoms: C_28  and  O_37
REMARK   11  A    between atoms: C_32  and  N_36
REMARK   12  A    between atoms: C_32  and  C_44
REMARK   13  A    between atoms: C_42  and  C_44
REMARK                            x       y       z     vdW  Elec       q    Type
REMARK                         _______ _______ _______ _____ _____    ______ ____
ROOT
ATOM      1  C   UNL A   1     -23.599   1.288  27.563  0.00  0.00    +0.108 C 
ATOM      2  C   UNL A   1     -23.182   0.315  28.775  0.00  0.00    +0.096 C 
ATOM      3  C   UNL A   1     -26.609   1.537  29.297  0.00  0.00    +0.270 C 
ATOM      4  N   UNL A   1     -25.069   1.158  27.509  0.00  0.00    -0.215 NA
ATOM      5  N   UNL A   1     -27.127   2.610  29.741  0.00  0.00    -0.203 NA
ATOM      6  C   UNL A   1     -25.458   0.829  28.812  0.00  0.00    +0.307 C 
ATOM      7  O   UNL A   1     -26.799   0.276  28.814  0.00  0.00    -0.430 OA
ATOM      8  N   UNL A   1     -24.590  -0.200  29.317  0.00  0.00    -0.219 NA
ENDROOT
BRANCH   4   9
ATOM      9  C   UNL A   1     -25.688   1.614  26.461  0.00  0.00    +0.132 C 
ATOM     10  C   UNL A   1     -26.250   2.920  26.395  0.00  0.00    +0.070 C 
ATOM     11  C   UNL A   1     -27.438   3.091  25.645  0.00  0.00    +0.103 C 
ATOM     12  N   UNL A   1     -28.075   2.089  25.003  0.00  0.00    -0.212 NA
ATOM     13  C   UNL A   1     -27.543   0.849  25.079  0.00  0.00    +0.235 C 
ATOM     14  C   UNL A   1     -26.354   0.576  25.777  0.00  0.00    +0.255 C 
ATOM     15  F   UNL A   1     -25.860  -0.681  25.795  0.00  0.00    -0.225 F 
BRANCH  10  16
ATOM     16  C   UNL A   1     -25.642   4.093  27.123  0.00  0.00    +0.264 C 
ATOM     17  N   UNL A   1     -25.614   5.252  26.449  0.00  0.00    -0.200 NA
ATOM     18  C   UNL A   1     -25.026   6.479  26.963  0.00  0.00    +0.139 C 
ATOM     19  O   UNL A   1     -25.143   3.966  28.243  0.00  0.00    -0.269 OA
ENDBRANCH  10  16
BRANCH  13  20
ATOM     20  O   UNL A   1     -28.193  -0.208  24.477  0.00  0.00    -0.459 OA
BRANCH  20  21
ATOM     21  C   UNL A   1     -29.460   0.005  23.866  0.00  0.00    +0.242 C 
BRANCH  21  22
ATOM     22  C   UNL A   1     -30.065  -1.377  23.573  0.00  0.00    +0.229 C 
ATOM     23  O   UNL A   1     -30.729  -1.878  24.721  0.00  0.00    -0.216 OA
ENDBRANCH  21  22
ENDBRANCH  20  21
ENDBRANCH  13  20
ENDBRANCH   4   9
BRANCH   5  25
ATOM     24  O   UNL A   1     -29.163   1.925  28.817  0.00  0.00    -0.193 OA
ATOM     25  C   UNL A   1     -28.465   2.732  29.799  0.00  0.00    +0.287 C 
BRANCH  25  27
ATOM     26  O   UNL A   1     -28.097   5.079  29.531  0.00  0.00    -0.218 OA
ATOM     27  C   UNL A   1     -29.051   4.046  29.724  0.00  0.00    +0.206 C 
BRANCH  27  29
ATOM     28  C   UNL A   1     -31.032   5.472  29.644  0.00  0.00    +0.003 C 
ATOM     29  C   UNL A   1     -30.293   4.286  28.995  0.00  0.00    +0.038 C 
ENDBRANCH  27  29
ENDBRANCH  25  27
ENDBRANCH   5  25
BRANCH   8  30
ATOM     30  C   UNL A   1     -24.855  -1.012  30.143  0.00  0.00    +0.101 C 
BRANCH  30  31
ATOM     31  C   UNL A   1     -24.973  -2.505  29.788  0.00  0.00    -0.006 C 
ATOM     32  C   UNL A   1     -23.906  -3.173  29.146  0.00  0.00    -0.003 C 
ATOM     33  C   UNL A   1     -23.989  -4.549  28.853  0.00  0.00    -0.000 C 
ATOM     34  C   UNL A   1     -25.137  -5.280  29.205  0.00  0.00    -0.000 C 
ATOM     35  C   UNL A   1     -26.232  -4.611  29.784  0.00  0.00    -0.000 C 
ATOM     36  C   UNL A   1     -26.155  -3.232  30.065  0.00  0.00    -0.003 C 
ENDBRANCH  30  31
BRANCH  30  37
ATOM     37  C   UNL A   1     -25.387  -0.679  31.571  0.00  0.00    +0.092 C 
ATOM     38  C   UNL A   1     -25.189   0.773  32.028  0.00  0.00    +0.021 C 
ATOM     39  C   UNL A   1     -25.336   0.684  33.544  0.00  0.00    +0.020 C 
ATOM     40  C   UNL A   1     -24.829  -0.715  33.905  0.00  0.00    +0.089 C 
ATOM     41  N   UNL A   1     -24.758  -1.481  32.646  0.00  0.00    -0.218 NA
ENDBRANCH  30  37
ENDBRANCH   8  30
BRANCH   1  42
ATOM     42  C   UNL A   1     -22.763   1.993  26.730  0.00  0.00    +0.160 C 
BRANCH  42  44
ATOM     43  C   UNL A   1     -20.719   0.822  27.662  0.00  0.00    +0.174 C 
ATOM     44  O   UNL A   1     -21.504   1.842  27.294  0.00  0.00    -0.350 OA
ENDBRANCH  42  44
ENDBRANCH   1  42
TORSDOF 13
