MODEL 841
MODEL 1
REMARK VINA RESULT:    -5.004      0.000      0.000
REMARK INTER + INTRA:          -5.004
REMARK INTER:                  -5.004
REMARK INTRA:                   0.000
REMARK UNBOUND:                 0.000
REMARK  Name = No_841-gen_results/8p0m/2024-11-27-11-27-31/
REMARK  0 active torsions:
REMARK  status: ('A' for Active; 'I' for Inactive)
REMARK                            x       y       z     vdW  Elec       q    Type
REMARK                         _______ _______ _______ _____ _____    ______ ____
ROOT
ATOM      1  C   UNL A   1     -10.539  -9.294  19.130  0.00  0.00    +0.042 A 
ATOM      2  C   UNL A   1      -9.814  -9.092  20.077  0.00  0.00    +0.003 A 
ATOM      3  C   UNL A   1      -8.514  -9.584  20.104  0.00  0.00    +0.000 A 
ATOM      4  C   UNL A   1      -8.004 -10.389  19.025  0.00  0.00    +0.003 A 
ATOM      5  C   UNL A   1      -8.915 -10.593  17.981  0.00  0.00    +0.042 A 
ATOM      6  C   UNL A   1     -10.140 -10.120  18.011  0.00  0.00    +0.196 A 
ATOM      7  O   UNL A   1     -10.976 -10.396  16.973  0.00  0.00    -0.287 OA
ENDROOT
TORSDOF 0
ENDMDL
ENDMDL
