REMARK  Name = No_842-gen_results/8p0m/2024-11-27-11-27-31/
REMARK  0 active torsions:
REMARK  status: ('A' for Active; 'I' for Inactive)
REMARK                            x       y       z     vdW  Elec       q    Type
REMARK                         _______ _______ _______ _____ _____    ______ ____
ROOT
ATOM      1  C   UNL A   1     -28.016  -0.814  28.878  0.00  0.00    +0.054 C 
ATOM      2  C   UNL A   1     -27.064  -0.119  28.608  0.00  0.00    -0.003 A 
ATOM      3  C   UNL A   1     -27.001   0.691  27.491  0.00  0.00    -0.003 A 
ATOM      4  C   UNL A   1     -25.855   1.482  27.083  0.00  0.00    -0.001 A 
ATOM      5  C   UNL A   1     -24.690   1.453  27.881  0.00  0.00    -0.003 A 
ATOM      6  C   UNL A   1     -24.738   0.601  29.042  0.00  0.00    -0.006 A 
ATOM      7  C   UNL A   1     -25.823  -0.169  29.389  0.00  0.00    +0.061 A 
ATOM      8  C   UNL A   1     -29.245  -0.068  29.194  0.00  0.00    -0.021 C 
ATOM      9  C   UNL A   1     -29.594   0.118  30.425  0.00  0.00    -0.003 C 
ATOM     10  C   UNL A   1     -28.679  -0.014  31.431  0.00  0.00    +0.015 A 
ATOM     11  C   UNL A   1     -28.949  -0.082  32.675  0.00  0.00    +0.001 A 
ATOM     12  C   UNL A   1     -27.904  -0.302  33.651  0.00  0.00    +0.000 A 
ATOM     13  C   UNL A   1     -26.556  -0.417  33.256  0.00  0.00    +0.001 A 
ATOM     14  C   UNL A   1     -26.312  -0.387  31.932  0.00  0.00    +0.016 A 
ATOM     15  C   UNL A   1     -27.297  -0.177  31.024  0.00  0.00    +0.068 A 
ATOM     16  N   UNL A   1     -26.727  -0.093  29.895  0.00  0.00    -0.216 N 
ATOM     17  N   UNL A   1     -26.364   1.392  30.059  0.00  0.00    -0.126 NA
ATOM     18  C   UNL A   1     -25.331   1.894  30.633  0.00  0.00    +0.117 C 
ATOM     19  C   UNL A   1     -23.945   0.989  30.059  0.00  0.00    +0.048 C 
ENDROOT
TORSDOF 0
