REMARK  Name = outputs/IAG933/test6/raw/output_8420_IAG933_linker_design_.xyz
REMARK  11 active torsions:
REMARK  status: ('A' for Active; 'I' for Inactive)
REMARK    1  A    between atoms: C_1  and  C_2
REMARK    2  A    between atoms: C_1  and  C_8
REMARK    3  A    between atoms: C_1  and  N_32
REMARK    4  A    between atoms: C_13  and  C_33
REMARK    5  A    between atoms: C_14  and  C_15
REMARK    6  A    between atoms: C_21  and  O_22
REMARK    7  A    between atoms: O_22  and  C_23
REMARK    8  A    between atoms: C_23  and  C_24
REMARK    9  A    between atoms: C_28  and  O_39
REMARK   10  A    between atoms: C_34  and  C_36
REMARK   11  A    between atoms: C_35  and  C_38
REMARK                            x       y       z     vdW  Elec       q    Type
REMARK                         _______ _______ _______ _____ _____    ______ ____
ROOT
ATOM      1  C   UNL A   1     -22.717   1.048  27.987  0.00  0.00    +0.229 C 
ATOM      2  N   UNL A   1     -23.084   0.255  29.069  0.00  0.00    -0.143 NA
ATOM      3  N   UNL A   1     -24.416  -0.052  29.285  0.00  0.00    -0.196 N 
ATOM      4  C   UNL A   1     -24.722   1.223  27.316  0.00  0.00    +0.024 C 
ATOM      5  C   UNL A   1     -25.249   0.476  28.295  0.00  0.00    +0.134 C 
ATOM      6  C   UNL A   1     -23.491   1.384  27.057  0.00  0.00    +0.192 C 
ENDROOT
BRANCH   4   7
ATOM      7  C   UNL A   1     -25.688   1.614  26.461  0.00  0.00    +0.037 C 
ATOM      8  C   UNL A   1     -26.250   2.920  26.395  0.00  0.00    +0.076 C 
ATOM      9  C   UNL A   1     -27.438   3.091  25.645  0.00  0.00    +0.107 C 
ATOM     10  N   UNL A   1     -28.075   2.089  25.003  0.00  0.00    -0.208 NA
ATOM     11  C   UNL A   1     -27.543   0.849  25.079  0.00  0.00    +0.253 C 
ATOM     12  C   UNL A   1     -26.354   0.576  25.777  0.00  0.00    +0.193 C 
ATOM     13  F   UNL A   1     -25.860  -0.681  25.795  0.00  0.00    -0.199 F 
BRANCH   8  14
ATOM     14  C   UNL A   1     -25.642   4.093  27.123  0.00  0.00    +0.266 C 
ATOM     15  N   UNL A   1     -25.614   5.252  26.449  0.00  0.00    -0.200 NA
ATOM     16  C   UNL A   1     -25.026   6.479  26.963  0.00  0.00    +0.139 C 
ATOM     17  O   UNL A   1     -25.143   3.966  28.243  0.00  0.00    -0.268 OA
ENDBRANCH   8  14
BRANCH  11  18
ATOM     18  O   UNL A   1     -28.193  -0.208  24.477  0.00  0.00    -0.456 OA
BRANCH  18  19
ATOM     19  C   UNL A   1     -29.460   0.005  23.866  0.00  0.00    +0.243 C 
BRANCH  19  20
ATOM     20  C   UNL A   1     -30.065  -1.377  23.573  0.00  0.00    +0.229 C 
ATOM     21  O   UNL A   1     -30.729  -1.878  24.721  0.00  0.00    -0.216 OA
ENDBRANCH  19  20
ENDBRANCH  18  19
ENDBRANCH  11  18
ENDBRANCH   4   7
BRANCH   6  23
ATOM     22  F   UNL A   1     -21.941   2.473  25.568  0.00  0.00    -0.163 F 
ATOM     23  C   UNL A   1     -23.016   2.056  25.814  0.00  0.00    +0.323 C 
ATOM     24  O   UNL A   1     -23.801   2.327  24.956  0.00  0.00    -0.258 OA
ENDBRANCH   6  23
BRANCH   1  26
ATOM     25  C   UNL A   1     -20.477   0.882  28.370  0.00  0.00    +0.254 C 
ATOM     26  O   UNL A   1     -21.358   1.415  27.758  0.00  0.00    -0.458 OA
ENDBRANCH   1  26
BRANCH   5  27
ATOM     27  C   UNL A   1     -26.600  -0.018  28.424  0.00  0.00    +0.117 C 
ATOM     28  N   UNL A   1     -27.668  -0.319  28.389  0.00  0.00    -0.190 NA
ENDBRANCH   5  27
BRANCH   3  29
ATOM     29  C   UNL A   1     -24.855  -1.012  30.143  0.00  0.00    +0.135 C 
BRANCH  29  30
ATOM     30  C   UNL A   1     -24.973  -2.505  29.788  0.00  0.00    -0.001 C 
ATOM     31  C   UNL A   1     -23.906  -3.173  29.146  0.00  0.00    -0.003 C 
ATOM     32  C   UNL A   1     -23.989  -4.549  28.853  0.00  0.00    -0.000 C 
ATOM     33  C   UNL A   1     -25.137  -5.280  29.205  0.00  0.00    -0.000 C 
ATOM     34  C   UNL A   1     -26.232  -4.611  29.784  0.00  0.00    -0.000 C 
ATOM     35  C   UNL A   1     -26.155  -3.232  30.065  0.00  0.00    -0.003 C 
ENDBRANCH  29  30
BRANCH  29  36
ATOM     36  C   UNL A   1     -25.387  -0.679  31.571  0.00  0.00    +0.097 C 
ATOM     37  C   UNL A   1     -25.189   0.773  32.028  0.00  0.00    +0.021 C 
ATOM     38  C   UNL A   1     -25.336   0.684  33.544  0.00  0.00    +0.020 C 
ATOM     39  C   UNL A   1     -24.829  -0.715  33.905  0.00  0.00    +0.089 C 
ATOM     40  N   UNL A   1     -24.758  -1.481  32.646  0.00  0.00    -0.217 NA
ENDBRANCH  29  36
ENDBRANCH   3  29
TORSDOF 11
