REMARK  Name = outputs/IAG933/test6/raw/output_8427_IAG933_linker_design_.xyz
REMARK  12 active torsions:
REMARK  status: ('A' for Active; 'I' for Inactive)
REMARK    1  A    between atoms: C_1  and  C_2
REMARK    2  A    between atoms: C_1  and  C_8
REMARK    3  A    between atoms: C_1  and  C_34
REMARK    4  A    between atoms: C_13  and  N_28
REMARK    5  A    between atoms: C_14  and  C_15
REMARK    6  A    between atoms: C_21  and  O_22
REMARK    7  A    between atoms: O_22  and  C_23
REMARK    8  A    between atoms: C_23  and  C_24
REMARK    9  A    between atoms: O_30  and  C_37
REMARK   10  A    between atoms: C_34  and  N_36
REMARK   11  A    between atoms: C_34  and  C_40
REMARK   12  A    between atoms: C_35  and  C_37
REMARK                            x       y       z     vdW  Elec       q    Type
REMARK                         _______ _______ _______ _____ _____    ______ ____
ROOT
ATOM      1  N   UNL A   1     -24.703   1.326  27.216  0.00  0.00    -0.304 N 
ATOM      2 CL   UNL A   1     -22.879   2.568  25.265  0.00  0.00    -0.113 Cl
ATOM      3  C   UNL A   1     -22.655   1.111  29.035  0.00  0.00    +0.023 C 
ATOM      4  C   UNL A   1     -22.703   1.961  26.858  0.00  0.00    +0.100 C 
ATOM      5  C   UNL A   1     -23.580   0.772  27.088  0.00  0.00    +0.106 C 
ATOM      6  C   UNL A   1     -24.004   0.721  28.532  0.00  0.00    +0.094 C 
ATOM      7  C   UNL A   1     -21.907   1.780  28.076  0.00  0.00    +0.020 C 
ENDROOT
BRANCH   1   8
ATOM      8  C   UNL A   1     -25.688   1.614  26.461  0.00  0.00    +0.086 C 
ATOM      9  C   UNL A   1     -26.250   2.920  26.395  0.00  0.00    +0.090 C 
ATOM     10  C   UNL A   1     -27.438   3.091  25.645  0.00  0.00    +0.108 C 
ATOM     11  N   UNL A   1     -28.075   2.089  25.003  0.00  0.00    -0.208 NA
ATOM     12  C   UNL A   1     -27.543   0.849  25.079  0.00  0.00    +0.255 C 
ATOM     13  C   UNL A   1     -26.354   0.576  25.777  0.00  0.00    +0.206 C 
ATOM     14  F   UNL A   1     -25.860  -0.681  25.795  0.00  0.00    -0.198 F 
BRANCH   9  15
ATOM     15  C   UNL A   1     -25.642   4.093  27.123  0.00  0.00    +0.268 C 
ATOM     16  N   UNL A   1     -25.614   5.252  26.449  0.00  0.00    -0.200 NA
ATOM     17  C   UNL A   1     -25.026   6.479  26.963  0.00  0.00    +0.139 C 
ATOM     18  O   UNL A   1     -25.143   3.966  28.243  0.00  0.00    -0.268 OA
ENDBRANCH   9  15
BRANCH  12  19
ATOM     19  O   UNL A   1     -28.193  -0.208  24.477  0.00  0.00    -0.456 OA
BRANCH  19  20
ATOM     20  C   UNL A   1     -29.460   0.005  23.866  0.00  0.00    +0.243 C 
BRANCH  20  21
ATOM     21  C   UNL A   1     -30.065  -1.377  23.573  0.00  0.00    +0.229 C 
ATOM     22  O   UNL A   1     -30.729  -1.878  24.721  0.00  0.00    -0.216 OA
ENDBRANCH  20  21
ENDBRANCH  19  20
ENDBRANCH  12  19
ENDBRANCH   1   8
BRANCH   6  23
ATOM     23  C   UNL A   1     -25.055   0.068  29.099  0.00  0.00    +0.119 C 
BRANCH  23  26
ATOM     24  O   UNL A   1     -27.683   1.698  29.247  0.00  0.00    -0.271 OA
ATOM     25  C   UNL A   1     -27.487   0.485  29.123  0.00  0.00    +0.275 C 
ATOM     26  N   UNL A   1     -26.290   0.088  28.548  0.00  0.00    -0.203 NA
BRANCH  25  27
ATOM     27  C   UNL A   1     -28.348  -0.564  29.815  0.00  0.00    +0.271 C 
BRANCH  27  28
ATOM     28  O   UNL A   1     -29.542  -1.017  29.195  0.00  0.00    -0.179 OA
ATOM     29  O   UNL A   1     -29.832  -0.604  27.965  0.00  0.00    -0.034 OA
ENDBRANCH  27  28
ENDBRANCH  25  27
ENDBRANCH  23  26
BRANCH  23  30
ATOM     30  C   UNL A   1     -24.855  -1.012  30.143  0.00  0.00    +0.060 C 
BRANCH  30  31
ATOM     31  C   UNL A   1     -24.973  -2.505  29.788  0.00  0.00    -0.019 C 
ATOM     32  C   UNL A   1     -23.906  -3.173  29.146  0.00  0.00    -0.004 C 
ATOM     33  C   UNL A   1     -23.989  -4.549  28.853  0.00  0.00    -0.000 C 
ATOM     34  C   UNL A   1     -25.137  -5.280  29.205  0.00  0.00    -0.000 C 
ATOM     35  C   UNL A   1     -26.232  -4.611  29.784  0.00  0.00    -0.000 C 
ATOM     36  C   UNL A   1     -26.155  -3.232  30.065  0.00  0.00    -0.004 C 
ENDBRANCH  30  31
BRANCH  30  37
ATOM     37  C   UNL A   1     -25.387  -0.679  31.571  0.00  0.00    +0.079 C 
ATOM     38  C   UNL A   1     -25.189   0.773  32.028  0.00  0.00    +0.019 C 
ATOM     39  C   UNL A   1     -25.336   0.684  33.544  0.00  0.00    +0.020 C 
ATOM     40  C   UNL A   1     -24.829  -0.715  33.905  0.00  0.00    +0.089 C 
ATOM     41  N   UNL A   1     -24.758  -1.481  32.646  0.00  0.00    -0.219 NA
ENDBRANCH  30  37
ENDBRANCH  23  30
ENDBRANCH   6  23
TORSDOF 12
