REMARK  Name = No_843-gen_results/8p0m/2024-11-27-11-27-31/
REMARK  2 active torsions:
REMARK  status: ('A' for Active; 'I' for Inactive)
REMARK    1  A    between atoms: C_1  and  C_2
REMARK    2  A    between atoms: C_5  and  C_11
REMARK                            x       y       z     vdW  Elec       q    Type
REMARK                         _______ _______ _______ _____ _____    ______ ____
ROOT
ATOM      1  C   UNL A   1     -27.064  -0.119  28.608  0.00  0.00    +0.071 A 
ATOM      2  C   UNL A   1     -25.792  -0.430  29.076  0.00  0.00    +0.004 A 
ATOM      3  C   UNL A   1     -24.546   0.349  28.823  0.00  0.00    +0.006 A 
ATOM      4  C   UNL A   1     -24.659   1.420  27.888  0.00  0.00    +0.080 A 
ATOM      5  C   UNL A   1     -25.947   1.681  27.379  0.00  0.00    +0.006 A 
ATOM      6  C   UNL A   1     -27.044   0.974  27.687  0.00  0.00    +0.004 A 
ENDROOT
BRANCH   1   7
ATOM      7  C   UNL A   1     -28.016  -0.814  28.878  0.00  0.00    +0.419 C 
ATOM      8  F   UNL A   1     -27.917  -2.033  29.142  0.00  0.00    -0.166 F 
ATOM      9  F   UNL A   1     -28.982  -0.724  27.900  0.00  0.00    -0.166 F 
ATOM     10  F   UNL A   1     -28.614  -0.257  30.026  0.00  0.00    -0.166 F 
ENDBRANCH   1   7
BRANCH   4  11
ATOM     11  C   UNL A   1     -23.461   2.180  27.647  0.00  0.00    +0.388 C 
ATOM     12  O   UNL A   1     -23.501   3.217  27.057  0.00  0.00    -0.241 OA
ATOM     13  O   UNL A   1     -22.252   1.771  28.082  0.00  0.00    -0.241 OA
ENDBRANCH   4  11
TORSDOF 2
