REMARK  Name = outputs/IAG933/test6/raw/output_8432_IAG933_linker_design_.xyz
REMARK  9 active torsions:
REMARK  status: ('A' for Active; 'I' for Inactive)
REMARK    1  A    between atoms: C_1  and  C_2
REMARK    2  A    between atoms: C_1  and  C_8
REMARK    3  A    between atoms: C_1  and  N_40
REMARK    4  A    between atoms: C_13  and  N_39
REMARK    5  A    between atoms: C_14  and  C_15
REMARK    6  A    between atoms: C_21  and  O_22
REMARK    7  A    between atoms: O_22  and  C_23
REMARK    8  A    between atoms: C_23  and  C_24
REMARK    9  A    between atoms: C_28  and  C_29
REMARK                            x       y       z     vdW  Elec       q    Type
REMARK                         _______ _______ _______ _____ _____    ______ ____
ROOT
ATOM      1  C   UNL A   1     -21.936   0.518  28.568  0.00  0.00    +0.107 A 
ATOM      2  F   UNL A   1     -23.212   1.365  24.291  0.00  0.00    -0.145 F 
ATOM      3  F   UNL A   1     -22.924   3.223  25.022  0.00  0.00    -0.145 F 
ATOM      4  N   UNL A   1     -24.532   0.343  28.207  0.00  0.00    -0.148 NA
ATOM      5  C   UNL A   1     -23.820   1.068  27.449  0.00  0.00    +0.193 A 
ATOM      6  O   UNL A   1     -22.220  -0.485  30.678  0.00  0.00    -0.266 OA
ATOM      7  O   UNL A   1     -21.964   1.765  26.420  0.00  0.00    -0.412 OA
ATOM      8  C   UNL A   1     -23.139   1.995  25.578  0.00  0.00    +0.494 C 
ATOM      9  C   UNL A   1     -22.487   1.191  27.568  0.00  0.00    +0.182 A 
ATOM     10  N   UNL A   1     -24.270   1.644  26.453  0.00  0.00    -0.200 N 
ATOM     11  N   UNL A   1     -23.968  -0.250  29.293  0.00  0.00    -0.212 N 
ATOM     12  C   UNL A   1     -22.711  -0.116  29.550  0.00  0.00    +0.278 A 
ENDROOT
BRANCH  10  13
ATOM     13  C   UNL A   1     -25.688   1.614  26.461  0.00  0.00    +0.153 C 
ATOM     14  C   UNL A   1     -26.250   2.920  26.395  0.00  0.00    +0.073 C 
ATOM     15  C   UNL A   1     -27.438   3.091  25.645  0.00  0.00    +0.104 C 
ATOM     16  N   UNL A   1     -28.075   2.089  25.003  0.00  0.00    -0.212 NA
ATOM     17  C   UNL A   1     -27.543   0.849  25.079  0.00  0.00    +0.236 C 
ATOM     18  C   UNL A   1     -26.354   0.576  25.777  0.00  0.00    +0.258 C 
ATOM     19  F   UNL A   1     -25.860  -0.681  25.795  0.00  0.00    -0.225 F 
BRANCH  14  20
ATOM     20  C   UNL A   1     -25.642   4.093  27.123  0.00  0.00    +0.264 C 
ATOM     21  N   UNL A   1     -25.614   5.252  26.449  0.00  0.00    -0.200 NA
ATOM     22  C   UNL A   1     -25.026   6.479  26.963  0.00  0.00    +0.139 C 
ATOM     23  O   UNL A   1     -25.143   3.966  28.243  0.00  0.00    -0.269 OA
ENDBRANCH  14  20
BRANCH  17  24
ATOM     24  O   UNL A   1     -28.193  -0.208  24.477  0.00  0.00    -0.459 OA
BRANCH  24  25
ATOM     25  C   UNL A   1     -29.460   0.005  23.866  0.00  0.00    +0.242 C 
BRANCH  25  26
ATOM     26  C   UNL A   1     -30.065  -1.377  23.573  0.00  0.00    +0.229 C 
ATOM     27  O   UNL A   1     -30.729  -1.878  24.721  0.00  0.00    -0.216 OA
ENDBRANCH  25  26
ENDBRANCH  24  25
ENDBRANCH  17  24
ENDBRANCH  10  13
BRANCH   1  28
ATOM     28  C   UNL A   1     -20.548   0.386  28.529  0.00  0.00    +0.228 C 
ATOM     29  F   UNL A   1     -20.037   1.524  28.069  0.00  0.00    -0.229 F 
ENDBRANCH   1  28
BRANCH  11  30
ATOM     30  C   UNL A   1     -24.855  -1.012  30.143  0.00  0.00    +0.146 C 
BRANCH  30  31
ATOM     31  C   UNL A   1     -24.973  -2.505  29.788  0.00  0.00    +0.001 C 
ATOM     32  C   UNL A   1     -23.906  -3.173  29.146  0.00  0.00    -0.002 C 
ATOM     33  C   UNL A   1     -23.989  -4.549  28.853  0.00  0.00    -0.000 C 
ATOM     34  C   UNL A   1     -25.137  -5.280  29.205  0.00  0.00    -0.000 C 
ATOM     35  C   UNL A   1     -26.232  -4.611  29.784  0.00  0.00    -0.000 C 
ATOM     36  C   UNL A   1     -26.155  -3.232  30.065  0.00  0.00    -0.002 C 
ENDBRANCH  30  31
BRANCH  30  37
ATOM     37  C   UNL A   1     -25.387  -0.679  31.571  0.00  0.00    +0.100 C 
ATOM     38  C   UNL A   1     -25.189   0.773  32.028  0.00  0.00    +0.021 C 
ATOM     39  C   UNL A   1     -25.336   0.684  33.544  0.00  0.00    +0.020 C 
ATOM     40  C   UNL A   1     -24.829  -0.715  33.905  0.00  0.00    +0.089 C 
ATOM     41  N   UNL A   1     -24.758  -1.481  32.646  0.00  0.00    -0.217 NA
ENDBRANCH  30  37
ENDBRANCH  11  30
TORSDOF 9
