REMARK  Name = outputs/IAG933/test6/raw/output_8433_IAG933_linker_design_.xyz
REMARK  15 active torsions:
REMARK  status: ('A' for Active; 'I' for Inactive)
REMARK    1  A    between atoms: C_1  and  C_2
REMARK    2  A    between atoms: C_1  and  C_8
REMARK    3  A    between atoms: C_1  and  C_33
REMARK    4  A    between atoms: C_13  and  C_31
REMARK    5  A    between atoms: C_14  and  C_15
REMARK    6  A    between atoms: C_21  and  O_22
REMARK    7  A    between atoms: O_22  and  C_23
REMARK    8  A    between atoms: C_23  and  C_24
REMARK    9  A    between atoms: N_29  and  C_33
REMARK   10  A    between atoms: N_32  and  C_33
REMARK   11  A    between atoms: C_34  and  C_42
REMARK   12  A    between atoms: C_36  and  C_37
REMARK   13  A    between atoms: C_36  and  C_42
REMARK   14  A    between atoms: C_37  and  C_38
REMARK   15  A    between atoms: C_39  and  C_42
REMARK                            x       y       z     vdW  Elec       q    Type
REMARK                         _______ _______ _______ _____ _____    ______ ____
ROOT
ATOM      1  C   UNL A   1     -25.433  -0.080  29.163  0.00  0.00    +0.140 C 
ENDROOT
BRANCH   1   2
ATOM      2  N   UNL A   1     -24.429   0.574  28.448  0.00  0.00    -0.257 NA
ATOM      3  C   UNL A   1     -24.596   1.276  27.422  0.00  0.00    +0.084 C 
ATOM      4  C   UNL A   1     -23.236   1.771  26.821  0.00  0.00    +0.022 C 
ATOM      5  C   UNL A   1     -22.304   0.859  27.600  0.00  0.00    +0.018 C 
ATOM      6  C   UNL A   1     -22.939   0.329  28.898  0.00  0.00    +0.074 C 
ATOM      7  C   UNL A   1     -20.878   1.400  27.658  0.00  0.00    +0.002 C 
BRANCH   3   8
ATOM      8  C   UNL A   1     -25.688   1.614  26.461  0.00  0.00    +0.030 C 
ATOM      9  C   UNL A   1     -26.250   2.920  26.395  0.00  0.00    +0.074 C 
ATOM     10  C   UNL A   1     -27.438   3.091  25.645  0.00  0.00    +0.106 C 
ATOM     11  N   UNL A   1     -28.075   2.089  25.003  0.00  0.00    -0.208 NA
ATOM     12  C   UNL A   1     -27.543   0.849  25.079  0.00  0.00    +0.253 C 
ATOM     13  C   UNL A   1     -26.354   0.576  25.777  0.00  0.00    +0.190 C 
ATOM     14  F   UNL A   1     -25.860  -0.681  25.795  0.00  0.00    -0.200 F 
BRANCH   9  15
ATOM     15  C   UNL A   1     -25.642   4.093  27.123  0.00  0.00    +0.266 C 
ATOM     16  N   UNL A   1     -25.614   5.252  26.449  0.00  0.00    -0.200 NA
ATOM     17  C   UNL A   1     -25.026   6.479  26.963  0.00  0.00    +0.139 C 
ATOM     18  O   UNL A   1     -25.143   3.966  28.243  0.00  0.00    -0.268 OA
ENDBRANCH   9  15
BRANCH  12  19
ATOM     19  O   UNL A   1     -28.193  -0.208  24.477  0.00  0.00    -0.456 OA
BRANCH  19  20
ATOM     20  C   UNL A   1     -29.460   0.005  23.866  0.00  0.00    +0.243 C 
BRANCH  20  21
ATOM     21  C   UNL A   1     -30.065  -1.377  23.573  0.00  0.00    +0.229 C 
ATOM     22  O   UNL A   1     -30.729  -1.878  24.721  0.00  0.00    -0.216 OA
ENDBRANCH  20  21
ENDBRANCH  19  20
ENDBRANCH  12  19
ENDBRANCH   3   8
ENDBRANCH   1   2
BRANCH   1  24
ATOM     23  N   UNL A   1     -27.649  -0.448  28.303  0.00  0.00    -0.128 NA
ATOM     24  N   UNL A   1     -26.837  -0.002  29.103  0.00  0.00    -0.173 NA
ATOM     25  C   UNL A   1     -27.906  -0.052  29.351  0.00  0.00    +0.165 C 
BRANCH  25  26
ATOM     26  C   UNL A   1     -28.640   1.121  30.152  0.00  0.00    +0.035 C 
BRANCH  26  27
ATOM     27  C   UNL A   1     -28.188   2.335  29.290  0.00  0.00    +0.003 C 
ATOM     28  C   UNL A   1     -28.323   3.641  30.100  0.00  0.00    +0.000 C 
ATOM     29  C   UNL A   1     -29.166   2.756  28.219  0.00  0.00    +0.000 C 
ATOM     30  C   UNL A   1     -29.502   3.882  29.226  0.00  0.00    +0.000 C 
ENDBRANCH  26  27
BRANCH  26  31
ATOM     31  C   UNL A   1     -30.112   1.339  30.561  0.00  0.00    +0.014 C 
BRANCH  31  33
ATOM     32  C   UNL A   1     -30.855  -0.465  31.985  0.00  0.00    +0.012 C 
ATOM     33  C   UNL A   1     -30.790  -0.051  30.513  0.00  0.00    +0.103 C 
BRANCH  33  34
ATOM     34  C   UNL A   1     -30.172  -1.171  29.628  0.00  0.00    +0.364 C 
ATOM     35  O   UNL A   1     -30.488  -1.182  28.417  0.00  0.00    -0.246 OA
ATOM     36  O   UNL A   1     -29.346  -2.079  29.994  0.00  0.00    -0.246 OA
ENDBRANCH  33  34
ENDBRANCH  31  33
ENDBRANCH  26  31
ENDBRANCH  25  26
ENDBRANCH   1  24
BRANCH   1  37
ATOM     37  C   UNL A   1     -24.855  -1.012  30.143  0.00  0.00    +0.070 C 
BRANCH  37  38
ATOM     38  C   UNL A   1     -24.973  -2.505  29.788  0.00  0.00    -0.018 C 
ATOM     39  C   UNL A   1     -23.906  -3.173  29.146  0.00  0.00    -0.004 C 
ATOM     40  C   UNL A   1     -23.989  -4.549  28.853  0.00  0.00    -0.000 C 
ATOM     41  C   UNL A   1     -25.137  -5.280  29.205  0.00  0.00    -0.000 C 
ATOM     42  C   UNL A   1     -26.232  -4.611  29.784  0.00  0.00    -0.000 C 
ATOM     43  C   UNL A   1     -26.155  -3.232  30.065  0.00  0.00    -0.004 C 
ENDBRANCH  37  38
BRANCH  37  44
ATOM     44  C   UNL A   1     -25.387  -0.679  31.571  0.00  0.00    +0.080 C 
ATOM     45  C   UNL A   1     -25.189   0.773  32.028  0.00  0.00    +0.019 C 
ATOM     46  C   UNL A   1     -25.336   0.684  33.544  0.00  0.00    +0.020 C 
ATOM     47  C   UNL A   1     -24.829  -0.715  33.905  0.00  0.00    +0.089 C 
ATOM     48  N   UNL A   1     -24.758  -1.481  32.646  0.00  0.00    -0.219 NA
ENDBRANCH  37  44
ENDBRANCH   1  37
TORSDOF 15
