REMARK  Name = outputs/IAG933/test6/raw/output_8438_IAG933_linker_design_.xyz
REMARK  11 active torsions:
REMARK  status: ('A' for Active; 'I' for Inactive)
REMARK    1  A    between atoms: C_1  and  C_2
REMARK    2  A    between atoms: C_1  and  C_8
REMARK    3  A    between atoms: C_1  and  C_35
REMARK    4  A    between atoms: C_13  and  N_41
REMARK    5  A    between atoms: C_14  and  C_15
REMARK    6  A    between atoms: C_21  and  O_22
REMARK    7  A    between atoms: O_22  and  C_23
REMARK    8  A    between atoms: C_23  and  C_24
REMARK    9  A    between atoms: O_29  and  C_33
REMARK   10  A    between atoms: C_35  and  C_38
REMARK   11  A    between atoms: C_42  and  C_44
REMARK                            x       y       z     vdW  Elec       q    Type
REMARK                         _______ _______ _______ _____ _____    ______ ____
ROOT
ATOM      1  O   UNL A   1     -22.429   0.198  29.880  0.00  0.00    -0.325 OA
ATOM      2  C   UNL A   1     -20.930   0.635  28.284  0.00  0.00    +0.070 C 
ATOM      3  C   UNL A   1     -21.591   1.586  27.395  0.00  0.00    +0.121 C 
ATOM      4  C   UNL A   1     -23.103   1.128  29.060  0.00  0.00    +0.148 C 
ATOM      5  C   UNL A   1     -21.134  -0.277  29.128  0.00  0.00    +0.295 C 
ATOM      6  C   UNL A   1     -24.551   0.851  28.576  0.00  0.00    +0.132 C 
ATOM      7  C   UNL A   1     -22.439   1.548  27.716  0.00  0.00    +0.113 C 
ATOM      8  N   UNL A   1     -24.753   1.271  27.206  0.00  0.00    -0.296 N 
ATOM      9  C   UNL A   1     -23.458   1.681  26.956  0.00  0.00    +0.163 C 
ATOM     10  O   UNL A   1     -21.268  -1.645  28.905  0.00  0.00    -0.185 OA
ENDROOT
BRANCH   8  11
ATOM     11  C   UNL A   1     -25.688   1.614  26.461  0.00  0.00    +0.087 C 
ATOM     12  C   UNL A   1     -26.250   2.920  26.395  0.00  0.00    +0.090 C 
ATOM     13  C   UNL A   1     -27.438   3.091  25.645  0.00  0.00    +0.108 C 
ATOM     14  N   UNL A   1     -28.075   2.089  25.003  0.00  0.00    -0.208 NA
ATOM     15  C   UNL A   1     -27.543   0.849  25.079  0.00  0.00    +0.255 C 
ATOM     16  C   UNL A   1     -26.354   0.576  25.777  0.00  0.00    +0.206 C 
ATOM     17  F   UNL A   1     -25.860  -0.681  25.795  0.00  0.00    -0.198 F 
BRANCH  12  18
ATOM     18  C   UNL A   1     -25.642   4.093  27.123  0.00  0.00    +0.268 C 
ATOM     19  N   UNL A   1     -25.614   5.252  26.449  0.00  0.00    -0.200 NA
ATOM     20  C   UNL A   1     -25.026   6.479  26.963  0.00  0.00    +0.139 C 
ATOM     21  O   UNL A   1     -25.143   3.966  28.243  0.00  0.00    -0.268 OA
ENDBRANCH  12  18
BRANCH  15  22
ATOM     22  O   UNL A   1     -28.193  -0.208  24.477  0.00  0.00    -0.456 OA
BRANCH  22  23
ATOM     23  C   UNL A   1     -29.460   0.005  23.866  0.00  0.00    +0.243 C 
BRANCH  23  24
ATOM     24  C   UNL A   1     -30.065  -1.377  23.573  0.00  0.00    +0.229 C 
ATOM     25  O   UNL A   1     -30.729  -1.878  24.721  0.00  0.00    -0.216 OA
ENDBRANCH  23  24
ENDBRANCH  22  23
ENDBRANCH  15  22
ENDBRANCH   8  11
BRANCH   9  28
ATOM     26  O   UNL A   1     -24.085   3.069  25.200  0.00  0.00    -0.270 OA
ATOM     27  N   UNL A   1     -22.155   2.173  25.535  0.00  0.00    -0.086 NA
ATOM     28  C   UNL A   1     -23.231   2.340  25.842  0.00  0.00    +0.279 C 
ENDBRANCH   9  28
BRANCH   3  29
ATOM     29  O   UNL A   1     -20.245   1.998  26.758  0.00  0.00    -0.476 OA
ATOM     30  C   UNL A   1     -18.985   2.126  27.484  0.00  0.00    +0.252 C 
ENDBRANCH   3  29
BRANCH   6  32
ATOM     31  O   UNL A   1     -26.567  -0.281  28.739  0.00  0.00    -0.221 OA
ATOM     32  C   UNL A   1     -25.328  -0.119  29.043  0.00  0.00    +0.178 C 
BRANCH  32  33
ATOM     33  C   UNL A   1     -24.855  -1.012  30.143  0.00  0.00    +0.070 C 
BRANCH  33  34
ATOM     34  C   UNL A   1     -24.973  -2.505  29.788  0.00  0.00    -0.019 C 
ATOM     35  C   UNL A   1     -23.906  -3.173  29.146  0.00  0.00    -0.004 C 
ATOM     36  C   UNL A   1     -23.989  -4.549  28.853  0.00  0.00    -0.000 C 
ATOM     37  C   UNL A   1     -25.137  -5.280  29.205  0.00  0.00    -0.000 C 
ATOM     38  C   UNL A   1     -26.232  -4.611  29.784  0.00  0.00    -0.000 C 
ATOM     39  C   UNL A   1     -26.155  -3.232  30.065  0.00  0.00    -0.004 C 
ENDBRANCH  33  34
BRANCH  33  40
ATOM     40  C   UNL A   1     -25.387  -0.679  31.571  0.00  0.00    +0.079 C 
ATOM     41  C   UNL A   1     -25.189   0.773  32.028  0.00  0.00    +0.019 C 
ATOM     42  C   UNL A   1     -25.336   0.684  33.544  0.00  0.00    +0.020 C 
ATOM     43  C   UNL A   1     -24.829  -0.715  33.905  0.00  0.00    +0.089 C 
ATOM     44  N   UNL A   1     -24.758  -1.481  32.646  0.00  0.00    -0.219 NA
ENDBRANCH  33  40
ENDBRANCH  32  33
ENDBRANCH   6  32
TORSDOF 11
