REMARK  Name = outputs/IAG933/test6/raw/output_8439_IAG933_linker_design_.xyz
REMARK  11 active torsions:
REMARK  status: ('A' for Active; 'I' for Inactive)
REMARK    1  A    between atoms: C_1  and  C_2
REMARK    2  A    between atoms: C_1  and  C_8
REMARK    3  A    between atoms: C_1  and  O_33
REMARK    4  A    between atoms: C_21  and  O_22
REMARK    5  A    between atoms: O_22  and  C_23
REMARK    6  A    between atoms: C_23  and  C_24
REMARK    7  A    between atoms: C_28  and  C_36
REMARK    8  A    between atoms: C_28  and  C_45
REMARK    9  A    between atoms: C_31  and  O_33
REMARK   10  A    between atoms: C_32  and  C_34
REMARK   11  A    between atoms: C_41  and  C_42
REMARK                            x       y       z     vdW  Elec       q    Type
REMARK                         _______ _______ _______ _____ _____    ______ ____
ROOT
ATOM      1  C   UNL A   1     -25.688   1.614  26.461  0.00  0.00    +0.078 C 
ATOM      2  C   UNL A   1     -26.250   2.920  26.395  0.00  0.00    +0.053 C 
ATOM      3  C   UNL A   1     -25.642   4.093  27.123  0.00  0.00    +0.218 C 
ATOM      4  N   UNL A   1     -25.614   5.252  26.449  0.00  0.00    -0.236 NA
ATOM      5  C   UNL A   1     -25.026   6.479  26.963  0.00  0.00    +0.155 C 
ATOM      6  O   UNL A   1     -25.143   3.966  28.243  0.00  0.00    -0.464 OA
ATOM      7  C   UNL A   1     -27.438   3.091  25.645  0.00  0.00    +0.102 C 
ATOM      8  N   UNL A   1     -28.075   2.089  25.003  0.00  0.00    -0.212 NA
ATOM      9  C   UNL A   1     -27.543   0.849  25.079  0.00  0.00    +0.234 C 
ATOM     10  C   UNL A   1     -26.354   0.576  25.777  0.00  0.00    +0.240 C 
ATOM     11  F   UNL A   1     -25.860  -0.681  25.795  0.00  0.00    -0.227 F 
ATOM     12  C   UNL A   1     -24.474   0.481  28.151  0.00  0.00    +0.125 C 
ATOM     13  C   UNL A   1     -23.808   1.645  28.482  0.00  0.00    +0.075 C 
ATOM     14  C   UNL A   1     -24.614   2.830  29.096  0.00  0.00    +0.170 C 
ATOM     15  C   UNL A   1     -24.061   1.495  27.016  0.00  0.00    +0.099 C 
ENDROOT
BRANCH  15  17
ATOM     16  F   UNL A   1     -21.608   1.606  27.482  0.00  0.00    -0.198 F 
ATOM     17  C   UNL A   1     -22.507   1.843  26.626  0.00  0.00    +0.321 C 
ATOM     18  F   UNL A   1     -22.108   2.336  25.480  0.00  0.00    -0.198 F 
ENDBRANCH  15  17
BRANCH   9  19
ATOM     19  O   UNL A   1     -28.193  -0.208  24.477  0.00  0.00    -0.459 OA
BRANCH  19  20
ATOM     20  C   UNL A   1     -29.460   0.005  23.866  0.00  0.00    +0.242 C 
BRANCH  20  21
ATOM     21  C   UNL A   1     -30.065  -1.377  23.573  0.00  0.00    +0.229 C 
ATOM     22  O   UNL A   1     -30.729  -1.878  24.721  0.00  0.00    -0.216 OA
ENDBRANCH  20  21
ENDBRANCH  19  20
ENDBRANCH   9  19
BRANCH  14  23
ATOM     23  C   UNL A   1     -25.914   2.583  29.880  0.00  0.00    +0.046 C 
BRANCH  23  30
ATOM     24  N   UNL A   1     -26.979   4.786  32.440  0.00  0.00    -0.243 NA
ATOM     25  C   UNL A   1     -27.438   5.607  31.352  0.00  0.00    +0.097 C 
ATOM     26  C   UNL A   1     -25.818   4.360  32.139  0.00  0.00    +0.164 C 
ATOM     27  N   UNL A   1     -28.882   5.654  33.307  0.00  0.00    -0.223 NA
ATOM     28  C   UNL A   1     -28.220   6.552  32.231  0.00  0.00    +0.059 C 
ATOM     29  C   UNL A   1     -27.011   4.847  30.062  0.00  0.00    +0.024 C 
ATOM     30  C   UNL A   1     -25.909   3.946  30.630  0.00  0.00    +0.031 C 
ATOM     31  C   UNL A   1     -27.979   4.720  33.498  0.00  0.00    +0.188 C 
ATOM     32  C   UNL A   1     -28.023   7.819  32.293  0.00  0.00    +0.014 C 
BRANCH  26  33
ATOM     33  C   UNL A   1     -24.433   4.628  32.727  0.00  0.00    +0.379 C 
ATOM     34  O   UNL A   1     -23.481   4.096  32.119  0.00  0.00    -0.244 OA
ATOM     35  O   UNL A   1     -24.294   5.346  33.744  0.00  0.00    -0.244 OA
ENDBRANCH  26  33
ENDBRANCH  23  30
ENDBRANCH  14  23
BRANCH  12  36
ATOM     36  O   UNL A   1     -25.431  -0.168  29.143  0.00  0.00    -0.353 OA
BRANCH  36  37
ATOM     37  C   UNL A   1     -24.855  -1.012  30.143  0.00  0.00    +0.153 C 
BRANCH  37  38
ATOM     38  C   UNL A   1     -24.973  -2.505  29.788  0.00  0.00    +0.006 C 
ATOM     39  C   UNL A   1     -23.906  -3.173  29.146  0.00  0.00    -0.002 C 
ATOM     40  C   UNL A   1     -23.989  -4.549  28.853  0.00  0.00    -0.000 C 
ATOM     41  C   UNL A   1     -25.137  -5.280  29.205  0.00  0.00    -0.000 C 
ATOM     42  C   UNL A   1     -26.232  -4.611  29.784  0.00  0.00    -0.000 C 
ATOM     43  C   UNL A   1     -26.155  -3.232  30.065  0.00  0.00    -0.002 C 
ENDBRANCH  37  38
BRANCH  37  44
ATOM     44  C   UNL A   1     -25.387  -0.679  31.571  0.00  0.00    +0.104 C 
ATOM     45  C   UNL A   1     -25.189   0.773  32.028  0.00  0.00    +0.022 C 
ATOM     46  C   UNL A   1     -25.336   0.684  33.544  0.00  0.00    +0.020 C 
ATOM     47  C   UNL A   1     -24.829  -0.715  33.905  0.00  0.00    +0.089 C 
ATOM     48  N   UNL A   1     -24.758  -1.481  32.646  0.00  0.00    -0.217 NA
ENDBRANCH  37  44
ENDBRANCH  36  37
ENDBRANCH  12  36
TORSDOF 11
