MODEL 843
MODEL 1
REMARK VINA RESULT:    -5.848      0.000      0.000
REMARK INTER + INTRA:          -6.787
REMARK INTER:                  -6.532
REMARK INTRA:                  -0.255
REMARK UNBOUND:                -0.255
REMARK  Name = No_843-gen_results/8p0m/2024-11-27-11-27-31/
REMARK  2 active torsions:
REMARK  status: ('A' for Active; 'I' for Inactive)
REMARK    1  A    between atoms: C_1  and  C_2
REMARK    2  A    between atoms: C_5  and  C_11
REMARK                            x       y       z     vdW  Elec       q    Type
REMARK                         _______ _______ _______ _____ _____    ______ ____
ROOT
ATOM      1  C   UNL A   1     -29.666 -10.845  30.168  0.00  0.00    +0.071 A 
ATOM      2  C   UNL A   1     -28.639 -11.780  30.240  0.00  0.00    +0.004 A 
ATOM      3  C   UNL A   1     -27.846 -12.125  31.455  0.00  0.00    +0.006 A 
ATOM      4  C   UNL A   1     -28.070 -11.305  32.600  0.00  0.00    +0.080 A 
ATOM      5  C   UNL A   1     -29.075 -10.323  32.487  0.00  0.00    +0.006 A 
ATOM      6  C   UNL A   1     -29.794 -10.095  31.378  0.00  0.00    +0.004 A 
ENDROOT
BRANCH   1   7
ATOM      7  C   UNL A   1     -30.256 -10.644  29.132  0.00  0.00    +0.419 C 
ATOM      8  F   UNL A   1     -30.622  -9.505  28.766  0.00  0.00    -0.166 F 
ATOM      9  F   UNL A   1     -31.377 -11.440  29.043  0.00  0.00    -0.166 F 
ATOM     10  F   UNL A   1     -29.415 -11.089  28.092  0.00  0.00    -0.166 F 
ENDBRANCH   1   7
BRANCH   4  11
ATOM     11  C   UNL A   1     -27.314 -11.640  33.777  0.00  0.00    +0.388 C 
ATOM     12  O   UNL A   1     -26.820 -12.719  33.903  0.00  0.00    -0.241 OA
ATOM     13  O   UNL A   1     -27.116 -10.758  34.778  0.00  0.00    -0.241 OA
ENDBRANCH   4  11
TORSDOF 2
ENDMDL
ENDMDL
