REMARK  Name = outputs/IAG933/test6/raw/output_8440_IAG933_linker_design_.xyz
REMARK  13 active torsions:
REMARK  status: ('A' for Active; 'I' for Inactive)
REMARK    1  A    between atoms: C_1  and  C_2
REMARK    2  A    between atoms: C_1  and  C_8
REMARK    3  A    between atoms: C_1  and  C_34
REMARK    4  A    between atoms: C_14  and  C_15
REMARK    5  A    between atoms: C_15  and  O_18
REMARK    6  A    between atoms: O_18  and  C_43
REMARK    7  A    between atoms: C_21  and  O_22
REMARK    8  A    between atoms: O_22  and  C_23
REMARK    9  A    between atoms: C_23  and  C_24
REMARK   10  A    between atoms: N_28  and  C_32
REMARK   11  A    between atoms: N_28  and  C_43
REMARK   12  A    between atoms: N_36  and  C_43
REMARK   13  A    between atoms: C_39  and  C_42
REMARK                            x       y       z     vdW  Elec       q    Type
REMARK                         _______ _______ _______ _____ _____    ______ ____
ROOT
ATOM      1  N   UNL A   1     -26.814   2.890  29.279  0.00  0.00    -0.054 NA
ATOM      2  C   UNL A   1     -25.514   3.106  29.316  0.00  0.00    +0.353 C 
ENDROOT
BRANCH   2   4
ATOM      3  C   UNL A   1     -24.371   0.182  29.279  0.00  0.00    +0.089 C 
ATOM      4  N   UNL A   1     -24.476   1.659  29.096  0.00  0.00    -0.201 NA
ATOM      5  C   UNL A   1     -22.825   0.203  29.223  0.00  0.00    +0.133 C 
ATOM      6  N   UNL A   1     -22.390  -0.130  30.532  0.00  0.00    -0.129 NA
ATOM      7  C   UNL A   1     -23.039   1.483  28.576  0.00  0.00    +0.186 C 
BRANCH   7   9
ATOM      8  O   UNL A   1     -20.768   1.027  27.650  0.00  0.00    -0.244 OA
ATOM      9  C   UNL A   1     -21.882   1.683  27.511  0.00  0.00    +0.381 C 
ATOM     10  O   UNL A   1     -22.106   2.422  26.494  0.00  0.00    -0.244 OA
ENDBRANCH   7   9
BRANCH   3  11
ATOM     11  C   UNL A   1     -24.855  -1.012  30.143  0.00  0.00    +0.055 C 
BRANCH  11  12
ATOM     12  C   UNL A   1     -24.973  -2.505  29.788  0.00  0.00    -0.020 C 
ATOM     13  C   UNL A   1     -23.906  -3.173  29.146  0.00  0.00    -0.004 C 
ATOM     14  C   UNL A   1     -23.989  -4.549  28.853  0.00  0.00    -0.000 C 
ATOM     15  C   UNL A   1     -25.137  -5.280  29.205  0.00  0.00    -0.000 C 
ATOM     16  C   UNL A   1     -26.232  -4.611  29.784  0.00  0.00    -0.000 C 
ATOM     17  C   UNL A   1     -26.155  -3.232  30.065  0.00  0.00    -0.004 C 
ENDBRANCH  11  12
BRANCH  11  18
ATOM     18  C   UNL A   1     -25.387  -0.679  31.571  0.00  0.00    +0.078 C 
ATOM     19  C   UNL A   1     -25.189   0.773  32.028  0.00  0.00    +0.019 C 
ATOM     20  C   UNL A   1     -25.336   0.684  33.544  0.00  0.00    +0.020 C 
ATOM     21  C   UNL A   1     -24.829  -0.715  33.905  0.00  0.00    +0.089 C 
ATOM     22  N   UNL A   1     -24.758  -1.481  32.646  0.00  0.00    -0.219 NA
ENDBRANCH  11  18
ENDBRANCH   3  11
ENDBRANCH   2   4
BRANCH   2  23
ATOM     23  O   UNL A   1     -25.143   3.966  28.243  0.00  0.00    -0.421 OA
BRANCH  23  24
ATOM     24  C   UNL A   1     -25.642   4.093  27.123  0.00  0.00    +0.226 C 
ATOM     25  N   UNL A   1     -25.614   5.252  26.449  0.00  0.00    -0.236 NA
ATOM     26  C   UNL A   1     -25.026   6.479  26.963  0.00  0.00    +0.155 C 
BRANCH  24  28
ATOM     27  C   UNL A   1     -25.688   1.614  26.461  0.00  0.00    +0.041 C 
ATOM     28  C   UNL A   1     -26.250   2.920  26.395  0.00  0.00    +0.074 C 
ATOM     29  C   UNL A   1     -27.438   3.091  25.645  0.00  0.00    +0.107 C 
ATOM     30  N   UNL A   1     -28.075   2.089  25.003  0.00  0.00    -0.208 NA
ATOM     31  C   UNL A   1     -27.543   0.849  25.079  0.00  0.00    +0.253 C 
ATOM     32  C   UNL A   1     -26.354   0.576  25.777  0.00  0.00    +0.193 C 
ATOM     33  F   UNL A   1     -25.860  -0.681  25.795  0.00  0.00    -0.199 F 
BRANCH  31  34
ATOM     34  O   UNL A   1     -28.193  -0.208  24.477  0.00  0.00    -0.456 OA
BRANCH  34  35
ATOM     35  C   UNL A   1     -29.460   0.005  23.866  0.00  0.00    +0.243 C 
BRANCH  35  36
ATOM     36  C   UNL A   1     -30.065  -1.377  23.573  0.00  0.00    +0.229 C 
ATOM     37  O   UNL A   1     -30.729  -1.878  24.721  0.00  0.00    -0.216 OA
ENDBRANCH  35  36
ENDBRANCH  34  35
ENDBRANCH  31  34
ENDBRANCH  24  28
ENDBRANCH  23  24
ENDBRANCH   2  23
BRANCH   2  38
ATOM     38  N   UNL A   1     -25.100   3.514  30.658  0.00  0.00    -0.173 NA
BRANCH  38  40
ATOM     39  C   UNL A   1     -25.277   5.912  34.046  0.00  0.00    +0.000 C 
ATOM     40  C   UNL A   1     -25.353   4.426  31.652  0.00  0.00    +0.071 C 
ATOM     41  C   UNL A   1     -26.158   4.071  32.753  0.00  0.00    +0.016 C 
ATOM     42  C   UNL A   1     -24.669   5.665  31.710  0.00  0.00    +0.016 C 
ATOM     43  C   UNL A   1     -26.030   4.739  33.978  0.00  0.00    +0.001 C 
ATOM     44  C   UNL A   1     -24.608   6.368  32.912  0.00  0.00    +0.001 C 
ENDBRANCH  38  40
ENDBRANCH   2  38
TORSDOF 13
