REMARK  Name = outputs/IAG933/test6/raw/output_8442_IAG933_linker_design_.xyz
REMARK  4 active torsions:
REMARK  status: ('A' for Active; 'I' for Inactive)
REMARK    1  A    between atoms: C_1  and  C_2
REMARK    2  A    between atoms: C_1  and  C_8
REMARK    3  A    between atoms: C_1  and  C_34
REMARK    4  A    between atoms: C_14  and  C_15
REMARK                            x       y       z     vdW  Elec       q    Type
REMARK                         _______ _______ _______ _____ _____    ______ ____
ROOT
ATOM      1  C   UNL A   1     -25.688   1.614  26.461  0.00  0.00    +0.034 C 
ATOM      2  C   UNL A   1     -26.250   2.920  26.395  0.00  0.00    +0.074 C 
ATOM      3  C   UNL A   1     -27.438   3.091  25.645  0.00  0.00    +0.106 C 
ATOM      4  N   UNL A   1     -28.075   2.089  25.003  0.00  0.00    -0.208 NA
ATOM      5  C   UNL A   1     -27.543   0.849  25.079  0.00  0.00    +0.253 C 
ATOM      6  O   UNL A   1     -28.193  -0.208  24.477  0.00  0.00    -0.456 OA
ATOM      7  C   UNL A   1     -29.460   0.005  23.866  0.00  0.00    +0.239 C 
ATOM      8  C   UNL A   1     -30.065  -1.377  23.573  0.00  0.00    +0.190 C 
ATOM      9  O   UNL A   1     -30.729  -1.878  24.721  0.00  0.00    -0.339 OA
ATOM     10  C   UNL A   1     -26.354   0.576  25.777  0.00  0.00    +0.191 C 
ATOM     11  F   UNL A   1     -25.860  -0.681  25.795  0.00  0.00    -0.200 F 
ATOM     12  C   UNL A   1     -30.347   0.847  28.619  0.00  0.00    +0.044 C 
ATOM     13  O   UNL A   1     -31.374  -0.836  26.958  0.00  0.00    -0.451 OA
ATOM     14  C   UNL A   1     -30.646  -0.595  28.255  0.00  0.00    +0.169 C 
ATOM     15  C   UNL A   1     -29.485   0.419  29.835  0.00  0.00    +0.007 C 
ATOM     16  C   UNL A   1     -29.354  -0.980  29.262  0.00  0.00    +0.040 C 
ATOM     17  C   UNL A   1     -28.076   0.989  29.902  0.00  0.00    +0.002 C 
ATOM     18  C   UNL A   1     -25.454  -0.119  29.058  0.00  0.00    +0.065 C 
ATOM     19  C   UNL A   1     -23.387   0.686  28.006  0.00  0.00    +0.192 C 
ATOM     20  C   UNL A   1     -27.953  -0.948  28.600  0.00  0.00    +0.005 C 
ATOM     21  C   UNL A   1     -27.086   0.123  29.264  0.00  0.00    +0.015 C 
ATOM     22  O   UNL A   1     -22.641  -0.141  28.875  0.00  0.00    -0.207 OA
ATOM     23  C   UNL A   1     -31.912  -2.172  26.785  0.00  0.00    +0.347 C 
ATOM     24  C   UNL A   1     -22.037   1.595  27.834  0.00  0.00    +0.052 C 
ATOM     25  O   UNL A   1     -32.272  -2.652  28.141  0.00  0.00    -0.247 OA
ATOM     26  C   UNL A   1     -31.639  -2.300  25.247  0.00  0.00    +0.252 C 
ATOM     27  N   UNL A   1     -24.601   0.986  28.611  0.00  0.00    -0.245 NA
ATOM     28  C   UNL A   1     -24.494   1.328  27.224  0.00  0.00    +0.127 C 
ENDROOT
BRANCH   2  29
ATOM     29  C   UNL A   1     -25.642   4.093  27.123  0.00  0.00    +0.266 C 
ATOM     30  N   UNL A   1     -25.614   5.252  26.449  0.00  0.00    -0.200 NA
ATOM     31  C   UNL A   1     -25.026   6.479  26.963  0.00  0.00    +0.139 C 
ATOM     32  O   UNL A   1     -25.143   3.966  28.243  0.00  0.00    -0.268 OA
ENDBRANCH   2  29
BRANCH  18  33
ATOM     33  C   UNL A   1     -24.855  -1.012  30.143  0.00  0.00    +0.053 C 
BRANCH  33  34
ATOM     34  C   UNL A   1     -24.973  -2.505  29.788  0.00  0.00    -0.020 C 
ATOM     35  C   UNL A   1     -23.906  -3.173  29.146  0.00  0.00    -0.004 C 
ATOM     36  C   UNL A   1     -23.989  -4.549  28.853  0.00  0.00    -0.000 C 
ATOM     37  C   UNL A   1     -25.137  -5.280  29.205  0.00  0.00    -0.000 C 
ATOM     38  C   UNL A   1     -26.232  -4.611  29.784  0.00  0.00    -0.000 C 
ATOM     39  C   UNL A   1     -26.155  -3.232  30.065  0.00  0.00    -0.004 C 
ENDBRANCH  33  34
BRANCH  33  40
ATOM     40  C   UNL A   1     -25.387  -0.679  31.571  0.00  0.00    +0.078 C 
ATOM     41  C   UNL A   1     -25.189   0.773  32.028  0.00  0.00    +0.019 C 
ATOM     42  C   UNL A   1     -25.336   0.684  33.544  0.00  0.00    +0.020 C 
ATOM     43  C   UNL A   1     -24.829  -0.715  33.905  0.00  0.00    +0.089 C 
ATOM     44  N   UNL A   1     -24.758  -1.481  32.646  0.00  0.00    -0.219 NA
ENDBRANCH  33  40
ENDBRANCH  18  33
TORSDOF 4
