REMARK  Name = outputs/IAG933/test6/raw/output_8443_IAG933_linker_design_.xyz
REMARK  12 active torsions:
REMARK  status: ('A' for Active; 'I' for Inactive)
REMARK    1  A    between atoms: C_1  and  C_2
REMARK    2  A    between atoms: C_1  and  C_8
REMARK    3  A    between atoms: C_1  and  N_40
REMARK    4  A    between atoms: C_13  and  C_39
REMARK    5  A    between atoms: C_14  and  C_15
REMARK    6  A    between atoms: C_21  and  O_22
REMARK    7  A    between atoms: O_22  and  C_23
REMARK    8  A    between atoms: C_23  and  C_24
REMARK    9  A    between atoms: N_28  and  C_34
REMARK   10  A    between atoms: C_30  and  O_31
REMARK   11  A    between atoms: C_32  and  C_33
REMARK   12  A    between atoms: C_33  and  N_40
REMARK                            x       y       z     vdW  Elec       q    Type
REMARK                         _______ _______ _______ _____ _____    ______ ____
ROOT
ATOM      1  N   UNL A   1     -27.637  -0.435  29.138  0.00  0.00    -0.188 NA
ATOM      2  O   UNL A   1     -26.927   1.622  29.190  0.00  0.00    -0.251 OA
ATOM      3  C   UNL A   1     -26.646   0.485  29.197  0.00  0.00    +0.324 C 
ATOM      4  N   UNL A   1     -25.117   0.176  29.303  0.00  0.00    -0.256 N 
ENDROOT
BRANCH   1   6
ATOM      5  C   UNL A   1     -30.198  -1.229  29.058  0.00  0.00    +0.111 C 
ATOM      6  C   UNL A   1     -29.058   0.003  29.256  0.00  0.00    +0.122 C 
ATOM      7  C   UNL A   1     -29.496   0.626  27.966  0.00  0.00    +0.027 C 
ATOM      8  C   UNL A   1     -29.364  -2.589  29.328  0.00  0.00    +0.031 C 
ATOM      9  C   UNL A   1     -30.752  -0.211  27.936  0.00  0.00    +0.031 C 
BRANCH   5  10
ATOM     10  O   UNL A   1     -31.408  -2.051  29.596  0.00  0.00    -0.354 OA
ATOM     11  C   UNL A   1     -32.426  -2.394  28.649  0.00  0.00    +0.174 C 
ENDBRANCH   5  10
ENDBRANCH   1   6
BRANCH   4  12
ATOM     12  C   UNL A   1     -24.855  -1.012  30.143  0.00  0.00    +0.116 C 
BRANCH  12  13
ATOM     13  C   UNL A   1     -24.973  -2.505  29.788  0.00  0.00    -0.003 C 
ATOM     14  C   UNL A   1     -23.906  -3.173  29.146  0.00  0.00    -0.003 C 
ATOM     15  C   UNL A   1     -23.989  -4.549  28.853  0.00  0.00    -0.000 C 
ATOM     16  C   UNL A   1     -25.137  -5.280  29.205  0.00  0.00    -0.000 C 
ATOM     17  C   UNL A   1     -26.232  -4.611  29.784  0.00  0.00    -0.000 C 
ATOM     18  C   UNL A   1     -26.155  -3.232  30.065  0.00  0.00    -0.003 C 
ENDBRANCH  12  13
BRANCH  12  19
ATOM     19  C   UNL A   1     -25.387  -0.679  31.571  0.00  0.00    +0.095 C 
ATOM     20  C   UNL A   1     -25.189   0.773  32.028  0.00  0.00    +0.021 C 
ATOM     21  C   UNL A   1     -25.336   0.684  33.544  0.00  0.00    +0.020 C 
ATOM     22  C   UNL A   1     -24.829  -0.715  33.905  0.00  0.00    +0.089 C 
ATOM     23  N   UNL A   1     -24.758  -1.481  32.646  0.00  0.00    -0.217 NA
ENDBRANCH  12  19
ENDBRANCH   4  12
BRANCH   4  24
ATOM     24  C   UNL A   1     -23.708   0.759  29.100  0.00  0.00    +0.117 C 
BRANCH  24  25
ATOM     25  C   UNL A   1     -23.153   1.187  27.814  0.00  0.00    -0.028 C 
ATOM     26  C   UNL A   1     -24.209   1.563  26.686  0.00  0.00    -0.025 C 
ATOM     27  C   UNL A   1     -21.650   1.579  27.590  0.00  0.00    +0.028 C 
BRANCH  26  28
ATOM     28  C   UNL A   1     -25.688   1.614  26.461  0.00  0.00    +0.091 C 
ATOM     29  C   UNL A   1     -26.250   2.920  26.395  0.00  0.00    +0.059 C 
ATOM     30  C   UNL A   1     -27.438   3.091  25.645  0.00  0.00    +0.102 C 
ATOM     31  N   UNL A   1     -28.075   2.089  25.003  0.00  0.00    -0.212 NA
ATOM     32  C   UNL A   1     -27.543   0.849  25.079  0.00  0.00    +0.234 C 
ATOM     33  C   UNL A   1     -26.354   0.576  25.777  0.00  0.00    +0.244 C 
ATOM     34  F   UNL A   1     -25.860  -0.681  25.795  0.00  0.00    -0.227 F 
BRANCH  29  35
ATOM     35  C   UNL A   1     -25.642   4.093  27.123  0.00  0.00    +0.263 C 
ATOM     36  N   UNL A   1     -25.614   5.252  26.449  0.00  0.00    -0.200 NA
ATOM     37  C   UNL A   1     -25.026   6.479  26.963  0.00  0.00    +0.139 C 
ATOM     38  O   UNL A   1     -25.143   3.966  28.243  0.00  0.00    -0.269 OA
ENDBRANCH  29  35
BRANCH  32  39
ATOM     39  O   UNL A   1     -28.193  -0.208  24.477  0.00  0.00    -0.459 OA
BRANCH  39  40
ATOM     40  C   UNL A   1     -29.460   0.005  23.866  0.00  0.00    +0.242 C 
BRANCH  40  41
ATOM     41  C   UNL A   1     -30.065  -1.377  23.573  0.00  0.00    +0.229 C 
ATOM     42  O   UNL A   1     -30.729  -1.878  24.721  0.00  0.00    -0.216 OA
ENDBRANCH  40  41
ENDBRANCH  39  40
ENDBRANCH  32  39
ENDBRANCH  26  28
ENDBRANCH  24  25
ENDBRANCH   4  24
TORSDOF 12
