REMARK  Name = outputs/IAG933/test6/raw/output_8445_IAG933_linker_design_.xyz
REMARK  8 active torsions:
REMARK  status: ('A' for Active; 'I' for Inactive)
REMARK    1  A    between atoms: C_1  and  C_2
REMARK    2  A    between atoms: C_13  and  C_37
REMARK    3  A    between atoms: C_14  and  C_15
REMARK    4  A    between atoms: C_21  and  O_22
REMARK    5  A    between atoms: O_22  and  C_23
REMARK    6  A    between atoms: C_23  and  C_24
REMARK    7  A    between atoms: O_32  and  C_39
REMARK    8  A    between atoms: C_39  and  C_40
REMARK                            x       y       z     vdW  Elec       q    Type
REMARK                         _______ _______ _______ _____ _____    ______ ____
ROOT
ATOM      1  C   UNL A   1     -24.855  -1.012  30.143  0.00  0.00    +0.078 C 
ATOM      2  C   UNL A   1     -25.387  -0.679  31.571  0.00  0.00    +0.081 C 
ATOM      3  C   UNL A   1     -25.189   0.773  32.028  0.00  0.00    +0.029 C 
ATOM      4  C   UNL A   1     -25.336   0.684  33.544  0.00  0.00    +0.021 C 
ATOM      5  C   UNL A   1     -24.829  -0.715  33.905  0.00  0.00    +0.089 C 
ATOM      6  N   UNL A   1     -24.758  -1.481  32.646  0.00  0.00    -0.219 NA
ATOM      7  C   UNL A   1     -23.765   1.608  29.975  0.00  0.00    +0.015 C 
ATOM      8  O   UNL A   1     -24.864   0.501  28.285  0.00  0.00    -0.478 OA
ATOM      9  C   UNL A   1     -23.968  -0.189  29.107  0.00  0.00    +0.171 C 
ATOM     10  C   UNL A   1     -22.750   0.681  29.322  0.00  0.00    +0.043 C 
ATOM     11  C   UNL A   1     -20.277   0.263  28.314  0.00  0.00    +0.143 C 
ATOM     12  O   UNL A   1     -20.793   1.469  27.633  0.00  0.00    -0.348 OA
ATOM     13  C   UNL A   1     -23.247   1.620  26.799  0.00  0.00    +0.099 C 
ATOM     14  C   UNL A   1     -24.524   1.267  27.214  0.00  0.00    +0.150 C 
ATOM     15  C   UNL A   1     -22.005   1.417  27.198  0.00  0.00    +0.183 C 
ATOM     16  C   UNL A   1     -24.353   1.750  31.455  0.00  0.00    +0.101 C 
ATOM     17 CL   UNL A   1     -23.011   2.473  25.471  0.00  0.00    -0.081 Cl
ATOM     18  C   UNL A   1     -21.425  -0.203  29.142  0.00  0.00    +0.036 C 
ENDROOT
BRANCH  14  19
ATOM     19  C   UNL A   1     -25.688   1.614  26.461  0.00  0.00    +0.073 C 
ATOM     20  C   UNL A   1     -26.250   2.920  26.395  0.00  0.00    +0.080 C 
ATOM     21  C   UNL A   1     -27.438   3.091  25.645  0.00  0.00    +0.107 C 
ATOM     22  N   UNL A   1     -28.075   2.089  25.003  0.00  0.00    -0.208 NA
ATOM     23  C   UNL A   1     -27.543   0.849  25.079  0.00  0.00    +0.253 C 
ATOM     24  C   UNL A   1     -26.354   0.576  25.777  0.00  0.00    +0.196 C 
ATOM     25  F   UNL A   1     -25.860  -0.681  25.795  0.00  0.00    -0.199 F 
BRANCH  20  26
ATOM     26  C   UNL A   1     -25.642   4.093  27.123  0.00  0.00    +0.267 C 
ATOM     27  N   UNL A   1     -25.614   5.252  26.449  0.00  0.00    -0.200 NA
ATOM     28  C   UNL A   1     -25.026   6.479  26.963  0.00  0.00    +0.139 C 
ATOM     29  O   UNL A   1     -25.143   3.966  28.243  0.00  0.00    -0.268 OA
ENDBRANCH  20  26
BRANCH  23  30
ATOM     30  O   UNL A   1     -28.193  -0.208  24.477  0.00  0.00    -0.456 OA
BRANCH  30  31
ATOM     31  C   UNL A   1     -29.460   0.005  23.866  0.00  0.00    +0.243 C 
BRANCH  31  32
ATOM     32  C   UNL A   1     -30.065  -1.377  23.573  0.00  0.00    +0.229 C 
ATOM     33  O   UNL A   1     -30.729  -1.878  24.721  0.00  0.00    -0.216 OA
ENDBRANCH  31  32
ENDBRANCH  30  31
ENDBRANCH  23  30
ENDBRANCH  14  19
BRANCH   1  34
ATOM     34  C   UNL A   1     -24.973  -2.505  29.788  0.00  0.00    -0.018 C 
ATOM     35  C   UNL A   1     -23.906  -3.173  29.146  0.00  0.00    -0.004 C 
ATOM     36  C   UNL A   1     -23.989  -4.549  28.853  0.00  0.00    -0.000 C 
ATOM     37  C   UNL A   1     -25.137  -5.280  29.205  0.00  0.00    -0.000 C 
ATOM     38  C   UNL A   1     -26.232  -4.611  29.784  0.00  0.00    -0.000 C 
ATOM     39  C   UNL A   1     -26.155  -3.232  30.065  0.00  0.00    -0.004 C 
ENDBRANCH   1  34
BRANCH  16  40
ATOM     40  C   UNL A   1     -24.393   3.311  31.541  0.00  0.00    +0.317 C 
ATOM     41  O   UNL A   1     -23.387   3.925  31.856  0.00  0.00    -0.250 OA
BRANCH  40  42
ATOM     42  O   UNL A   1     -25.521   3.818  31.337  0.00  0.00    -0.444 OA
ATOM     43  C   UNL A   1     -25.696   5.140  31.880  0.00  0.00    +0.256 C 
ENDBRANCH  40  42
ENDBRANCH  16  40
TORSDOF 8
