REMARK  Name = outputs/IAG933/test6/raw/output_8446_IAG933_linker_design_.xyz
REMARK  12 active torsions:
REMARK  status: ('A' for Active; 'I' for Inactive)
REMARK    1  A    between atoms: C_1  and  C_2
REMARK    2  A    between atoms: C_1  and  C_8
REMARK    3  A    between atoms: C_1  and  C_39
REMARK    4  A    between atoms: C_13  and  C_36
REMARK    5  A    between atoms: C_14  and  C_15
REMARK    6  A    between atoms: C_21  and  O_22
REMARK    7  A    between atoms: O_22  and  C_23
REMARK    8  A    between atoms: C_23  and  C_24
REMARK    9  A    between atoms: C_31  and  C_40
REMARK   10  A    between atoms: N_33  and  C_39
REMARK   11  A    between atoms: C_35  and  C_37
REMARK   12  A    between atoms: C_35  and  C_40
REMARK                            x       y       z     vdW  Elec       q    Type
REMARK                         _______ _______ _______ _____ _____    ______ ____
ROOT
ATOM      1  C   UNL A   1     -21.653   1.769  27.242  0.00  0.00    +0.375 C 
ATOM      2  O   UNL A   1     -22.032   1.964  25.940  0.00  0.00    -0.439 OA
ATOM      3  C   UNL A   1     -22.929   0.610  28.985  0.00  0.00    +0.155 C 
ATOM      4  N   UNL A   1     -22.367   1.369  28.034  0.00  0.00    -0.207 NA
ATOM      5  C   UNL A   1     -24.335   1.347  26.874  0.00  0.00    +0.090 C 
ATOM      6  F   UNL A   1     -20.660   1.938  27.762  0.00  0.00    -0.143 F 
ATOM      7  C   UNL A   1     -25.324  -0.029  28.952  0.00  0.00    +0.051 C 
ATOM      8  C   UNL A   1     -24.283   0.684  28.259  0.00  0.00    -0.001 C 
ATOM      9  C   UNL A   1     -23.348   1.662  25.849  0.00  0.00    +0.218 C 
ENDROOT
BRANCH   5  10
ATOM     10  C   UNL A   1     -25.688   1.614  26.461  0.00  0.00    +0.023 C 
ATOM     11  C   UNL A   1     -26.250   2.920  26.395  0.00  0.00    +0.073 C 
ATOM     12  C   UNL A   1     -27.438   3.091  25.645  0.00  0.00    +0.106 C 
ATOM     13  N   UNL A   1     -28.075   2.089  25.003  0.00  0.00    -0.208 NA
ATOM     14  C   UNL A   1     -27.543   0.849  25.079  0.00  0.00    +0.253 C 
ATOM     15  C   UNL A   1     -26.354   0.576  25.777  0.00  0.00    +0.190 C 
ATOM     16  F   UNL A   1     -25.860  -0.681  25.795  0.00  0.00    -0.200 F 
BRANCH  11  17
ATOM     17  C   UNL A   1     -25.642   4.093  27.123  0.00  0.00    +0.266 C 
ATOM     18  N   UNL A   1     -25.614   5.252  26.449  0.00  0.00    -0.200 NA
ATOM     19  C   UNL A   1     -25.026   6.479  26.963  0.00  0.00    +0.139 C 
ATOM     20  O   UNL A   1     -25.143   3.966  28.243  0.00  0.00    -0.268 OA
ENDBRANCH  11  17
BRANCH  14  21
ATOM     21  O   UNL A   1     -28.193  -0.208  24.477  0.00  0.00    -0.456 OA
BRANCH  21  22
ATOM     22  C   UNL A   1     -29.460   0.005  23.866  0.00  0.00    +0.243 C 
BRANCH  22  23
ATOM     23  C   UNL A   1     -30.065  -1.377  23.573  0.00  0.00    +0.229 C 
ATOM     24  O   UNL A   1     -30.729  -1.878  24.721  0.00  0.00    -0.216 OA
ENDBRANCH  22  23
ENDBRANCH  21  22
ENDBRANCH  14  21
ENDBRANCH   5  10
BRANCH   7  27
ATOM     25  O   UNL A   1     -28.953  -0.524  28.674  0.00  0.00    -0.273 OA
ATOM     26  C   UNL A   1     -27.937   0.182  28.737  0.00  0.00    +0.245 C 
ATOM     27  N   UNL A   1     -26.678  -0.424  28.752  0.00  0.00    -0.184 NA
BRANCH  26  28
ATOM     28  C   UNL A   1     -27.902   1.656  29.101  0.00  0.00    +0.087 C 
BRANCH  28  29
ATOM     29  C   UNL A   1     -28.759   2.702  29.361  0.00  0.00    +0.010 C 
BRANCH  29  30
ATOM     30  C   UNL A   1     -30.103   3.164  28.788  0.00  0.00    +0.001 C 
ATOM     31  C   UNL A   1     -31.367   2.237  28.918  0.00  0.00    +0.000 C 
ATOM     32  C   UNL A   1     -30.297   1.994  27.891  0.00  0.00    +0.000 C 
ENDBRANCH  29  30
ENDBRANCH  28  29
ENDBRANCH  26  28
ENDBRANCH   7  27
BRANCH   7  33
ATOM     33  C   UNL A   1     -24.855  -1.012  30.143  0.00  0.00    +0.075 C 
BRANCH  33  34
ATOM     34  C   UNL A   1     -24.973  -2.505  29.788  0.00  0.00    -0.016 C 
ATOM     35  C   UNL A   1     -23.906  -3.173  29.146  0.00  0.00    -0.004 C 
ATOM     36  C   UNL A   1     -23.989  -4.549  28.853  0.00  0.00    -0.000 C 
ATOM     37  C   UNL A   1     -25.137  -5.280  29.205  0.00  0.00    -0.000 C 
ATOM     38  C   UNL A   1     -26.232  -4.611  29.784  0.00  0.00    -0.000 C 
ATOM     39  C   UNL A   1     -26.155  -3.232  30.065  0.00  0.00    -0.004 C 
ENDBRANCH  33  34
BRANCH  33  40
ATOM     40  C   UNL A   1     -25.387  -0.679  31.571  0.00  0.00    +0.082 C 
ATOM     41  C   UNL A   1     -25.189   0.773  32.028  0.00  0.00    +0.020 C 
ATOM     42  C   UNL A   1     -25.336   0.684  33.544  0.00  0.00    +0.020 C 
ATOM     43  C   UNL A   1     -24.829  -0.715  33.905  0.00  0.00    +0.089 C 
ATOM     44  N   UNL A   1     -24.758  -1.481  32.646  0.00  0.00    -0.219 NA
ENDBRANCH  33  40
ENDBRANCH   7  33
TORSDOF 12
