MODEL 844
MODEL 1
REMARK VINA RESULT:    -5.859      0.000      0.000
REMARK INTER + INTRA:          -9.397
REMARK INTER:                  -8.599
REMARK INTRA:                  -0.797
REMARK UNBOUND:                -0.797
REMARK  Name = No_844-gen_results/8p0m/2024-11-27-11-27-31/
REMARK  8 active torsions:
REMARK  status: ('A' for Active; 'I' for Inactive)
REMARK    1  A    between atoms: C_2  and  C_13
REMARK    2  A    between atoms: C_9  and  C_11
REMARK    3  A    between atoms: C_13  and  O_14
REMARK    4  A    between atoms: O_14  and  C_17
REMARK    5  A    between atoms: C_17  and  C_18
REMARK    6  A    between atoms: C_18  and  O_19
REMARK    7  A    between atoms: C_18  and  C_21
REMARK    8  A    between atoms: C_21  and  N_22
REMARK                            x       y       z     vdW  Elec       q    Type
REMARK                         _______ _______ _______ _____ _____    ______ ____
ROOT
ATOM      1  C   UNL A   1     -24.100   0.737  26.403  0.00  0.00    +0.006 A 
ATOM      2  C   UNL A   1     -23.851   1.574  26.994  0.00  0.00    +0.076 A 
ATOM      3  C   UNL A   1     -25.354   0.881  25.570  0.00  0.00    +0.000 A 
ATOM      4  C   UNL A   1     -25.988  -0.157  24.796  0.00  0.00    +0.000 A 
ATOM      5  C   UNL A   1     -24.363   2.951  27.008  0.00  0.00    +0.006 A 
ATOM      6  C   UNL A   1     -25.492   3.168  26.248  0.00  0.00    +0.000 A 
ATOM      7  C   UNL A   1     -26.114   2.142  25.419  0.00  0.00    +0.000 A 
ATOM      8  C   UNL A   1     -27.330  -0.075  24.389  0.00  0.00    +0.004 A 
ATOM      9  C   UNL A   1     -27.919   1.208  24.295  0.00  0.00    +0.050 A 
ATOM     10  C   UNL A   1     -27.357   2.283  24.886  0.00  0.00    +0.004 A 
ENDROOT
BRANCH   9  11
ATOM     11  C   UNL A   1     -29.290   1.281  23.686  0.00  0.00    +0.254 C 
ATOM     12 CL   UNL A   1     -29.962   2.711  23.439  0.00  0.00    -0.038 Cl
ATOM     13  O   UNL A   1     -30.001   0.220  23.695  0.00  0.00    -0.274 OA
ENDBRANCH   9  11
BRANCH   2  14
ATOM     14  C   UNL A   1     -22.498   1.494  27.832  0.00  0.00    +0.341 C 
ATOM     15  O   UNL A   1     -21.363   1.849  27.410  0.00  0.00    -0.245 OA
BRANCH  14  16
ATOM     16  O   UNL A   1     -22.741   1.159  28.909  0.00  0.00    -0.443 OA
BRANCH  16  17
ATOM     17  C   UNL A   1     -22.194  -0.073  29.507  0.00  0.00    +0.239 C 
BRANCH  17  18
ATOM     18  C   UNL A   1     -23.157  -0.946  29.798  0.00  0.00    +0.176 C 
BRANCH  18  19
ATOM     19  O   UNL A   1     -23.926  -0.849  30.685  0.00  0.00    -0.348 OA
ATOM     20  C   UNL A   1     -23.668  -0.327  31.976  0.00  0.00    +0.174 C 
ENDBRANCH  18  19
BRANCH  18  21
ATOM     21  C   UNL A   1     -23.373  -2.053  28.928  0.00  0.00    +0.122 C 
BRANCH  21  22
ATOM     22  N   UNL A   1     -24.240  -3.073  29.314  0.00  0.00    -0.214 NA
ATOM     23  C   UNL A   1     -24.205  -4.022  28.895  0.00  0.00    +0.107 C 
ENDBRANCH  21  22
ENDBRANCH  18  21
ENDBRANCH  17  18
ENDBRANCH  16  17
ENDBRANCH  14  16
ENDBRANCH   2  14
TORSDOF 8
ENDMDL
ENDMDL
