REMARK  Name = outputs/IAG933/test6/raw/output_8457_IAG933_linker_design_.xyz
REMARK  18 active torsions:
REMARK  status: ('A' for Active; 'I' for Inactive)
REMARK    1  A    between atoms: C_1  and  C_2
REMARK    2  A    between atoms: C_1  and  C_8
REMARK    3  A    between atoms: C_1  and  C_37
REMARK    4  A    between atoms: C_13  and  N_40
REMARK    5  A    between atoms: C_14  and  C_15
REMARK    6  A    between atoms: C_21  and  O_22
REMARK    7  A    between atoms: O_22  and  C_23
REMARK    8  A    between atoms: C_23  and  C_24
REMARK    9  A    between atoms: C_28  and  N_40
REMARK   10  A    between atoms: C_30  and  C_36
REMARK   11  A    between atoms: C_30  and  C_38
REMARK   12  A    between atoms: C_31  and  C_38
REMARK   13  A    between atoms: C_31  and  C_42
REMARK   14  A    between atoms: N_34  and  C_39
REMARK   15  A    between atoms: N_34  and  C_41
REMARK   16  A    between atoms: C_36  and  C_37
REMARK   17  A    between atoms: C_36  and  N_40
REMARK   18  A    between atoms: C_41  and  C_42
REMARK                            x       y       z     vdW  Elec       q    Type
REMARK                         _______ _______ _______ _____ _____    ______ ____
ROOT
ATOM      1  C   UNL A   1     -24.749   1.396  29.090  0.00  0.00    +0.103 C 
ENDROOT
BRANCH   1   3
ATOM      2  O   UNL A   1     -26.469  -0.272  28.709  0.00  0.00    -0.221 OA
ATOM      3  C   UNL A   1     -25.103  -0.102  28.993  0.00  0.00    +0.175 C 
BRANCH   3   4
ATOM      4  C   UNL A   1     -24.855  -1.012  30.143  0.00  0.00    +0.070 C 
BRANCH   4   5
ATOM      5  C   UNL A   1     -24.973  -2.505  29.788  0.00  0.00    -0.019 C 
ATOM      6  C   UNL A   1     -23.906  -3.173  29.146  0.00  0.00    -0.004 C 
ATOM      7  C   UNL A   1     -23.989  -4.549  28.853  0.00  0.00    -0.000 C 
ATOM      8  C   UNL A   1     -25.137  -5.280  29.205  0.00  0.00    -0.000 C 
ATOM      9  C   UNL A   1     -26.232  -4.611  29.784  0.00  0.00    -0.000 C 
ATOM     10  C   UNL A   1     -26.155  -3.232  30.065  0.00  0.00    -0.004 C 
ENDBRANCH   4   5
BRANCH   4  11
ATOM     11  C   UNL A   1     -25.387  -0.679  31.571  0.00  0.00    +0.079 C 
ATOM     12  C   UNL A   1     -25.189   0.773  32.028  0.00  0.00    +0.019 C 
ATOM     13  C   UNL A   1     -25.336   0.684  33.544  0.00  0.00    +0.020 C 
ATOM     14  C   UNL A   1     -24.829  -0.715  33.905  0.00  0.00    +0.089 C 
ATOM     15  N   UNL A   1     -24.758  -1.481  32.646  0.00  0.00    -0.219 NA
ENDBRANCH   4  11
ENDBRANCH   3   4
ENDBRANCH   1   3
BRANCH   1  16
ATOM     16  N   UNL A   1     -24.583   1.469  27.351  0.00  0.00    -0.306 N 
BRANCH  16  17
ATOM     17  C   UNL A   1     -25.688   1.614  26.461  0.00  0.00    +0.086 C 
ATOM     18  C   UNL A   1     -26.250   2.920  26.395  0.00  0.00    +0.090 C 
ATOM     19  C   UNL A   1     -27.438   3.091  25.645  0.00  0.00    +0.108 C 
ATOM     20  N   UNL A   1     -28.075   2.089  25.003  0.00  0.00    -0.208 NA
ATOM     21  C   UNL A   1     -27.543   0.849  25.079  0.00  0.00    +0.255 C 
ATOM     22  C   UNL A   1     -26.354   0.576  25.777  0.00  0.00    +0.206 C 
ATOM     23  F   UNL A   1     -25.860  -0.681  25.795  0.00  0.00    -0.198 F 
BRANCH  18  24
ATOM     24  C   UNL A   1     -25.642   4.093  27.123  0.00  0.00    +0.268 C 
ATOM     25  N   UNL A   1     -25.614   5.252  26.449  0.00  0.00    -0.200 NA
ATOM     26  C   UNL A   1     -25.026   6.479  26.963  0.00  0.00    +0.139 C 
ATOM     27  O   UNL A   1     -25.143   3.966  28.243  0.00  0.00    -0.268 OA
ENDBRANCH  18  24
BRANCH  21  28
ATOM     28  O   UNL A   1     -28.193  -0.208  24.477  0.00  0.00    -0.456 OA
BRANCH  28  29
ATOM     29  C   UNL A   1     -29.460   0.005  23.866  0.00  0.00    +0.243 C 
BRANCH  29  30
ATOM     30  C   UNL A   1     -30.065  -1.377  23.573  0.00  0.00    +0.229 C 
ATOM     31  O   UNL A   1     -30.729  -1.878  24.721  0.00  0.00    -0.216 OA
ENDBRANCH  29  30
ENDBRANCH  28  29
ENDBRANCH  21  28
ENDBRANCH  16  17
BRANCH  16  32
ATOM     32  C   UNL A   1     -23.142   1.536  26.949  0.00  0.00    +0.073 C 
ATOM     33  C   UNL A   1     -21.926   1.758  27.889  0.00  0.00    +0.021 C 
ATOM     34  C   UNL A   1     -22.882   2.235  25.566  0.00  0.00    +0.021 C 
ENDBRANCH  16  32
ENDBRANCH   1  16
BRANCH   1  35
ATOM     35  C   UNL A   1     -23.953   1.977  30.307  0.00  0.00    +0.022 C 
BRANCH  35  36
ATOM     36  C   UNL A   1     -24.041   2.971  30.992  0.00  0.00    +0.002 C 
BRANCH  36  37
ATOM     37  C   UNL A   1     -25.227   3.880  31.301  0.00  0.00    +0.002 C 
BRANCH  37  38
ATOM     38  C   UNL A   1     -24.640   5.009  32.175  0.00  0.00    +0.019 C 
BRANCH  38  39
ATOM     39  C   UNL A   1     -25.180   4.799  33.594  0.00  0.00    +0.091 C 
BRANCH  39  40
ATOM     40  N   UNL A   1     -25.900   5.966  33.954  0.00  0.00    -0.186 NA
BRANCH  40  42
ATOM     41  O   UNL A   1     -27.741   5.209  32.981  0.00  0.00    -0.199 OA
ATOM     42  C   UNL A   1     -27.058   6.295  33.015  0.00  0.00    +0.273 C 
ENDBRANCH  40  42
ENDBRANCH  39  40
ENDBRANCH  38  39
ENDBRANCH  37  38
ENDBRANCH  36  37
ENDBRANCH  35  36
ENDBRANCH   1  35
TORSDOF 18
