REMARK  Name = outputs/IAG933/test6/raw/output_8459_IAG933_linker_design_.xyz
REMARK  14 active torsions:
REMARK  status: ('A' for Active; 'I' for Inactive)
REMARK    1  A    between atoms: C_1  and  C_2
REMARK    2  A    between atoms: C_1  and  C_8
REMARK    3  A    between atoms: C_1  and  C_35
REMARK    4  A    between atoms: C_13  and  C_28
REMARK    5  A    between atoms: C_14  and  C_15
REMARK    6  A    between atoms: C_21  and  O_22
REMARK    7  A    between atoms: O_22  and  C_23
REMARK    8  A    between atoms: C_23  and  C_24
REMARK    9  A    between atoms: O_30  and  C_39
REMARK   10  A    between atoms: C_33  and  N_37
REMARK   11  A    between atoms: C_35  and  C_40
REMARK   12  A    between atoms: C_35  and  N_42
REMARK   13  A    between atoms: N_37  and  C_46
REMARK   14  A    between atoms: O_43  and  C_46
REMARK                            x       y       z     vdW  Elec       q    Type
REMARK                         _______ _______ _______ _____ _____    ______ ____
ROOT
ATOM      1  C   UNL A   1     -25.212  -0.021  29.015  0.00  0.00    +0.091 C 
ENDROOT
BRANCH   1   5
ATOM      2  C   UNL A   1     -29.468   0.099  28.469  0.00  0.00    +0.121 C 
ATOM      3  C   UNL A   1     -27.426  -1.056  28.957  0.00  0.00    +0.011 C 
ATOM      4  C   UNL A   1     -28.797  -0.997  29.068  0.00  0.00    +0.194 C 
ATOM      5  C   UNL A   1     -26.695   0.095  29.112  0.00  0.00    +0.016 C 
ATOM      6  S   UNL A   1     -27.410   1.534  29.662  0.00  0.00    -0.115 S 
ATOM      7  C   UNL A   1     -28.929   1.336  28.889  0.00  0.00    +0.082 C 
BRANCH   4   9
ATOM      8  O   UNL A   1     -29.054  -2.973  30.092  0.00  0.00    -0.034 OA
ATOM      9  O   UNL A   1     -29.430  -1.736  29.947  0.00  0.00    -0.186 OA
ENDBRANCH   4   9
BRANCH   2  10
ATOM     10  N   UNL A   1     -30.615  -0.001  27.528  0.00  0.00    -0.188 NA
BRANCH  10  12
ATOM     11  C   UNL A   1     -33.194   0.452  28.174  0.00  0.00    +0.054 C 
ATOM     12  C   UNL A   1     -31.969  -0.398  28.012  0.00  0.00    +0.214 C 
BRANCH  12  14
ATOM     13  N   UNL A   1     -32.467  -2.599  29.411  0.00  0.00    +0.043 NA
ATOM     14  O   UNL A   1     -31.986  -1.601  28.778  0.00  0.00    -0.233 OA
ENDBRANCH  12  14
ENDBRANCH  10  12
ENDBRANCH   2  10
ENDBRANCH   1   5
BRANCH   1  18
ATOM     15  C   UNL A   1     -24.506   1.182  27.234  0.00  0.00    +0.083 C 
ATOM     16  C   UNL A   1     -22.765   0.708  28.619  0.00  0.00    +0.073 C 
ATOM     17  C   UNL A   1     -23.324   2.035  26.581  0.00  0.00    +0.022 C 
ATOM     18  N   UNL A   1     -24.254   0.869  28.603  0.00  0.00    -0.267 NA
ATOM     19  C   UNL A   1     -22.232   1.841  27.613  0.00  0.00    +0.019 C 
BRANCH  15  20
ATOM     20  C   UNL A   1     -25.688   1.614  26.461  0.00  0.00    +0.030 C 
ATOM     21  C   UNL A   1     -26.250   2.920  26.395  0.00  0.00    +0.074 C 
ATOM     22  C   UNL A   1     -27.438   3.091  25.645  0.00  0.00    +0.106 C 
ATOM     23  N   UNL A   1     -28.075   2.089  25.003  0.00  0.00    -0.208 NA
ATOM     24  C   UNL A   1     -27.543   0.849  25.079  0.00  0.00    +0.253 C 
ATOM     25  C   UNL A   1     -26.354   0.576  25.777  0.00  0.00    +0.190 C 
ATOM     26  F   UNL A   1     -25.860  -0.681  25.795  0.00  0.00    -0.200 F 
BRANCH  21  27
ATOM     27  C   UNL A   1     -25.642   4.093  27.123  0.00  0.00    +0.266 C 
ATOM     28  N   UNL A   1     -25.614   5.252  26.449  0.00  0.00    -0.200 NA
ATOM     29  C   UNL A   1     -25.026   6.479  26.963  0.00  0.00    +0.139 C 
ATOM     30  O   UNL A   1     -25.143   3.966  28.243  0.00  0.00    -0.268 OA
ENDBRANCH  21  27
BRANCH  24  31
ATOM     31  O   UNL A   1     -28.193  -0.208  24.477  0.00  0.00    -0.456 OA
BRANCH  31  32
ATOM     32  C   UNL A   1     -29.460   0.005  23.866  0.00  0.00    +0.243 C 
BRANCH  32  33
ATOM     33  C   UNL A   1     -30.065  -1.377  23.573  0.00  0.00    +0.229 C 
ATOM     34  O   UNL A   1     -30.729  -1.878  24.721  0.00  0.00    -0.216 OA
ENDBRANCH  32  33
ENDBRANCH  31  32
ENDBRANCH  24  31
ENDBRANCH  15  20
ENDBRANCH   1  18
BRANCH   1  35
ATOM     35  C   UNL A   1     -24.855  -1.012  30.143  0.00  0.00    +0.058 C 
BRANCH  35  36
ATOM     36  C   UNL A   1     -24.973  -2.505  29.788  0.00  0.00    -0.019 C 
ATOM     37  C   UNL A   1     -23.906  -3.173  29.146  0.00  0.00    -0.004 C 
ATOM     38  C   UNL A   1     -23.989  -4.549  28.853  0.00  0.00    -0.000 C 
ATOM     39  C   UNL A   1     -25.137  -5.280  29.205  0.00  0.00    -0.000 C 
ATOM     40  C   UNL A   1     -26.232  -4.611  29.784  0.00  0.00    -0.000 C 
ATOM     41  C   UNL A   1     -26.155  -3.232  30.065  0.00  0.00    -0.004 C 
ENDBRANCH  35  36
BRANCH  35  42
ATOM     42  C   UNL A   1     -25.387  -0.679  31.571  0.00  0.00    +0.079 C 
ATOM     43  C   UNL A   1     -25.189   0.773  32.028  0.00  0.00    +0.019 C 
ATOM     44  C   UNL A   1     -25.336   0.684  33.544  0.00  0.00    +0.020 C 
ATOM     45  C   UNL A   1     -24.829  -0.715  33.905  0.00  0.00    +0.089 C 
ATOM     46  N   UNL A   1     -24.758  -1.481  32.646  0.00  0.00    -0.219 NA
ENDBRANCH  35  42
ENDBRANCH   1  35
TORSDOF 14
