REMARK  Name = outputs/IAG933/test6/raw/output_8462_IAG933_linker_design_.xyz
REMARK  12 active torsions:
REMARK  status: ('A' for Active; 'I' for Inactive)
REMARK    1  A    between atoms: C_1  and  C_2
REMARK    2  A    between atoms: C_1  and  C_8
REMARK    3  A    between atoms: C_1  and  N_40
REMARK    4  A    between atoms: C_13  and  C_43
REMARK    5  A    between atoms: C_14  and  C_15
REMARK    6  A    between atoms: N_16  and  C_17
REMARK    7  A    between atoms: C_17  and  N_39
REMARK    8  A    between atoms: C_21  and  O_22
REMARK    9  A    between atoms: O_22  and  C_23
REMARK   10  A    between atoms: C_23  and  C_24
REMARK   11  A    between atoms: C_28  and  N_39
REMARK   12  A    between atoms: N_40  and  C_42
REMARK                            x       y       z     vdW  Elec       q    Type
REMARK                         _______ _______ _______ _____ _____    ______ ____
ROOT
ATOM      1  C   UNL A   1     -25.688   1.614  26.461  0.00  0.00    +0.040 C 
ATOM      2  C   UNL A   1     -26.250   2.920  26.395  0.00  0.00    +0.077 C 
ATOM      3  C   UNL A   1     -27.438   3.091  25.645  0.00  0.00    +0.107 C 
ATOM      4  N   UNL A   1     -28.075   2.089  25.003  0.00  0.00    -0.208 NA
ATOM      5  C   UNL A   1     -27.543   0.849  25.079  0.00  0.00    +0.253 C 
ATOM      6  C   UNL A   1     -26.354   0.576  25.777  0.00  0.00    +0.193 C 
ATOM      7  F   UNL A   1     -25.860  -0.681  25.795  0.00  0.00    -0.199 F 
ENDROOT
BRANCH   1  15
ATOM      8  C   UNL A   1     -21.714   1.774  27.096  0.00  0.00    +0.014 C 
ATOM      9  F   UNL A   1     -22.242  -0.701  29.697  0.00  0.00    -0.203 F 
ATOM     10  C   UNL A   1     -22.554   0.194  28.704  0.00  0.00    +0.155 C 
ATOM     11  C   UNL A   1     -23.033   1.916  26.610  0.00  0.00    +0.059 C 
ATOM     12 CL   UNL A   1     -23.167   2.827  25.142  0.00  0.00    -0.082 Cl
ATOM     13  C   UNL A   1     -21.453   0.857  28.114  0.00  0.00    +0.032 C 
ATOM     14  C   UNL A   1     -23.908   0.421  28.386  0.00  0.00    +0.094 C 
ATOM     15  C   UNL A   1     -24.158   1.306  27.203  0.00  0.00    +0.030 C 
BRANCH  14  16
ATOM     16  N   UNL A   1     -24.958  -0.174  29.120  0.00  0.00    -0.231 NA
BRANCH  16  17
ATOM     17  C   UNL A   1     -24.855  -1.012  30.143  0.00  0.00    +0.131 C 
BRANCH  17  18
ATOM     18  C   UNL A   1     -24.973  -2.505  29.788  0.00  0.00    -0.001 C 
ATOM     19  C   UNL A   1     -23.906  -3.173  29.146  0.00  0.00    -0.003 C 
ATOM     20  C   UNL A   1     -23.989  -4.549  28.853  0.00  0.00    -0.000 C 
ATOM     21  C   UNL A   1     -25.137  -5.280  29.205  0.00  0.00    -0.000 C 
ATOM     22  C   UNL A   1     -26.232  -4.611  29.784  0.00  0.00    -0.000 C 
ATOM     23  C   UNL A   1     -26.155  -3.232  30.065  0.00  0.00    -0.003 C 
ENDBRANCH  17  18
BRANCH  17  24
ATOM     24  C   UNL A   1     -25.387  -0.679  31.571  0.00  0.00    +0.097 C 
ATOM     25  C   UNL A   1     -25.189   0.773  32.028  0.00  0.00    +0.021 C 
ATOM     26  C   UNL A   1     -25.336   0.684  33.544  0.00  0.00    +0.020 C 
ATOM     27  C   UNL A   1     -24.829  -0.715  33.905  0.00  0.00    +0.089 C 
ATOM     28  N   UNL A   1     -24.758  -1.481  32.646  0.00  0.00    -0.217 NA
ENDBRANCH  17  24
ENDBRANCH  16  17
ENDBRANCH  14  16
ENDBRANCH   1  15
BRANCH   2  29
ATOM     29  C   UNL A   1     -25.642   4.093  27.123  0.00  0.00    +0.268 C 
ATOM     30  N   UNL A   1     -25.614   5.252  26.449  0.00  0.00    -0.178 NA
ATOM     31  O   UNL A   1     -25.143   3.966  28.243  0.00  0.00    -0.268 OA
BRANCH  30  32
ATOM     32  C   UNL A   1     -25.026   6.479  26.963  0.00  0.00    +0.227 C 
BRANCH  32  33
ATOM     33  N   UNL A   1     -25.831   6.949  28.055  0.00  0.00    -0.214 NA
BRANCH  33  34
ATOM     34  C   UNL A   1     -25.287   7.487  29.112  0.00  0.00    +0.067 C 
ATOM     35  C   UNL A   1     -24.076   9.303  30.037  0.00  0.00    +0.001 C 
ATOM     36  C   UNL A   1     -25.816   7.154  30.340  0.00  0.00    +0.016 C 
ATOM     37  C   UNL A   1     -24.657   9.044  31.261  0.00  0.00    +0.000 C 
ATOM     38  C   UNL A   1     -25.478   7.953  31.406  0.00  0.00    +0.001 C 
ATOM     39  C   UNL A   1     -24.356   8.492  28.955  0.00  0.00    +0.016 C 
ENDBRANCH  33  34
ENDBRANCH  32  33
ENDBRANCH  30  32
ENDBRANCH   2  29
BRANCH   5  40
ATOM     40  O   UNL A   1     -28.193  -0.208  24.477  0.00  0.00    -0.456 OA
BRANCH  40  41
ATOM     41  C   UNL A   1     -29.460   0.005  23.866  0.00  0.00    +0.243 C 
BRANCH  41  42
ATOM     42  C   UNL A   1     -30.065  -1.377  23.573  0.00  0.00    +0.229 C 
ATOM     43  O   UNL A   1     -30.729  -1.878  24.721  0.00  0.00    -0.216 OA
ENDBRANCH  41  42
ENDBRANCH  40  41
ENDBRANCH   5  40
TORSDOF 12
