REMARK  Name = outputs/IAG933/test6/raw/output_8463_IAG933_linker_design_.xyz
REMARK  14 active torsions:
REMARK  status: ('A' for Active; 'I' for Inactive)
REMARK    1  A    between atoms: C_1  and  C_2
REMARK    2  A    between atoms: C_1  and  C_8
REMARK    3  A    between atoms: C_1  and  C_34
REMARK    4  A    between atoms: C_13  and  C_35
REMARK    5  A    between atoms: C_14  and  C_15
REMARK    6  A    between atoms: C_21  and  O_22
REMARK    7  A    between atoms: O_22  and  C_23
REMARK    8  A    between atoms: C_23  and  C_24
REMARK    9  A    between atoms: C_29  and  C_34
REMARK   10  A    between atoms: C_29  and  C_37
REMARK   11  A    between atoms: C_31  and  C_39
REMARK   12  A    between atoms: C_35  and  C_39
REMARK   13  A    between atoms: C_37  and  O_42
REMARK   14  A    between atoms: C_39  and  C_40
REMARK                            x       y       z     vdW  Elec       q    Type
REMARK                         _______ _______ _______ _____ _____    ______ ____
ROOT
ATOM      1  C   UNL A   1     -23.776   1.163  29.080  0.00  0.00    +0.071 C 
ATOM      2  C   UNL A   1     -25.123   1.320  28.741  0.00  0.00    +0.121 C 
ATOM      3  C   UNL A   1     -24.527   1.352  27.510  0.00  0.00    +0.076 C 
ATOM      4  N   UNL A   1     -22.774   1.016  29.791  0.00  0.00    -0.157 NA
ENDROOT
BRANCH   3   5
ATOM      5  C   UNL A   1     -25.688   1.614  26.461  0.00  0.00    +0.021 C 
ATOM      6  C   UNL A   1     -26.250   2.920  26.395  0.00  0.00    +0.073 C 
ATOM      7  C   UNL A   1     -27.438   3.091  25.645  0.00  0.00    +0.106 C 
ATOM      8  N   UNL A   1     -28.075   2.089  25.003  0.00  0.00    -0.208 NA
ATOM      9  C   UNL A   1     -27.543   0.849  25.079  0.00  0.00    +0.253 C 
ATOM     10  C   UNL A   1     -26.354   0.576  25.777  0.00  0.00    +0.190 C 
ATOM     11  F   UNL A   1     -25.860  -0.681  25.795  0.00  0.00    -0.200 F 
BRANCH   6  12
ATOM     12  C   UNL A   1     -25.642   4.093  27.123  0.00  0.00    +0.266 C 
ATOM     13  N   UNL A   1     -25.614   5.252  26.449  0.00  0.00    -0.200 NA
ATOM     14  C   UNL A   1     -25.026   6.479  26.963  0.00  0.00    +0.139 C 
ATOM     15  O   UNL A   1     -25.143   3.966  28.243  0.00  0.00    -0.268 OA
ENDBRANCH   6  12
BRANCH   9  16
ATOM     16  O   UNL A   1     -28.193  -0.208  24.477  0.00  0.00    -0.456 OA
BRANCH  16  17
ATOM     17  C   UNL A   1     -29.460   0.005  23.866  0.00  0.00    +0.243 C 
BRANCH  17  18
ATOM     18  C   UNL A   1     -30.065  -1.377  23.573  0.00  0.00    +0.229 C 
ATOM     19  O   UNL A   1     -30.729  -1.878  24.721  0.00  0.00    -0.216 OA
ENDBRANCH  17  18
ENDBRANCH  16  17
ENDBRANCH   9  16
ENDBRANCH   3   5
BRANCH   2  21
ATOM     20  O   UNL A   1     -26.829  -0.356  28.773  0.00  0.00    -0.295 OA
ATOM     21  C   UNL A   1     -25.681  -0.050  29.184  0.00  0.00    +0.163 C 
BRANCH  21  22
ATOM     22  C   UNL A   1     -24.855  -1.012  30.143  0.00  0.00    +0.096 C 
BRANCH  22  23
ATOM     23  C   UNL A   1     -24.973  -2.505  29.788  0.00  0.00    -0.014 C 
ATOM     24  C   UNL A   1     -23.906  -3.173  29.146  0.00  0.00    -0.004 C 
ATOM     25  C   UNL A   1     -23.989  -4.549  28.853  0.00  0.00    -0.000 C 
ATOM     26  C   UNL A   1     -25.137  -5.280  29.205  0.00  0.00    -0.000 C 
ATOM     27  C   UNL A   1     -26.232  -4.611  29.784  0.00  0.00    -0.000 C 
ATOM     28  C   UNL A   1     -26.155  -3.232  30.065  0.00  0.00    -0.004 C 
ENDBRANCH  22  23
BRANCH  22  29
ATOM     29  C   UNL A   1     -25.387  -0.679  31.571  0.00  0.00    +0.084 C 
ATOM     30  C   UNL A   1     -25.189   0.773  32.028  0.00  0.00    +0.020 C 
ATOM     31  C   UNL A   1     -25.336   0.684  33.544  0.00  0.00    +0.020 C 
ATOM     32  C   UNL A   1     -24.829  -0.715  33.905  0.00  0.00    +0.089 C 
ATOM     33  N   UNL A   1     -24.758  -1.481  32.646  0.00  0.00    -0.219 NA
ENDBRANCH  22  29
ENDBRANCH  21  22
ENDBRANCH   2  21
BRANCH   2  34
ATOM     34  C   UNL A   1     -25.991   1.906  29.907  0.00  0.00    +0.155 C 
BRANCH  34  36
ATOM     35  C   UNL A   1     -26.355   3.888  31.222  0.00  0.00    +0.174 C 
ATOM     36  O   UNL A   1     -25.362   3.158  30.465  0.00  0.00    -0.350 OA
ENDBRANCH  34  36
ENDBRANCH   2  34
BRANCH   3  37
ATOM     37  C   UNL A   1     -23.224   1.411  26.953  0.00  0.00    +0.112 C 
BRANCH  37  38
ATOM     38  C   UNL A   1     -22.995   1.317  25.692  0.00  0.00    +0.322 C 
ATOM     39  F   UNL A   1     -21.871   1.873  25.224  0.00  0.00    -0.198 F 
ATOM     40  F   UNL A   1     -23.642   0.685  24.729  0.00  0.00    -0.198 F 
ENDBRANCH  37  38
BRANCH  37  42
ATOM     41  F   UNL A   1     -20.927   1.496  27.312  0.00  0.00    -0.234 F 
ATOM     42  C   UNL A   1     -22.091   1.943  27.659  0.00  0.00    +0.200 C 
ENDBRANCH  37  42
ENDBRANCH   3  37
TORSDOF 14
