REMARK  Name = outputs/IAG933/test6/raw/output_8467_IAG933_linker_design_.xyz
REMARK  19 active torsions:
REMARK  status: ('A' for Active; 'I' for Inactive)
REMARK    1  A    between atoms: C_1  and  C_2
REMARK    2  A    between atoms: C_1  and  C_8
REMARK    3  A    between atoms: C_1  and  C_42
REMARK    4  A    between atoms: C_13  and  C_44
REMARK    5  A    between atoms: C_14  and  C_15
REMARK    6  A    between atoms: C_21  and  O_22
REMARK    7  A    between atoms: O_22  and  C_23
REMARK    8  A    between atoms: C_23  and  C_24
REMARK    9  A    between atoms: C_28  and  C_36
REMARK   10  A    between atoms: C_28  and  C_44
REMARK   11  A    between atoms: N_33  and  C_45
REMARK   12  A    between atoms: N_33  and  C_46
REMARK   13  A    between atoms: C_36  and  O_40
REMARK   14  A    between atoms: C_38  and  C_44
REMARK   15  A    between atoms: C_38  and  O_47
REMARK   16  A    between atoms: C_39  and  C_46
REMARK   17  A    between atoms: O_40  and  C_41
REMARK   18  A    between atoms: C_42  and  C_43
REMARK   19  A    between atoms: C_42  and  O_47
REMARK                            x       y       z     vdW  Elec       q    Type
REMARK                         _______ _______ _______ _____ _____    ______ ____
ROOT
ATOM      1  C   UNL A   1     -24.006   0.573  27.593  0.00  0.00    +0.148 C 
ENDROOT
BRANCH   1   2
ATOM      2  C   UNL A   1     -24.408   1.304  27.140  0.00  0.00    +0.061 C 
BRANCH   2   3
ATOM      3  C   UNL A   1     -25.688   1.614  26.461  0.00  0.00    +0.018 C 
ATOM      4  C   UNL A   1     -26.250   2.920  26.395  0.00  0.00    +0.073 C 
ATOM      5  C   UNL A   1     -27.438   3.091  25.645  0.00  0.00    +0.106 C 
ATOM      6  N   UNL A   1     -28.075   2.089  25.003  0.00  0.00    -0.208 NA
ATOM      7  C   UNL A   1     -27.543   0.849  25.079  0.00  0.00    +0.253 C 
ATOM      8  C   UNL A   1     -26.354   0.576  25.777  0.00  0.00    +0.189 C 
ATOM      9  F   UNL A   1     -25.860  -0.681  25.795  0.00  0.00    -0.200 F 
BRANCH   4  10
ATOM     10  C   UNL A   1     -25.642   4.093  27.123  0.00  0.00    +0.266 C 
ATOM     11  N   UNL A   1     -25.614   5.252  26.449  0.00  0.00    -0.200 NA
ATOM     12  C   UNL A   1     -25.026   6.479  26.963  0.00  0.00    +0.139 C 
ATOM     13  O   UNL A   1     -25.143   3.966  28.243  0.00  0.00    -0.268 OA
ENDBRANCH   4  10
BRANCH   7  14
ATOM     14  O   UNL A   1     -28.193  -0.208  24.477  0.00  0.00    -0.456 OA
BRANCH  14  15
ATOM     15  C   UNL A   1     -29.460   0.005  23.866  0.00  0.00    +0.243 C 
BRANCH  15  16
ATOM     16  C   UNL A   1     -30.065  -1.377  23.573  0.00  0.00    +0.229 C 
ATOM     17  O   UNL A   1     -30.729  -1.878  24.721  0.00  0.00    -0.216 OA
ENDBRANCH  15  16
ENDBRANCH  14  15
ENDBRANCH   7  14
ENDBRANCH   2   3
BRANCH   2  18
ATOM     18  C   UNL A   1     -23.681   1.404  26.802  0.00  0.00    +0.088 C 
BRANCH  18  20
ATOM     19  F   UNL A   1     -23.463   2.671  25.011  0.00  0.00    -0.189 F 
ATOM     20  C   UNL A   1     -22.808   2.082  25.858  0.00  0.00    +0.328 C 
BRANCH  20  21
ATOM     21  O   UNL A   1     -21.456   2.164  26.013  0.00  0.00    -0.436 OA
BRANCH  21  24
ATOM     22  C   UNL A   1     -21.811   1.269  28.267  0.00  0.00    +0.175 C 
ATOM     23  O   UNL A   1     -22.460   0.913  29.362  0.00  0.00    -0.228 OA
ATOM     24  C   UNL A   1     -21.029   1.744  27.273  0.00  0.00    +0.261 C 
ENDBRANCH  21  24
ENDBRANCH  20  21
ENDBRANCH  18  20
ENDBRANCH   2  18
ENDBRANCH   1   2
BRANCH   1  25
ATOM     25  O   UNL A   1     -24.478  -0.328  28.104  0.00  0.00    -0.343 OA
BRANCH  25  26
ATOM     26  C   UNL A   1     -25.603  -0.257  28.970  0.00  0.00    +0.185 C 
BRANCH  26  27
ATOM     27  C   UNL A   1     -26.416   0.912  29.375  0.00  0.00    -0.041 C 
ATOM     28  C   UNL A   1     -26.762   2.251  29.829  0.00  0.00    +0.021 C 
BRANCH  28  29
ATOM     29  N   UNL A   1     -26.923   3.604  30.179  0.00  0.00    -0.185 NA
BRANCH  29  30
ATOM     30  C   UNL A   1     -27.173   4.210  31.541  0.00  0.00    +0.148 C 
BRANCH  30  35
ATOM     31  C   UNL A   1     -24.945   4.706  32.633  0.00  0.00    +0.000 C 
ATOM     32  C   UNL A   1     -26.463   6.521  32.161  0.00  0.00    +0.230 C 
ATOM     33  C   UNL A   1     -24.046   5.601  33.258  0.00  0.00    +0.040 C 
ATOM     34  C   UNL A   1     -24.387   6.982  33.366  0.00  0.00    +0.173 C 
ATOM     35  C   UNL A   1     -26.188   5.109  32.138  0.00  0.00    +0.021 C 
ATOM     36  O   UNL A   1     -25.577   7.385  32.808  0.00  0.00    -0.468 OA
ENDBRANCH  30  35
ENDBRANCH  29  30
ENDBRANCH  28  29
ENDBRANCH  26  27
BRANCH  26  37
ATOM     37  C   UNL A   1     -24.855  -1.012  30.143  0.00  0.00    +0.078 C 
BRANCH  37  38
ATOM     38  C   UNL A   1     -24.973  -2.505  29.788  0.00  0.00    -0.018 C 
ATOM     39  C   UNL A   1     -23.906  -3.173  29.146  0.00  0.00    -0.004 C 
ATOM     40  C   UNL A   1     -23.989  -4.549  28.853  0.00  0.00    -0.000 C 
ATOM     41  C   UNL A   1     -25.137  -5.280  29.205  0.00  0.00    -0.000 C 
ATOM     42  C   UNL A   1     -26.232  -4.611  29.784  0.00  0.00    -0.000 C 
ATOM     43  C   UNL A   1     -26.155  -3.232  30.065  0.00  0.00    -0.004 C 
ENDBRANCH  37  38
BRANCH  37  44
ATOM     44  C   UNL A   1     -25.387  -0.679  31.571  0.00  0.00    +0.080 C 
ATOM     45  C   UNL A   1     -25.189   0.773  32.028  0.00  0.00    +0.019 C 
ATOM     46  C   UNL A   1     -25.336   0.684  33.544  0.00  0.00    +0.020 C 
ATOM     47  C   UNL A   1     -24.829  -0.715  33.905  0.00  0.00    +0.089 C 
ATOM     48  N   UNL A   1     -24.758  -1.481  32.646  0.00  0.00    -0.219 NA
ENDBRANCH  37  44
ENDBRANCH  26  37
ENDBRANCH  25  26
ENDBRANCH   1  25
TORSDOF 19
