REMARK  Name = outputs/IAG933/test6/raw/output_8468_IAG933_linker_design_.xyz
REMARK  11 active torsions:
REMARK  status: ('A' for Active; 'I' for Inactive)
REMARK    1  A    between atoms: C_1  and  C_2
REMARK    2  A    between atoms: C_1  and  C_8
REMARK    3  A    between atoms: C_1  and  N_42
REMARK    4  A    between atoms: C_13  and  C_44
REMARK    5  A    between atoms: C_14  and  C_15
REMARK    6  A    between atoms: C_21  and  O_22
REMARK    7  A    between atoms: O_22  and  C_23
REMARK    8  A    between atoms: C_23  and  C_24
REMARK    9  A    between atoms: C_31  and  C_32
REMARK   10  A    between atoms: C_31  and  C_36
REMARK   11  A    between atoms: C_40  and  C_41
REMARK                            x       y       z     vdW  Elec       q    Type
REMARK                         _______ _______ _______ _____ _____    ______ ____
ROOT
ATOM      1  N   UNL A   1     -23.479   0.489  29.119  0.00  0.00    -0.036 NA
ATOM      2  C   UNL A   1     -23.453   1.891  26.598  0.00  0.00    +0.166 C 
ATOM      3  N   UNL A   1     -21.623   1.401  28.036  0.00  0.00    -0.215 NA
ATOM      4  F   UNL A   1     -23.389   2.565  25.425  0.00  0.00    -0.202 F 
ATOM      5  O   UNL A   1     -27.764  -0.886  28.193  0.00  0.00    -0.242 OA
ATOM      6  C   UNL A   1     -22.264   0.694  28.930  0.00  0.00    +0.392 C 
ATOM      7  C   UNL A   1     -22.220   1.884  26.993  0.00  0.00    +0.128 C 
ATOM      8  C   UNL A   1     -27.114  -0.101  28.872  0.00  0.00    +0.337 C 
ATOM      9  N   UNL A   1     -25.624  -0.221  29.050  0.00  0.00    -0.136 N 
ATOM     10  C   UNL A   1     -24.545   0.596  28.415  0.00  0.00    +0.330 C 
ATOM     11  C   UNL A   1     -24.559   1.325  27.194  0.00  0.00    +0.114 C 
ENDROOT
BRANCH  11  12
ATOM     12  C   UNL A   1     -25.688   1.614  26.461  0.00  0.00    +0.048 C 
ATOM     13  C   UNL A   1     -26.250   2.920  26.395  0.00  0.00    +0.077 C 
ATOM     14  C   UNL A   1     -27.438   3.091  25.645  0.00  0.00    +0.107 C 
ATOM     15  N   UNL A   1     -28.075   2.089  25.003  0.00  0.00    -0.208 NA
ATOM     16  C   UNL A   1     -27.543   0.849  25.079  0.00  0.00    +0.253 C 
ATOM     17  C   UNL A   1     -26.354   0.576  25.777  0.00  0.00    +0.193 C 
ATOM     18  F   UNL A   1     -25.860  -0.681  25.795  0.00  0.00    -0.199 F 
BRANCH  13  19
ATOM     19  C   UNL A   1     -25.642   4.093  27.123  0.00  0.00    +0.266 C 
ATOM     20  N   UNL A   1     -25.614   5.252  26.449  0.00  0.00    -0.200 NA
ATOM     21  C   UNL A   1     -25.026   6.479  26.963  0.00  0.00    +0.139 C 
ATOM     22  O   UNL A   1     -25.143   3.966  28.243  0.00  0.00    -0.268 OA
ENDBRANCH  13  19
BRANCH  16  23
ATOM     23  O   UNL A   1     -28.193  -0.208  24.477  0.00  0.00    -0.456 OA
BRANCH  23  24
ATOM     24  C   UNL A   1     -29.460   0.005  23.866  0.00  0.00    +0.243 C 
BRANCH  24  25
ATOM     25  C   UNL A   1     -30.065  -1.377  23.573  0.00  0.00    +0.229 C 
ATOM     26  O   UNL A   1     -30.729  -1.878  24.721  0.00  0.00    -0.216 OA
ENDBRANCH  24  25
ENDBRANCH  23  24
ENDBRANCH  16  23
ENDBRANCH  11  12
BRANCH   8  28
ATOM     27  C   UNL A   1     -29.162   0.922  29.671  0.00  0.00    +0.016 C 
ATOM     28  C   UNL A   1     -27.799   1.045  29.483  0.00  0.00    +0.083 C 
BRANCH  27  29
ATOM     29  C   UNL A   1     -29.856  -0.312  29.585  0.00  0.00    +0.207 C 
ATOM     30  O   UNL A   1     -30.698  -0.602  28.533  0.00  0.00    -0.215 OA
BRANCH  29  31
ATOM     31  C   UNL A   1     -29.754  -1.446  30.562  0.00  0.00    +0.219 C 
ATOM     32  O   UNL A   1     -30.643  -2.514  30.253  0.00  0.00    -0.217 OA
ENDBRANCH  29  31
ENDBRANCH  27  29
ENDBRANCH   8  28
BRANCH   9  33
ATOM     33  C   UNL A   1     -24.855  -1.012  30.143  0.00  0.00    +0.206 C 
BRANCH  33  34
ATOM     34  C   UNL A   1     -24.973  -2.505  29.788  0.00  0.00    +0.022 C 
ATOM     35  C   UNL A   1     -23.906  -3.173  29.146  0.00  0.00    -0.000 C 
ATOM     36  C   UNL A   1     -23.989  -4.549  28.853  0.00  0.00    -0.000 C 
ATOM     37  C   UNL A   1     -25.137  -5.280  29.205  0.00  0.00    -0.000 C 
ATOM     38  C   UNL A   1     -26.232  -4.611  29.784  0.00  0.00    -0.000 C 
ATOM     39  C   UNL A   1     -26.155  -3.232  30.065  0.00  0.00    -0.000 C 
ENDBRANCH  33  34
BRANCH  33  40
ATOM     40  C   UNL A   1     -25.387  -0.679  31.571  0.00  0.00    +0.120 C 
ATOM     41  C   UNL A   1     -25.189   0.773  32.028  0.00  0.00    +0.023 C 
ATOM     42  C   UNL A   1     -25.336   0.684  33.544  0.00  0.00    +0.020 C 
ATOM     43  C   UNL A   1     -24.829  -0.715  33.905  0.00  0.00    +0.089 C 
ATOM     44  N   UNL A   1     -24.758  -1.481  32.646  0.00  0.00    -0.215 NA
ENDBRANCH  33  40
ENDBRANCH   9  33
TORSDOF 11
