REMARK  Name = outputs/IAG933/test6/raw/output_8471_IAG933_linker_design_.xyz
REMARK  16 active torsions:
REMARK  status: ('A' for Active; 'I' for Inactive)
REMARK    1  A    between atoms: C_1  and  C_2
REMARK    2  A    between atoms: C_1  and  C_8
REMARK    3  A    between atoms: C_1  and  N_43
REMARK    4  A    between atoms: C_13  and  C_31
REMARK    5  A    between atoms: C_14  and  C_15
REMARK    6  A    between atoms: C_21  and  O_22
REMARK    7  A    between atoms: O_22  and  C_23
REMARK    8  A    between atoms: C_23  and  C_24
REMARK    9  A    between atoms: C_28  and  C_32
REMARK   10  A    between atoms: C_28  and  C_45
REMARK   11  A    between atoms: O_29  and  C_30
REMARK   12  A    between atoms: O_29  and  C_45
REMARK   13  A    between atoms: C_30  and  C_33
REMARK   14  A    between atoms: C_33  and  C_40
REMARK   15  A    between atoms: C_37  and  C_46
REMARK   16  A    between atoms: C_40  and  C_46
REMARK                            x       y       z     vdW  Elec       q    Type
REMARK                         _______ _______ _______ _____ _____    ______ ____
ROOT
ATOM      1  C   UNL A   1     -24.740   1.064  27.413  0.00  0.00    +0.002 A 
ATOM      2  N   UNL A   1     -21.858   0.620  28.906  0.00  0.00    -0.059 NA
ATOM      3  C   UNL A   1     -23.508   1.071  27.484  0.00  0.00    +0.068 A 
ATOM      4  C   UNL A   1     -25.327   0.521  28.506  0.00  0.00    +0.035 A 
ATOM      5  C   UNL A   1     -22.051   1.854  25.468  0.00  0.00    +0.075 C 
ATOM      6  C   UNL A   1     -22.273   1.438  26.878  0.00  0.00    +0.156 A 
ATOM      7  O   UNL A   1     -21.268   1.233  27.799  0.00  0.00    -0.356 OA
ATOM      8  N   UNL A   1     -24.384  -0.013  29.222  0.00  0.00    -0.311 N 
ATOM      9  C   UNL A   1     -23.213   0.543  28.640  0.00  0.00    +0.185 A 
ENDROOT
BRANCH   1  10
ATOM     10  C   UNL A   1     -25.688   1.614  26.461  0.00  0.00    +0.094 C 
ATOM     11  C   UNL A   1     -26.250   2.920  26.395  0.00  0.00    +0.059 C 
ATOM     12  C   UNL A   1     -27.438   3.091  25.645  0.00  0.00    +0.102 C 
ATOM     13  N   UNL A   1     -28.075   2.089  25.003  0.00  0.00    -0.212 NA
ATOM     14  C   UNL A   1     -27.543   0.849  25.079  0.00  0.00    +0.234 C 
ATOM     15  C   UNL A   1     -26.354   0.576  25.777  0.00  0.00    +0.244 C 
ATOM     16  F   UNL A   1     -25.860  -0.681  25.795  0.00  0.00    -0.227 F 
BRANCH  11  17
ATOM     17  C   UNL A   1     -25.642   4.093  27.123  0.00  0.00    +0.263 C 
ATOM     18  N   UNL A   1     -25.614   5.252  26.449  0.00  0.00    -0.200 NA
ATOM     19  C   UNL A   1     -25.026   6.479  26.963  0.00  0.00    +0.139 C 
ATOM     20  O   UNL A   1     -25.143   3.966  28.243  0.00  0.00    -0.269 OA
ENDBRANCH  11  17
BRANCH  14  21
ATOM     21  O   UNL A   1     -28.193  -0.208  24.477  0.00  0.00    -0.459 OA
BRANCH  21  22
ATOM     22  C   UNL A   1     -29.460   0.005  23.866  0.00  0.00    +0.242 C 
BRANCH  22  23
ATOM     23  C   UNL A   1     -30.065  -1.377  23.573  0.00  0.00    +0.229 C 
ATOM     24  O   UNL A   1     -30.729  -1.878  24.721  0.00  0.00    -0.216 OA
ENDBRANCH  22  23
ENDBRANCH  21  22
ENDBRANCH  14  21
ENDBRANCH   1  10
BRANCH   4  25
ATOM     25  C   UNL A   1     -26.648  -0.282  28.470  0.00  0.00    +0.046 C 
BRANCH  25  26
ATOM     26  C   UNL A   1     -27.903   0.588  28.341  0.00  0.00    +0.042 C 
BRANCH  26  27
ATOM     27  C   UNL A   1     -27.709   1.821  29.199  0.00  0.00    +0.182 C 
ATOM     28  O   UNL A   1     -27.089   2.102  30.477  0.00  0.00    -0.220 OA
BRANCH  27  29
ATOM     29  C   UNL A   1     -29.242   2.162  29.150  0.00  0.00    +0.175 C 
BRANCH  29  30
ATOM     30  O   UNL A   1     -30.244   3.327  29.488  0.00  0.00    -0.351 OA
BRANCH  30  31
ATOM     31  C   UNL A   1     -30.698   4.320  28.526  0.00  0.00    +0.145 C 
BRANCH  31  32
ATOM     32  C   UNL A   1     -30.358   5.694  29.076  0.00  0.00    +0.068 C 
BRANCH  32  33
ATOM     33  C   UNL A   1     -28.841   5.635  28.884  0.00  0.00    +0.185 C 
ATOM     34  O   UNL A   1     -28.101   4.442  29.050  0.00  0.00    -0.220 OA
ENDBRANCH  32  33
ENDBRANCH  31  32
ENDBRANCH  30  31
ENDBRANCH  29  30
ENDBRANCH  27  29
ENDBRANCH  26  27
ENDBRANCH  25  26
ENDBRANCH   4  25
BRANCH   8  35
ATOM     35  C   UNL A   1     -24.855  -1.012  30.143  0.00  0.00    +0.125 C 
BRANCH  35  36
ATOM     36  C   UNL A   1     -24.973  -2.505  29.788  0.00  0.00    -0.000 C 
ATOM     37  C   UNL A   1     -23.906  -3.173  29.146  0.00  0.00    -0.002 C 
ATOM     38  C   UNL A   1     -23.989  -4.549  28.853  0.00  0.00    -0.000 C 
ATOM     39  C   UNL A   1     -25.137  -5.280  29.205  0.00  0.00    -0.000 C 
ATOM     40  C   UNL A   1     -26.232  -4.611  29.784  0.00  0.00    -0.000 C 
ATOM     41  C   UNL A   1     -26.155  -3.232  30.065  0.00  0.00    -0.002 C 
ENDBRANCH  35  36
BRANCH  35  42
ATOM     42  C   UNL A   1     -25.387  -0.679  31.571  0.00  0.00    +0.098 C 
ATOM     43  C   UNL A   1     -25.189   0.773  32.028  0.00  0.00    +0.021 C 
ATOM     44  C   UNL A   1     -25.336   0.684  33.544  0.00  0.00    +0.020 C 
ATOM     45  C   UNL A   1     -24.829  -0.715  33.905  0.00  0.00    +0.089 C 
ATOM     46  N   UNL A   1     -24.758  -1.481  32.646  0.00  0.00    -0.217 NA
ENDBRANCH  35  42
ENDBRANCH   8  35
TORSDOF 16
