REMARK  Name = outputs/IAG933/test6/raw/output_8472_IAG933_linker_design_.xyz
REMARK  10 active torsions:
REMARK  status: ('A' for Active; 'I' for Inactive)
REMARK    1  A    between atoms: C_1  and  C_2
REMARK    2  A    between atoms: C_1  and  C_8
REMARK    3  A    between atoms: C_1  and  C_39
REMARK    4  A    between atoms: C_13  and  C_42
REMARK    5  A    between atoms: C_14  and  C_15
REMARK    6  A    between atoms: C_21  and  O_22
REMARK    7  A    between atoms: O_22  and  C_23
REMARK    8  A    between atoms: C_23  and  C_24
REMARK    9  A    between atoms: C_35  and  N_43
REMARK   10  A    between atoms: C_39  and  N_40
REMARK                            x       y       z     vdW  Elec       q    Type
REMARK                         _______ _______ _______ _____ _____    ______ ____
ROOT
ATOM      1  C   UNL A   1     -27.301   0.517  29.238  0.00  0.00    -0.071 C 
ATOM      2  C   UNL A   1     -28.747   1.546  29.523  0.00  0.00    +0.105 C 
ATOM      3  C   UNL A   1     -25.842  -0.221  29.166  0.00  0.00    +0.113 C 
ENDROOT
BRANCH   2  10
ATOM      4  O   UNL A   1     -28.019   5.253  31.615  0.00  0.00    -0.218 OA
ATOM      5  O   UNL A   1     -27.396   5.589  30.476  0.00  0.00    -0.218 OA
ATOM      6  C   UNL A   1     -27.834   3.040  31.147  0.00  0.00    +0.127 C 
ATOM      7  C   UNL A   1     -28.223   4.024  31.957  0.00  0.00    +0.203 C 
ATOM      8  C   UNL A   1     -29.236   4.498  29.662  0.00  0.00    +0.127 C 
ATOM      9  C   UNL A   1     -28.044   5.282  29.213  0.00  0.00    +0.203 C 
ATOM     10  N   UNL A   1     -28.856   3.043  29.996  0.00  0.00    -0.295 N 
ENDBRANCH   2  10
BRANCH   3  15
ATOM     11  N   UNL A   1     -23.353   1.741  26.905  0.00  0.00    -0.038 NA
ATOM     12  N   UNL A   1     -23.271   0.778  28.909  0.00  0.00    +0.081 NA
ATOM     13  C   UNL A   1     -21.104   1.554  27.817  0.00  0.00    +0.136 C 
ATOM     14  C   UNL A   1     -22.590   1.406  27.914  0.00  0.00    +0.361 C 
ATOM     15  N   UNL A   1     -24.614   0.581  28.466  0.00  0.00    -0.073 N 
ATOM     16  C   UNL A   1     -24.585   1.320  27.207  0.00  0.00    +0.354 C 
BRANCH  16  17
ATOM     17  C   UNL A   1     -25.688   1.614  26.461  0.00  0.00    +0.087 C 
ATOM     18  C   UNL A   1     -26.250   2.920  26.395  0.00  0.00    +0.078 C 
ATOM     19  C   UNL A   1     -27.438   3.091  25.645  0.00  0.00    +0.107 C 
ATOM     20  N   UNL A   1     -28.075   2.089  25.003  0.00  0.00    -0.208 NA
ATOM     21  C   UNL A   1     -27.543   0.849  25.079  0.00  0.00    +0.253 C 
ATOM     22  C   UNL A   1     -26.354   0.576  25.777  0.00  0.00    +0.195 C 
ATOM     23  F   UNL A   1     -25.860  -0.681  25.795  0.00  0.00    -0.199 F 
BRANCH  18  24
ATOM     24  C   UNL A   1     -25.642   4.093  27.123  0.00  0.00    +0.266 C 
ATOM     25  N   UNL A   1     -25.614   5.252  26.449  0.00  0.00    -0.200 NA
ATOM     26  C   UNL A   1     -25.026   6.479  26.963  0.00  0.00    +0.139 C 
ATOM     27  O   UNL A   1     -25.143   3.966  28.243  0.00  0.00    -0.268 OA
ENDBRANCH  18  24
BRANCH  21  28
ATOM     28  O   UNL A   1     -28.193  -0.208  24.477  0.00  0.00    -0.456 OA
BRANCH  28  29
ATOM     29  C   UNL A   1     -29.460   0.005  23.866  0.00  0.00    +0.243 C 
BRANCH  29  30
ATOM     30  C   UNL A   1     -30.065  -1.377  23.573  0.00  0.00    +0.229 C 
ATOM     31  O   UNL A   1     -30.729  -1.878  24.721  0.00  0.00    -0.216 OA
ENDBRANCH  29  30
ENDBRANCH  28  29
ENDBRANCH  21  28
ENDBRANCH  16  17
ENDBRANCH   3  15
BRANCH   3  32
ATOM     32  C   UNL A   1     -24.855  -1.012  30.143  0.00  0.00    +0.085 C 
BRANCH  32  33
ATOM     33  C   UNL A   1     -24.973  -2.505  29.788  0.00  0.00    -0.015 C 
ATOM     34  C   UNL A   1     -23.906  -3.173  29.146  0.00  0.00    -0.004 C 
ATOM     35  C   UNL A   1     -23.989  -4.549  28.853  0.00  0.00    -0.000 C 
ATOM     36  C   UNL A   1     -25.137  -5.280  29.205  0.00  0.00    -0.000 C 
ATOM     37  C   UNL A   1     -26.232  -4.611  29.784  0.00  0.00    -0.000 C 
ATOM     38  C   UNL A   1     -26.155  -3.232  30.065  0.00  0.00    -0.004 C 
ENDBRANCH  32  33
BRANCH  32  39
ATOM     39  C   UNL A   1     -25.387  -0.679  31.571  0.00  0.00    +0.083 C 
ATOM     40  C   UNL A   1     -25.189   0.773  32.028  0.00  0.00    +0.020 C 
ATOM     41  C   UNL A   1     -25.336   0.684  33.544  0.00  0.00    +0.020 C 
ATOM     42  C   UNL A   1     -24.829  -0.715  33.905  0.00  0.00    +0.089 C 
ATOM     43  N   UNL A   1     -24.758  -1.481  32.646  0.00  0.00    -0.219 NA
ENDBRANCH  32  39
ENDBRANCH   3  32
TORSDOF 10
