REMARK  Name = outputs/IAG933/test6/raw/output_8476_IAG933_linker_design_.xyz
REMARK  13 active torsions:
REMARK  status: ('A' for Active; 'I' for Inactive)
REMARK    1  A    between atoms: C_1  and  C_2
REMARK    2  A    between atoms: C_1  and  C_8
REMARK    3  A    between atoms: C_1  and  O_44
REMARK    4  A    between atoms: C_13  and  C_30
REMARK    5  A    between atoms: C_14  and  C_15
REMARK    6  A    between atoms: C_15  and  O_18
REMARK    7  A    between atoms: O_18  and  C_43
REMARK    8  A    between atoms: C_21  and  O_22
REMARK    9  A    between atoms: O_22  and  C_23
REMARK   10  A    between atoms: C_23  and  C_24
REMARK   11  A    between atoms: O_28  and  N_34
REMARK   12  A    between atoms: C_29  and  C_43
REMARK   13  A    between atoms: C_40  and  O_44
REMARK                            x       y       z     vdW  Elec       q    Type
REMARK                         _______ _______ _______ _____ _____    ______ ____
ROOT
ATOM      1  C   UNL A   1     -25.688   1.614  26.461  0.00  0.00    +0.089 C 
ATOM      2  C   UNL A   1     -26.250   2.920  26.395  0.00  0.00    +0.054 C 
ATOM      3  C   UNL A   1     -27.438   3.091  25.645  0.00  0.00    +0.102 C 
ATOM      4  N   UNL A   1     -28.075   2.089  25.003  0.00  0.00    -0.212 NA
ATOM      5  C   UNL A   1     -27.543   0.849  25.079  0.00  0.00    +0.234 C 
ATOM      6  C   UNL A   1     -26.354   0.576  25.777  0.00  0.00    +0.241 C 
ATOM      7  F   UNL A   1     -25.860  -0.681  25.795  0.00  0.00    -0.227 F 
ENDROOT
BRANCH   1   8
ATOM      8  C   UNL A   1     -24.272   1.453  26.802  0.00  0.00    +0.118 C 
ATOM      9  N   UNL A   1     -23.540   2.160  25.725  0.00  0.00    -0.190 NA
ATOM     10  O   UNL A   1     -22.299   0.409  29.744  0.00  0.00    -0.269 OA
ATOM     11  N   UNL A   1     -21.134   2.175  26.712  0.00  0.00    -0.163 NA
ATOM     12  N   UNL A   1     -21.272   1.507  27.924  0.00  0.00    -0.080 NA
ATOM     13  C   UNL A   1     -22.359   2.756  26.023  0.00  0.00    +0.236 C 
ATOM     14  C   UNL A   1     -23.857   0.890  28.070  0.00  0.00    +0.211 C 
ATOM     15  C   UNL A   1     -22.579   0.949  28.712  0.00  0.00    +0.291 C 
BRANCH  14  16
ATOM     16  O   UNL A   1     -24.812  -0.187  28.865  0.00  0.00    -0.342 OA
BRANCH  16  17
ATOM     17  C   UNL A   1     -24.855  -1.012  30.143  0.00  0.00    +0.154 C 
BRANCH  17  18
ATOM     18  C   UNL A   1     -24.973  -2.505  29.788  0.00  0.00    +0.006 C 
ATOM     19  C   UNL A   1     -23.906  -3.173  29.146  0.00  0.00    -0.002 C 
ATOM     20  C   UNL A   1     -23.989  -4.549  28.853  0.00  0.00    -0.000 C 
ATOM     21  C   UNL A   1     -25.137  -5.280  29.205  0.00  0.00    -0.000 C 
ATOM     22  C   UNL A   1     -26.232  -4.611  29.784  0.00  0.00    -0.000 C 
ATOM     23  C   UNL A   1     -26.155  -3.232  30.065  0.00  0.00    -0.002 C 
ENDBRANCH  17  18
BRANCH  17  24
ATOM     24  C   UNL A   1     -25.387  -0.679  31.571  0.00  0.00    +0.104 C 
ATOM     25  C   UNL A   1     -25.189   0.773  32.028  0.00  0.00    +0.022 C 
ATOM     26  C   UNL A   1     -25.336   0.684  33.544  0.00  0.00    +0.020 C 
ATOM     27  C   UNL A   1     -24.829  -0.715  33.905  0.00  0.00    +0.089 C 
ATOM     28  N   UNL A   1     -24.758  -1.481  32.646  0.00  0.00    -0.217 NA
ENDBRANCH  17  24
ENDBRANCH  16  17
ENDBRANCH  14  16
ENDBRANCH   1   8
BRANCH   2  29
ATOM     29  C   UNL A   1     -25.642   4.093  27.123  0.00  0.00    +0.218 C 
ATOM     30  N   UNL A   1     -25.614   5.252  26.449  0.00  0.00    -0.236 NA
ATOM     31  C   UNL A   1     -25.026   6.479  26.963  0.00  0.00    +0.155 C 
BRANCH  29  32
ATOM     32  O   UNL A   1     -25.143   3.966  28.243  0.00  0.00    -0.459 OA
BRANCH  32  33
ATOM     33  C   UNL A   1     -25.244   3.072  29.189  0.00  0.00    +0.226 C 
BRANCH  33  34
ATOM     34  C   UNL A   1     -25.570   3.583  30.423  0.00  0.00    +0.136 C 
ATOM     35  C   UNL A   1     -26.248   4.753  30.964  0.00  0.00    +0.124 C 
ATOM     36  N   UNL A   1     -25.824   4.841  32.188  0.00  0.00    -0.146 NA
ATOM     37  N   UNL A   1     -24.873   2.961  31.168  0.00  0.00    -0.195 NA
ATOM     38  C   UNL A   1     -24.945   3.943  32.297  0.00  0.00    +0.190 C 
BRANCH  36  39
ATOM     39  O   UNL A   1     -26.190   5.626  33.158  0.00  0.00    -0.278 OA
ATOM     40  C   UNL A   1     -25.342   5.683  34.305  0.00  0.00    +0.201 C 
ENDBRANCH  36  39
ENDBRANCH  33  34
ENDBRANCH  32  33
ENDBRANCH  29  32
ENDBRANCH   2  29
BRANCH   5  41
ATOM     41  O   UNL A   1     -28.193  -0.208  24.477  0.00  0.00    -0.459 OA
BRANCH  41  42
ATOM     42  C   UNL A   1     -29.460   0.005  23.866  0.00  0.00    +0.242 C 
BRANCH  42  43
ATOM     43  C   UNL A   1     -30.065  -1.377  23.573  0.00  0.00    +0.229 C 
ATOM     44  O   UNL A   1     -30.729  -1.878  24.721  0.00  0.00    -0.216 OA
ENDBRANCH  42  43
ENDBRANCH  41  42
ENDBRANCH   5  41
TORSDOF 13
