REMARK  Name = outputs/IAG933/test6/raw/output_8477_IAG933_linker_design_.xyz
REMARK  12 active torsions:
REMARK  status: ('A' for Active; 'I' for Inactive)
REMARK    1  A    between atoms: C_1  and  C_2
REMARK    2  A    between atoms: C_1  and  C_8
REMARK    3  A    between atoms: C_1  and  N_33
REMARK    4  A    between atoms: C_13  and  N_38
REMARK    5  A    between atoms: C_14  and  C_15
REMARK    6  A    between atoms: C_21  and  O_22
REMARK    7  A    between atoms: O_22  and  C_23
REMARK    8  A    between atoms: C_23  and  C_24
REMARK    9  A    between atoms: C_28  and  N_33
REMARK   10  A    between atoms: C_28  and  C_39
REMARK   11  A    between atoms: N_33  and  C_36
REMARK   12  A    between atoms: C_39  and  C_40
REMARK                            x       y       z     vdW  Elec       q    Type
REMARK                         _______ _______ _______ _____ _____    ______ ____
ROOT
ATOM      1  F   UNL A   1     -21.263   1.647  27.780  0.00  0.00    -0.198 F 
ATOM      2  C   UNL A   1     -23.221   0.335  28.554  0.00  0.00    +0.247 C 
ATOM      3  F   UNL A   1     -22.468  -0.126  29.514  0.00  0.00    -0.194 F 
ATOM      4  C   UNL A   1     -23.389   1.633  26.714  0.00  0.00    +0.213 C 
ATOM      5  C   UNL A   1     -24.509   0.483  28.288  0.00  0.00    +0.310 C 
ATOM      6  C   UNL A   1     -22.511   1.142  27.608  0.00  0.00    +0.215 C 
ATOM      7  N   UNL A   1     -24.535   1.292  27.113  0.00  0.00    -0.145 N 
ENDROOT
BRANCH   7   8
ATOM      8  C   UNL A   1     -25.688   1.614  26.461  0.00  0.00    +0.181 C 
ATOM      9  C   UNL A   1     -26.250   2.920  26.395  0.00  0.00    +0.114 C 
ATOM     10  C   UNL A   1     -27.438   3.091  25.645  0.00  0.00    +0.110 C 
ATOM     11  N   UNL A   1     -28.075   2.089  25.003  0.00  0.00    -0.208 NA
ATOM     12  C   UNL A   1     -27.543   0.849  25.079  0.00  0.00    +0.257 C 
ATOM     13  C   UNL A   1     -26.354   0.576  25.777  0.00  0.00    +0.230 C 
ATOM     14  F   UNL A   1     -25.860  -0.681  25.795  0.00  0.00    -0.196 F 
BRANCH   9  15
ATOM     15  C   UNL A   1     -25.642   4.093  27.123  0.00  0.00    +0.270 C 
ATOM     16  N   UNL A   1     -25.614   5.252  26.449  0.00  0.00    -0.200 NA
ATOM     17  C   UNL A   1     -25.026   6.479  26.963  0.00  0.00    +0.139 C 
ATOM     18  O   UNL A   1     -25.143   3.966  28.243  0.00  0.00    -0.268 OA
ENDBRANCH   9  15
BRANCH  12  19
ATOM     19  O   UNL A   1     -28.193  -0.208  24.477  0.00  0.00    -0.456 OA
BRANCH  19  20
ATOM     20  C   UNL A   1     -29.460   0.005  23.866  0.00  0.00    +0.243 C 
BRANCH  20  21
ATOM     21  C   UNL A   1     -30.065  -1.377  23.573  0.00  0.00    +0.229 C 
ATOM     22  O   UNL A   1     -30.729  -1.878  24.721  0.00  0.00    -0.216 OA
ENDBRANCH  20  21
ENDBRANCH  19  20
ENDBRANCH  12  19
ENDBRANCH   7   8
BRANCH   5  23
ATOM     23  N   UNL A   1     -25.574  -0.143  29.123  0.00  0.00    -0.189 N 
BRANCH  23  24
ATOM     24  C   UNL A   1     -24.855  -1.012  30.143  0.00  0.00    +0.198 C 
BRANCH  24  25
ATOM     25  C   UNL A   1     -24.973  -2.505  29.788  0.00  0.00    +0.021 C 
ATOM     26  C   UNL A   1     -23.906  -3.173  29.146  0.00  0.00    -0.000 C 
ATOM     27  C   UNL A   1     -23.989  -4.549  28.853  0.00  0.00    -0.000 C 
ATOM     28  C   UNL A   1     -25.137  -5.280  29.205  0.00  0.00    -0.000 C 
ATOM     29  C   UNL A   1     -26.232  -4.611  29.784  0.00  0.00    -0.000 C 
ATOM     30  C   UNL A   1     -26.155  -3.232  30.065  0.00  0.00    -0.000 C 
ENDBRANCH  24  25
BRANCH  24  31
ATOM     31  C   UNL A   1     -25.387  -0.679  31.571  0.00  0.00    +0.120 C 
ATOM     32  C   UNL A   1     -25.189   0.773  32.028  0.00  0.00    +0.023 C 
ATOM     33  C   UNL A   1     -25.336   0.684  33.544  0.00  0.00    +0.020 C 
ATOM     34  C   UNL A   1     -24.829  -0.715  33.905  0.00  0.00    +0.089 C 
ATOM     35  N   UNL A   1     -24.758  -1.481  32.646  0.00  0.00    -0.215 NA
ENDBRANCH  24  31
ENDBRANCH  23  24
BRANCH  23  36
ATOM     36  C   UNL A   1     -26.663   0.874  29.379  0.00  0.00    +0.238 C 
BRANCH  36  38
ATOM     37  O   UNL A   1     -28.208  -0.980  28.974  0.00  0.00    -0.216 OA
ATOM     38  C   UNL A   1     -28.069   0.367  29.002  0.00  0.00    +0.231 C 
BRANCH  38  40
ATOM     39  O   UNL A   1     -30.164   1.420  28.390  0.00  0.00    -0.217 OA
ATOM     40  C   UNL A   1     -29.213   1.333  29.463  0.00  0.00    +0.219 C 
ENDBRANCH  38  40
ENDBRANCH  36  38
ENDBRANCH  23  36
ENDBRANCH   5  23
TORSDOF 12
