MODEL 847
MODEL 1
REMARK VINA RESULT:    -4.893      0.000      0.000
REMARK INTER + INTRA:          -5.217
REMARK INTER:                  -5.179
REMARK INTRA:                  -0.037
REMARK UNBOUND:                -0.037
REMARK  Name = No_847-gen_results/8p0m/2024-11-27-11-27-31/
REMARK  1 active torsions:
REMARK  status: ('A' for Active; 'I' for Inactive)
REMARK    1  A    between atoms: C_1  and  C_8
REMARK                            x       y       z     vdW  Elec       q    Type
REMARK                         _______ _______ _______ _____ _____    ______ ____
ROOT
ATOM      1  C   UNL A   1     -23.301  -1.987  28.996  0.00  0.00    -0.014 C 
ATOM      2  C   UNL A   1     -24.129  -2.844  29.201  0.00  0.00    -0.047 C 
ATOM      3  C   UNL A   1     -24.002  -4.176  28.845  0.00  0.00    +0.022 C 
ATOM      4  C   UNL A   1     -25.004  -5.202  29.004  0.00  0.00    +0.004 C 
ATOM      5  C   UNL A   1     -26.247  -4.850  29.581  0.00  0.00    +0.001 C 
ATOM      6  C   UNL A   1     -26.442  -3.499  29.971  0.00  0.00    +0.004 C 
ATOM      7  C   UNL A   1     -25.446  -2.598  29.753  0.00  0.00    +0.022 C 
ENDROOT
BRANCH   1   8
ATOM      8  C   UNL A   1     -23.492  -0.614  29.577  0.00  0.00    +0.135 C 
ATOM      9  N   UNL A   1     -22.469   0.166  29.883  0.00  0.00    -0.126 NA
ENDBRANCH   1   8
TORSDOF 1
ENDMDL
ENDMDL
