REMARK  Name = No_848-gen_results/8p0m/2024-11-27-11-27-31/
REMARK  2 active torsions:
REMARK  status: ('A' for Active; 'I' for Inactive)
REMARK    1  A    between atoms: C_4  and  O_7
REMARK    2  A    between atoms: O_7  and  C_8
REMARK                            x       y       z     vdW  Elec       q    Type
REMARK                         _______ _______ _______ _____ _____    ______ ____
ROOT
ATOM      1  C   UNL A   1     -28.016  -0.814  28.878  0.00  0.00    +0.003 A 
ATOM      2  C   UNL A   1     -28.469  -0.785  29.829  0.00  0.00    +0.000 A 
ATOM      3  C   UNL A   1     -26.504  -0.778  28.877  0.00  0.00    +0.037 A 
ATOM      4  C   UNL A   1     -25.810  -0.853  30.103  0.00  0.00    +0.139 A 
ATOM      5  C   UNL A   1     -27.991  -0.892  31.226  0.00  0.00    +0.003 A 
ATOM      6  C   UNL A   1     -26.604  -0.868  31.265  0.00  0.00    +0.037 A 
ENDROOT
BRANCH   4   7
ATOM      7  O   UNL A   1     -24.500  -0.782  30.145  0.00  0.00    -0.470 OA
BRANCH   7   8
ATOM      8  C   UNL A   1     -23.846   0.295  29.610  0.00  0.00    +0.210 C 
ATOM      9  C   UNL A   1     -23.613   1.341  30.333  0.00  0.00    +0.021 C 
ATOM     10  C   UNL A   1     -23.301   2.572  29.711  0.00  0.00    -0.001 C 
ATOM     11  C   UNL A   1     -22.975   2.528  28.337  0.00  0.00    -0.001 C 
ATOM     12  C   UNL A   1     -23.810   0.752  28.253  0.00  0.00    +0.021 C 
ENDBRANCH   7   8
ENDBRANCH   4   7
TORSDOF 2
