REMARK  Name = outputs/IAG933/test6/raw/output_8485_IAG933_linker_design_.xyz
REMARK  12 active torsions:
REMARK  status: ('A' for Active; 'I' for Inactive)
REMARK    1  A    between atoms: C_1  and  C_2
REMARK    2  A    between atoms: C_1  and  C_8
REMARK    3  A    between atoms: C_1  and  N_33
REMARK    4  A    between atoms: C_13  and  C_38
REMARK    5  A    between atoms: C_14  and  C_15
REMARK    6  A    between atoms: C_21  and  O_22
REMARK    7  A    between atoms: O_22  and  C_23
REMARK    8  A    between atoms: C_23  and  C_24
REMARK    9  A    between atoms: C_31  and  C_36
REMARK   10  A    between atoms: N_33  and  C_39
REMARK   11  A    between atoms: C_34  and  C_36
REMARK   12  A    between atoms: C_34  and  C_44
REMARK                            x       y       z     vdW  Elec       q    Type
REMARK                         _______ _______ _______ _____ _____    ______ ____
ROOT
ATOM      1  O   UNL A   1     -27.086  -0.850  28.210  0.00  0.00    -0.274 OA
ATOM      2  C   UNL A   1     -26.666   0.045  28.650  0.00  0.00    +0.237 C 
ATOM      3  N   UNL A   1     -25.158   0.013  29.111  0.00  0.00    -0.258 N 
ENDROOT
BRANCH   3   8
ATOM      4  F   UNL A   1     -20.978   1.639  27.305  0.00  0.00    -0.208 F 
ATOM      5  C   UNL A   1     -22.249   1.396  27.519  0.00  0.00    +0.134 C 
ATOM      6  C   UNL A   1     -23.221   1.859  26.713  0.00  0.00    +0.082 C 
ATOM      7  C   UNL A   1     -24.497   1.372  27.115  0.00  0.00    +0.025 C 
ATOM      8  C   UNL A   1     -24.114   0.695  28.400  0.00  0.00    +0.039 C 
ATOM      9  C   UNL A   1     -22.773   0.668  28.566  0.00  0.00    +0.099 C 
ATOM     10 CL   UNL A   1     -22.916   2.815  25.383  0.00  0.00    -0.080 Cl
BRANCH   7  11
ATOM     11  C   UNL A   1     -25.688   1.614  26.461  0.00  0.00    +0.040 C 
ATOM     12  C   UNL A   1     -26.250   2.920  26.395  0.00  0.00    +0.077 C 
ATOM     13  C   UNL A   1     -27.438   3.091  25.645  0.00  0.00    +0.107 C 
ATOM     14  N   UNL A   1     -28.075   2.089  25.003  0.00  0.00    -0.208 NA
ATOM     15  C   UNL A   1     -27.543   0.849  25.079  0.00  0.00    +0.253 C 
ATOM     16  C   UNL A   1     -26.354   0.576  25.777  0.00  0.00    +0.193 C 
ATOM     17  F   UNL A   1     -25.860  -0.681  25.795  0.00  0.00    -0.199 F 
BRANCH  12  18
ATOM     18  C   UNL A   1     -25.642   4.093  27.123  0.00  0.00    +0.266 C 
ATOM     19  N   UNL A   1     -25.614   5.252  26.449  0.00  0.00    -0.200 NA
ATOM     20  C   UNL A   1     -25.026   6.479  26.963  0.00  0.00    +0.139 C 
ATOM     21  O   UNL A   1     -25.143   3.966  28.243  0.00  0.00    -0.268 OA
ENDBRANCH  12  18
BRANCH  15  22
ATOM     22  O   UNL A   1     -28.193  -0.208  24.477  0.00  0.00    -0.456 OA
BRANCH  22  23
ATOM     23  C   UNL A   1     -29.460   0.005  23.866  0.00  0.00    +0.243 C 
BRANCH  23  24
ATOM     24  C   UNL A   1     -30.065  -1.377  23.573  0.00  0.00    +0.229 C 
ATOM     25  O   UNL A   1     -30.729  -1.878  24.721  0.00  0.00    -0.216 OA
ENDBRANCH  23  24
ENDBRANCH  22  23
ENDBRANCH  15  22
ENDBRANCH   7  11
ENDBRANCH   3   8
BRANCH   3  26
ATOM     26  C   UNL A   1     -24.855  -1.012  30.143  0.00  0.00    +0.118 C 
BRANCH  26  27
ATOM     27  C   UNL A   1     -24.973  -2.505  29.788  0.00  0.00    -0.003 C 
ATOM     28  C   UNL A   1     -23.906  -3.173  29.146  0.00  0.00    -0.003 C 
ATOM     29  C   UNL A   1     -23.989  -4.549  28.853  0.00  0.00    -0.000 C 
ATOM     30  C   UNL A   1     -25.137  -5.280  29.205  0.00  0.00    -0.000 C 
ATOM     31  C   UNL A   1     -26.232  -4.611  29.784  0.00  0.00    -0.000 C 
ATOM     32  C   UNL A   1     -26.155  -3.232  30.065  0.00  0.00    -0.003 C 
ENDBRANCH  26  27
BRANCH  26  33
ATOM     33  C   UNL A   1     -25.387  -0.679  31.571  0.00  0.00    +0.095 C 
ATOM     34  C   UNL A   1     -25.189   0.773  32.028  0.00  0.00    +0.021 C 
ATOM     35  C   UNL A   1     -25.336   0.684  33.544  0.00  0.00    +0.020 C 
ATOM     36  C   UNL A   1     -24.829  -0.715  33.905  0.00  0.00    +0.089 C 
ATOM     37  N   UNL A   1     -24.758  -1.481  32.646  0.00  0.00    -0.217 NA
ENDBRANCH  26  33
ENDBRANCH   3  26
BRANCH   2  38
ATOM     38  C   UNL A   1     -27.782   1.172  28.720  0.00  0.00    +0.150 C 
BRANCH  38  39
ATOM     39  C   UNL A   1     -28.610   1.392  29.891  0.00  0.00    +0.162 C 
ATOM     40  O   UNL A   1     -29.386   0.567  30.361  0.00  0.00    -0.295 OA
BRANCH  39  44
ATOM     41  C   UNL A   1     -28.999   2.792  31.950  0.00  0.00    +0.149 C 
ATOM     42  C   UNL A   1     -28.979   4.079  29.927  0.00  0.00    +0.042 C 
ATOM     43  C   UNL A   1     -28.362   4.910  31.162  0.00  0.00    +0.143 C 
ATOM     44  C   UNL A   1     -28.504   2.763  30.567  0.00  0.00    +0.090 C 
ATOM     45  O   UNL A   1     -29.073   4.212  32.226  0.00  0.00    -0.353 OA
ENDBRANCH  39  44
ENDBRANCH  38  39
ENDBRANCH   2  38
TORSDOF 12
