MODEL 848
MODEL 1
REMARK VINA RESULT:    -5.712      0.000      0.000
REMARK INTER + INTRA:          -6.718
REMARK INTER:                  -6.380
REMARK INTRA:                  -0.339
REMARK UNBOUND:                -0.339
REMARK  Name = No_848-gen_results/8p0m/2024-11-27-11-27-31/
REMARK  2 active torsions:
REMARK  status: ('A' for Active; 'I' for Inactive)
REMARK    1  A    between atoms: C_4  and  O_7
REMARK    2  A    between atoms: O_7  and  C_8
REMARK                            x       y       z     vdW  Elec       q    Type
REMARK                         _______ _______ _______ _____ _____    ______ ____
ROOT
ATOM      1  C   UNL A   1     -26.274  -4.451  29.681  0.00  0.00    +0.003 A 
ATOM      2  C   UNL A   1     -25.514  -5.045  29.256  0.00  0.00    +0.000 A 
ATOM      3  C   UNL A   1     -25.927  -2.991  29.871  0.00  0.00    +0.037 A 
ATOM      4  C   UNL A   1     -24.710  -2.497  29.357  0.00  0.00    +0.139 A 
ATOM      5  C   UNL A   1     -24.205  -4.781  28.618  0.00  0.00    +0.003 A 
ATOM      6  C   UNL A   1     -23.854  -3.447  28.768  0.00  0.00    +0.037 A 
ENDROOT
BRANCH   4   7
ATOM      7  O   UNL A   1     -24.355  -1.247  29.540  0.00  0.00    -0.470 OA
BRANCH   7   8
ATOM      8  C   UNL A   1     -23.971  -0.472  28.479  0.00  0.00    +0.210 C 
ATOM      9  C   UNL A   1     -22.961   0.328  28.588  0.00  0.00    +0.021 C 
ATOM     10  C   UNL A   1     -22.798   1.387  27.665  0.00  0.00    -0.001 C 
ATOM     11  C   UNL A   1     -23.589   1.340  26.495  0.00  0.00    -0.001 C 
ATOM     12  C   UNL A   1     -24.760   0.052  27.405  0.00  0.00    +0.021 C 
ENDBRANCH   7   8
ENDBRANCH   4   7
TORSDOF 2
ENDMDL
ENDMDL
