REMARK  Name = outputs/IAG933/test6/raw/output_849_IAG933_linker_design_.xyz
REMARK  15 active torsions:
REMARK  status: ('A' for Active; 'I' for Inactive)
REMARK    1  A    between atoms: C_1  and  C_2
REMARK    2  A    between atoms: C_1  and  C_8
REMARK    3  A    between atoms: C_1  and  N_29
REMARK    4  A    between atoms: C_13  and  C_33
REMARK    5  A    between atoms: C_14  and  C_15
REMARK    6  A    between atoms: C_21  and  O_22
REMARK    7  A    between atoms: O_22  and  C_23
REMARK    8  A    between atoms: C_23  and  C_24
REMARK    9  A    between atoms: C_34  and  O_44
REMARK   10  A    between atoms: S_35  and  C_40
REMARK   11  A    between atoms: S_35  and  C_45
REMARK   12  A    between atoms: C_37  and  C_38
REMARK   13  A    between atoms: C_37  and  C_41
REMARK   14  A    between atoms: C_38  and  C_42
REMARK   15  A    between atoms: C_40  and  C_41
REMARK                            x       y       z     vdW  Elec       q    Type
REMARK                         _______ _______ _______ _____ _____    ______ ____
ROOT
ATOM      1  C   UNL A   1     -22.571   0.862  27.890  0.00  0.00    +0.229 A 
ATOM      2  N   UNL A   1     -24.472  -0.172  29.259  0.00  0.00    -0.285 N 
ATOM      3  O   UNL A   1     -22.326  -0.081  30.116  0.00  0.00    -0.264 OA
ATOM      4  F   UNL A   1     -21.282   1.062  27.742  0.00  0.00    -0.196 F 
ATOM      5  C   UNL A   1     -24.945   1.114  27.275  0.00  0.00    +0.043 A 
ATOM      6  C   UNL A   1     -23.542   1.326  26.986  0.00  0.00    +0.169 A 
ATOM      7  C   UNL A   1     -23.115   0.124  29.141  0.00  0.00    +0.292 A 
ATOM      8  C   UNL A   1     -25.377   0.426  28.419  0.00  0.00    +0.088 A 
ENDROOT
BRANCH   5   9
ATOM      9  C   UNL A   1     -25.688   1.614  26.461  0.00  0.00    +0.097 C 
ATOM     10  C   UNL A   1     -26.250   2.920  26.395  0.00  0.00    +0.059 C 
ATOM     11  C   UNL A   1     -27.438   3.091  25.645  0.00  0.00    +0.102 C 
ATOM     12  N   UNL A   1     -28.075   2.089  25.003  0.00  0.00    -0.212 NA
ATOM     13  C   UNL A   1     -27.543   0.849  25.079  0.00  0.00    +0.234 C 
ATOM     14  C   UNL A   1     -26.354   0.576  25.777  0.00  0.00    +0.244 C 
ATOM     15  F   UNL A   1     -25.860  -0.681  25.795  0.00  0.00    -0.227 F 
BRANCH  10  16
ATOM     16  C   UNL A   1     -25.642   4.093  27.123  0.00  0.00    +0.263 C 
ATOM     17  N   UNL A   1     -25.614   5.252  26.449  0.00  0.00    -0.200 NA
ATOM     18  C   UNL A   1     -25.026   6.479  26.963  0.00  0.00    +0.139 C 
ATOM     19  O   UNL A   1     -25.143   3.966  28.243  0.00  0.00    -0.269 OA
ENDBRANCH  10  16
BRANCH  13  20
ATOM     20  O   UNL A   1     -28.193  -0.208  24.477  0.00  0.00    -0.459 OA
BRANCH  20  21
ATOM     21  C   UNL A   1     -29.460   0.005  23.866  0.00  0.00    +0.242 C 
BRANCH  21  22
ATOM     22  C   UNL A   1     -30.065  -1.377  23.573  0.00  0.00    +0.229 C 
ATOM     23  O   UNL A   1     -30.729  -1.878  24.721  0.00  0.00    -0.216 OA
ENDBRANCH  21  22
ENDBRANCH  20  21
ENDBRANCH  13  20
ENDBRANCH   5   9
BRANCH   6  25
ATOM     24  C   UNL A   1     -21.870   2.148  25.170  0.00  0.00    +0.253 C 
ATOM     25  O   UNL A   1     -23.126   1.845  25.731  0.00  0.00    -0.469 OA
ENDBRANCH   6  25
BRANCH   2  26
ATOM     26  C   UNL A   1     -24.855  -1.012  30.143  0.00  0.00    +0.127 C 
BRANCH  26  27
ATOM     27  C   UNL A   1     -24.973  -2.505  29.788  0.00  0.00    -0.000 C 
ATOM     28  C   UNL A   1     -23.906  -3.173  29.146  0.00  0.00    -0.002 C 
ATOM     29  C   UNL A   1     -23.989  -4.549  28.853  0.00  0.00    -0.000 C 
ATOM     30  C   UNL A   1     -25.137  -5.280  29.205  0.00  0.00    -0.000 C 
ATOM     31  C   UNL A   1     -26.232  -4.611  29.784  0.00  0.00    -0.000 C 
ATOM     32  C   UNL A   1     -26.155  -3.232  30.065  0.00  0.00    -0.002 C 
ENDBRANCH  26  27
BRANCH  26  33
ATOM     33  C   UNL A   1     -25.387  -0.679  31.571  0.00  0.00    +0.098 C 
ATOM     34  C   UNL A   1     -25.189   0.773  32.028  0.00  0.00    +0.021 C 
ATOM     35  C   UNL A   1     -25.336   0.684  33.544  0.00  0.00    +0.020 C 
ATOM     36  C   UNL A   1     -24.829  -0.715  33.905  0.00  0.00    +0.089 C 
ATOM     37  N   UNL A   1     -24.758  -1.481  32.646  0.00  0.00    -0.217 NA
ENDBRANCH  26  33
ENDBRANCH   2  26
BRANCH   8  38
ATOM     38  S   UNL A   1     -27.164   0.257  28.787  0.00  0.00    -0.097 S 
BRANCH  38  39
ATOM     39  C   UNL A   1     -28.177   1.537  29.831  0.00  0.00    +0.064 C 
BRANCH  39  40
ATOM     40  C   UNL A   1     -28.421   3.067  29.744  0.00  0.00    +0.012 C 
BRANCH  40  41
ATOM     41  C   UNL A   1     -29.595   3.575  30.043  0.00  0.00    +0.001 C 
BRANCH  41  42
ATOM     42  C   UNL A   1     -30.803   2.684  29.779  0.00  0.00    +0.000 C 
BRANCH  42  45
ATOM     43  C   UNL A   1     -32.248   2.667  31.784  0.00  0.00    +0.000 C 
ATOM     44  C   UNL A   1     -33.202   3.331  29.439  0.00  0.00    +0.000 C 
ATOM     45  C   UNL A   1     -32.032   3.364  30.424  0.00  0.00    +0.000 C 
ENDBRANCH  42  45
ENDBRANCH  41  42
ENDBRANCH  40  41
ENDBRANCH  39  40
ENDBRANCH  38  39
ENDBRANCH   8  38
TORSDOF 15
