MODEL 849
MODEL 1
REMARK VINA RESULT:    -7.824      0.000      0.000
REMARK INTER + INTRA:         -10.853
REMARK INTER:                  -9.654
REMARK INTRA:                  -1.199
REMARK UNBOUND:                -1.199
REMARK  Name = No_849-gen_results/8p0m/2024-11-27-11-27-31/
REMARK  4 active torsions:
REMARK  status: ('A' for Active; 'I' for Inactive)
REMARK    1  A    between atoms: C_3  and  C_11
REMARK    2  A    between atoms: C_5  and  C_26
REMARK    3  A    between atoms: C_8  and  C_23
REMARK    4  A    between atoms: C_11  and  C_12
REMARK                            x       y       z     vdW  Elec       q    Type
REMARK                         _______ _______ _______ _____ _____    ______ ____
ROOT
ATOM      1  C   UNL A   1     -12.035   1.972  38.427  0.00  0.00    +0.006 A 
ATOM      2  C   UNL A   1     -12.304   1.880  37.251  0.00  0.00    -0.004 A 
ATOM      3  C   UNL A   1     -11.532   1.228  36.305  0.00  0.00    -0.018 A 
ATOM      4  C   UNL A   1     -11.786   1.171  34.886  0.00  0.00    +0.003 A 
ATOM      5  C   UNL A   1     -12.930   1.831  34.377  0.00  0.00    +0.080 A 
ATOM      6  C   UNL A   1     -13.733   2.544  35.332  0.00  0.00    +0.007 A 
ATOM      7  C   UNL A   1     -13.460   2.607  36.669  0.00  0.00    -0.000 A 
ATOM      8  C   UNL A   1     -13.000   2.615  39.360  0.00  0.00    +0.080 A 
ATOM      9  C   UNL A   1     -14.045   3.423  38.831  0.00  0.00    +0.007 A 
ATOM     10  C   UNL A   1     -14.312   3.389  37.482  0.00  0.00    +0.000 A 
ENDROOT
BRANCH   8  11
ATOM     11  C   UNL A   1     -12.678   2.671  40.817  0.00  0.00    +0.388 C 
ATOM     12  O   UNL A   1     -12.048   1.847  41.355  0.00  0.00    -0.241 OA
ATOM     13  O   UNL A   1     -13.492   3.455  41.573  0.00  0.00    -0.241 OA
ENDBRANCH   8  11
BRANCH   5  14
ATOM     14  C   UNL A   1     -13.222   1.838  32.958  0.00  0.00    +0.388 C 
ATOM     15  O   UNL A   1     -12.553   1.117  32.230  0.00  0.00    -0.241 OA
ATOM     16  O   UNL A   1     -14.114   2.633  32.526  0.00  0.00    -0.241 OA
ENDBRANCH   5  14
BRANCH   3  17
ATOM     17  C   UNL A   1     -10.277   0.509  36.660  0.00  0.00    +0.045 C 
ATOM     18  C   UNL A   1     -10.634  -0.789  37.289  0.00  0.00    +0.009 C 
BRANCH  17  19
ATOM     19  C   UNL A   1      -9.210   0.738  36.160  0.00  0.00    -0.018 A 
ATOM     20  C   UNL A   1      -8.236   1.445  36.943  0.00  0.00    -0.004 A 
ATOM     21  C   UNL A   1      -6.819   1.374  36.586  0.00  0.00    -0.000 A 
ATOM     22  C   UNL A   1      -6.459   0.350  35.846  0.00  0.00    -0.000 A 
ATOM     23  C   UNL A   1      -5.124   0.255  35.495  0.00  0.00    -0.000 A 
ATOM     24  C   UNL A   1      -4.665  -0.819  34.675  0.00  0.00    -0.000 A 
ATOM     25  C   UNL A   1      -5.679  -1.726  34.220  0.00  0.00    -0.000 A 
ATOM     26  C   UNL A   1      -6.977  -1.648  34.561  0.00  0.00    -0.000 A 
ATOM     27  C   UNL A   1      -7.353  -0.610  35.404  0.00  0.00    -0.000 A 
ATOM     28  C   UNL A   1      -8.526  -0.633  35.812  0.00  0.00    -0.004 A 
ENDBRANCH  17  19
ENDBRANCH   3  17
TORSDOF 4
ENDMDL
ENDMDL
