MODEL 84
MODEL 1
REMARK VINA RESULT:    -4.876      0.000      0.000
REMARK INTER + INTRA:          -5.309
REMARK INTER:                  -5.161
REMARK INTRA:                  -0.148
REMARK UNBOUND:                -0.148
REMARK  Name = No_84-gen_results/8p0m/2024-11-27-11-27-31/
REMARK  1 active torsions:
REMARK  status: ('A' for Active; 'I' for Inactive)
REMARK    1  A    between atoms: C_3  and  C_7
REMARK                            x       y       z     vdW  Elec       q    Type
REMARK                         _______ _______ _______ _____ _____    ______ ____
ROOT
ATOM      1  C   UNL A   1      -8.309 -10.730  18.665  0.00  0.00    +0.000 C 
ATOM      2  C   UNL A   1      -8.942 -10.676  17.824  0.00  0.00    +0.000 C 
ATOM      3  C   UNL A   1      -8.381  -9.552  19.529  0.00  0.00    +0.000 C 
ATOM      4  C   UNL A   1      -9.395  -9.311  20.182  0.00  0.00    +0.000 C 
ATOM      5  C   UNL A   1     -10.654  -9.145  19.269  0.00  0.00    +0.000 C 
ATOM      6  C   UNL A   1     -10.483 -10.386  17.861  0.00  0.00    +0.000 C 
ENDROOT
BRANCH   3   7
ATOM      7  C   UNL A   1      -7.128  -8.882  19.984  0.00  0.00    +0.000 C 
ATOM      8  C   UNL A   1      -6.870  -7.734  19.607  0.00  0.00    +0.000 C 
ENDBRANCH   3   7
TORSDOF 1
ENDMDL
ENDMDL
