REMARK  Name = outputs/IAG933/test6/raw/output_8503_IAG933_linker_design_.xyz
REMARK  11 active torsions:
REMARK  status: ('A' for Active; 'I' for Inactive)
REMARK    1  A    between atoms: C_1  and  C_2
REMARK    2  A    between atoms: C_1  and  C_8
REMARK    3  A    between atoms: C_1  and  C_39
REMARK    4  A    between atoms: C_13  and  C_37
REMARK    5  A    between atoms: C_14  and  C_15
REMARK    6  A    between atoms: C_21  and  O_22
REMARK    7  A    between atoms: O_22  and  C_23
REMARK    8  A    between atoms: C_23  and  C_24
REMARK    9  A    between atoms: C_33  and  C_37
REMARK   10  A    between atoms: C_34  and  C_42
REMARK   11  A    between atoms: N_35  and  C_40
REMARK                            x       y       z     vdW  Elec       q    Type
REMARK                         _______ _______ _______ _____ _____    ______ ____
ROOT
ATOM      1  N   UNL A   1     -26.237   0.239  28.584  0.00  0.00    -0.306 N 
ATOM      2  C   UNL A   1     -25.065   0.940  27.849  0.00  0.00    +0.106 C 
ATOM      3  C   UNL A   1     -25.085  -0.000  29.070  0.00  0.00    +0.097 C 
ENDROOT
BRANCH   2   4
ATOM      4  C   UNL A   1     -25.688   1.614  26.461  0.00  0.00    +0.091 C 
ATOM      5  C   UNL A   1     -26.250   2.920  26.395  0.00  0.00    +0.057 C 
ATOM      6  C   UNL A   1     -27.438   3.091  25.645  0.00  0.00    +0.102 C 
ATOM      7  N   UNL A   1     -28.075   2.089  25.003  0.00  0.00    -0.212 NA
ATOM      8  C   UNL A   1     -27.543   0.849  25.079  0.00  0.00    +0.234 C 
ATOM      9  C   UNL A   1     -26.354   0.576  25.777  0.00  0.00    +0.242 C 
ATOM     10  F   UNL A   1     -25.860  -0.681  25.795  0.00  0.00    -0.227 F 
BRANCH   5  11
ATOM     11  C   UNL A   1     -25.642   4.093  27.123  0.00  0.00    +0.263 C 
ATOM     12  N   UNL A   1     -25.614   5.252  26.449  0.00  0.00    -0.200 NA
ATOM     13  C   UNL A   1     -25.026   6.479  26.963  0.00  0.00    +0.139 C 
ATOM     14  O   UNL A   1     -25.143   3.966  28.243  0.00  0.00    -0.269 OA
ENDBRANCH   5  11
BRANCH   8  15
ATOM     15  O   UNL A   1     -28.193  -0.208  24.477  0.00  0.00    -0.459 OA
BRANCH  15  16
ATOM     16  C   UNL A   1     -29.460   0.005  23.866  0.00  0.00    +0.242 C 
BRANCH  16  17
ATOM     17  C   UNL A   1     -30.065  -1.377  23.573  0.00  0.00    +0.229 C 
ATOM     18  O   UNL A   1     -30.729  -1.878  24.721  0.00  0.00    -0.216 OA
ENDBRANCH  16  17
ENDBRANCH  15  16
ENDBRANCH   8  15
ENDBRANCH   2   4
BRANCH   1  22
ATOM     19  C   UNL A   1     -29.556  -0.170  27.700  0.00  0.00    +0.001 C 
ATOM     20  C   UNL A   1     -28.242  -0.385  27.932  0.00  0.00    +0.015 C 
ATOM     21  C   UNL A   1     -28.265   1.171  29.733  0.00  0.00    +0.013 C 
ATOM     22  C   UNL A   1     -27.543   0.342  28.851  0.00  0.00    +0.048 C 
ATOM     23  C   UNL A   1     -29.651   1.375  29.535  0.00  0.00    +0.012 C 
ATOM     24  C   UNL A   1     -30.264   0.674  28.527  0.00  0.00    -0.002 C 
BRANCH  23  25
ATOM     25  C   UNL A   1     -30.579   2.397  30.283  0.00  0.00    +0.209 C 
ATOM     26  O   UNL A   1     -31.493   3.063  29.383  0.00  0.00    -0.215 OA
ENDBRANCH  23  25
ENDBRANCH   1  22
BRANCH   2  29
ATOM     27  C   UNL A   1     -22.273   0.777  28.511  0.00  0.00    +0.034 C 
ATOM     28  C   UNL A   1     -21.029   1.226  27.749  0.00  0.00    +0.035 C 
ATOM     29  C   UNL A   1     -23.417   1.139  27.530  0.00  0.00    +0.134 C 
ATOM     30  C   UNL A   1     -21.453   1.769  26.388  0.00  0.00    +0.142 C 
ATOM     31  O   UNL A   1     -22.909   1.962  26.442  0.00  0.00    -0.355 OA
ENDBRANCH   2  29
BRANCH   3  32
ATOM     32  C   UNL A   1     -24.855  -1.012  30.143  0.00  0.00    +0.058 C 
BRANCH  32  33
ATOM     33  C   UNL A   1     -24.973  -2.505  29.788  0.00  0.00    -0.019 C 
ATOM     34  C   UNL A   1     -23.906  -3.173  29.146  0.00  0.00    -0.004 C 
ATOM     35  C   UNL A   1     -23.989  -4.549  28.853  0.00  0.00    -0.000 C 
ATOM     36  C   UNL A   1     -25.137  -5.280  29.205  0.00  0.00    -0.000 C 
ATOM     37  C   UNL A   1     -26.232  -4.611  29.784  0.00  0.00    -0.000 C 
ATOM     38  C   UNL A   1     -26.155  -3.232  30.065  0.00  0.00    -0.004 C 
ENDBRANCH  32  33
BRANCH  32  39
ATOM     39  C   UNL A   1     -25.387  -0.679  31.571  0.00  0.00    +0.079 C 
ATOM     40  C   UNL A   1     -25.189   0.773  32.028  0.00  0.00    +0.019 C 
ATOM     41  C   UNL A   1     -25.336   0.684  33.544  0.00  0.00    +0.020 C 
ATOM     42  C   UNL A   1     -24.829  -0.715  33.905  0.00  0.00    +0.089 C 
ATOM     43  N   UNL A   1     -24.758  -1.481  32.646  0.00  0.00    -0.219 NA
ENDBRANCH  32  39
ENDBRANCH   3  32
TORSDOF 11
