REMARK  Name = outputs/IAG933/test6/raw/output_8506_IAG933_linker_design_.xyz
REMARK  9 active torsions:
REMARK  status: ('A' for Active; 'I' for Inactive)
REMARK    1  A    between atoms: C_1  and  C_2
REMARK    2  A    between atoms: C_1  and  C_8
REMARK    3  A    between atoms: C_13  and  C_32
REMARK    4  A    between atoms: C_14  and  C_15
REMARK    5  A    between atoms: C_21  and  O_22
REMARK    6  A    between atoms: O_22  and  C_23
REMARK    7  A    between atoms: C_23  and  C_24
REMARK    8  A    between atoms: C_28  and  C_34
REMARK    9  A    between atoms: C_31  and  O_40
REMARK                            x       y       z     vdW  Elec       q    Type
REMARK                         _______ _______ _______ _____ _____    ______ ____
ROOT
ATOM      1  C   UNL A   1     -21.864   1.998  26.465  0.00  0.00    +0.043 C 
ATOM      2  C   UNL A   1     -23.167   2.018  26.018  0.00  0.00    +0.185 C 
ATOM      3  C   UNL A   1     -24.254   1.475  26.808  0.00  0.00    +0.023 C 
ATOM      4  C   UNL A   1     -22.625   0.968  28.444  0.00  0.00    +0.138 C 
ATOM      5  C   UNL A   1     -23.906   0.825  27.991  0.00  0.00    +0.028 C 
ATOM      6  F   UNL A   1     -22.286   0.553  29.657  0.00  0.00    -0.204 F 
ATOM      7  C   UNL A   1     -21.569   1.468  27.711  0.00  0.00    +0.033 C 
ENDROOT
BRANCH   3   8
ATOM      8  C   UNL A   1     -25.688   1.614  26.461  0.00  0.00    +0.095 C 
ATOM      9  C   UNL A   1     -26.250   2.920  26.395  0.00  0.00    +0.059 C 
ATOM     10  C   UNL A   1     -27.438   3.091  25.645  0.00  0.00    +0.102 C 
ATOM     11  N   UNL A   1     -28.075   2.089  25.003  0.00  0.00    -0.212 NA
ATOM     12  C   UNL A   1     -27.543   0.849  25.079  0.00  0.00    +0.234 C 
ATOM     13  C   UNL A   1     -26.354   0.576  25.777  0.00  0.00    +0.244 C 
ATOM     14  F   UNL A   1     -25.860  -0.681  25.795  0.00  0.00    -0.227 F 
BRANCH   9  15
ATOM     15  C   UNL A   1     -25.642   4.093  27.123  0.00  0.00    +0.263 C 
ATOM     16  N   UNL A   1     -25.614   5.252  26.449  0.00  0.00    -0.200 NA
ATOM     17  C   UNL A   1     -25.026   6.479  26.963  0.00  0.00    +0.139 C 
ATOM     18  O   UNL A   1     -25.143   3.966  28.243  0.00  0.00    -0.269 OA
ENDBRANCH   9  15
BRANCH  12  19
ATOM     19  O   UNL A   1     -28.193  -0.208  24.477  0.00  0.00    -0.459 OA
BRANCH  19  20
ATOM     20  C   UNL A   1     -29.460   0.005  23.866  0.00  0.00    +0.242 C 
BRANCH  20  21
ATOM     21  C   UNL A   1     -30.065  -1.377  23.573  0.00  0.00    +0.229 C 
ATOM     22  O   UNL A   1     -30.729  -1.878  24.721  0.00  0.00    -0.216 OA
ENDBRANCH  20  21
ENDBRANCH  19  20
ENDBRANCH  12  19
ENDBRANCH   3   8
BRANCH   5  24
ATOM     23  C   UNL A   1     -24.855  -1.012  30.143  0.00  0.00    +0.168 C 
ATOM     24  C   UNL A   1     -24.738  -0.145  28.768  0.00  0.00    +0.179 C 
ATOM     25  O   UNL A   1     -27.166  -0.871  28.878  0.00  0.00    -0.172 OA
ATOM     26  O   UNL A   1     -26.662   1.310  29.175  0.00  0.00    -0.172 OA
ATOM     27  S   UNL A   1     -26.220   0.065  28.996  0.00  0.00    -0.002 S 
BRANCH  23  28
ATOM     28  C   UNL A   1     -24.973  -2.505  29.788  0.00  0.00    +0.001 C 
ATOM     29  C   UNL A   1     -23.906  -3.173  29.146  0.00  0.00    -0.003 C 
ATOM     30  C   UNL A   1     -23.989  -4.549  28.853  0.00  0.00    -0.000 C 
ATOM     31  C   UNL A   1     -25.137  -5.280  29.205  0.00  0.00    -0.000 C 
ATOM     32  C   UNL A   1     -26.232  -4.611  29.784  0.00  0.00    -0.000 C 
ATOM     33  C   UNL A   1     -26.155  -3.232  30.065  0.00  0.00    -0.003 C 
ENDBRANCH  23  28
BRANCH  23  34
ATOM     34  C   UNL A   1     -25.387  -0.679  31.571  0.00  0.00    +0.099 C 
ATOM     35  C   UNL A   1     -25.189   0.773  32.028  0.00  0.00    +0.021 C 
ATOM     36  C   UNL A   1     -25.336   0.684  33.544  0.00  0.00    +0.020 C 
ATOM     37  C   UNL A   1     -24.829  -0.715  33.905  0.00  0.00    +0.089 C 
ATOM     38  N   UNL A   1     -24.758  -1.481  32.646  0.00  0.00    -0.217 NA
ENDBRANCH  23  34
ENDBRANCH   5  24
BRANCH   2  40
ATOM     39  F   UNL A   1     -23.195   3.893  24.898  0.00  0.00    +0.014 F 
ATOM     40  O   UNL A   1     -23.341   2.556  24.755  0.00  0.00    -0.292 OA
ENDBRANCH   2  40
TORSDOF 9
