REMARK  Name = outputs/IAG933/test6/raw/output_8509_IAG933_linker_design_.xyz
REMARK  11 active torsions:
REMARK  status: ('A' for Active; 'I' for Inactive)
REMARK    1  A    between atoms: C_1  and  C_2
REMARK    2  A    between atoms: C_1  and  C_8
REMARK    3  A    between atoms: C_1  and  N_43
REMARK    4  A    between atoms: C_13  and  C_32
REMARK    5  A    between atoms: C_14  and  C_15
REMARK    6  A    between atoms: C_21  and  O_22
REMARK    7  A    between atoms: O_22  and  C_23
REMARK    8  A    between atoms: C_23  and  C_24
REMARK    9  A    between atoms: C_29  and  C_35
REMARK   10  A    between atoms: C_29  and  C_46
REMARK   11  A    between atoms: C_31  and  N_43
REMARK                            x       y       z     vdW  Elec       q    Type
REMARK                         _______ _______ _______ _____ _____    ______ ____
ROOT
ATOM      1  C   UNL A   1     -26.896   0.225  29.078  0.00  0.00    +0.234 C 
ATOM      2  O   UNL A   1     -27.271   1.327  28.852  0.00  0.00    -0.274 OA
ATOM      3  N   UNL A   1     -25.187   0.068  28.991  0.00  0.00    -0.253 N 
ENDROOT
BRANCH   3   5
ATOM      4  C   UNL A   1     -23.306   1.934  25.954  0.00  0.00    -0.003 C 
ATOM      5  C   UNL A   1     -24.102   0.787  28.104  0.00  0.00    +0.078 C 
ATOM      6  C   UNL A   1     -24.315   1.443  26.839  0.00  0.00    +0.001 C 
ATOM      7  C   UNL A   1     -21.968   1.899  26.361  0.00  0.00    +0.002 C 
ATOM      8  C   UNL A   1     -22.605   0.783  28.460  0.00  0.00    +0.153 C 
ATOM      9  C   UNL A   1     -21.620   1.289  27.596  0.00  0.00    +0.031 C 
ATOM     10  F   UNL A   1     -22.256   0.227  29.703  0.00  0.00    -0.203 F 
BRANCH   6  11
ATOM     11  C   UNL A   1     -25.688   1.614  26.461  0.00  0.00    +0.094 C 
ATOM     12  C   UNL A   1     -26.250   2.920  26.395  0.00  0.00    +0.059 C 
ATOM     13  C   UNL A   1     -27.438   3.091  25.645  0.00  0.00    +0.102 C 
ATOM     14  N   UNL A   1     -28.075   2.089  25.003  0.00  0.00    -0.212 NA
ATOM     15  C   UNL A   1     -27.543   0.849  25.079  0.00  0.00    +0.234 C 
ATOM     16  C   UNL A   1     -26.354   0.576  25.777  0.00  0.00    +0.244 C 
ATOM     17  F   UNL A   1     -25.860  -0.681  25.795  0.00  0.00    -0.227 F 
BRANCH  12  18
ATOM     18  C   UNL A   1     -25.642   4.093  27.123  0.00  0.00    +0.263 C 
ATOM     19  N   UNL A   1     -25.614   5.252  26.449  0.00  0.00    -0.200 NA
ATOM     20  C   UNL A   1     -25.026   6.479  26.963  0.00  0.00    +0.139 C 
ATOM     21  O   UNL A   1     -25.143   3.966  28.243  0.00  0.00    -0.269 OA
ENDBRANCH  12  18
BRANCH  15  22
ATOM     22  O   UNL A   1     -28.193  -0.208  24.477  0.00  0.00    -0.459 OA
BRANCH  22  23
ATOM     23  C   UNL A   1     -29.460   0.005  23.866  0.00  0.00    +0.242 C 
BRANCH  23  24
ATOM     24  C   UNL A   1     -30.065  -1.377  23.573  0.00  0.00    +0.229 C 
ATOM     25  O   UNL A   1     -30.729  -1.878  24.721  0.00  0.00    -0.216 OA
ENDBRANCH  23  24
ENDBRANCH  22  23
ENDBRANCH  15  22
ENDBRANCH   6  11
ENDBRANCH   3   5
BRANCH   3  26
ATOM     26  C   UNL A   1     -24.855  -1.012  30.143  0.00  0.00    +0.118 C 
BRANCH  26  27
ATOM     27  C   UNL A   1     -24.973  -2.505  29.788  0.00  0.00    -0.003 C 
ATOM     28  C   UNL A   1     -23.906  -3.173  29.146  0.00  0.00    -0.003 C 
ATOM     29  C   UNL A   1     -23.989  -4.549  28.853  0.00  0.00    -0.000 C 
ATOM     30  C   UNL A   1     -25.137  -5.280  29.205  0.00  0.00    -0.000 C 
ATOM     31  C   UNL A   1     -26.232  -4.611  29.784  0.00  0.00    -0.000 C 
ATOM     32  C   UNL A   1     -26.155  -3.232  30.065  0.00  0.00    -0.003 C 
ENDBRANCH  26  27
BRANCH  26  33
ATOM     33  C   UNL A   1     -25.387  -0.679  31.571  0.00  0.00    +0.096 C 
ATOM     34  C   UNL A   1     -25.189   0.773  32.028  0.00  0.00    +0.021 C 
ATOM     35  C   UNL A   1     -25.336   0.684  33.544  0.00  0.00    +0.020 C 
ATOM     36  C   UNL A   1     -24.829  -0.715  33.905  0.00  0.00    +0.089 C 
ATOM     37  N   UNL A   1     -24.758  -1.481  32.646  0.00  0.00    -0.217 NA
ENDBRANCH  26  33
ENDBRANCH   3  26
BRANCH   1  38
ATOM     38  C   UNL A   1     -27.959  -0.855  29.571  0.00  0.00    +0.115 C 
BRANCH  38  46
ATOM     39  C   UNL A   1     -31.976   0.709  29.985  0.00  0.00    +0.010 C 
ATOM     40 BR   UNL A   1     -32.296   0.093  32.654  0.00  0.00    -0.049 Br
ATOM     41  O   UNL A   1     -29.665  -0.266  27.364  0.00  0.00    -0.287 OA
ATOM     42  C   UNL A   1     -31.356   0.188  31.112  0.00  0.00    +0.035 C 
ATOM     43  C   UNL A   1     -30.032  -0.369  30.993  0.00  0.00    +0.006 C 
ATOM     44  C   UNL A   1     -30.129  -0.061  28.573  0.00  0.00    +0.192 C 
ATOM     45  C   UNL A   1     -31.412   0.552  28.718  0.00  0.00    +0.042 C 
ATOM     46  C   UNL A   1     -29.398  -0.438  29.739  0.00  0.00    +0.026 C 
ENDBRANCH  38  46
ENDBRANCH   1  38
TORSDOF 11
