MODEL 850
MODEL 1
REMARK VINA RESULT:    -6.903      0.000      0.000
REMARK INTER + INTRA:          -9.042
REMARK INTER:                  -8.518
REMARK INTRA:                  -0.524
REMARK UNBOUND:                -0.524
REMARK  Name = No_850-gen_results/8p0m/2024-11-27-11-27-31/
REMARK  4 active torsions:
REMARK  status: ('A' for Active; 'I' for Inactive)
REMARK    1  A    between atoms: C_5  and  S_10
REMARK    2  A    between atoms: S_10  and  N_12
REMARK    3  A    between atoms: N_12  and  C_15
REMARK    4  A    between atoms: C_15  and  C_16
REMARK                            x       y       z     vdW  Elec       q    Type
REMARK                         _______ _______ _______ _____ _____    ______ ____
ROOT
ATOM      1  S   UNL A   1     -25.275   1.000  30.235  0.00  0.00    +0.066 S 
ATOM      2  O   UNL A   1     -26.140   2.097  30.338  0.00  0.00    -0.153 OA
ATOM      3  O   UNL A   1     -24.466   0.702  31.363  0.00  0.00    -0.153 OA
ENDROOT
BRANCH   1   8
ATOM      4  C   UNL A   1     -22.147   0.943  27.916  0.00  0.00    +0.061 A 
ATOM      5  C   UNL A   1     -22.899   0.766  28.633  0.00  0.00    +0.161 A 
ATOM      6  C   UNL A   1     -22.514   1.915  26.816  0.00  0.00    +0.153 A 
ATOM      7  C   UNL A   1     -23.737   2.613  26.890  0.00  0.00    +0.086 A 
ATOM      8  C   UNL A   1     -24.212   1.371  28.952  0.00  0.00    +0.150 A 
ATOM      9  C   UNL A   1     -24.580   2.275  27.965  0.00  0.00    +0.036 A 
ATOM     10  F   UNL A   1     -22.536  -0.157  29.693  0.00  0.00    -0.203 F 
ATOM     11 CL   UNL A   1     -24.196   3.676  25.680  0.00  0.00    -0.080 Cl
ATOM     12  F   UNL A   1     -21.730   2.259  25.779  0.00  0.00    -0.203 F 
ENDBRANCH   1   8
BRANCH   1  13
ATOM     13  N   UNL A   1     -26.040  -0.297  29.813  0.00  0.00    -0.149 NA
ATOM     14  C   UNL A   1     -27.354  -0.298  29.443  0.00  0.00    +0.115 C 
BRANCH  13  15
ATOM     15  C   UNL A   1     -25.746  -1.424  30.664  0.00  0.00    +0.122 C 
BRANCH  15  16
ATOM     16  C   UNL A   1     -25.533  -2.551  30.086  0.00  0.00    -0.004 A 
ATOM     17  C   UNL A   1     -26.393  -3.570  30.067  0.00  0.00    -0.003 A 
ATOM     18  C   UNL A   1     -26.090  -4.891  29.546  0.00  0.00    -0.000 A 
ATOM     19  C   UNL A   1     -24.855  -5.138  28.920  0.00  0.00    -0.000 A 
ATOM     20  C   UNL A   1     -23.935  -4.063  28.847  0.00  0.00    -0.000 A 
ATOM     21  C   UNL A   1     -24.248  -2.850  29.411  0.00  0.00    -0.003 A 
ENDBRANCH  15  16
ENDBRANCH  13  15
ENDBRANCH   1  13
TORSDOF 4
ENDMDL
ENDMDL
