REMARK  Name = outputs/IAG933/test6/raw/output_851_IAG933_linker_design_.xyz
REMARK  11 active torsions:
REMARK  status: ('A' for Active; 'I' for Inactive)
REMARK    1  A    between atoms: C_1  and  C_2
REMARK    2  A    between atoms: C_1  and  C_8
REMARK    3  A    between atoms: C_9  and  C_41
REMARK    4  A    between atoms: C_13  and  C_37
REMARK    5  A    between atoms: C_14  and  C_15
REMARK    6  A    between atoms: C_21  and  O_22
REMARK    7  A    between atoms: O_22  and  C_23
REMARK    8  A    between atoms: C_23  and  C_24
REMARK    9  A    between atoms: C_30  and  C_41
REMARK   10  A    between atoms: C_36  and  N_43
REMARK   11  A    between atoms: C_41  and  N_43
REMARK                            x       y       z     vdW  Elec       q    Type
REMARK                         _______ _______ _______ _____ _____    ______ ____
ROOT
ATOM      1  C   UNL A   1     -24.799   1.762  31.106  0.00  0.00    +0.121 C 
ENDROOT
BRANCH   1   3
ATOM      2  C   UNL A   1     -26.789   4.596  31.838  0.00  0.00    -0.021 C 
ATOM      3  C   UNL A   1     -25.132   3.190  31.335  0.00  0.00    +0.140 C 
ATOM      4  C   UNL A   1     -28.690   5.074  33.245  0.00  0.00    -0.000 C 
ATOM      5  C   UNL A   1     -26.480   5.841  33.938  0.00  0.00    -0.002 C 
ATOM      6  C   UNL A   1     -24.590   5.203  32.438  0.00  0.00    +0.168 C 
ATOM      7  O   UNL A   1     -24.253   3.911  32.048  0.00  0.00    -0.349 OA
ATOM      8  C   UNL A   1     -26.247   3.691  30.894  0.00  0.00    +0.057 C 
ATOM      9  C   UNL A   1     -27.834   5.599  34.222  0.00  0.00    -0.000 C 
ATOM     10  C   UNL A   1     -25.980   5.314  32.755  0.00  0.00    +0.003 C 
ATOM     11  C   UNL A   1     -28.197   4.625  32.030  0.00  0.00    -0.004 C 
ENDBRANCH   1   3
BRANCH   1  13
ATOM     12  C   UNL A   1     -25.387  -0.679  31.571  0.00  0.00    +0.079 C 
ATOM     13  C   UNL A   1     -25.189   0.773  32.028  0.00  0.00    +0.040 C 
ATOM     14  C   UNL A   1     -25.336   0.684  33.544  0.00  0.00    +0.022 C 
ATOM     15  C   UNL A   1     -24.829  -0.715  33.905  0.00  0.00    +0.089 C 
ATOM     16  N   UNL A   1     -24.758  -1.481  32.646  0.00  0.00    -0.219 NA
BRANCH  12  17
ATOM     17  C   UNL A   1     -24.855  -1.012  30.143  0.00  0.00    +0.044 C 
BRANCH  17  18
ATOM     18  C   UNL A   1     -24.973  -2.505  29.788  0.00  0.00    -0.021 C 
ATOM     19  C   UNL A   1     -23.906  -3.173  29.146  0.00  0.00    -0.004 C 
ATOM     20  C   UNL A   1     -23.989  -4.549  28.853  0.00  0.00    -0.000 C 
ATOM     21  C   UNL A   1     -25.137  -5.280  29.205  0.00  0.00    -0.000 C 
ATOM     22  C   UNL A   1     -26.232  -4.611  29.784  0.00  0.00    -0.000 C 
ATOM     23  C   UNL A   1     -26.155  -3.232  30.065  0.00  0.00    -0.004 C 
ENDBRANCH  17  18
ENDBRANCH  12  17
ENDBRANCH   1  13
BRANCH   1  24
ATOM     24  N   UNL A   1     -24.231   1.588  29.548  0.00  0.00    -0.234 NA
BRANCH  24  29
ATOM     25  C   UNL A   1     -21.970   1.860  26.150  0.00  0.00    +0.003 C 
ATOM     26  O   UNL A   1     -22.134  -0.066  29.343  0.00  0.00    -0.285 OA
ATOM     27  C   UNL A   1     -22.468   0.845  28.389  0.00  0.00    +0.210 C 
ATOM     28  C   UNL A   1     -21.510   1.244  27.375  0.00  0.00    +0.043 C 
ATOM     29  C   UNL A   1     -23.782   1.379  28.255  0.00  0.00    +0.101 C 
ATOM     30  C   UNL A   1     -24.306   1.595  26.932  0.00  0.00    +0.003 C 
ATOM     31  C   UNL A   1     -23.346   1.961  25.874  0.00  0.00    -0.002 C 
BRANCH  30  32
ATOM     32  C   UNL A   1     -25.688   1.614  26.461  0.00  0.00    +0.094 C 
ATOM     33  C   UNL A   1     -26.250   2.920  26.395  0.00  0.00    +0.059 C 
ATOM     34  C   UNL A   1     -27.438   3.091  25.645  0.00  0.00    +0.102 C 
ATOM     35  N   UNL A   1     -28.075   2.089  25.003  0.00  0.00    -0.212 NA
ATOM     36  C   UNL A   1     -27.543   0.849  25.079  0.00  0.00    +0.234 C 
ATOM     37  C   UNL A   1     -26.354   0.576  25.777  0.00  0.00    +0.244 C 
ATOM     38  F   UNL A   1     -25.860  -0.681  25.795  0.00  0.00    -0.227 F 
BRANCH  33  39
ATOM     39  C   UNL A   1     -25.642   4.093  27.123  0.00  0.00    +0.263 C 
ATOM     40  N   UNL A   1     -25.614   5.252  26.449  0.00  0.00    -0.200 NA
ATOM     41  C   UNL A   1     -25.026   6.479  26.963  0.00  0.00    +0.139 C 
ATOM     42  O   UNL A   1     -25.143   3.966  28.243  0.00  0.00    -0.269 OA
ENDBRANCH  33  39
BRANCH  36  43
ATOM     43  O   UNL A   1     -28.193  -0.208  24.477  0.00  0.00    -0.459 OA
BRANCH  43  44
ATOM     44  C   UNL A   1     -29.460   0.005  23.866  0.00  0.00    +0.242 C 
BRANCH  44  45
ATOM     45  C   UNL A   1     -30.065  -1.377  23.573  0.00  0.00    +0.229 C 
ATOM     46  O   UNL A   1     -30.729  -1.878  24.721  0.00  0.00    -0.216 OA
ENDBRANCH  44  45
ENDBRANCH  43  44
ENDBRANCH  36  43
ENDBRANCH  30  32
ENDBRANCH  24  29
ENDBRANCH   1  24
TORSDOF 11
