REMARK  Name = outputs/IAG933/test6/raw/output_8512_IAG933_linker_design_.xyz
REMARK  14 active torsions:
REMARK  status: ('A' for Active; 'I' for Inactive)
REMARK    1  A    between atoms: C_1  and  C_2
REMARK    2  A    between atoms: C_1  and  C_8
REMARK    3  A    between atoms: C_1  and  N_32
REMARK    4  A    between atoms: C_13  and  C_34
REMARK    5  A    between atoms: C_14  and  C_15
REMARK    6  A    between atoms: C_21  and  O_22
REMARK    7  A    between atoms: O_22  and  C_23
REMARK    8  A    between atoms: C_23  and  C_24
REMARK    9  A    between atoms: O_29  and  C_40
REMARK   10  A    between atoms: N_32  and  C_40
REMARK   11  A    between atoms: C_33  and  O_37
REMARK   12  A    between atoms: C_34  and  C_36
REMARK   13  A    between atoms: C_34  and  C_40
REMARK   14  A    between atoms: C_35  and  C_43
REMARK                            x       y       z     vdW  Elec       q    Type
REMARK                         _______ _______ _______ _____ _____    ______ ____
ROOT
ATOM      1  C   UNL A   1     -24.986   1.006  27.610  0.00  0.00    +0.057 C 
ENDROOT
BRANCH   1   2
ATOM      2  C   UNL A   1     -25.688   1.614  26.461  0.00  0.00    +0.074 C 
ATOM      3  C   UNL A   1     -26.250   2.920  26.395  0.00  0.00    +0.055 C 
ATOM      4  C   UNL A   1     -27.438   3.091  25.645  0.00  0.00    +0.102 C 
ATOM      5  N   UNL A   1     -28.075   2.089  25.003  0.00  0.00    -0.212 NA
ATOM      6  C   UNL A   1     -27.543   0.849  25.079  0.00  0.00    +0.234 C 
ATOM      7  C   UNL A   1     -26.354   0.576  25.777  0.00  0.00    +0.240 C 
ATOM      8  F   UNL A   1     -25.860  -0.681  25.795  0.00  0.00    -0.227 F 
BRANCH   3   9
ATOM      9  C   UNL A   1     -25.642   4.093  27.123  0.00  0.00    +0.262 C 
ATOM     10  N   UNL A   1     -25.614   5.252  26.449  0.00  0.00    -0.200 NA
ATOM     11  C   UNL A   1     -25.026   6.479  26.963  0.00  0.00    +0.139 C 
ATOM     12  O   UNL A   1     -25.143   3.966  28.243  0.00  0.00    -0.269 OA
ENDBRANCH   3   9
BRANCH   6  13
ATOM     13  O   UNL A   1     -28.193  -0.208  24.477  0.00  0.00    -0.459 OA
BRANCH  13  14
ATOM     14  C   UNL A   1     -29.460   0.005  23.866  0.00  0.00    +0.242 C 
BRANCH  14  15
ATOM     15  C   UNL A   1     -30.065  -1.377  23.573  0.00  0.00    +0.229 C 
ATOM     16  O   UNL A   1     -30.729  -1.878  24.721  0.00  0.00    -0.216 OA
ENDBRANCH  14  15
ENDBRANCH  13  14
ENDBRANCH   6  13
ENDBRANCH   1   2
BRANCH   1  19
ATOM     17  C   UNL A   1     -22.422   0.961  28.111  0.00  0.00    +0.179 C 
ATOM     18  C   UNL A   1     -22.888   1.620  26.070  0.00  0.00    +0.187 C 
ATOM     19  C   UNL A   1     -23.529   1.152  27.323  0.00  0.00    +0.070 C 
ATOM     20  O   UNL A   1     -21.692   1.882  26.159  0.00  0.00    -0.322 OA
ATOM     21  C   UNL A   1     -21.411   1.491  27.501  0.00  0.00    +0.306 C 
ATOM     22  F   UNL A   1     -20.131   1.685  28.026  0.00  0.00    -0.201 F 
BRANCH  18  25
ATOM     23  F   UNL A   1     -24.232   0.986  24.505  0.00  0.00    -0.196 F 
ATOM     24  F   UNL A   1     -22.684   2.123  23.878  0.00  0.00    -0.196 F 
ATOM     25  C   UNL A   1     -23.421   1.645  24.768  0.00  0.00    +0.345 C 
ENDBRANCH  18  25
BRANCH  17  26
ATOM     26  O   UNL A   1     -22.273  -0.066  29.199  0.00  0.00    -0.348 OA
ATOM     27  C   UNL A   1     -20.911  -0.788  29.339  0.00  0.00    +0.174 C 
ENDBRANCH  17  26
ENDBRANCH   1  19
BRANCH   1  28
ATOM     28  C   UNL A   1     -26.021   0.299  28.379  0.00  0.00    +0.190 C 
BRANCH  28  29
ATOM     29  O   UNL A   1     -26.800   1.070  29.274  0.00  0.00    -0.337 OA
ATOM     30  C   UNL A   1     -27.407   2.335  29.355  0.00  0.00    +0.176 C 
ENDBRANCH  28  29
BRANCH  28  31
ATOM     31  N   UNL A   1     -24.991  -0.056  29.024  0.00  0.00    -0.187 NA
BRANCH  31  32
ATOM     32  C   UNL A   1     -24.855  -1.012  30.143  0.00  0.00    +0.113 C 
BRANCH  32  33
ATOM     33  C   UNL A   1     -24.973  -2.505  29.788  0.00  0.00    -0.005 C 
ATOM     34  C   UNL A   1     -23.906  -3.173  29.146  0.00  0.00    -0.003 C 
ATOM     35  C   UNL A   1     -23.989  -4.549  28.853  0.00  0.00    -0.000 C 
ATOM     36  C   UNL A   1     -25.137  -5.280  29.205  0.00  0.00    -0.000 C 
ATOM     37  C   UNL A   1     -26.232  -4.611  29.784  0.00  0.00    -0.000 C 
ATOM     38  C   UNL A   1     -26.155  -3.232  30.065  0.00  0.00    -0.003 C 
ENDBRANCH  32  33
BRANCH  32  39
ATOM     39  C   UNL A   1     -25.387  -0.679  31.571  0.00  0.00    +0.093 C 
ATOM     40  C   UNL A   1     -25.189   0.773  32.028  0.00  0.00    +0.021 C 
ATOM     41  C   UNL A   1     -25.336   0.684  33.544  0.00  0.00    +0.020 C 
ATOM     42  C   UNL A   1     -24.829  -0.715  33.905  0.00  0.00    +0.089 C 
ATOM     43  N   UNL A   1     -24.758  -1.481  32.646  0.00  0.00    -0.218 NA
ENDBRANCH  32  39
ENDBRANCH  31  32
ENDBRANCH  28  31
ENDBRANCH   1  28
TORSDOF 14
