REMARK  Name = outputs/IAG933/test6/raw/output_8515_IAG933_linker_design_.xyz
REMARK  17 active torsions:
REMARK  status: ('A' for Active; 'I' for Inactive)
REMARK    1  A    between atoms: C_1  and  C_2
REMARK    2  A    between atoms: C_1  and  C_8
REMARK    3  A    between atoms: C_1  and  N_35
REMARK    4  A    between atoms: C_14  and  C_15
REMARK    5  A    between atoms: N_16  and  C_17
REMARK    6  A    between atoms: C_17  and  C_29
REMARK    7  A    between atoms: C_21  and  O_22
REMARK    8  A    between atoms: O_22  and  C_23
REMARK    9  A    between atoms: C_23  and  C_24
REMARK   10  A    between atoms: C_29  and  N_31
REMARK   11  A    between atoms: C_30  and  N_31
REMARK   12  A    between atoms: C_32  and  C_36
REMARK   13  A    between atoms: C_32  and  C_41
REMARK   14  A    between atoms: C_32  and  N_45
REMARK   15  A    between atoms: N_35  and  C_36
REMARK   16  A    between atoms: C_38  and  N_45
REMARK   17  A    between atoms: C_38  and  C_48
REMARK                            x       y       z     vdW  Elec       q    Type
REMARK                         _______ _______ _______ _____ _____    ______ ____
ROOT
ATOM      1  C   UNL A   1     -24.624   7.389  32.046  0.00  0.00    -0.015 C 
ATOM      2  C   UNL A   1     -26.145   8.607  29.671  0.00  0.00    +0.102 C 
ATOM      3  S   UNL A   1     -24.651  10.186  31.304  0.00  0.00    -0.134 S 
ATOM      4  C   UNL A   1     -23.469   6.693  32.392  0.00  0.00    -0.004 C 
ATOM      5  C   UNL A   1     -25.532  10.055  29.776  0.00  0.00    +0.077 C 
ATOM      6  C   UNL A   1     -25.512   5.394  31.055  0.00  0.00    -0.007 C 
ATOM      7  C   UNL A   1     -23.342   5.334  32.078  0.00  0.00    -0.003 C 
ATOM      8  C   UNL A   1     -26.755   7.712  30.805  0.00  0.00    +0.045 C 
ATOM      9  C   UNL A   1     -25.663   6.777  31.363  0.00  0.00    -0.024 C 
ATOM     10  C   UNL A   1     -24.733   8.845  32.403  0.00  0.00    +0.084 C 
ATOM     11  C   UNL A   1     -24.323   4.710  31.319  0.00  0.00    -0.005 C 
ENDROOT
BRANCH   2  12
ATOM     12  N   UNL A   1     -26.228   8.258  28.276  0.00  0.00    -0.131 NA
ATOM     13  O   UNL A   1     -26.799   9.315  27.593  0.00  0.00    -0.118 OA
BRANCH  12  14
ATOM     14  C   UNL A   1     -24.940   7.972  27.564  0.00  0.00    +0.127 C 
BRANCH  14  15
ATOM     15  C   UNL A   1     -25.026   6.479  26.963  0.00  0.00    +0.135 C 
BRANCH  15  17
ATOM     16  C   UNL A   1     -25.642   4.093  27.123  0.00  0.00    +0.266 C 
ATOM     17  N   UNL A   1     -25.614   5.252  26.449  0.00  0.00    -0.200 NA
ATOM     18  O   UNL A   1     -25.143   3.966  28.243  0.00  0.00    -0.268 OA
BRANCH  16  20
ATOM     19  C   UNL A   1     -25.688   1.614  26.461  0.00  0.00    +0.041 C 
ATOM     20  C   UNL A   1     -26.250   2.920  26.395  0.00  0.00    +0.077 C 
ATOM     21  C   UNL A   1     -27.438   3.091  25.645  0.00  0.00    +0.107 C 
ATOM     22  N   UNL A   1     -28.075   2.089  25.003  0.00  0.00    -0.208 NA
ATOM     23  C   UNL A   1     -27.543   0.849  25.079  0.00  0.00    +0.253 C 
ATOM     24  C   UNL A   1     -26.354   0.576  25.777  0.00  0.00    +0.193 C 
ATOM     25  F   UNL A   1     -25.860  -0.681  25.795  0.00  0.00    -0.199 F 
BRANCH  23  26
ATOM     26  O   UNL A   1     -28.193  -0.208  24.477  0.00  0.00    -0.456 OA
BRANCH  26  27
ATOM     27  C   UNL A   1     -29.460   0.005  23.866  0.00  0.00    +0.243 C 
BRANCH  27  28
ATOM     28  C   UNL A   1     -30.065  -1.377  23.573  0.00  0.00    +0.229 C 
ATOM     29  O   UNL A   1     -30.729  -1.878  24.721  0.00  0.00    -0.216 OA
ENDBRANCH  27  28
ENDBRANCH  26  27
ENDBRANCH  23  26
ENDBRANCH  16  20
ENDBRANCH  15  17
ENDBRANCH  14  15
ENDBRANCH  12  14
ENDBRANCH   2  12
BRANCH  11  30
ATOM     30  C   UNL A   1     -24.051   3.331  30.887  0.00  0.00    +0.115 C 
BRANCH  30  31
ATOM     31  N   UNL A   1     -23.897   2.309  29.743  0.00  0.00    -0.213 NA
BRANCH  31  32
ATOM     32  C   UNL A   1     -22.903   1.348  28.904  0.00  0.00    +0.090 C 
BRANCH  32  34
ATOM     33  C   UNL A   1     -21.731   1.951  26.758  0.00  0.00    +0.002 C 
ATOM     34  C   UNL A   1     -21.716   1.871  28.267  0.00  0.00    +0.019 C 
ENDBRANCH  32  34
BRANCH  32  35
ATOM     35  C   UNL A   1     -23.350  -0.078  28.837  0.00  0.00    +0.106 C 
BRANCH  35  36
ATOM     36  N   UNL A   1     -24.876  -0.068  28.958  0.00  0.00    -0.212 NA
BRANCH  36  37
ATOM     37  C   UNL A   1     -24.855  -1.012  30.143  0.00  0.00    +0.111 C 
BRANCH  37  38
ATOM     38  C   UNL A   1     -24.973  -2.505  29.788  0.00  0.00    -0.005 C 
ATOM     39  C   UNL A   1     -23.906  -3.173  29.146  0.00  0.00    -0.003 C 
ATOM     40  C   UNL A   1     -23.989  -4.549  28.853  0.00  0.00    -0.000 C 
ATOM     41  C   UNL A   1     -25.137  -5.280  29.205  0.00  0.00    -0.000 C 
ATOM     42  C   UNL A   1     -26.232  -4.611  29.784  0.00  0.00    -0.000 C 
ATOM     43  C   UNL A   1     -26.155  -3.232  30.065  0.00  0.00    -0.003 C 
ENDBRANCH  37  38
BRANCH  37  44
ATOM     44  C   UNL A   1     -25.387  -0.679  31.571  0.00  0.00    +0.093 C 
ATOM     45  C   UNL A   1     -25.189   0.773  32.028  0.00  0.00    +0.021 C 
ATOM     46  C   UNL A   1     -25.336   0.684  33.544  0.00  0.00    +0.020 C 
ATOM     47  C   UNL A   1     -24.829  -0.715  33.905  0.00  0.00    +0.089 C 
ATOM     48  N   UNL A   1     -24.758  -1.481  32.646  0.00  0.00    -0.218 NA
ENDBRANCH  37  44
ENDBRANCH  36  37
ENDBRANCH  35  36
ENDBRANCH  32  35
ENDBRANCH  31  32
ENDBRANCH  30  31
ENDBRANCH  11  30
TORSDOF 17
