MODEL 851
MODEL 1
REMARK VINA RESULT:    -5.576      0.000      0.000
REMARK INTER + INTRA:          -6.409
REMARK INTER:                  -6.228
REMARK INTRA:                  -0.181
REMARK UNBOUND:                -0.181
REMARK  Name = No_851-gen_results/8p0m/2024-11-27-11-27-31/
REMARK  2 active torsions:
REMARK  status: ('A' for Active; 'I' for Inactive)
REMARK    1  A    between atoms: C_1  and  C_6
REMARK    2  A    between atoms: C_4  and  O_13
REMARK                            x       y       z     vdW  Elec       q    Type
REMARK                         _______ _______ _______ _____ _____    ______ ____
ROOT
ATOM      1  C   UNL A   1     -10.545 -21.571  22.266  0.00  0.00    +0.076 A 
ATOM      2  C   UNL A   1     -11.690 -21.323  22.566  0.00  0.00    +0.037 A 
ATOM      3  C   UNL A   1     -12.726 -21.133  21.667  0.00  0.00    +0.176 A 
ATOM      4  C   UNL A   1     -12.416 -21.270  20.282  0.00  0.00    +0.193 A 
ATOM      5  C   UNL A   1     -11.180 -21.701  19.984  0.00  0.00    +0.176 A 
ATOM      6  C   UNL A   1     -10.287 -21.861  20.956  0.00  0.00    +0.037 A 
ATOM      7  F   UNL A   1     -10.884 -21.872  18.706  0.00  0.00    -0.201 F 
ATOM      8  F   UNL A   1     -13.963 -20.711  22.048  0.00  0.00    -0.201 F 
ENDROOT
BRANCH   1   9
ATOM      9  C   UNL A   1      -9.565 -21.817  23.290  0.00  0.00    +0.419 C 
ATOM     10  F   UNL A   1      -9.728 -21.478  24.349  0.00  0.00    -0.166 F 
ATOM     11  F   UNL A   1      -8.253 -21.506  22.924  0.00  0.00    -0.166 F 
ATOM     12  F   UNL A   1      -9.367 -23.273  23.225  0.00  0.00    -0.166 F 
ENDBRANCH   1   9
BRANCH   4  13
ATOM     13  O   UNL A   1     -13.402 -21.109  19.407  0.00  0.00    -0.467 OA
ATOM     14  C   UNL A   1     -13.625 -20.001  18.829  0.00  0.00    +0.253 C 
ENDBRANCH   4  13
TORSDOF 2
ENDMDL
ENDMDL
