REMARK  Name = outputs/IAG933/test6/raw/output_8520_IAG933_linker_design_.xyz
REMARK  17 active torsions:
REMARK  status: ('A' for Active; 'I' for Inactive)
REMARK    1  A    between atoms: C_1  and  C_2
REMARK    2  A    between atoms: C_1  and  C_8
REMARK    3  A    between atoms: C_1  and  C_36
REMARK    4  A    between atoms: C_13  and  C_37
REMARK    5  A    between atoms: C_14  and  C_15
REMARK    6  A    between atoms: C_21  and  O_22
REMARK    7  A    between atoms: O_22  and  C_23
REMARK    8  A    between atoms: C_23  and  C_24
REMARK    9  A    between atoms: C_28  and  C_30
REMARK   10  A    between atoms: C_28  and  C_35
REMARK   11  A    between atoms: C_29  and  C_32
REMARK   12  A    between atoms: C_32  and  C_33
REMARK   13  A    between atoms: C_32  and  C_39
REMARK   14  A    between atoms: C_33  and  C_43
REMARK   15  A    between atoms: N_34  and  C_36
REMARK   16  A    between atoms: C_35  and  C_36
REMARK   17  A    between atoms: C_35  and  C_37
REMARK                            x       y       z     vdW  Elec       q    Type
REMARK                         _______ _______ _______ _____ _____    ______ ____
ROOT
ATOM      1  C   UNL A   1     -25.031   0.290  29.201  0.00  0.00    +0.108 C 
ENDROOT
BRANCH   1   2
ATOM      2  N   UNL A   1     -26.420   0.775  28.909  0.00  0.00    -0.206 NA
ATOM      3  C   UNL A   1     -27.602   0.194  29.355  0.00  0.00    +0.248 C 
ATOM      4  O   UNL A   1     -27.782  -0.646  30.235  0.00  0.00    -0.273 OA
BRANCH   3   5
ATOM      5  C   UNL A   1     -28.867   0.710  28.701  0.00  0.00    +0.138 C 
BRANCH   5   6
ATOM      6  C   UNL A   1     -30.105  -0.170  28.830  0.00  0.00    +0.160 C 
ATOM      7  C   UNL A   1     -30.755  -0.311  30.147  0.00  0.00    +0.073 C 
ATOM      8  O   UNL A   1     -30.544  -0.794  27.836  0.00  0.00    -0.296 OA
ENDBRANCH   5   6
BRANCH   5   9
ATOM      9  C   UNL A   1     -28.929   2.296  28.605  0.00  0.00    +0.052 C 
BRANCH   9  10
ATOM     10  C   UNL A   1     -30.010   2.525  27.608  0.00  0.00    +0.183 C 
ATOM     11  O   UNL A   1     -31.283   2.148  27.984  0.00  0.00    -0.220 OA
ENDBRANCH   9  10
ENDBRANCH   5   9
ENDBRANCH   3   5
ENDBRANCH   1   2
BRANCH   1  12
ATOM     12  C   UNL A   1     -24.855  -1.012  30.143  0.00  0.00    +0.059 C 
BRANCH  12  13
ATOM     13  C   UNL A   1     -24.973  -2.505  29.788  0.00  0.00    -0.019 C 
ATOM     14  C   UNL A   1     -23.906  -3.173  29.146  0.00  0.00    -0.004 C 
ATOM     15  C   UNL A   1     -23.989  -4.549  28.853  0.00  0.00    -0.000 C 
ATOM     16  C   UNL A   1     -25.137  -5.280  29.205  0.00  0.00    -0.000 C 
ATOM     17  C   UNL A   1     -26.232  -4.611  29.784  0.00  0.00    -0.000 C 
ATOM     18  C   UNL A   1     -26.155  -3.232  30.065  0.00  0.00    -0.004 C 
ENDBRANCH  12  13
BRANCH  12  19
ATOM     19  C   UNL A   1     -25.387  -0.679  31.571  0.00  0.00    +0.079 C 
ATOM     20  C   UNL A   1     -25.189   0.773  32.028  0.00  0.00    +0.019 C 
ATOM     21  C   UNL A   1     -25.336   0.684  33.544  0.00  0.00    +0.020 C 
ATOM     22  C   UNL A   1     -24.829  -0.715  33.905  0.00  0.00    +0.089 C 
ATOM     23  N   UNL A   1     -24.758  -1.481  32.646  0.00  0.00    -0.219 NA
ENDBRANCH  12  19
ENDBRANCH   1  12
BRANCH   1  24
ATOM     24  C   UNL A   1     -24.000   0.474  28.093  0.00  0.00    +0.085 C 
BRANCH  24  25
ATOM     25  C   UNL A   1     -22.609   0.157  28.588  0.00  0.00    +0.188 C 
ATOM     26  O   UNL A   1     -22.290  -0.443  29.648  0.00  0.00    -0.293 OA
BRANCH  25  27
ATOM     27  C   UNL A   1     -21.437   0.829  27.790  0.00  0.00    +0.257 C 
ATOM     28  F   UNL A   1     -21.305   1.972  27.009  0.00  0.00    -0.226 F 
ENDBRANCH  25  27
ENDBRANCH  24  25
BRANCH  24  29
ATOM     29  C   UNL A   1     -24.316   1.387  26.972  0.00  0.00    +0.038 C 
BRANCH  29  30
ATOM     30  C   UNL A   1     -25.688   1.614  26.461  0.00  0.00    +0.016 C 
ATOM     31  C   UNL A   1     -26.250   2.920  26.395  0.00  0.00    +0.073 C 
ATOM     32  C   UNL A   1     -27.438   3.091  25.645  0.00  0.00    +0.106 C 
ATOM     33  N   UNL A   1     -28.075   2.089  25.003  0.00  0.00    -0.208 NA
ATOM     34  C   UNL A   1     -27.543   0.849  25.079  0.00  0.00    +0.253 C 
ATOM     35  C   UNL A   1     -26.354   0.576  25.777  0.00  0.00    +0.189 C 
ATOM     36  F   UNL A   1     -25.860  -0.681  25.795  0.00  0.00    -0.200 F 
BRANCH  31  37
ATOM     37  C   UNL A   1     -25.642   4.093  27.123  0.00  0.00    +0.266 C 
ATOM     38  N   UNL A   1     -25.614   5.252  26.449  0.00  0.00    -0.200 NA
ATOM     39  C   UNL A   1     -25.026   6.479  26.963  0.00  0.00    +0.139 C 
ATOM     40  O   UNL A   1     -25.143   3.966  28.243  0.00  0.00    -0.268 OA
ENDBRANCH  31  37
BRANCH  34  41
ATOM     41  O   UNL A   1     -28.193  -0.208  24.477  0.00  0.00    -0.456 OA
BRANCH  41  42
ATOM     42  C   UNL A   1     -29.460   0.005  23.866  0.00  0.00    +0.243 C 
BRANCH  42  43
ATOM     43  C   UNL A   1     -30.065  -1.377  23.573  0.00  0.00    +0.229 C 
ATOM     44  O   UNL A   1     -30.729  -1.878  24.721  0.00  0.00    -0.216 OA
ENDBRANCH  42  43
ENDBRANCH  41  42
ENDBRANCH  34  41
ENDBRANCH  29  30
ENDBRANCH  24  29
ENDBRANCH   1  24
TORSDOF 17
