REMARK  Name = outputs/IAG933/test6/raw/output_8522_IAG933_linker_design_.xyz
REMARK  7 active torsions:
REMARK  status: ('A' for Active; 'I' for Inactive)
REMARK    1  A    between atoms: C_1  and  C_2
REMARK    2  A    between atoms: C_1  and  C_8
REMARK    3  A    between atoms: C_1  and  C_41
REMARK    4  A    between atoms: C_21  and  O_22
REMARK    5  A    between atoms: O_22  and  C_23
REMARK    6  A    between atoms: C_23  and  C_24
REMARK    7  A    between atoms: C_29  and  C_45
REMARK                            x       y       z     vdW  Elec       q    Type
REMARK                         _______ _______ _______ _____ _____    ______ ____
ROOT
ATOM      1  C   UNL A   1     -25.688   1.614  26.461  0.00  0.00    +0.092 C 
ATOM      2  C   UNL A   1     -26.250   2.920  26.395  0.00  0.00    +0.057 C 
ATOM      3  C   UNL A   1     -25.642   4.093  27.123  0.00  0.00    +0.223 C 
ATOM      4  N   UNL A   1     -25.614   5.252  26.449  0.00  0.00    -0.236 NA
ATOM      5  C   UNL A   1     -25.026   6.479  26.963  0.00  0.00    +0.155 C 
ATOM      6  O   UNL A   1     -25.143   3.966  28.243  0.00  0.00    -0.436 OA
ATOM      7  C   UNL A   1     -27.438   3.091  25.645  0.00  0.00    +0.102 C 
ATOM      8  N   UNL A   1     -28.075   2.089  25.003  0.00  0.00    -0.212 NA
ATOM      9  C   UNL A   1     -27.543   0.849  25.079  0.00  0.00    +0.234 C 
ATOM     10  C   UNL A   1     -26.354   0.576  25.777  0.00  0.00    +0.244 C 
ATOM     11  F   UNL A   1     -25.860  -0.681  25.795  0.00  0.00    -0.227 F 
ATOM     12  N   UNL A   1     -28.166   3.520  30.724  0.00  0.00    -0.248 N 
ATOM     13 BR   UNL A   1     -30.038   3.748  30.976  0.00  0.00    +0.038 Br
ATOM     14  O   UNL A   1     -22.183   2.030  26.584  0.00  0.00    -0.337 OA
ATOM     15  C   UNL A   1     -25.877   3.740  29.538  0.00  0.00    +0.160 C 
ATOM     16  C   UNL A   1     -27.534   2.308  30.296  0.00  0.00    +0.147 C 
ATOM     17  C   UNL A   1     -24.036   1.375  27.871  0.00  0.00    +0.066 C 
ATOM     18  N   UNL A   1     -25.301   1.397  28.882  0.00  0.00    -0.237 N 
ATOM     19  O   UNL A   1     -26.686  -0.438  28.699  0.00  0.00    -0.274 OA
ATOM     20  C   UNL A   1     -24.273   1.574  26.574  0.00  0.00    +0.005 C 
ATOM     21  C   UNL A   1     -27.541   4.638  30.927  0.00  0.00    +0.075 C 
ATOM     22  C   UNL A   1     -25.752  -0.063  29.147  0.00  0.00    +0.238 C 
ATOM     23  C   UNL A   1     -23.093   1.921  25.672  0.00  0.00    +0.167 C 
ATOM     24  C   UNL A   1     -26.330   4.815  30.358  0.00  0.00    +0.055 C 
ATOM     25  C   UNL A   1     -26.252   2.451  29.639  0.00  0.00    +0.091 C 
ATOM     26  C   UNL A   1     -22.693   1.427  27.677  0.00  0.00    +0.230 C 
ENDROOT
BRANCH  26  27
ATOM     27  C   UNL A   1     -21.716   0.707  28.556  0.00  0.00    +0.293 C 
ATOM     28  N   UNL A   1     -22.099  -0.168  29.453  0.00  0.00    -0.085 NA
ATOM     29  O   UNL A   1     -20.442   0.942  28.344  0.00  0.00    -0.269 OA
ENDBRANCH  26  27
BRANCH  22  30
ATOM     30  C   UNL A   1     -24.855  -1.012  30.143  0.00  0.00    +0.116 C 
BRANCH  30  31
ATOM     31  C   UNL A   1     -24.973  -2.505  29.788  0.00  0.00    -0.013 C 
ATOM     32  C   UNL A   1     -23.906  -3.173  29.146  0.00  0.00    -0.004 C 
ATOM     33  C   UNL A   1     -23.989  -4.549  28.853  0.00  0.00    -0.000 C 
ATOM     34  C   UNL A   1     -25.137  -5.280  29.205  0.00  0.00    -0.000 C 
ATOM     35  C   UNL A   1     -26.232  -4.611  29.784  0.00  0.00    -0.000 C 
ATOM     36  C   UNL A   1     -26.155  -3.232  30.065  0.00  0.00    -0.004 C 
ENDBRANCH  30  31
BRANCH  30  37
ATOM     37  C   UNL A   1     -25.387  -0.679  31.571  0.00  0.00    +0.086 C 
ATOM     38  C   UNL A   1     -25.189   0.773  32.028  0.00  0.00    +0.020 C 
ATOM     39  C   UNL A   1     -25.336   0.684  33.544  0.00  0.00    +0.020 C 
ATOM     40  C   UNL A   1     -24.829  -0.715  33.905  0.00  0.00    +0.089 C 
ATOM     41  N   UNL A   1     -24.758  -1.481  32.646  0.00  0.00    -0.219 NA
ENDBRANCH  30  37
ENDBRANCH  22  30
BRANCH   9  42
ATOM     42  O   UNL A   1     -28.193  -0.208  24.477  0.00  0.00    -0.459 OA
BRANCH  42  43
ATOM     43  C   UNL A   1     -29.460   0.005  23.866  0.00  0.00    +0.242 C 
BRANCH  43  44
ATOM     44  C   UNL A   1     -30.065  -1.377  23.573  0.00  0.00    +0.229 C 
ATOM     45  O   UNL A   1     -30.729  -1.878  24.721  0.00  0.00    -0.216 OA
ENDBRANCH  43  44
ENDBRANCH  42  43
ENDBRANCH   9  42
TORSDOF 7
