REMARK  Name = outputs/IAG933/test6/raw/output_8523_IAG933_linker_design_.xyz
REMARK  12 active torsions:
REMARK  status: ('A' for Active; 'I' for Inactive)
REMARK    1  A    between atoms: C_1  and  C_2
REMARK    2  A    between atoms: C_1  and  C_8
REMARK    3  A    between atoms: C_1  and  N_44
REMARK    4  A    between atoms: C_13  and  C_34
REMARK    5  A    between atoms: C_14  and  C_15
REMARK    6  A    between atoms: C_21  and  O_22
REMARK    7  A    between atoms: O_22  and  C_23
REMARK    8  A    between atoms: C_23  and  C_24
REMARK    9  A    between atoms: C_30  and  C_38
REMARK   10  A    between atoms: C_30  and  C_43
REMARK   11  A    between atoms: C_35  and  C_38
REMARK   12  A    between atoms: C_37  and  N_44
REMARK                            x       y       z     vdW  Elec       q    Type
REMARK                         _______ _______ _______ _____ _____    ______ ____
ROOT
ATOM      1  O   UNL A   1     -27.127   1.142  30.107  0.00  0.00    -0.275 OA
ATOM      2  C   UNL A   1     -26.845   0.466  29.127  0.00  0.00    +0.230 C 
ATOM      3  N   UNL A   1     -25.457  -0.078  29.141  0.00  0.00    -0.255 N 
ENDROOT
BRANCH   3   6
ATOM      4 CL   UNL A   1     -23.212   2.564  25.077  0.00  0.00    -0.082 Cl
ATOM      5  C   UNL A   1     -24.473   1.386  27.237  0.00  0.00    +0.027 C 
ATOM      6  C   UNL A   1     -24.434   0.664  28.473  0.00  0.00    +0.055 C 
ATOM      7  C   UNL A   1     -23.208   0.688  29.158  0.00  0.00    +0.015 C 
ATOM      8  C   UNL A   1     -22.097   1.272  28.600  0.00  0.00    +0.002 C 
ATOM      9  C   UNL A   1     -22.109   1.891  27.361  0.00  0.00    +0.011 C 
ATOM     10  C   UNL A   1     -23.307   1.919  26.663  0.00  0.00    +0.059 C 
BRANCH   5  11
ATOM     11  C   UNL A   1     -25.688   1.614  26.461  0.00  0.00    +0.040 C 
ATOM     12  C   UNL A   1     -26.250   2.920  26.395  0.00  0.00    +0.077 C 
ATOM     13  C   UNL A   1     -27.438   3.091  25.645  0.00  0.00    +0.107 C 
ATOM     14  N   UNL A   1     -28.075   2.089  25.003  0.00  0.00    -0.208 NA
ATOM     15  C   UNL A   1     -27.543   0.849  25.079  0.00  0.00    +0.253 C 
ATOM     16  C   UNL A   1     -26.354   0.576  25.777  0.00  0.00    +0.193 C 
ATOM     17  F   UNL A   1     -25.860  -0.681  25.795  0.00  0.00    -0.199 F 
BRANCH  12  18
ATOM     18  C   UNL A   1     -25.642   4.093  27.123  0.00  0.00    +0.266 C 
ATOM     19  N   UNL A   1     -25.614   5.252  26.449  0.00  0.00    -0.200 NA
ATOM     20  C   UNL A   1     -25.026   6.479  26.963  0.00  0.00    +0.139 C 
ATOM     21  O   UNL A   1     -25.143   3.966  28.243  0.00  0.00    -0.268 OA
ENDBRANCH  12  18
BRANCH  15  22
ATOM     22  O   UNL A   1     -28.193  -0.208  24.477  0.00  0.00    -0.456 OA
BRANCH  22  23
ATOM     23  C   UNL A   1     -29.460   0.005  23.866  0.00  0.00    +0.243 C 
BRANCH  23  24
ATOM     24  C   UNL A   1     -30.065  -1.377  23.573  0.00  0.00    +0.229 C 
ATOM     25  O   UNL A   1     -30.729  -1.878  24.721  0.00  0.00    -0.216 OA
ENDBRANCH  23  24
ENDBRANCH  22  23
ENDBRANCH  15  22
ENDBRANCH   5  11
ENDBRANCH   3   6
BRANCH   3  26
ATOM     26  C   UNL A   1     -24.855  -1.012  30.143  0.00  0.00    +0.118 C 
BRANCH  26  27
ATOM     27  C   UNL A   1     -24.973  -2.505  29.788  0.00  0.00    -0.003 C 
ATOM     28  C   UNL A   1     -23.906  -3.173  29.146  0.00  0.00    -0.003 C 
ATOM     29  C   UNL A   1     -23.989  -4.549  28.853  0.00  0.00    -0.000 C 
ATOM     30  C   UNL A   1     -25.137  -5.280  29.205  0.00  0.00    -0.000 C 
ATOM     31  C   UNL A   1     -26.232  -4.611  29.784  0.00  0.00    -0.000 C 
ATOM     32  C   UNL A   1     -26.155  -3.232  30.065  0.00  0.00    -0.003 C 
ENDBRANCH  26  27
BRANCH  26  33
ATOM     33  C   UNL A   1     -25.387  -0.679  31.571  0.00  0.00    +0.096 C 
ATOM     34  C   UNL A   1     -25.189   0.773  32.028  0.00  0.00    +0.021 C 
ATOM     35  C   UNL A   1     -25.336   0.684  33.544  0.00  0.00    +0.020 C 
ATOM     36  C   UNL A   1     -24.829  -0.715  33.905  0.00  0.00    +0.089 C 
ATOM     37  N   UNL A   1     -24.758  -1.481  32.646  0.00  0.00    -0.217 NA
ENDBRANCH  26  33
ENDBRANCH   3  26
BRANCH   2  38
ATOM     38  C   UNL A   1     -28.023   0.441  28.016  0.00  0.00    +0.090 C 
BRANCH  38  39
ATOM     39  C   UNL A   1     -29.372   0.959  28.467  0.00  0.00    +0.036 C 
BRANCH  39  43
ATOM     40  C   UNL A   1     -29.023   3.445  28.917  0.00  0.00    -0.003 C 
ATOM     41  C   UNL A   1     -30.564   3.953  26.561  0.00  0.00    +0.011 C 
ATOM     42  C   UNL A   1     -29.069   4.736  28.368  0.00  0.00    +0.011 C 
ATOM     43  C   UNL A   1     -29.639   2.401  28.186  0.00  0.00    -0.022 C 
ATOM     44 CL   UNL A   1     -29.550   6.454  26.277  0.00  0.00    -0.082 Cl
ATOM     45  C   UNL A   1     -29.784   4.973  27.147  0.00  0.00    +0.058 C 
ATOM     46  C   UNL A   1     -30.485   2.666  27.087  0.00  0.00    -0.003 C 
ENDBRANCH  39  43
ENDBRANCH  38  39
ENDBRANCH   2  38
TORSDOF 12
