REMARK  Name = outputs/IAG933/test6/raw/output_8524_IAG933_linker_design_.xyz
REMARK  4 active torsions:
REMARK  status: ('A' for Active; 'I' for Inactive)
REMARK    1  A    between atoms: C_1  and  C_2
REMARK    2  A    between atoms: C_1  and  C_8
REMARK    3  A    between atoms: C_1  and  C_32
REMARK    4  A    between atoms: C_14  and  C_15
REMARK                            x       y       z     vdW  Elec       q    Type
REMARK                         _______ _______ _______ _____ _____    ______ ____
ROOT
ATOM      1  C   UNL A   1     -25.688   1.614  26.461  0.00  0.00    +0.074 C 
ATOM      2  C   UNL A   1     -26.250   2.920  26.395  0.00  0.00    +0.055 C 
ATOM      3  C   UNL A   1     -27.438   3.091  25.645  0.00  0.00    +0.102 C 
ATOM      4  N   UNL A   1     -28.075   2.089  25.003  0.00  0.00    -0.212 NA
ATOM      5  C   UNL A   1     -27.543   0.849  25.079  0.00  0.00    +0.234 C 
ATOM      6  O   UNL A   1     -28.193  -0.208  24.477  0.00  0.00    -0.459 OA
ATOM      7  C   UNL A   1     -29.460   0.005  23.866  0.00  0.00    +0.239 C 
ATOM      8  C   UNL A   1     -30.065  -1.377  23.573  0.00  0.00    +0.190 C 
ATOM      9  O   UNL A   1     -30.729  -1.878  24.721  0.00  0.00    -0.342 OA
ATOM     10  C   UNL A   1     -26.354   0.576  25.777  0.00  0.00    +0.240 C 
ATOM     11  F   UNL A   1     -25.860  -0.681  25.795  0.00  0.00    -0.227 F 
ATOM     12  O   UNL A   1     -26.525   0.464  28.857  0.00  0.00    -0.477 OA
ATOM     13  O   UNL A   1     -32.624   0.304  27.171  0.00  0.00    -0.285 OA
ATOM     14  C   UNL A   1     -28.929   3.104  29.433  0.00  0.00    +0.030 C 
ATOM     15  C   UNL A   1     -21.047   1.107  28.060  0.00  0.00    +0.032 C 
ATOM     16  C   UNL A   1     -24.280   0.094  29.378  0.00  0.00    +0.160 C 
ATOM     17  C   UNL A   1     -31.459   0.030  26.902  0.00  0.00    +0.237 C 
ATOM     18  N   UNL A   1     -31.212   3.749  28.905  0.00  0.00    -0.278 N 
ATOM     19  C   UNL A   1     -25.115   0.987  28.803  0.00  0.00    +0.194 C 
ATOM     20  C   UNL A   1     -29.658   5.156  30.133  0.00  0.00    +0.026 C 
ATOM     21  C   UNL A   1     -23.382   1.282  27.137  0.00  0.00    +0.034 C 
ATOM     22  O   UNL A   1     -30.453   2.137  27.710  0.00  0.00    -0.437 OA
ATOM     23  C   UNL A   1     -27.735   1.009  28.961  0.00  0.00    +0.141 C 
ATOM     24  C   UNL A   1     -30.353   0.806  27.445  0.00  0.00    +0.187 C 
ATOM     25  C   UNL A   1     -22.460   0.537  28.015  0.00  0.00    +0.116 C 
ATOM     26  C   UNL A   1     -30.192   2.954  28.624  0.00  0.00    +0.195 C 
ATOM     27  C   UNL A   1     -28.455   4.516  29.541  0.00  0.00    +0.033 C 
ATOM     28  C   UNL A   1     -29.057   0.560  28.118  0.00  0.00    +0.077 C 
ATOM     29  C   UNL A   1     -28.143   2.099  29.916  0.00  0.00    +0.037 C 
ATOM     30  O   UNL A   1     -22.979   0.131  29.185  0.00  0.00    -0.355 OA
ATOM     31  C   UNL A   1     -31.155  -1.111  25.910  0.00  0.00    +0.214 C 
ATOM     32  C   UNL A   1     -24.669   1.282  27.461  0.00  0.00    +0.052 C 
ATOM     33  C   UNL A   1     -30.742   5.227  29.095  0.00  0.00    +0.094 C 
ATOM     34  C   UNL A   1     -32.275   3.769  27.884  0.00  0.00    +0.115 C 
ENDROOT
BRANCH   2  35
ATOM     35  C   UNL A   1     -25.642   4.093  27.123  0.00  0.00    +0.262 C 
ATOM     36  N   UNL A   1     -25.614   5.252  26.449  0.00  0.00    -0.200 NA
ATOM     37  C   UNL A   1     -25.026   6.479  26.963  0.00  0.00    +0.139 C 
ATOM     38  O   UNL A   1     -25.143   3.966  28.243  0.00  0.00    -0.269 OA
ENDBRANCH   2  35
BRANCH  16  39
ATOM     39  C   UNL A   1     -24.855  -1.012  30.143  0.00  0.00    +0.069 C 
BRANCH  39  40
ATOM     40  C   UNL A   1     -24.973  -2.505  29.788  0.00  0.00    -0.019 C 
ATOM     41  C   UNL A   1     -23.906  -3.173  29.146  0.00  0.00    -0.004 C 
ATOM     42  C   UNL A   1     -23.989  -4.549  28.853  0.00  0.00    -0.000 C 
ATOM     43  C   UNL A   1     -25.137  -5.280  29.205  0.00  0.00    -0.000 C 
ATOM     44  C   UNL A   1     -26.232  -4.611  29.784  0.00  0.00    -0.000 C 
ATOM     45  C   UNL A   1     -26.155  -3.232  30.065  0.00  0.00    -0.004 C 
ENDBRANCH  39  40
BRANCH  39  46
ATOM     46  C   UNL A   1     -25.387  -0.679  31.571  0.00  0.00    +0.079 C 
ATOM     47  C   UNL A   1     -25.189   0.773  32.028  0.00  0.00    +0.019 C 
ATOM     48  C   UNL A   1     -25.336   0.684  33.544  0.00  0.00    +0.020 C 
ATOM     49  C   UNL A   1     -24.829  -0.715  33.905  0.00  0.00    +0.089 C 
ATOM     50  N   UNL A   1     -24.758  -1.481  32.646  0.00  0.00    -0.219 NA
ENDBRANCH  39  46
ENDBRANCH  16  39
TORSDOF 4
