MODEL 852
MODEL 1
REMARK VINA RESULT:    -5.420      0.000      0.000
REMARK INTER + INTRA:          -5.787
REMARK INTER:                  -5.737
REMARK INTRA:                  -0.049
REMARK UNBOUND:                -0.049
REMARK  Name = No_852-gen_results/8p0m/2024-11-27-11-27-31/
REMARK  1 active torsions:
REMARK  status: ('A' for Active; 'I' for Inactive)
REMARK    1  A    between atoms: C_5  and  C_8
REMARK                            x       y       z     vdW  Elec       q    Type
REMARK                         _______ _______ _______ _____ _____    ______ ____
ROOT
ATOM      1 CL   UNL A   1     -30.577  -9.979  29.397  0.00  0.00    -0.080 Cl
ATOM      2  C   UNL A   1     -29.850 -10.595  30.478  0.00  0.00    +0.085 A 
ATOM      3  C   UNL A   1     -29.857 -10.045  31.752  0.00  0.00    +0.014 A 
ATOM      4  C   UNL A   1     -28.969 -10.436  32.780  0.00  0.00    +0.008 A 
ATOM      5  C   UNL A   1     -28.047 -11.438  32.572  0.00  0.00    +0.082 A 
ATOM      6  C   UNL A   1     -27.988 -11.982  31.315  0.00  0.00    +0.037 A 
ATOM      7  C   UNL A   1     -28.782 -11.555  30.330  0.00  0.00    +0.151 A 
ATOM      8  F   UNL A   1     -28.639 -12.087  29.097  0.00  0.00    -0.203 F 
ENDROOT
BRANCH   5   9
ATOM      9  C   UNL A   1     -27.197 -11.820  33.690  0.00  0.00    +0.388 C 
ATOM     10  O   UNL A   1     -26.788 -12.792  33.801  0.00  0.00    -0.241 OA
ATOM     11  O   UNL A   1     -26.916 -10.881  34.639  0.00  0.00    -0.241 OA
ENDBRANCH   5   9
TORSDOF 1
ENDMDL
ENDMDL
