REMARK  Name = outputs/IAG933/test6/raw/output_8530_IAG933_linker_design_.xyz
REMARK  13 active torsions:
REMARK  status: ('A' for Active; 'I' for Inactive)
REMARK    1  A    between atoms: C_1  and  C_2
REMARK    2  A    between atoms: C_1  and  C_8
REMARK    3  A    between atoms: C_1  and  C_34
REMARK    4  A    between atoms: C_13  and  C_38
REMARK    5  A    between atoms: C_14  and  C_15
REMARK    6  A    between atoms: C_21  and  O_22
REMARK    7  A    between atoms: O_22  and  C_23
REMARK    8  A    between atoms: C_23  and  C_24
REMARK    9  A    between atoms: C_28  and  C_35
REMARK   10  A    between atoms: C_32  and  C_34
REMARK   11  A    between atoms: C_32  and  C_35
REMARK   12  A    between atoms: C_34  and  N_45
REMARK   13  A    between atoms: C_37  and  C_39
REMARK                            x       y       z     vdW  Elec       q    Type
REMARK                         _______ _______ _______ _____ _____    ______ ____
ROOT
ATOM      1  C   UNL A   1     -24.653  -0.066  28.962  0.00  0.00    +0.161 C 
ENDROOT
BRANCH   1   4
ATOM      2  O   UNL A   1     -27.400  -0.511  28.434  0.00  0.00    -0.273 OA
ATOM      3  C   UNL A   1     -27.170   0.316  29.020  0.00  0.00    +0.245 C 
ATOM      4  N   UNL A   1     -25.991   0.167  28.669  0.00  0.00    -0.199 NA
BRANCH   3   8
ATOM      5  C   UNL A   1     -28.283   3.658  29.939  0.00  0.00    +0.012 C 
ATOM      6  C   UNL A   1     -27.892   5.868  31.459  0.00  0.00    +0.003 C 
ATOM      7  C   UNL A   1     -27.857   4.820  29.315  0.00  0.00    -0.001 C 
ATOM      8  C   UNL A   1     -27.525   1.315  29.952  0.00  0.00    +0.126 C 
ATOM      9  C   UNL A   1     -28.549   1.131  31.100  0.00  0.00    +0.215 C 
ATOM     10  C   UNL A   1     -28.524   3.576  31.344  0.00  0.00    +0.135 C 
ATOM     11  C   UNL A   1     -27.544   5.905  30.102  0.00  0.00    -0.000 C 
ATOM     12  O   UNL A   1     -28.572   2.304  32.020  0.00  0.00    -0.475 OA
ATOM     13  C   UNL A   1     -28.412   4.716  32.065  0.00  0.00    +0.037 C 
ATOM     14  C   UNL A   1     -28.124   2.441  29.085  0.00  0.00    +0.042 C 
ENDBRANCH   3   8
ENDBRANCH   1   4
BRANCH   1  15
ATOM     15  C   UNL A   1     -23.144   0.344  28.851  0.00  0.00    +0.209 C 
ATOM     16  O   UNL A   1     -22.448  -0.148  29.752  0.00  0.00    -0.291 OA
BRANCH  15  17
ATOM     17  C   UNL A   1     -22.524   1.208  27.868  0.00  0.00    +0.268 C 
ATOM     18  F   UNL A   1     -21.213   1.597  27.837  0.00  0.00    -0.222 F 
BRANCH  17  19
ATOM     19  C   UNL A   1     -23.340   1.724  26.845  0.00  0.00    +0.157 C 
ATOM     20  F   UNL A   1     -22.745   2.578  25.905  0.00  0.00    -0.206 F 
ATOM     21  C   UNL A   1     -24.725   1.465  26.953  0.00  0.00    +0.031 C 
BRANCH  21  22
ATOM     22  C   UNL A   1     -25.688   1.614  26.461  0.00  0.00    +0.040 C 
ATOM     23  C   UNL A   1     -26.250   2.920  26.395  0.00  0.00    +0.077 C 
ATOM     24  C   UNL A   1     -27.438   3.091  25.645  0.00  0.00    +0.107 C 
ATOM     25  N   UNL A   1     -28.075   2.089  25.003  0.00  0.00    -0.208 NA
ATOM     26  C   UNL A   1     -27.543   0.849  25.079  0.00  0.00    +0.253 C 
ATOM     27  C   UNL A   1     -26.354   0.576  25.777  0.00  0.00    +0.193 C 
ATOM     28  F   UNL A   1     -25.860  -0.681  25.795  0.00  0.00    -0.199 F 
BRANCH  23  29
ATOM     29  C   UNL A   1     -25.642   4.093  27.123  0.00  0.00    +0.266 C 
ATOM     30  N   UNL A   1     -25.614   5.252  26.449  0.00  0.00    -0.200 NA
ATOM     31  C   UNL A   1     -25.026   6.479  26.963  0.00  0.00    +0.139 C 
ATOM     32  O   UNL A   1     -25.143   3.966  28.243  0.00  0.00    -0.268 OA
ENDBRANCH  23  29
BRANCH  26  33
ATOM     33  O   UNL A   1     -28.193  -0.208  24.477  0.00  0.00    -0.456 OA
BRANCH  33  34
ATOM     34  C   UNL A   1     -29.460   0.005  23.866  0.00  0.00    +0.243 C 
BRANCH  34  35
ATOM     35  C   UNL A   1     -30.065  -1.377  23.573  0.00  0.00    +0.229 C 
ATOM     36  O   UNL A   1     -30.729  -1.878  24.721  0.00  0.00    -0.216 OA
ENDBRANCH  34  35
ENDBRANCH  33  34
ENDBRANCH  26  33
ENDBRANCH  21  22
ENDBRANCH  17  19
ENDBRANCH  15  17
ENDBRANCH   1  15
BRANCH   1  37
ATOM     37  C   UNL A   1     -24.855  -1.012  30.143  0.00  0.00    +0.066 C 
BRANCH  37  38
ATOM     38  C   UNL A   1     -24.973  -2.505  29.788  0.00  0.00    -0.019 C 
ATOM     39  C   UNL A   1     -23.906  -3.173  29.146  0.00  0.00    -0.004 C 
ATOM     40  C   UNL A   1     -23.989  -4.549  28.853  0.00  0.00    -0.000 C 
ATOM     41  C   UNL A   1     -25.137  -5.280  29.205  0.00  0.00    -0.000 C 
ATOM     42  C   UNL A   1     -26.232  -4.611  29.784  0.00  0.00    -0.000 C 
ATOM     43  C   UNL A   1     -26.155  -3.232  30.065  0.00  0.00    -0.004 C 
ENDBRANCH  37  38
BRANCH  37  44
ATOM     44  C   UNL A   1     -25.387  -0.679  31.571  0.00  0.00    +0.079 C 
ATOM     45  C   UNL A   1     -25.189   0.773  32.028  0.00  0.00    +0.019 C 
ATOM     46  C   UNL A   1     -25.336   0.684  33.544  0.00  0.00    +0.020 C 
ATOM     47  C   UNL A   1     -24.829  -0.715  33.905  0.00  0.00    +0.089 C 
ATOM     48  N   UNL A   1     -24.758  -1.481  32.646  0.00  0.00    -0.219 NA
ENDBRANCH  37  44
ENDBRANCH   1  37
TORSDOF 13
