REMARK  Name = outputs/IAG933/test6/raw/output_8532_IAG933_linker_design_.xyz
REMARK  17 active torsions:
REMARK  status: ('A' for Active; 'I' for Inactive)
REMARK    1  A    between atoms: C_1  and  C_2
REMARK    2  A    between atoms: C_1  and  C_8
REMARK    3  A    between atoms: C_1  and  C_41
REMARK    4  A    between atoms: C_13  and  C_36
REMARK    5  A    between atoms: C_14  and  C_15
REMARK    6  A    between atoms: C_21  and  O_22
REMARK    7  A    between atoms: O_22  and  C_23
REMARK    8  A    between atoms: C_23  and  C_24
REMARK    9  A    between atoms: N_28  and  C_31
REMARK   10  A    between atoms: N_28  and  C_42
REMARK   11  A    between atoms: C_29  and  C_31
REMARK   12  A    between atoms: C_29  and  C_40
REMARK   13  A    between atoms: C_36  and  N_38
REMARK   14  A    between atoms: C_37  and  C_41
REMARK   15  A    between atoms: C_37  and  C_42
REMARK   16  A    between atoms: N_38  and  C_41
REMARK   17  A    between atoms: C_40  and  C_44
REMARK                            x       y       z     vdW  Elec       q    Type
REMARK                         _______ _______ _______ _____ _____    ______ ____
ROOT
ATOM      1  C   UNL A   1     -25.316  -0.353  28.799  0.00  0.00    +0.100 C 
ENDROOT
BRANCH   1   2
ATOM      2  C   UNL A   1     -24.855  -1.012  30.143  0.00  0.00    +0.058 C 
BRANCH   2   3
ATOM      3  C   UNL A   1     -24.973  -2.505  29.788  0.00  0.00    -0.019 C 
ATOM      4  C   UNL A   1     -23.906  -3.173  29.146  0.00  0.00    -0.004 C 
ATOM      5  C   UNL A   1     -23.989  -4.549  28.853  0.00  0.00    -0.000 C 
ATOM      6  C   UNL A   1     -25.137  -5.280  29.205  0.00  0.00    -0.000 C 
ATOM      7  C   UNL A   1     -26.232  -4.611  29.784  0.00  0.00    -0.000 C 
ATOM      8  C   UNL A   1     -26.155  -3.232  30.065  0.00  0.00    -0.004 C 
ENDBRANCH   2   3
BRANCH   2   9
ATOM      9  C   UNL A   1     -25.387  -0.679  31.571  0.00  0.00    +0.079 C 
ATOM     10  C   UNL A   1     -25.189   0.773  32.028  0.00  0.00    +0.019 C 
ATOM     11  C   UNL A   1     -25.336   0.684  33.544  0.00  0.00    +0.020 C 
ATOM     12  C   UNL A   1     -24.829  -0.715  33.905  0.00  0.00    +0.089 C 
ATOM     13  N   UNL A   1     -24.758  -1.481  32.646  0.00  0.00    -0.219 NA
ENDBRANCH   2   9
ENDBRANCH   1   2
BRANCH   1  14
ATOM     14  C   UNL A   1     -26.886  -0.418  28.537  0.00  0.00    +0.044 C 
BRANCH  14  15
ATOM     15  C   UNL A   1     -27.686   0.372  29.680  0.00  0.00    +0.099 C 
BRANCH  15  16
ATOM     16  N   UNL A   1     -29.011  -0.198  29.460  0.00  0.00    -0.236 N 
ATOM     17  C   UNL A   1     -29.670   0.398  28.524  0.00  0.00    +0.448 C 
ATOM     18  O   UNL A   1     -29.885   1.730  28.747  0.00  0.00    -0.222 OA
ATOM     19  O   UNL A   1     -29.992  -0.144  27.497  0.00  0.00    -0.222 OA
BRANCH  16  20
ATOM     20  C   UNL A   1     -29.308  -1.274  30.391  0.00  0.00    +0.161 C 
BRANCH  20  21
ATOM     21  C   UNL A   1     -29.593  -0.478  31.689  0.00  0.00    +0.173 C 
ATOM     22  O   UNL A   1     -28.983  -0.785  32.765  0.00  0.00    -0.294 OA
BRANCH  21  23
ATOM     23  C   UNL A   1     -30.501   0.505  31.685  0.00  0.00    +0.102 C 
BRANCH  23  25
ATOM     24  O   UNL A   1     -28.966   2.056  32.930  0.00  0.00    -0.220 OA
ATOM     25  C   UNL A   1     -30.337   1.652  32.734  0.00  0.00    +0.190 C 
ENDBRANCH  23  25
ENDBRANCH  21  23
ENDBRANCH  20  21
ENDBRANCH  16  20
ENDBRANCH  15  16
ENDBRANCH  14  15
ENDBRANCH   1  14
BRANCH   1  26
ATOM     26  N   UNL A   1     -24.514   0.876  28.544  0.00  0.00    -0.239 NA
BRANCH  26  29
ATOM     27  C   UNL A   1     -23.123   1.846  26.840  0.00  0.00    -0.010 C 
ATOM     28  C   UNL A   1     -21.952   1.364  27.739  0.00  0.00    +0.032 C 
ATOM     29  C   UNL A   1     -24.531   1.420  27.243  0.00  0.00    +0.064 C 
BRANCH  29  30
ATOM     30  C   UNL A   1     -25.688   1.614  26.461  0.00  0.00    +0.053 C 
ATOM     31  C   UNL A   1     -26.250   2.920  26.395  0.00  0.00    +0.078 C 
ATOM     32  C   UNL A   1     -27.438   3.091  25.645  0.00  0.00    +0.107 C 
ATOM     33  N   UNL A   1     -28.075   2.089  25.003  0.00  0.00    -0.208 NA
ATOM     34  C   UNL A   1     -27.543   0.849  25.079  0.00  0.00    +0.253 C 
ATOM     35  C   UNL A   1     -26.354   0.576  25.777  0.00  0.00    +0.194 C 
ATOM     36  F   UNL A   1     -25.860  -0.681  25.795  0.00  0.00    -0.199 F 
BRANCH  31  37
ATOM     37  C   UNL A   1     -25.642   4.093  27.123  0.00  0.00    +0.267 C 
ATOM     38  N   UNL A   1     -25.614   5.252  26.449  0.00  0.00    -0.200 NA
ATOM     39  C   UNL A   1     -25.026   6.479  26.963  0.00  0.00    +0.139 C 
ATOM     40  O   UNL A   1     -25.143   3.966  28.243  0.00  0.00    -0.268 OA
ENDBRANCH  31  37
BRANCH  34  41
ATOM     41  O   UNL A   1     -28.193  -0.208  24.477  0.00  0.00    -0.456 OA
BRANCH  41  42
ATOM     42  C   UNL A   1     -29.460   0.005  23.866  0.00  0.00    +0.243 C 
BRANCH  42  43
ATOM     43  C   UNL A   1     -30.065  -1.377  23.573  0.00  0.00    +0.229 C 
ATOM     44  O   UNL A   1     -30.729  -1.878  24.721  0.00  0.00    -0.216 OA
ENDBRANCH  42  43
ENDBRANCH  41  42
ENDBRANCH  34  41
ENDBRANCH  29  30
ENDBRANCH  26  29
ENDBRANCH   1  26
TORSDOF 17
