REMARK  Name = outputs/IAG933/test6/raw/output_8537_IAG933_linker_design_.xyz
REMARK  12 active torsions:
REMARK  status: ('A' for Active; 'I' for Inactive)
REMARK    1  A    between atoms: C_1  and  C_2
REMARK    2  A    between atoms: C_1  and  C_8
REMARK    3  A    between atoms: C_1  and  C_30
REMARK    4  A    between atoms: C_13  and  C_32
REMARK    5  A    between atoms: C_14  and  C_15
REMARK    6  A    between atoms: C_21  and  O_22
REMARK    7  A    between atoms: O_22  and  C_23
REMARK    8  A    between atoms: C_23  and  C_24
REMARK    9  A    between atoms: C_28  and  C_39
REMARK   10  A    between atoms: C_28  and  C_41
REMARK   11  A    between atoms: C_30  and  C_37
REMARK   12  A    between atoms: O_31  and  C_39
REMARK                            x       y       z     vdW  Elec       q    Type
REMARK                         _______ _______ _______ _____ _____    ______ ____
ROOT
ATOM      1  C   UNL A   1     -23.284   2.007  26.421  0.00  0.00    +0.000 C 
ATOM      2  C   UNL A   1     -24.345   1.368  27.086  0.00  0.00    +0.004 C 
ATOM      3  F   UNL A   1     -22.441  -0.009  29.782  0.00  0.00    -0.204 F 
ATOM      4  C   UNL A   1     -21.690   1.183  27.988  0.00  0.00    +0.030 C 
ATOM      5  C   UNL A   1     -21.946   1.931  26.831  0.00  0.00    +0.002 C 
ATOM      6  C   UNL A   1     -24.157   0.591  28.261  0.00  0.00    +0.024 C 
ATOM      7  C   UNL A   1     -22.767   0.572  28.653  0.00  0.00    +0.140 C 
ENDROOT
BRANCH   2   8
ATOM      8  C   UNL A   1     -25.688   1.614  26.461  0.00  0.00    +0.038 C 
ATOM      9  C   UNL A   1     -26.250   2.920  26.395  0.00  0.00    +0.076 C 
ATOM     10  C   UNL A   1     -27.438   3.091  25.645  0.00  0.00    +0.107 C 
ATOM     11  N   UNL A   1     -28.075   2.089  25.003  0.00  0.00    -0.208 NA
ATOM     12  C   UNL A   1     -27.543   0.849  25.079  0.00  0.00    +0.253 C 
ATOM     13  C   UNL A   1     -26.354   0.576  25.777  0.00  0.00    +0.193 C 
ATOM     14  F   UNL A   1     -25.860  -0.681  25.795  0.00  0.00    -0.199 F 
BRANCH   9  15
ATOM     15  C   UNL A   1     -25.642   4.093  27.123  0.00  0.00    +0.266 C 
ATOM     16  N   UNL A   1     -25.614   5.252  26.449  0.00  0.00    -0.200 NA
ATOM     17  C   UNL A   1     -25.026   6.479  26.963  0.00  0.00    +0.139 C 
ATOM     18  O   UNL A   1     -25.143   3.966  28.243  0.00  0.00    -0.268 OA
ENDBRANCH   9  15
BRANCH  12  19
ATOM     19  O   UNL A   1     -28.193  -0.208  24.477  0.00  0.00    -0.456 OA
BRANCH  19  20
ATOM     20  C   UNL A   1     -29.460   0.005  23.866  0.00  0.00    +0.243 C 
BRANCH  20  21
ATOM     21  C   UNL A   1     -30.065  -1.377  23.573  0.00  0.00    +0.229 C 
ATOM     22  O   UNL A   1     -30.729  -1.878  24.721  0.00  0.00    -0.216 OA
ENDBRANCH  20  21
ENDBRANCH  19  20
ENDBRANCH  12  19
ENDBRANCH   2   8
BRANCH   6  23
ATOM     23  C   UNL A   1     -25.305  -0.146  28.980  0.00  0.00    -0.019 C 
ATOM     24  C   UNL A   1     -26.733  -0.069  28.615  0.00  0.00    -0.018 C 
BRANCH  23  25
ATOM     25  C   UNL A   1     -24.855  -1.012  30.143  0.00  0.00    +0.060 C 
BRANCH  25  26
ATOM     26  C   UNL A   1     -24.973  -2.505  29.788  0.00  0.00    -0.017 C 
ATOM     27  C   UNL A   1     -23.906  -3.173  29.146  0.00  0.00    -0.004 C 
ATOM     28  C   UNL A   1     -23.989  -4.549  28.853  0.00  0.00    -0.000 C 
ATOM     29  C   UNL A   1     -25.137  -5.280  29.205  0.00  0.00    -0.000 C 
ATOM     30  C   UNL A   1     -26.232  -4.611  29.784  0.00  0.00    -0.000 C 
ATOM     31  C   UNL A   1     -26.155  -3.232  30.065  0.00  0.00    -0.004 C 
ENDBRANCH  25  26
BRANCH  25  32
ATOM     32  C   UNL A   1     -25.387  -0.679  31.571  0.00  0.00    +0.081 C 
ATOM     33  C   UNL A   1     -25.189   0.773  32.028  0.00  0.00    +0.019 C 
ATOM     34  C   UNL A   1     -25.336   0.684  33.544  0.00  0.00    +0.020 C 
ATOM     35  C   UNL A   1     -24.829  -0.715  33.905  0.00  0.00    +0.089 C 
ATOM     36  N   UNL A   1     -24.758  -1.481  32.646  0.00  0.00    -0.219 NA
ENDBRANCH  25  32
ENDBRANCH  23  25
BRANCH  24  37
ATOM     37  C   UNL A   1     -28.104  -0.790  29.110  0.00  0.00    +0.135 C 
BRANCH  37  39
ATOM     38  O   UNL A   1     -29.069   1.150  28.749  0.00  0.00    -0.250 OA
ATOM     39  C   UNL A   1     -29.120   0.032  29.294  0.00  0.00    +0.322 C 
BRANCH  39  40
ATOM     40  O   UNL A   1     -30.287  -0.031  30.024  0.00  0.00    -0.444 OA
ATOM     41  C   UNL A   1     -29.988  -0.291  31.402  0.00  0.00    +0.256 C 
ENDBRANCH  39  40
ENDBRANCH  37  39
ENDBRANCH  24  37
ENDBRANCH   6  23
TORSDOF 12
