MODEL 853
MODEL 1
REMARK VINA RESULT:    -6.444      0.000      0.000
REMARK INTER + INTRA:          -7.349
REMARK INTER:                  -7.198
REMARK INTRA:                  -0.152
REMARK UNBOUND:                -0.152
REMARK  Name = No_853-gen_results/8p0m/2024-11-27-11-27-31/
REMARK  2 active torsions:
REMARK  status: ('A' for Active; 'I' for Inactive)
REMARK    1  A    between atoms: C_2  and  C_7
REMARK    2  A    between atoms: C_7  and  N_8
REMARK                            x       y       z     vdW  Elec       q    Type
REMARK                         _______ _______ _______ _____ _____    ______ ____
ROOT
ATOM      1  C   UNL A   1     -24.672  -1.213  29.672  0.00  0.00    +0.100 C 
ENDROOT
BRANCH   1   2
ATOM      2  N   UNL A   1     -24.203  -0.503  28.742  0.00  0.00    -0.255 NA
ATOM      3  C   UNL A   1     -23.055   0.101  28.748  0.00  0.00    +0.151 C 
ATOM      4  C   UNL A   1     -22.681   1.048  27.740  0.00  0.00    +0.036 C 
ATOM      5  N   UNL A   1     -22.193  -0.021  29.797  0.00  0.00    -0.115 NA
ATOM      6  C   UNL A   1     -23.484   1.301  26.638  0.00  0.00    +0.004 C 
ATOM      7  C   UNL A   1     -24.755   0.592  26.634  0.00  0.00    +0.018 C 
ATOM      8  C   UNL A   1     -25.235  -0.294  27.635  0.00  0.00    +0.074 C 
ENDBRANCH   1   2
BRANCH   1  10
ATOM      9  C   UNL A   1     -23.880  -3.180  28.813  0.00  0.00    -0.003 A 
ATOM     10  C   UNL A   1     -24.677  -2.779  29.374  0.00  0.00    -0.006 A 
ATOM     11  C   UNL A   1     -23.927  -4.626  28.542  0.00  0.00    -0.000 A 
ATOM     12  C   UNL A   1     -25.070  -5.395  28.908  0.00  0.00    -0.000 A 
ATOM     13  C   UNL A   1     -25.985  -3.335  29.816  0.00  0.00    -0.003 A 
ATOM     14  C   UNL A   1     -26.062  -4.677  29.591  0.00  0.00    -0.000 A 
ENDBRANCH   1  10
TORSDOF 2
ENDMDL
ENDMDL
