REMARK  Name = outputs/IAG933/test6/raw/output_8543_IAG933_linker_design_.xyz
REMARK  15 active torsions:
REMARK  status: ('A' for Active; 'I' for Inactive)
REMARK    1  A    between atoms: C_1  and  C_2
REMARK    2  A    between atoms: C_1  and  C_8
REMARK    3  A    between atoms: C_1  and  C_33
REMARK    4  A    between atoms: C_13  and  C_38
REMARK    5  A    between atoms: C_14  and  C_15
REMARK    6  A    between atoms: C_21  and  O_22
REMARK    7  A    between atoms: O_22  and  C_23
REMARK    8  A    between atoms: C_23  and  C_24
REMARK    9  A    between atoms: C_29  and  C_31
REMARK   10  A    between atoms: C_30  and  C_33
REMARK   11  A    between atoms: C_31  and  C_38
REMARK   12  A    between atoms: C_32  and  C_39
REMARK   13  A    between atoms: C_33  and  C_44
REMARK   14  A    between atoms: C_38  and  C_44
REMARK   15  A    between atoms: C_39  and  C_42
REMARK                            x       y       z     vdW  Elec       q    Type
REMARK                         _______ _______ _______ _____ _____    ______ ____
ROOT
ATOM      1  C   UNL A   1     -25.597  -0.191  29.111  0.00  0.00    +0.085 C 
ENDROOT
BRANCH   1   2
ATOM      2  C   UNL A   1     -27.058   0.294  29.053  0.00  0.00    +0.248 C 
ATOM      3  C   UNL A   1     -28.246   2.317  29.648  0.00  0.00    +0.257 C 
ATOM      4  O   UNL A   1     -28.537   2.198  30.823  0.00  0.00    -0.272 OA
ATOM      5  N   UNL A   1     -27.338   1.590  29.002  0.00  0.00    -0.144 NA
ATOM      6  O   UNL A   1     -27.980  -0.683  29.069  0.00  0.00    -0.273 OA
BRANCH   3   7
ATOM      7  C   UNL A   1     -28.975   3.357  28.857  0.00  0.00    +0.174 C 
BRANCH   7  11
ATOM      8  C   UNL A   1     -31.617   5.512  30.315  0.00  0.00    +0.139 C 
ATOM      9  N   UNL A   1     -30.873   4.192  30.253  0.00  0.00    -0.203 NA
ATOM     10  O   UNL A   1     -29.076   5.461  30.099  0.00  0.00    -0.273 OA
ATOM     11  C   UNL A   1     -29.616   4.380  29.757  0.00  0.00    +0.251 C 
ENDBRANCH   7  11
ENDBRANCH   3   7
ENDBRANCH   1   2
BRANCH   1  12
ATOM     12  C   UNL A   1     -24.855  -1.012  30.143  0.00  0.00    +0.047 C 
BRANCH  12  13
ATOM     13  C   UNL A   1     -24.973  -2.505  29.788  0.00  0.00    -0.021 C 
ATOM     14  C   UNL A   1     -23.906  -3.173  29.146  0.00  0.00    -0.004 C 
ATOM     15  C   UNL A   1     -23.989  -4.549  28.853  0.00  0.00    -0.000 C 
ATOM     16  C   UNL A   1     -25.137  -5.280  29.205  0.00  0.00    -0.000 C 
ATOM     17  C   UNL A   1     -26.232  -4.611  29.784  0.00  0.00    -0.000 C 
ATOM     18  C   UNL A   1     -26.155  -3.232  30.065  0.00  0.00    -0.004 C 
ENDBRANCH  12  13
BRANCH  12  19
ATOM     19  C   UNL A   1     -25.387  -0.679  31.571  0.00  0.00    +0.077 C 
ATOM     20  C   UNL A   1     -25.189   0.773  32.028  0.00  0.00    +0.019 C 
ATOM     21  C   UNL A   1     -25.336   0.684  33.544  0.00  0.00    +0.020 C 
ATOM     22  C   UNL A   1     -24.829  -0.715  33.905  0.00  0.00    +0.089 C 
ATOM     23  N   UNL A   1     -24.758  -1.481  32.646  0.00  0.00    -0.219 NA
ENDBRANCH  12  19
ENDBRANCH   1  12
BRANCH   1  24
ATOM     24  C   UNL A   1     -25.043   1.089  28.600  0.00  0.00    +0.021 C 
BRANCH  24  25
ATOM     25  C   UNL A   1     -24.367   1.282  27.286  0.00  0.00    +0.083 C 
BRANCH  25  26
ATOM     26  C   UNL A   1     -25.688   1.614  26.461  0.00  0.00    +0.022 C 
ATOM     27  C   UNL A   1     -26.250   2.920  26.395  0.00  0.00    +0.073 C 
ATOM     28  C   UNL A   1     -27.438   3.091  25.645  0.00  0.00    +0.106 C 
ATOM     29  N   UNL A   1     -28.075   2.089  25.003  0.00  0.00    -0.208 NA
ATOM     30  C   UNL A   1     -27.543   0.849  25.079  0.00  0.00    +0.253 C 
ATOM     31  C   UNL A   1     -26.354   0.576  25.777  0.00  0.00    +0.190 C 
ATOM     32  F   UNL A   1     -25.860  -0.681  25.795  0.00  0.00    -0.200 F 
BRANCH  27  33
ATOM     33  C   UNL A   1     -25.642   4.093  27.123  0.00  0.00    +0.266 C 
ATOM     34  N   UNL A   1     -25.614   5.252  26.449  0.00  0.00    -0.200 NA
ATOM     35  C   UNL A   1     -25.026   6.479  26.963  0.00  0.00    +0.139 C 
ATOM     36  O   UNL A   1     -25.143   3.966  28.243  0.00  0.00    -0.268 OA
ENDBRANCH  27  33
BRANCH  30  37
ATOM     37  O   UNL A   1     -28.193  -0.208  24.477  0.00  0.00    -0.456 OA
BRANCH  37  38
ATOM     38  C   UNL A   1     -29.460   0.005  23.866  0.00  0.00    +0.243 C 
BRANCH  38  39
ATOM     39  C   UNL A   1     -30.065  -1.377  23.573  0.00  0.00    +0.229 C 
ATOM     40  O   UNL A   1     -30.729  -1.878  24.721  0.00  0.00    -0.216 OA
ENDBRANCH  38  39
ENDBRANCH  37  38
ENDBRANCH  30  37
ENDBRANCH  25  26
BRANCH  25  41
ATOM     41  C   UNL A   1     -22.904   0.878  27.816  0.00  0.00    +0.154 C 
ATOM     42  O   UNL A   1     -22.693  -0.117  28.528  0.00  0.00    -0.296 OA
BRANCH  41  43
ATOM     43  C   UNL A   1     -21.794   1.812  27.497  0.00  0.00    +0.065 C 
ATOM     44  C   UNL A   1     -21.877   1.999  25.991  0.00  0.00    +0.008 C 
ENDBRANCH  41  43
ENDBRANCH  25  41
ENDBRANCH  24  25
ENDBRANCH   1  24
TORSDOF 15
