REMARK  Name = outputs/IAG933/test6/raw/output_8544_IAG933_linker_design_.xyz
REMARK  13 active torsions:
REMARK  status: ('A' for Active; 'I' for Inactive)
REMARK    1  A    between atoms: C_1  and  C_2
REMARK    2  A    between atoms: C_1  and  C_8
REMARK    3  A    between atoms: C_9  and  N_31
REMARK    4  A    between atoms: C_13  and  C_38
REMARK    5  A    between atoms: C_14  and  C_15
REMARK    6  A    between atoms: C_21  and  O_22
REMARK    7  A    between atoms: O_22  and  C_23
REMARK    8  A    between atoms: C_23  and  C_24
REMARK    9  A    between atoms: C_28  and  N_31
REMARK   10  A    between atoms: C_28  and  C_37
REMARK   11  A    between atoms: O_29  and  C_39
REMARK   12  A    between atoms: C_30  and  C_40
REMARK   13  A    between atoms: N_31  and  N_35
REMARK                            x       y       z     vdW  Elec       q    Type
REMARK                         _______ _______ _______ _____ _____    ______ ____
ROOT
ATOM      1  C   UNL A   1     -21.570   1.351  27.907  0.00  0.00    +0.003 C 
ATOM      2  C   UNL A   1     -22.685   1.311  28.805  0.00  0.00    +0.004 C 
ATOM      3  C   UNL A   1     -21.829   1.584  26.528  0.00  0.00    +0.041 C 
ATOM      4  C   UNL A   1     -24.298   1.535  26.962  0.00  0.00    +0.028 C 
ATOM      5  C   UNL A   1     -23.148   1.613  26.068  0.00  0.00    +0.185 C 
ATOM      6  C   UNL A   1     -24.047   1.544  28.366  0.00  0.00    +0.056 C 
ENDROOT
BRANCH   4   7
ATOM      7  C   UNL A   1     -25.688   1.614  26.461  0.00  0.00    +0.096 C 
ATOM      8  C   UNL A   1     -26.250   2.920  26.395  0.00  0.00    +0.059 C 
ATOM      9  C   UNL A   1     -27.438   3.091  25.645  0.00  0.00    +0.102 C 
ATOM     10  N   UNL A   1     -28.075   2.089  25.003  0.00  0.00    -0.212 NA
ATOM     11  C   UNL A   1     -27.543   0.849  25.079  0.00  0.00    +0.234 C 
ATOM     12  C   UNL A   1     -26.354   0.576  25.777  0.00  0.00    +0.244 C 
ATOM     13  F   UNL A   1     -25.860  -0.681  25.795  0.00  0.00    -0.227 F 
BRANCH   8  14
ATOM     14  C   UNL A   1     -25.642   4.093  27.123  0.00  0.00    +0.263 C 
ATOM     15  N   UNL A   1     -25.614   5.252  26.449  0.00  0.00    -0.200 NA
ATOM     16  C   UNL A   1     -25.026   6.479  26.963  0.00  0.00    +0.139 C 
ATOM     17  O   UNL A   1     -25.143   3.966  28.243  0.00  0.00    -0.269 OA
ENDBRANCH   8  14
BRANCH  11  18
ATOM     18  O   UNL A   1     -28.193  -0.208  24.477  0.00  0.00    -0.459 OA
BRANCH  18  19
ATOM     19  C   UNL A   1     -29.460   0.005  23.866  0.00  0.00    +0.242 C 
BRANCH  19  20
ATOM     20  C   UNL A   1     -30.065  -1.377  23.573  0.00  0.00    +0.229 C 
ATOM     21  O   UNL A   1     -30.729  -1.878  24.721  0.00  0.00    -0.216 OA
ENDBRANCH  19  20
ENDBRANCH  18  19
ENDBRANCH  11  18
ENDBRANCH   4   7
BRANCH   6  22
ATOM     22  C   UNL A   1     -25.013   1.777  29.361  0.00  0.00    +0.280 C 
ATOM     23  N   UNL A   1     -24.445   2.354  30.481  0.00  0.00    -0.124 NA
ATOM     24  O   UNL A   1     -26.194   1.331  29.374  0.00  0.00    -0.267 OA
BRANCH  23  25
ATOM     25  N   UNL A   1     -25.093   2.148  31.582  0.00  0.00    -0.184 NA
BRANCH  25  27
ATOM     26  C   UNL A   1     -25.387  -0.679  31.571  0.00  0.00    +0.093 C 
ATOM     27  C   UNL A   1     -25.189   0.773  32.028  0.00  0.00    +0.095 C 
ATOM     28  C   UNL A   1     -25.336   0.684  33.544  0.00  0.00    +0.038 C 
ATOM     29  C   UNL A   1     -24.829  -0.715  33.905  0.00  0.00    +0.090 C 
ATOM     30  N   UNL A   1     -24.758  -1.481  32.646  0.00  0.00    -0.218 NA
BRANCH  26  31
ATOM     31  C   UNL A   1     -24.855  -1.012  30.143  0.00  0.00    +0.045 C 
BRANCH  31  32
ATOM     32  C   UNL A   1     -24.973  -2.505  29.788  0.00  0.00    -0.021 C 
ATOM     33  C   UNL A   1     -23.906  -3.173  29.146  0.00  0.00    -0.004 C 
ATOM     34  C   UNL A   1     -23.989  -4.549  28.853  0.00  0.00    -0.000 C 
ATOM     35  C   UNL A   1     -25.137  -5.280  29.205  0.00  0.00    -0.000 C 
ATOM     36  C   UNL A   1     -26.232  -4.611  29.784  0.00  0.00    -0.000 C 
ATOM     37  C   UNL A   1     -26.155  -3.232  30.065  0.00  0.00    -0.004 C 
ENDBRANCH  31  32
ENDBRANCH  26  31
ENDBRANCH  25  27
BRANCH  25  38
ATOM     38  C   UNL A   1     -25.744   3.231  32.200  0.00  0.00    +0.094 C 
BRANCH  38  40
ATOM     39  C   UNL A   1     -27.241   4.494  30.430  0.00  0.00    +0.002 C 
ATOM     40  C   UNL A   1     -27.140   3.607  31.681  0.00  0.00    +0.019 C 
ENDBRANCH  38  40
ENDBRANCH  25  38
ENDBRANCH  23  25
ENDBRANCH   6  22
BRANCH   5  41
ATOM     41  O   UNL A   1     -23.315   1.693  24.746  0.00  0.00    -0.292 OA
ATOM     42  F   UNL A   1     -22.112   1.897  24.177  0.00  0.00    +0.014 F 
ENDBRANCH   5  41
TORSDOF 13
