MODEL 854
MODEL 1
REMARK VINA RESULT:    -4.354      0.000      0.000
REMARK INTER + INTRA:          -4.354
REMARK INTER:                  -4.354
REMARK INTRA:                   0.000
REMARK UNBOUND:                 0.000
REMARK  Name = No_854-gen_results/8p0m/2024-11-27-11-27-31/
REMARK  0 active torsions:
REMARK  status: ('A' for Active; 'I' for Inactive)
REMARK                            x       y       z     vdW  Elec       q    Type
REMARK                         _______ _______ _______ _____ _____    ______ ____
ROOT
ATOM      1  C   UNL A   1     -24.964  -5.427  29.028  0.00  0.00    +0.000 A 
ATOM      2  C   UNL A   1     -24.199  -4.800  28.664  0.00  0.00    +0.000 A 
ATOM      3  C   UNL A   1     -26.103  -4.694  29.593  0.00  0.00    +0.000 A 
ATOM      4  C   UNL A   1     -26.079  -3.375  29.791  0.00  0.00    +0.000 A 
ATOM      5  C   UNL A   1     -23.946  -3.384  28.779  0.00  0.00    +0.000 A 
ATOM      6  C   UNL A   1     -25.005  -2.724  29.329  0.00  0.00    +0.000 A 
ENDROOT
TORSDOF 0
ENDMDL
ENDMDL
