REMARK  Name = outputs/IAG933/test6/raw/output_8551_IAG933_linker_design_.xyz
REMARK  18 active torsions:
REMARK  status: ('A' for Active; 'I' for Inactive)
REMARK    1  A    between atoms: C_1  and  C_2
REMARK    2  A    between atoms: C_1  and  C_8
REMARK    3  A    between atoms: C_1  and  N_38
REMARK    4  A    between atoms: C_14  and  C_15
REMARK    5  A    between atoms: C_15  and  O_18
REMARK    6  A    between atoms: O_18  and  C_28
REMARK    7  A    between atoms: C_21  and  O_22
REMARK    8  A    between atoms: O_22  and  C_23
REMARK    9  A    between atoms: C_23  and  C_24
REMARK   10  A    between atoms: C_28  and  C_29
REMARK   11  A    between atoms: C_28  and  O_42
REMARK   12  A    between atoms: C_29  and  C_32
REMARK   13  A    between atoms: N_31  and  C_37
REMARK   14  A    between atoms: N_31  and  C_40
REMARK   15  A    between atoms: C_32  and  N_34
REMARK   16  A    between atoms: C_35  and  C_39
REMARK   17  A    between atoms: C_35  and  O_42
REMARK   18  A    between atoms: N_38  and  C_40
REMARK                            x       y       z     vdW  Elec       q    Type
REMARK                         _______ _______ _______ _____ _____    ______ ____
ROOT
ATOM      1  C   UNL A   1     -25.474   3.842  29.366  0.00  0.00    +0.291 C 
ENDROOT
BRANCH   1   2
ATOM      2  O   UNL A   1     -24.937   2.772  29.990  0.00  0.00    -0.315 OA
BRANCH   2   3
ATOM      3  C   UNL A   1     -23.969   2.282  28.967  0.00  0.00    +0.180 C 
BRANCH   3   4
ATOM      4  C   UNL A   1     -23.247   1.298  29.095  0.00  0.00    +0.097 C 
ATOM      5  C   UNL A   1     -22.990   0.039  29.365  0.00  0.00    +0.351 C 
BRANCH   5   6
ATOM      6  N   UNL A   1     -23.811  -0.426  29.733  0.00  0.00    -0.032 NA
BRANCH   6   7
ATOM      7  C   UNL A   1     -24.855  -1.012  30.143  0.00  0.00    +0.243 C 
BRANCH   7   8
ATOM      8  C   UNL A   1     -24.973  -2.505  29.788  0.00  0.00    +0.025 C 
ATOM      9  C   UNL A   1     -23.906  -3.173  29.146  0.00  0.00    -0.000 C 
ATOM     10  C   UNL A   1     -23.989  -4.549  28.853  0.00  0.00    -0.000 C 
ATOM     11  C   UNL A   1     -25.137  -5.280  29.205  0.00  0.00    -0.000 C 
ATOM     12  C   UNL A   1     -26.232  -4.611  29.784  0.00  0.00    -0.000 C 
ATOM     13  C   UNL A   1     -26.155  -3.232  30.065  0.00  0.00    -0.000 C 
ENDBRANCH   7   8
BRANCH   7  14
ATOM     14  C   UNL A   1     -25.387  -0.679  31.571  0.00  0.00    +0.124 C 
ATOM     15  C   UNL A   1     -25.189   0.773  32.028  0.00  0.00    +0.024 C 
ATOM     16  C   UNL A   1     -25.336   0.684  33.544  0.00  0.00    +0.020 C 
ATOM     17  C   UNL A   1     -24.829  -0.715  33.905  0.00  0.00    +0.089 C 
ATOM     18  N   UNL A   1     -24.758  -1.481  32.646  0.00  0.00    -0.215 NA
ENDBRANCH   7  14
ENDBRANCH   6   7
ENDBRANCH   5   6
BRANCH   5  19
ATOM     19  N   UNL A   1     -21.898  -0.695  29.242  0.00  0.00    +0.005 NA
BRANCH  19  21
ATOM     20  C   UNL A   1     -21.009   0.843  27.770  0.00  0.00    +0.018 C 
ATOM     21  C   UNL A   1     -20.947  -0.288  28.470  0.00  0.00    +0.271 C 
ATOM     22  O   UNL A   1     -22.429   2.368  26.661  0.00  0.00    -0.245 OA
ATOM     23  C   UNL A   1     -21.390   2.016  27.335  0.00  0.00    +0.372 C 
ATOM     24  F   UNL A   1     -20.548   2.211  27.481  0.00  0.00    -0.150 F 
ENDBRANCH  19  21
ENDBRANCH   5  19
ENDBRANCH   3   4
ENDBRANCH   2   3
ENDBRANCH   1   2
BRANCH   1  25
ATOM     25  C   UNL A   1     -26.892   4.149  29.785  0.00  0.00    +0.094 C 
BRANCH  25  26
ATOM     26  C   UNL A   1     -27.425   3.228  30.869  0.00  0.00    +0.079 C 
BRANCH  26  29
ATOM     27  C   UNL A   1     -29.272   3.112  29.118  0.00  0.00    +0.072 C 
ATOM     28  C   UNL A   1     -29.085   0.282  30.314  0.00  0.00    +0.017 C 
ATOM     29  N   UNL A   1     -28.703   2.734  30.441  0.00  0.00    -0.273 NA
ATOM     30  C   UNL A   1     -29.684   1.833  28.387  0.00  0.00    +0.017 C 
ATOM     31  C   UNL A   1     -29.293   1.551  31.125  0.00  0.00    +0.072 C 
ATOM     32  C   UNL A   1     -28.922   0.615  28.846  0.00  0.00    +0.003 C 
ENDBRANCH  26  29
ENDBRANCH  25  26
ENDBRANCH   1  25
BRANCH   1  33
ATOM     33  O   UNL A   1     -25.143   3.966  28.243  0.00  0.00    -0.436 OA
BRANCH  33  34
ATOM     34  C   UNL A   1     -25.642   4.093  27.123  0.00  0.00    +0.224 C 
ATOM     35  N   UNL A   1     -25.614   5.252  26.449  0.00  0.00    -0.236 NA
ATOM     36  C   UNL A   1     -25.026   6.479  26.963  0.00  0.00    +0.155 C 
BRANCH  34  38
ATOM     37  C   UNL A   1     -25.688   1.614  26.461  0.00  0.00    +0.041 C 
ATOM     38  C   UNL A   1     -26.250   2.920  26.395  0.00  0.00    +0.074 C 
ATOM     39  C   UNL A   1     -27.438   3.091  25.645  0.00  0.00    +0.107 C 
ATOM     40  N   UNL A   1     -28.075   2.089  25.003  0.00  0.00    -0.208 NA
ATOM     41  C   UNL A   1     -27.543   0.849  25.079  0.00  0.00    +0.253 C 
ATOM     42  C   UNL A   1     -26.354   0.576  25.777  0.00  0.00    +0.193 C 
ATOM     43  F   UNL A   1     -25.860  -0.681  25.795  0.00  0.00    -0.199 F 
BRANCH  41  44
ATOM     44  O   UNL A   1     -28.193  -0.208  24.477  0.00  0.00    -0.456 OA
BRANCH  44  45
ATOM     45  C   UNL A   1     -29.460   0.005  23.866  0.00  0.00    +0.243 C 
BRANCH  45  46
ATOM     46  C   UNL A   1     -30.065  -1.377  23.573  0.00  0.00    +0.229 C 
ATOM     47  O   UNL A   1     -30.729  -1.878  24.721  0.00  0.00    -0.216 OA
ENDBRANCH  45  46
ENDBRANCH  44  45
ENDBRANCH  41  44
ENDBRANCH  34  38
ENDBRANCH  33  34
ENDBRANCH   1  33
TORSDOF 18
