REMARK  Name = outputs/IAG933/test6/raw/output_8554_IAG933_linker_design_.xyz
REMARK  13 active torsions:
REMARK  status: ('A' for Active; 'I' for Inactive)
REMARK    1  A    between atoms: C_1  and  C_2
REMARK    2  A    between atoms: C_1  and  C_8
REMARK    3  A    between atoms: C_1  and  N_34
REMARK    4  A    between atoms: C_13  and  C_43
REMARK    5  A    between atoms: C_14  and  C_15
REMARK    6  A    between atoms: C_21  and  O_22
REMARK    7  A    between atoms: O_22  and  C_23
REMARK    8  A    between atoms: C_23  and  C_24
REMARK    9  A    between atoms: C_28  and  O_35
REMARK   10  A    between atoms: C_29  and  C_32
REMARK   11  A    between atoms: N_31  and  C_45
REMARK   12  A    between atoms: O_35  and  C_36
REMARK   13  A    between atoms: C_36  and  C_45
REMARK                            x       y       z     vdW  Elec       q    Type
REMARK                         _______ _______ _______ _____ _____    ______ ____
ROOT
ATOM      1  C   UNL A   1     -25.524   0.403  28.568  0.00  0.00    +0.203 A 
ATOM      2  C   UNL A   1     -23.594   0.985  27.923  0.00  0.00    +0.091 A 
ATOM      3  N   UNL A   1     -24.619  -0.163  29.313  0.00  0.00    -0.282 N 
ATOM      4  N   UNL A   1     -22.348  -0.045  29.828  0.00  0.00    -0.109 NA
ATOM      5  C   UNL A   1     -24.904   1.079  27.574  0.00  0.00    +0.044 A 
ATOM      6  C   UNL A   1     -23.353   0.211  29.080  0.00  0.00    +0.158 A 
ENDROOT
BRANCH   5   7
ATOM      7  C   UNL A   1     -25.688   1.614  26.461  0.00  0.00    +0.097 C 
ATOM      8  C   UNL A   1     -26.250   2.920  26.395  0.00  0.00    +0.059 C 
ATOM      9  C   UNL A   1     -27.438   3.091  25.645  0.00  0.00    +0.102 C 
ATOM     10  N   UNL A   1     -28.075   2.089  25.003  0.00  0.00    -0.212 NA
ATOM     11  C   UNL A   1     -27.543   0.849  25.079  0.00  0.00    +0.234 C 
ATOM     12  C   UNL A   1     -26.354   0.576  25.777  0.00  0.00    +0.244 C 
ATOM     13  F   UNL A   1     -25.860  -0.681  25.795  0.00  0.00    -0.227 F 
BRANCH   8  14
ATOM     14  C   UNL A   1     -25.642   4.093  27.123  0.00  0.00    +0.263 C 
ATOM     15  N   UNL A   1     -25.614   5.252  26.449  0.00  0.00    -0.200 NA
ATOM     16  C   UNL A   1     -25.026   6.479  26.963  0.00  0.00    +0.139 C 
ATOM     17  O   UNL A   1     -25.143   3.966  28.243  0.00  0.00    -0.269 OA
ENDBRANCH   8  14
BRANCH  11  18
ATOM     18  O   UNL A   1     -28.193  -0.208  24.477  0.00  0.00    -0.459 OA
BRANCH  18  19
ATOM     19  C   UNL A   1     -29.460   0.005  23.866  0.00  0.00    +0.242 C 
BRANCH  19  20
ATOM     20  C   UNL A   1     -30.065  -1.377  23.573  0.00  0.00    +0.229 C 
ATOM     21  O   UNL A   1     -30.729  -1.878  24.721  0.00  0.00    -0.216 OA
ENDBRANCH  19  20
ENDBRANCH  18  19
ENDBRANCH  11  18
ENDBRANCH   5   7
BRANCH   2  22
ATOM     22  C   UNL A   1     -22.323   1.568  27.217  0.00  0.00    +0.287 C 
ATOM     23  O   UNL A   1     -22.691   2.041  26.009  0.00  0.00    -0.267 OA
ATOM     24  N   UNL A   1     -21.142   1.518  27.673  0.00  0.00    -0.084 NA
ENDBRANCH   2  22
BRANCH   3  25
ATOM     25  C   UNL A   1     -24.855  -1.012  30.143  0.00  0.00    +0.128 C 
BRANCH  25  26
ATOM     26  C   UNL A   1     -24.973  -2.505  29.788  0.00  0.00    -0.000 C 
ATOM     27  C   UNL A   1     -23.906  -3.173  29.146  0.00  0.00    -0.002 C 
ATOM     28  C   UNL A   1     -23.989  -4.549  28.853  0.00  0.00    -0.000 C 
ATOM     29  C   UNL A   1     -25.137  -5.280  29.205  0.00  0.00    -0.000 C 
ATOM     30  C   UNL A   1     -26.232  -4.611  29.784  0.00  0.00    -0.000 C 
ATOM     31  C   UNL A   1     -26.155  -3.232  30.065  0.00  0.00    -0.002 C 
ENDBRANCH  25  26
BRANCH  25  32
ATOM     32  C   UNL A   1     -25.387  -0.679  31.571  0.00  0.00    +0.098 C 
ATOM     33  C   UNL A   1     -25.189   0.773  32.028  0.00  0.00    +0.021 C 
ATOM     34  C   UNL A   1     -25.336   0.684  33.544  0.00  0.00    +0.020 C 
ATOM     35  C   UNL A   1     -24.829  -0.715  33.905  0.00  0.00    +0.089 C 
ATOM     36  N   UNL A   1     -24.758  -1.481  32.646  0.00  0.00    -0.217 NA
ENDBRANCH  25  32
ENDBRANCH   3  25
BRANCH   1  37
ATOM     37  O   UNL A   1     -26.849   0.356  28.804  0.00  0.00    -0.460 OA
BRANCH  37  38
ATOM     38  C   UNL A   1     -27.924  -0.641  28.826  0.00  0.00    +0.228 C 
BRANCH  38  39
ATOM     39  C   UNL A   1     -29.001  -0.208  27.838  0.00  0.00    +0.139 C 
BRANCH  39  41
ATOM     40  C   UNL A   1     -31.036   1.942  30.095  0.00  0.00    +0.015 C 
ATOM     41  N   UNL A   1     -30.071   0.545  28.461  0.00  0.00    -0.299 N 
ATOM     42  C   UNL A   1     -31.311   0.013  28.103  0.00  0.00    +0.118 C 
ATOM     43  C   UNL A   1     -32.278   1.343  29.806  0.00  0.00    -0.002 C 
ATOM     44  C   UNL A   1     -32.420   0.260  28.921  0.00  0.00    -0.005 C 
ATOM     45  C   UNL A   1     -29.888   1.328  29.601  0.00  0.00    +0.062 C 
ENDBRANCH  39  41
ENDBRANCH  38  39
ENDBRANCH  37  38
ENDBRANCH   1  37
TORSDOF 13
