REMARK  Name = outputs/IAG933/test6/raw/output_8559_IAG933_linker_design_.xyz
REMARK  9 active torsions:
REMARK  status: ('A' for Active; 'I' for Inactive)
REMARK    1  A    between atoms: C_1  and  C_2
REMARK    2  A    between atoms: C_1  and  C_8
REMARK    3  A    between atoms: C_1  and  C_29
REMARK    4  A    between atoms: C_13  and  C_28
REMARK    5  A    between atoms: C_14  and  C_15
REMARK    6  A    between atoms: C_21  and  O_22
REMARK    7  A    between atoms: O_22  and  C_23
REMARK    8  A    between atoms: C_23  and  C_24
REMARK    9  A    between atoms: N_30  and  C_38
REMARK                            x       y       z     vdW  Elec       q    Type
REMARK                         _______ _______ _______ _____ _____    ______ ____
ROOT
ATOM      1  C   UNL A   1     -24.668   1.271  27.363  0.00  0.00    +0.030 C 
ATOM      2  C   UNL A   1     -24.243   0.063  29.248  0.00  0.00    +0.001 C 
ATOM      3  C   UNL A   1     -23.306   1.381  27.089  0.00  0.00    +0.086 C 
ATOM      4  C   UNL A   1     -22.349   0.883  27.998  0.00  0.00    +0.150 C 
ATOM      5  C   UNL A   1     -25.159   0.670  28.459  0.00  0.00    +0.072 C 
ATOM      6 CL   UNL A   1     -22.723   2.260  25.656  0.00  0.00    -0.080 Cl
ATOM      7  F   UNL A   1     -21.005   1.076  27.811  0.00  0.00    -0.203 F 
ATOM      8  C   UNL A   1     -22.860   0.213  29.113  0.00  0.00    +0.028 C 
ENDROOT
BRANCH   5   9
ATOM      9  N   UNL A   1     -26.533   0.646  28.641  0.00  0.00    -0.162 NA
ATOM     10  C   UNL A   1     -29.824   0.533  28.613  0.00  0.00    +0.233 C 
ATOM     11  O   UNL A   1     -29.636   0.052  27.435  0.00  0.00    -0.274 OA
ATOM     12  C   UNL A   1     -28.710   2.320  29.737  0.00  0.00    +0.102 C 
ATOM     13  C   UNL A   1     -29.913   2.741  30.611  0.00  0.00    +0.022 C 
ATOM     14  O   UNL A   1     -27.773  -1.167  29.197  0.00  0.00    -0.250 OA
ATOM     15  C   UNL A   1     -31.171   2.363  29.754  0.00  0.00    +0.011 C 
ATOM     16  C   UNL A   1     -31.059   0.842  29.495  0.00  0.00    +0.086 C 
ATOM     17  C   UNL A   1     -27.664  -0.009  29.078  0.00  0.00    +0.333 C 
ATOM     18  N   UNL A   1     -28.737   0.902  29.207  0.00  0.00    -0.213 N 
ENDBRANCH   5   9
BRANCH   1  19
ATOM     19  C   UNL A   1     -25.688   1.614  26.461  0.00  0.00    +0.040 C 
ATOM     20  C   UNL A   1     -26.250   2.920  26.395  0.00  0.00    +0.077 C 
ATOM     21  C   UNL A   1     -27.438   3.091  25.645  0.00  0.00    +0.107 C 
ATOM     22  N   UNL A   1     -28.075   2.089  25.003  0.00  0.00    -0.208 NA
ATOM     23  C   UNL A   1     -27.543   0.849  25.079  0.00  0.00    +0.253 C 
ATOM     24  C   UNL A   1     -26.354   0.576  25.777  0.00  0.00    +0.193 C 
ATOM     25  F   UNL A   1     -25.860  -0.681  25.795  0.00  0.00    -0.199 F 
BRANCH  20  26
ATOM     26  C   UNL A   1     -25.642   4.093  27.123  0.00  0.00    +0.266 C 
ATOM     27  N   UNL A   1     -25.614   5.252  26.449  0.00  0.00    -0.200 NA
ATOM     28  C   UNL A   1     -25.026   6.479  26.963  0.00  0.00    +0.139 C 
ATOM     29  O   UNL A   1     -25.143   3.966  28.243  0.00  0.00    -0.268 OA
ENDBRANCH  20  26
BRANCH  23  30
ATOM     30  O   UNL A   1     -28.193  -0.208  24.477  0.00  0.00    -0.456 OA
BRANCH  30  31
ATOM     31  C   UNL A   1     -29.460   0.005  23.866  0.00  0.00    +0.243 C 
BRANCH  31  32
ATOM     32  C   UNL A   1     -30.065  -1.377  23.573  0.00  0.00    +0.229 C 
ATOM     33  O   UNL A   1     -30.729  -1.878  24.721  0.00  0.00    -0.216 OA
ENDBRANCH  31  32
ENDBRANCH  30  31
ENDBRANCH  23  30
ENDBRANCH   1  19
BRANCH   2  34
ATOM     34  C   UNL A   1     -24.855  -1.012  30.143  0.00  0.00    +0.062 C 
BRANCH  34  35
ATOM     35  C   UNL A   1     -24.973  -2.505  29.788  0.00  0.00    -0.017 C 
ATOM     36  C   UNL A   1     -23.906  -3.173  29.146  0.00  0.00    -0.004 C 
ATOM     37  C   UNL A   1     -23.989  -4.549  28.853  0.00  0.00    -0.000 C 
ATOM     38  C   UNL A   1     -25.137  -5.280  29.205  0.00  0.00    -0.000 C 
ATOM     39  C   UNL A   1     -26.232  -4.611  29.784  0.00  0.00    -0.000 C 
ATOM     40  C   UNL A   1     -26.155  -3.232  30.065  0.00  0.00    -0.004 C 
ENDBRANCH  34  35
BRANCH  34  41
ATOM     41  C   UNL A   1     -25.387  -0.679  31.571  0.00  0.00    +0.081 C 
ATOM     42  C   UNL A   1     -25.189   0.773  32.028  0.00  0.00    +0.019 C 
ATOM     43  C   UNL A   1     -25.336   0.684  33.544  0.00  0.00    +0.020 C 
ATOM     44  C   UNL A   1     -24.829  -0.715  33.905  0.00  0.00    +0.089 C 
ATOM     45  N   UNL A   1     -24.758  -1.481  32.646  0.00  0.00    -0.219 NA
ENDBRANCH  34  41
ENDBRANCH   2  34
TORSDOF 9
