REMARK  Name = outputs/IAG933/test6/raw/output_856_IAG933_linker_design_.xyz
REMARK  15 active torsions:
REMARK  status: ('A' for Active; 'I' for Inactive)
REMARK    1  A    between atoms: C_1  and  C_2
REMARK    2  A    between atoms: C_1  and  C_8
REMARK    3  A    between atoms: C_1  and  N_28
REMARK    4  A    between atoms: C_13  and  N_33
REMARK    5  A    between atoms: C_14  and  C_15
REMARK    6  A    between atoms: C_21  and  O_22
REMARK    7  A    between atoms: O_22  and  C_23
REMARK    8  A    between atoms: C_23  and  C_24
REMARK    9  A    between atoms: N_28  and  C_34
REMARK   10  A    between atoms: N_28  and  C_41
REMARK   11  A    between atoms: N_29  and  C_31
REMARK   12  A    between atoms: N_29  and  N_33
REMARK   13  A    between atoms: C_30  and  C_32
REMARK   14  A    between atoms: C_30  and  C_37
REMARK   15  A    between atoms: N_33  and  C_34
REMARK                            x       y       z     vdW  Elec       q    Type
REMARK                         _______ _______ _______ _____ _____    ______ ____
ROOT
ATOM      1  N   UNL A   1     -24.648   1.282  26.971  0.00  0.00    -0.215 N 
ENDROOT
BRANCH   1   2
ATOM      2  C   UNL A   1     -25.688   1.614  26.461  0.00  0.00    +0.103 C 
ATOM      3  C   UNL A   1     -26.250   2.920  26.395  0.00  0.00    +0.091 C 
ATOM      4  C   UNL A   1     -27.438   3.091  25.645  0.00  0.00    +0.108 C 
ATOM      5  N   UNL A   1     -28.075   2.089  25.003  0.00  0.00    -0.208 NA
ATOM      6  C   UNL A   1     -27.543   0.849  25.079  0.00  0.00    +0.255 C 
ATOM      7  C   UNL A   1     -26.354   0.576  25.777  0.00  0.00    +0.208 C 
ATOM      8  F   UNL A   1     -25.860  -0.681  25.795  0.00  0.00    -0.198 F 
BRANCH   3   9
ATOM      9  C   UNL A   1     -25.642   4.093  27.123  0.00  0.00    +0.268 C 
ATOM     10  N   UNL A   1     -25.614   5.252  26.449  0.00  0.00    -0.200 NA
ATOM     11  C   UNL A   1     -25.026   6.479  26.963  0.00  0.00    +0.139 C 
ATOM     12  O   UNL A   1     -25.143   3.966  28.243  0.00  0.00    -0.268 OA
ENDBRANCH   3   9
BRANCH   6  13
ATOM     13  O   UNL A   1     -28.193  -0.208  24.477  0.00  0.00    -0.456 OA
BRANCH  13  14
ATOM     14  C   UNL A   1     -29.460   0.005  23.866  0.00  0.00    +0.243 C 
BRANCH  14  15
ATOM     15  C   UNL A   1     -30.065  -1.377  23.573  0.00  0.00    +0.229 C 
ATOM     16  O   UNL A   1     -30.729  -1.878  24.721  0.00  0.00    -0.216 OA
ENDBRANCH  14  15
ENDBRANCH  13  14
ENDBRANCH   6  13
ENDBRANCH   1   2
BRANCH   1  17
ATOM     17  N   UNL A   1     -23.765   1.838  26.059  0.00  0.00    -0.100 NA
BRANCH  17  18
ATOM     18  C   UNL A   1     -22.604   1.725  26.606  0.00  0.00    +0.208 C 
ATOM     19  C   UNL A   1     -21.271   0.746  28.061  0.00  0.00    +0.036 C 
ATOM     20  C   UNL A   1     -20.468   1.605  27.308  0.00  0.00    +0.144 C 
ATOM     21  O   UNL A   1     -21.302   2.134  26.333  0.00  0.00    -0.338 OA
ATOM     22  C   UNL A   1     -22.551   1.020  27.671  0.00  0.00    +0.052 C 
BRANCH  19  23
ATOM     23  C   UNL A   1     -21.099  -0.235  29.140  0.00  0.00    +0.038 C 
BRANCH  23  24
ATOM     24  C   UNL A   1     -22.317  -0.386  29.853  0.00  0.00    +0.182 C 
ATOM     25  O   UNL A   1     -22.620   0.654  30.338  0.00  0.00    -0.220 OA
ENDBRANCH  23  24
ENDBRANCH  19  23
ENDBRANCH  17  18
ENDBRANCH   1  17
BRANCH   1  26
ATOM     26  C   UNL A   1     -24.469   0.568  28.006  0.00  0.00    +0.188 C 
BRANCH  26  27
ATOM     27  N   UNL A   1     -25.306  -0.038  29.053  0.00  0.00    -0.223 NA
BRANCH  27  29
ATOM     28  O   UNL A   1     -27.381   1.266  29.051  0.00  0.00    -0.201 OA
ATOM     29  C   UNL A   1     -26.763   0.009  28.882  0.00  0.00    +0.261 C 
ENDBRANCH  27  29
BRANCH  27  30
ATOM     30  C   UNL A   1     -24.855  -1.012  30.143  0.00  0.00    +0.100 C 
BRANCH  30  31
ATOM     31  C   UNL A   1     -24.973  -2.505  29.788  0.00  0.00    -0.006 C 
ATOM     32  C   UNL A   1     -23.906  -3.173  29.146  0.00  0.00    -0.003 C 
ATOM     33  C   UNL A   1     -23.989  -4.549  28.853  0.00  0.00    -0.000 C 
ATOM     34  C   UNL A   1     -25.137  -5.280  29.205  0.00  0.00    -0.000 C 
ATOM     35  C   UNL A   1     -26.232  -4.611  29.784  0.00  0.00    -0.000 C 
ATOM     36  C   UNL A   1     -26.155  -3.232  30.065  0.00  0.00    -0.003 C 
ENDBRANCH  30  31
BRANCH  30  37
ATOM     37  C   UNL A   1     -25.387  -0.679  31.571  0.00  0.00    +0.092 C 
ATOM     38  C   UNL A   1     -25.189   0.773  32.028  0.00  0.00    +0.021 C 
ATOM     39  C   UNL A   1     -25.336   0.684  33.544  0.00  0.00    +0.020 C 
ATOM     40  C   UNL A   1     -24.829  -0.715  33.905  0.00  0.00    +0.089 C 
ATOM     41  N   UNL A   1     -24.758  -1.481  32.646  0.00  0.00    -0.218 NA
ENDBRANCH  30  37
ENDBRANCH  27  30
ENDBRANCH  26  27
ENDBRANCH   1  26
TORSDOF 15
