REMARK  Name = outputs/IAG933/test6/raw/output_8561_IAG933_linker_design_.xyz
REMARK  18 active torsions:
REMARK  status: ('A' for Active; 'I' for Inactive)
REMARK    1  A    between atoms: C_1  and  C_2
REMARK    2  A    between atoms: C_1  and  C_8
REMARK    3  A    between atoms: C_1  and  C_36
REMARK    4  A    between atoms: C_13  and  C_38
REMARK    5  A    between atoms: C_14  and  C_15
REMARK    6  A    between atoms: C_21  and  O_22
REMARK    7  A    between atoms: O_22  and  C_23
REMARK    8  A    between atoms: C_23  and  C_24
REMARK    9  A    between atoms: C_28  and  O_30
REMARK   10  A    between atoms: C_28  and  C_44
REMARK   11  A    between atoms: O_30  and  C_33
REMARK   12  A    between atoms: C_31  and  C_36
REMARK   13  A    between atoms: C_31  and  C_40
REMARK   14  A    between atoms: C_32  and  C_36
REMARK   15  A    between atoms: C_32  and  C_44
REMARK   16  A    between atoms: C_33  and  C_37
REMARK   17  A    between atoms: C_38  and  C_40
REMARK   18  A    between atoms: O_41  and  N_45
REMARK                            x       y       z     vdW  Elec       q    Type
REMARK                         _______ _______ _______ _____ _____    ______ ____
ROOT
ATOM      1  C   UNL A   1     -24.987   0.144  29.153  0.00  0.00    +0.005 C 
ENDROOT
BRANCH   1   2
ATOM      2  C   UNL A   1     -24.855  -1.012  30.143  0.00  0.00    +0.038 C 
BRANCH   2   3
ATOM      3  C   UNL A   1     -24.973  -2.505  29.788  0.00  0.00    -0.021 C 
ATOM      4  C   UNL A   1     -23.906  -3.173  29.146  0.00  0.00    -0.004 C 
ATOM      5  C   UNL A   1     -23.989  -4.549  28.853  0.00  0.00    -0.000 C 
ATOM      6  C   UNL A   1     -25.137  -5.280  29.205  0.00  0.00    -0.000 C 
ATOM      7  C   UNL A   1     -26.232  -4.611  29.784  0.00  0.00    -0.000 C 
ATOM      8  C   UNL A   1     -26.155  -3.232  30.065  0.00  0.00    -0.004 C 
ENDBRANCH   2   3
BRANCH   2   9
ATOM      9  C   UNL A   1     -25.387  -0.679  31.571  0.00  0.00    +0.077 C 
ATOM     10  C   UNL A   1     -25.189   0.773  32.028  0.00  0.00    +0.019 C 
ATOM     11  C   UNL A   1     -25.336   0.684  33.544  0.00  0.00    +0.020 C 
ATOM     12  C   UNL A   1     -24.829  -0.715  33.905  0.00  0.00    +0.089 C 
ATOM     13  N   UNL A   1     -24.758  -1.481  32.646  0.00  0.00    -0.219 NA
ENDBRANCH   2   9
ENDBRANCH   1   2
BRANCH   1  14
ATOM     14  C   UNL A   1     -23.412   0.280  28.684  0.00  0.00    +0.000 C 
BRANCH  14  16
ATOM     15  C   UNL A   1     -21.767   1.643  27.682  0.00  0.00    +0.000 C 
ATOM     16  C   UNL A   1     -23.313   1.518  27.934  0.00  0.00    +0.000 C 
BRANCH  16  18
ATOM     17  C   UNL A   1     -23.439   2.106  25.444  0.00  0.00    +0.000 C 
ATOM     18  C   UNL A   1     -24.187   1.530  26.642  0.00  0.00    +0.007 C 
BRANCH  18  19
ATOM     19  C   UNL A   1     -25.688   1.614  26.461  0.00  0.00    +0.070 C 
ATOM     20  C   UNL A   1     -26.250   2.920  26.395  0.00  0.00    +0.055 C 
ATOM     21  C   UNL A   1     -27.438   3.091  25.645  0.00  0.00    +0.102 C 
ATOM     22  N   UNL A   1     -28.075   2.089  25.003  0.00  0.00    -0.212 NA
ATOM     23  C   UNL A   1     -27.543   0.849  25.079  0.00  0.00    +0.234 C 
ATOM     24  C   UNL A   1     -26.354   0.576  25.777  0.00  0.00    +0.240 C 
ATOM     25  F   UNL A   1     -25.860  -0.681  25.795  0.00  0.00    -0.227 F 
BRANCH  20  26
ATOM     26  C   UNL A   1     -25.642   4.093  27.123  0.00  0.00    +0.262 C 
ATOM     27  N   UNL A   1     -25.614   5.252  26.449  0.00  0.00    -0.200 NA
ATOM     28  C   UNL A   1     -25.026   6.479  26.963  0.00  0.00    +0.139 C 
ATOM     29  O   UNL A   1     -25.143   3.966  28.243  0.00  0.00    -0.269 OA
ENDBRANCH  20  26
BRANCH  23  30
ATOM     30  O   UNL A   1     -28.193  -0.208  24.477  0.00  0.00    -0.459 OA
BRANCH  30  31
ATOM     31  C   UNL A   1     -29.460   0.005  23.866  0.00  0.00    +0.242 C 
BRANCH  31  32
ATOM     32  C   UNL A   1     -30.065  -1.377  23.573  0.00  0.00    +0.229 C 
ATOM     33  O   UNL A   1     -30.729  -1.878  24.721  0.00  0.00    -0.216 OA
ENDBRANCH  31  32
ENDBRANCH  30  31
ENDBRANCH  23  30
ENDBRANCH  18  19
ENDBRANCH  16  18
ENDBRANCH  14  16
ENDBRANCH   1  14
BRANCH   1  34
ATOM     34  C   UNL A   1     -26.359   0.008  28.407  0.00  0.00    +0.003 C 
BRANCH  34  35
ATOM     35  C   UNL A   1     -27.591  -0.440  29.196  0.00  0.00    +0.032 C 
BRANCH  35  36
ATOM     36  C   UNL A   1     -28.646   0.504  28.803  0.00  0.00    +0.142 C 
BRANCH  36  37
ATOM     37  O   UNL A   1     -29.199  -0.242  27.695  0.00  0.00    -0.354 OA
BRANCH  37  38
ATOM     38  C   UNL A   1     -30.602   0.021  27.480  0.00  0.00    +0.144 C 
BRANCH  38  40
ATOM     39  C   UNL A   1     -31.689   1.954  26.226  0.00  0.00    +0.103 C 
ATOM     40  C   UNL A   1     -30.664   1.482  27.166  0.00  0.00    +0.050 C 
ATOM     41  C   UNL A   1     -31.612   3.379  28.068  0.00  0.00    +0.101 C 
ATOM     42  C   UNL A   1     -30.711   2.381  28.419  0.00  0.00    +0.024 C 
ATOM     43  N   UNL A   1     -31.803   3.267  26.681  0.00  0.00    -0.166 NA
BRANCH  43  45
ATOM     44  C   UNL A   1     -32.747   5.178  26.411  0.00  0.00    +0.201 C 
ATOM     45  O   UNL A   1     -31.881   4.257  25.885  0.00  0.00    -0.280 OA
ENDBRANCH  43  45
ENDBRANCH  38  40
ENDBRANCH  37  38
ENDBRANCH  36  37
ENDBRANCH  35  36
ENDBRANCH  34  35
ENDBRANCH   1  34
TORSDOF 18
