REMARK  Name = outputs/IAG933/test6/raw/output_8569_IAG933_linker_design_.xyz
REMARK  12 active torsions:
REMARK  status: ('A' for Active; 'I' for Inactive)
REMARK    1  A    between atoms: C_1  and  C_2
REMARK    2  A    between atoms: C_1  and  C_8
REMARK    3  A    between atoms: C_1  and  C_38
REMARK    4  A    between atoms: C_13  and  C_32
REMARK    5  A    between atoms: C_14  and  C_15
REMARK    6  A    between atoms: C_21  and  O_22
REMARK    7  A    between atoms: O_22  and  C_23
REMARK    8  A    between atoms: C_23  and  C_24
REMARK    9  A    between atoms: C_29  and  C_31
REMARK   10  A    between atoms: C_29  and  C_32
REMARK   11  A    between atoms: C_29  and  C_38
REMARK   12  A    between atoms: N_36  and  C_38
REMARK                            x       y       z     vdW  Elec       q    Type
REMARK                         _______ _______ _______ _____ _____    ______ ____
ROOT
ATOM      1  C   UNL A   1     -25.031  -0.023  28.987  0.00  0.00    +0.105 C 
ENDROOT
BRANCH   1   6
ATOM      2  C   UNL A   1     -28.591   3.369  28.719  0.00  0.00    +0.022 C 
ATOM      3  C   UNL A   1     -28.532   1.665  31.098  0.00  0.00    +0.095 C 
ATOM      4  C   UNL A   1     -28.971   1.917  28.607  0.00  0.00    +0.095 C 
ATOM      5  O   UNL A   1     -27.745  -0.869  29.108  0.00  0.00    -0.251 OA
ATOM      6  N   UNL A   1     -26.216   0.830  29.289  0.00  0.00    -0.190 NA
ATOM      7  N   UNL A   1     -28.497   1.153  29.720  0.00  0.00    -0.263 N 
ATOM      8  C   UNL A   1     -28.750   3.928  30.131  0.00  0.00    +0.004 C 
ATOM      9  C   UNL A   1     -27.527   0.265  29.397  0.00  0.00    +0.323 C 
ATOM     10  C   UNL A   1     -27.987   3.073  31.111  0.00  0.00    +0.022 C 
ENDBRANCH   1   6
BRANCH   1  11
ATOM     11  C   UNL A   1     -24.855  -1.012  30.143  0.00  0.00    +0.058 C 
BRANCH  11  12
ATOM     12  C   UNL A   1     -24.973  -2.505  29.788  0.00  0.00    -0.019 C 
ATOM     13  C   UNL A   1     -23.906  -3.173  29.146  0.00  0.00    -0.004 C 
ATOM     14  C   UNL A   1     -23.989  -4.549  28.853  0.00  0.00    -0.000 C 
ATOM     15  C   UNL A   1     -25.137  -5.280  29.205  0.00  0.00    -0.000 C 
ATOM     16  C   UNL A   1     -26.232  -4.611  29.784  0.00  0.00    -0.000 C 
ATOM     17  C   UNL A   1     -26.155  -3.232  30.065  0.00  0.00    -0.004 C 
ENDBRANCH  11  12
BRANCH  11  18
ATOM     18  C   UNL A   1     -25.387  -0.679  31.571  0.00  0.00    +0.079 C 
ATOM     19  C   UNL A   1     -25.189   0.773  32.028  0.00  0.00    +0.019 C 
ATOM     20  C   UNL A   1     -25.336   0.684  33.544  0.00  0.00    +0.020 C 
ATOM     21  C   UNL A   1     -24.829  -0.715  33.905  0.00  0.00    +0.089 C 
ATOM     22  N   UNL A   1     -24.758  -1.481  32.646  0.00  0.00    -0.219 NA
ENDBRANCH  11  18
ENDBRANCH   1  11
BRANCH   1  23
ATOM     23  C   UNL A   1     -24.022   0.420  27.872  0.00  0.00    +0.051 C 
BRANCH  23  24
ATOM     24  C   UNL A   1     -22.660   0.923  28.565  0.00  0.00    +0.154 C 
ATOM     25  O   UNL A   1     -22.314  -0.015  29.476  0.00  0.00    -0.223 OA
ATOM     26  C   UNL A   1     -21.735   1.577  27.594  0.00  0.00    +0.035 C 
ENDBRANCH  23  24
BRANCH  23  27
ATOM     27  C   UNL A   1     -24.266   1.495  26.811  0.00  0.00    +0.012 C 
BRANCH  27  28
ATOM     28  C   UNL A   1     -25.688   1.614  26.461  0.00  0.00    +0.070 C 
ATOM     29  C   UNL A   1     -26.250   2.920  26.395  0.00  0.00    +0.055 C 
ATOM     30  C   UNL A   1     -27.438   3.091  25.645  0.00  0.00    +0.102 C 
ATOM     31  N   UNL A   1     -28.075   2.089  25.003  0.00  0.00    -0.212 NA
ATOM     32  C   UNL A   1     -27.543   0.849  25.079  0.00  0.00    +0.234 C 
ATOM     33  C   UNL A   1     -26.354   0.576  25.777  0.00  0.00    +0.240 C 
ATOM     34  F   UNL A   1     -25.860  -0.681  25.795  0.00  0.00    -0.227 F 
BRANCH  29  35
ATOM     35  C   UNL A   1     -25.642   4.093  27.123  0.00  0.00    +0.262 C 
ATOM     36  N   UNL A   1     -25.614   5.252  26.449  0.00  0.00    -0.200 NA
ATOM     37  C   UNL A   1     -25.026   6.479  26.963  0.00  0.00    +0.139 C 
ATOM     38  O   UNL A   1     -25.143   3.966  28.243  0.00  0.00    -0.269 OA
ENDBRANCH  29  35
BRANCH  32  39
ATOM     39  O   UNL A   1     -28.193  -0.208  24.477  0.00  0.00    -0.459 OA
BRANCH  39  40
ATOM     40  C   UNL A   1     -29.460   0.005  23.866  0.00  0.00    +0.242 C 
BRANCH  40  41
ATOM     41  C   UNL A   1     -30.065  -1.377  23.573  0.00  0.00    +0.229 C 
ATOM     42  O   UNL A   1     -30.729  -1.878  24.721  0.00  0.00    -0.216 OA
ENDBRANCH  40  41
ENDBRANCH  39  40
ENDBRANCH  32  39
ENDBRANCH  27  28
ENDBRANCH  23  27
ENDBRANCH   1  23
TORSDOF 12
