REMARK  Name = outputs/IAG933/test6/raw/output_8574_IAG933_linker_design_.xyz
REMARK  15 active torsions:
REMARK  status: ('A' for Active; 'I' for Inactive)
REMARK    1  A    between atoms: C_1  and  C_2
REMARK    2  A    between atoms: C_1  and  C_8
REMARK    3  A    between atoms: C_1  and  C_40
REMARK    4  A    between atoms: C_13  and  C_35
REMARK    5  A    between atoms: C_14  and  C_15
REMARK    6  A    between atoms: C_21  and  O_22
REMARK    7  A    between atoms: O_22  and  C_23
REMARK    8  A    between atoms: C_23  and  C_24
REMARK    9  A    between atoms: N_30  and  C_35
REMARK   10  A    between atoms: N_30  and  C_40
REMARK   11  A    between atoms: N_30  and  C_42
REMARK   12  A    between atoms: C_31  and  C_34
REMARK   13  A    between atoms: C_32  and  C_42
REMARK   14  A    between atoms: C_35  and  C_39
REMARK   15  A    between atoms: C_39  and  N_44
REMARK                            x       y       z     vdW  Elec       q    Type
REMARK                         _______ _______ _______ _____ _____    ______ ____
ROOT
ATOM      1  C   UNL A   1     -25.619   1.259  27.888  0.00  0.00    +0.085 C 
ENDROOT
BRANCH   1   2
ATOM      2  C   UNL A   1     -25.688   1.614  26.461  0.00  0.00    +0.086 C 
ATOM      3  C   UNL A   1     -26.250   2.920  26.395  0.00  0.00    +0.056 C 
ATOM      4  C   UNL A   1     -27.438   3.091  25.645  0.00  0.00    +0.102 C 
ATOM      5  N   UNL A   1     -28.075   2.089  25.003  0.00  0.00    -0.212 NA
ATOM      6  C   UNL A   1     -27.543   0.849  25.079  0.00  0.00    +0.234 C 
ATOM      7  C   UNL A   1     -26.354   0.576  25.777  0.00  0.00    +0.241 C 
ATOM      8  F   UNL A   1     -25.860  -0.681  25.795  0.00  0.00    -0.227 F 
BRANCH   3   9
ATOM      9  C   UNL A   1     -25.642   4.093  27.123  0.00  0.00    +0.263 C 
ATOM     10  N   UNL A   1     -25.614   5.252  26.449  0.00  0.00    -0.200 NA
ATOM     11  C   UNL A   1     -25.026   6.479  26.963  0.00  0.00    +0.139 C 
ATOM     12  O   UNL A   1     -25.143   3.966  28.243  0.00  0.00    -0.269 OA
ENDBRANCH   3   9
BRANCH   6  13
ATOM     13  O   UNL A   1     -28.193  -0.208  24.477  0.00  0.00    -0.459 OA
BRANCH  13  14
ATOM     14  C   UNL A   1     -29.460   0.005  23.866  0.00  0.00    +0.242 C 
BRANCH  14  15
ATOM     15  C   UNL A   1     -30.065  -1.377  23.573  0.00  0.00    +0.229 C 
ATOM     16  O   UNL A   1     -30.729  -1.878  24.721  0.00  0.00    -0.216 OA
ENDBRANCH  14  15
ENDBRANCH  13  14
ENDBRANCH   6  13
ENDBRANCH   1   2
BRANCH   1  17
ATOM     17  N   UNL A   1     -24.344   0.770  28.231  0.00  0.00    -0.264 NA
BRANCH  17  18
ATOM     18  C   UNL A   1     -24.810  -0.143  29.039  0.00  0.00    +0.078 C 
BRANCH  18  19
ATOM     19  C   UNL A   1     -24.855  -1.012  30.143  0.00  0.00    +0.054 C 
BRANCH  19  20
ATOM     20  C   UNL A   1     -24.973  -2.505  29.788  0.00  0.00    -0.020 C 
ATOM     21  C   UNL A   1     -23.906  -3.173  29.146  0.00  0.00    -0.004 C 
ATOM     22  C   UNL A   1     -23.989  -4.549  28.853  0.00  0.00    -0.000 C 
ATOM     23  C   UNL A   1     -25.137  -5.280  29.205  0.00  0.00    -0.000 C 
ATOM     24  C   UNL A   1     -26.232  -4.611  29.784  0.00  0.00    -0.000 C 
ATOM     25  C   UNL A   1     -26.155  -3.232  30.065  0.00  0.00    -0.004 C 
ENDBRANCH  19  20
BRANCH  19  26
ATOM     26  C   UNL A   1     -25.387  -0.679  31.571  0.00  0.00    +0.078 C 
ATOM     27  C   UNL A   1     -25.189   0.773  32.028  0.00  0.00    +0.019 C 
ATOM     28  C   UNL A   1     -25.336   0.684  33.544  0.00  0.00    +0.020 C 
ATOM     29  C   UNL A   1     -24.829  -0.715  33.905  0.00  0.00    +0.089 C 
ATOM     30  N   UNL A   1     -24.758  -1.481  32.646  0.00  0.00    -0.219 NA
ENDBRANCH  19  26
ENDBRANCH  18  19
ENDBRANCH  17  18
BRANCH  17  31
ATOM     31  C   UNL A   1     -23.278   1.110  27.333  0.00  0.00    +0.162 C 
BRANCH  31  34
ATOM     32  N   UNL A   1     -21.019   1.427  27.979  0.00  0.00    -0.087 NA
ATOM     33  O   UNL A   1     -22.212  -0.069  29.105  0.00  0.00    -0.270 OA
ATOM     34  C   UNL A   1     -22.085   0.787  28.244  0.00  0.00    +0.277 C 
ENDBRANCH  31  34
ENDBRANCH  17  31
ENDBRANCH   1  17
BRANCH   1  35
ATOM     35  C   UNL A   1     -26.918   1.499  28.539  0.00  0.00    +0.110 C 
BRANCH  35  42
ATOM     36  C   UNL A   1     -30.302   1.062  30.116  0.00  0.00    +0.110 C 
ATOM     37  C   UNL A   1     -30.628  -0.302  29.479  0.00  0.00    +0.013 C 
ATOM     38  C   UNL A   1     -28.329  -0.301  28.533  0.00  0.00    +0.093 C 
ATOM     39  C   UNL A   1     -28.829   1.300  30.354  0.00  0.00    +0.228 C 
ATOM     40  C   UNL A   1     -29.355  -1.064  29.247  0.00  0.00    +0.022 C 
ATOM     41  O   UNL A   1     -28.458   1.891  31.377  0.00  0.00    -0.275 OA
ATOM     42  N   UNL A   1     -27.955   0.960  29.207  0.00  0.00    -0.278 N 
BRANCH  36  43
ATOM     43  C   UNL A   1     -30.632   2.170  29.094  0.00  0.00    +0.191 C 
ATOM     44  O   UNL A   1     -29.694   2.395  28.071  0.00  0.00    -0.220 OA
ENDBRANCH  36  43
ENDBRANCH  35  42
ENDBRANCH   1  35
TORSDOF 15
