REMARK  Name = outputs/IAG933/test6/raw/output_8577_IAG933_linker_design_.xyz
REMARK  14 active torsions:
REMARK  status: ('A' for Active; 'I' for Inactive)
REMARK    1  A    between atoms: C_1  and  C_2
REMARK    2  A    between atoms: C_1  and  C_8
REMARK    3  A    between atoms: C_1  and  C_39
REMARK    4  A    between atoms: C_13  and  O_35
REMARK    5  A    between atoms: C_14  and  C_15
REMARK    6  A    between atoms: C_21  and  O_22
REMARK    7  A    between atoms: O_22  and  C_23
REMARK    8  A    between atoms: C_23  and  C_24
REMARK    9  A    between atoms: S_34  and  C_36
REMARK   10  A    between atoms: S_34  and  C_41
REMARK   11  A    between atoms: O_35  and  C_41
REMARK   12  A    between atoms: C_37  and  C_40
REMARK   13  A    between atoms: C_39  and  C_40
REMARK   14  A    between atoms: C_39  and  C_41
REMARK                            x       y       z     vdW  Elec       q    Type
REMARK                         _______ _______ _______ _____ _____    ______ ____
ROOT
ATOM      1  C   UNL A   1     -25.300  -0.101  28.945  0.00  0.00    +0.091 C 
ENDROOT
BRANCH   1   3
ATOM      2  O   UNL A   1     -27.640  -1.141  28.404  0.00  0.00    -0.218 OA
ATOM      3  C   UNL A   1     -26.929  -0.076  28.974  0.00  0.00    +0.179 C 
BRANCH   3   9
ATOM      4  C   UNL A   1     -29.123   0.042  30.619  0.00  0.00    -0.002 C 
ATOM      5  C   UNL A   1     -28.507   2.790  31.171  0.00  0.00    -0.000 C 
ATOM      6  C   UNL A   1     -27.737   2.065  30.216  0.00  0.00    -0.002 C 
ATOM      7  C   UNL A   1     -29.601   2.154  31.853  0.00  0.00    -0.000 C 
ATOM      8  C   UNL A   1     -29.930   0.775  31.595  0.00  0.00    -0.000 C 
ATOM      9  C   UNL A   1     -27.975   0.670  29.940  0.00  0.00    +0.008 C 
ENDBRANCH   3   9
ENDBRANCH   1   3
BRANCH   1  10
ATOM     10  C   UNL A   1     -24.855  -1.012  30.143  0.00  0.00    +0.045 C 
BRANCH  10  11
ATOM     11  C   UNL A   1     -24.973  -2.505  29.788  0.00  0.00    -0.021 C 
ATOM     12  C   UNL A   1     -23.906  -3.173  29.146  0.00  0.00    -0.004 C 
ATOM     13  C   UNL A   1     -23.989  -4.549  28.853  0.00  0.00    -0.000 C 
ATOM     14  C   UNL A   1     -25.137  -5.280  29.205  0.00  0.00    -0.000 C 
ATOM     15  C   UNL A   1     -26.232  -4.611  29.784  0.00  0.00    -0.000 C 
ATOM     16  C   UNL A   1     -26.155  -3.232  30.065  0.00  0.00    -0.004 C 
ENDBRANCH  10  11
BRANCH  10  17
ATOM     17  C   UNL A   1     -25.387  -0.679  31.571  0.00  0.00    +0.077 C 
ATOM     18  C   UNL A   1     -25.189   0.773  32.028  0.00  0.00    +0.019 C 
ATOM     19  C   UNL A   1     -25.336   0.684  33.544  0.00  0.00    +0.020 C 
ATOM     20  C   UNL A   1     -24.829  -0.715  33.905  0.00  0.00    +0.089 C 
ATOM     21  N   UNL A   1     -24.758  -1.481  32.646  0.00  0.00    -0.219 NA
ENDBRANCH  10  17
ENDBRANCH   1  10
BRANCH   1  22
ATOM     22  C   UNL A   1     -24.368   1.012  28.317  0.00  0.00    +0.216 C 
BRANCH  22  23
ATOM     23  S   UNL A   1     -22.770   0.608  28.762  0.00  0.00    -0.099 S 
BRANCH  23  25
ATOM     24  C   UNL A   1     -22.003   1.902  26.166  0.00  0.00    +0.013 C 
ATOM     25  C   UNL A   1     -22.003   1.665  27.709  0.00  0.00    +0.061 C 
ENDBRANCH  23  25
ENDBRANCH  22  23
BRANCH  22  26
ATOM     26  O   UNL A   1     -24.543   1.097  26.927  0.00  0.00    -0.466 OA
BRANCH  26  27
ATOM     27  C   UNL A   1     -25.688   1.614  26.461  0.00  0.00    +0.177 C 
ATOM     28  C   UNL A   1     -26.250   2.920  26.395  0.00  0.00    +0.111 C 
ATOM     29  C   UNL A   1     -27.438   3.091  25.645  0.00  0.00    +0.110 C 
ATOM     30  N   UNL A   1     -28.075   2.089  25.003  0.00  0.00    -0.208 NA
ATOM     31  C   UNL A   1     -27.543   0.849  25.079  0.00  0.00    +0.256 C 
ATOM     32  C   UNL A   1     -26.354   0.576  25.777  0.00  0.00    +0.227 C 
ATOM     33  F   UNL A   1     -25.860  -0.681  25.795  0.00  0.00    -0.196 F 
BRANCH  28  34
ATOM     34  C   UNL A   1     -25.642   4.093  27.123  0.00  0.00    +0.269 C 
ATOM     35  N   UNL A   1     -25.614   5.252  26.449  0.00  0.00    -0.200 NA
ATOM     36  C   UNL A   1     -25.026   6.479  26.963  0.00  0.00    +0.139 C 
ATOM     37  O   UNL A   1     -25.143   3.966  28.243  0.00  0.00    -0.268 OA
ENDBRANCH  28  34
BRANCH  31  38
ATOM     38  O   UNL A   1     -28.193  -0.208  24.477  0.00  0.00    -0.456 OA
BRANCH  38  39
ATOM     39  C   UNL A   1     -29.460   0.005  23.866  0.00  0.00    +0.243 C 
BRANCH  39  40
ATOM     40  C   UNL A   1     -30.065  -1.377  23.573  0.00  0.00    +0.229 C 
ATOM     41  O   UNL A   1     -30.729  -1.878  24.721  0.00  0.00    -0.216 OA
ENDBRANCH  39  40
ENDBRANCH  38  39
ENDBRANCH  31  38
ENDBRANCH  26  27
ENDBRANCH  22  26
ENDBRANCH   1  22
TORSDOF 14
