MODEL 857
MODEL 1
REMARK VINA RESULT:    -4.373      0.000      0.000
REMARK INTER + INTRA:          -4.373
REMARK INTER:                  -4.373
REMARK INTRA:                   0.000
REMARK UNBOUND:                 0.000
REMARK  Name = No_857-gen_results/8p0m/2024-11-27-11-27-31/
REMARK  0 active torsions:
REMARK  status: ('A' for Active; 'I' for Inactive)
REMARK                            x       y       z     vdW  Elec       q    Type
REMARK                         _______ _______ _______ _____ _____    ______ ____
ROOT
ATOM      1  C   UNL A   1     -24.858  -2.741  29.184  0.00  0.00    +0.000 A 
ATOM      2  C   UNL A   1     -23.987  -3.450  28.735  0.00  0.00    +0.000 A 
ATOM      3  C   UNL A   1     -24.160  -4.826  28.636  0.00  0.00    +0.000 A 
ATOM      4  C   UNL A   1     -25.021  -5.366  29.009  0.00  0.00    +0.000 A 
ATOM      5  C   UNL A   1     -26.182  -4.679  29.638  0.00  0.00    +0.000 A 
ATOM      6  C   UNL A   1     -26.048  -3.376  29.728  0.00  0.00    +0.000 A 
ENDROOT
TORSDOF 0
ENDMDL
ENDMDL
