REMARK  Name = No_858-gen_results/8p0m/2024-11-27-11-27-31/
REMARK  3 active torsions:
REMARK  status: ('A' for Active; 'I' for Inactive)
REMARK    1  A    between atoms: C_2  and  C_7
REMARK    2  A    between atoms: C_9  and  N_15
REMARK    3  A    between atoms: N_15  and  C_16
REMARK                            x       y       z     vdW  Elec       q    Type
REMARK                         _______ _______ _______ _____ _____    ______ ____
ROOT
ATOM      1  C   UNL A   1     -27.106   1.102  27.759  0.00  0.00    +0.029 A 
ATOM      2  C   UNL A   1     -26.716   2.235  27.994  0.00  0.00    +0.019 A 
ATOM      3  C   UNL A   1     -26.332   3.172  27.601  0.00  0.00    +0.071 A 
ATOM      4  C   UNL A   1     -26.098   3.321  26.162  0.00  0.00    +0.019 A 
ATOM      5  C   UNL A   1     -26.526   2.145  25.498  0.00  0.00    +0.031 A 
ATOM      6  C   UNL A   1     -26.870   0.900  26.223  0.00  0.00    +0.140 A 
ATOM      7  F   UNL A   1     -27.155  -0.087  25.549  0.00  0.00    -0.204 F 
ENDROOT
BRANCH   1   9
ATOM      8  C   UNL A   1     -28.016  -0.814  28.878  0.00  0.00    +0.007 A 
ATOM      9  C   UNL A   1     -27.064  -0.119  28.608  0.00  0.00    +0.003 A 
ATOM     10  C   UNL A   1     -25.792  -0.430  29.076  0.00  0.00    +0.000 A 
ATOM     11  C   UNL A   1     -25.576  -1.565  29.936  0.00  0.00    +0.001 A 
ATOM     12  C   UNL A   1     -26.735  -2.300  30.217  0.00  0.00    +0.007 A 
ATOM     13  C   UNL A   1     -27.918  -1.954  29.763  0.00  0.00    +0.035 A 
ATOM     14 BR   UNL A   1     -29.384  -2.978  30.308  0.00  0.00    -0.049 Br
ENDBRANCH   1   9
BRANCH   3  15
ATOM     15  N   UNL A   1     -25.966   4.435  28.265  0.00  0.00    -0.211 NA
BRANCH  15  16
ATOM     16  C   UNL A   1     -26.901   5.258  28.752  0.00  0.00    +0.086 C 
ATOM     17  C   UNL A   1     -26.433   6.343  29.459  0.00  0.00    +0.019 C 
ENDBRANCH  15  16
ENDBRANCH   3  15
TORSDOF 3
