REMARK  Name = outputs/IAG933/test6/raw/output_8581_IAG933_linker_design_.xyz
REMARK  16 active torsions:
REMARK  status: ('A' for Active; 'I' for Inactive)
REMARK    1  A    between atoms: C_1  and  C_2
REMARK    2  A    between atoms: C_1  and  C_8
REMARK    3  A    between atoms: C_1  and  N_28
REMARK    4  A    between atoms: C_14  and  C_15
REMARK    5  A    between atoms: C_15  and  O_18
REMARK    6  A    between atoms: O_18  and  C_36
REMARK    7  A    between atoms: C_21  and  O_22
REMARK    8  A    between atoms: O_22  and  C_23
REMARK    9  A    between atoms: C_23  and  C_24
REMARK   10  A    between atoms: N_28  and  C_29
REMARK   11  A    between atoms: C_29  and  C_37
REMARK   12  A    between atoms: C_29  and  C_38
REMARK   13  A    between atoms: C_32  and  C_36
REMARK   14  A    between atoms: C_32  and  C_37
REMARK   15  A    between atoms: C_36  and  C_40
REMARK   16  A    between atoms: C_38  and  C_43
REMARK                            x       y       z     vdW  Elec       q    Type
REMARK                         _______ _______ _______ _____ _____    ______ ____
ROOT
ATOM      1  C   UNL A   1     -25.734   3.557  29.497  0.00  0.00    +0.279 C 
ATOM      2  O   UNL A   1     -25.149   4.490  30.474  0.00  0.00    -0.176 OA
ENDROOT
BRANCH   1   7
ATOM      3  C   UNL A   1     -28.075   2.972  29.553  0.00  0.00    +0.002 C 
ATOM      4  C   UNL A   1     -29.748   4.354  28.450  0.00  0.00    -0.000 C 
ATOM      5  C   UNL A   1     -28.857   5.430  28.420  0.00  0.00    -0.000 C 
ATOM      6  C   UNL A   1     -29.337   3.111  28.980  0.00  0.00    -0.000 C 
ATOM      7  C   UNL A   1     -27.145   3.974  29.372  0.00  0.00    +0.043 C 
ATOM      8  C   UNL A   1     -27.557   5.252  28.919  0.00  0.00    +0.002 C 
ENDBRANCH   1   7
BRANCH   1   9
ATOM      9  C   UNL A   1     -25.125   2.145  29.728  0.00  0.00    +0.079 C 
BRANCH   9  10
ATOM     10  C   UNL A   1     -23.681   1.998  29.303  0.00  0.00    +0.027 C 
BRANCH  10  11
ATOM     11  C   UNL A   1     -22.793   0.640  29.122  0.00  0.00    +0.106 C 
BRANCH  11  13
ATOM     12  O   UNL A   1     -22.706   0.888  26.243  0.00  0.00    -0.219 OA
ATOM     13  C   UNL A   1     -22.282   0.828  27.614  0.00  0.00    +0.203 C 
BRANCH  13  15
ATOM     14  F   UNL A   1     -20.753   0.741  27.436  0.00  0.00    -0.232 F 
ATOM     15  C   UNL A   1     -21.285   1.914  27.676  0.00  0.00    +0.227 C 
ENDBRANCH  13  15
ENDBRANCH  11  13
BRANCH  11  16
ATOM     16  N   UNL A   1     -23.783  -0.227  29.742  0.00  0.00    -0.212 NA
BRANCH  16  17
ATOM     17  C   UNL A   1     -24.855  -1.012  30.143  0.00  0.00    +0.111 C 
BRANCH  17  18
ATOM     18  C   UNL A   1     -24.973  -2.505  29.788  0.00  0.00    -0.005 C 
ATOM     19  C   UNL A   1     -23.906  -3.173  29.146  0.00  0.00    -0.003 C 
ATOM     20  C   UNL A   1     -23.989  -4.549  28.853  0.00  0.00    -0.000 C 
ATOM     21  C   UNL A   1     -25.137  -5.280  29.205  0.00  0.00    -0.000 C 
ATOM     22  C   UNL A   1     -26.232  -4.611  29.784  0.00  0.00    -0.000 C 
ATOM     23  C   UNL A   1     -26.155  -3.232  30.065  0.00  0.00    -0.003 C 
ENDBRANCH  17  18
BRANCH  17  24
ATOM     24  C   UNL A   1     -25.387  -0.679  31.571  0.00  0.00    +0.093 C 
ATOM     25  C   UNL A   1     -25.189   0.773  32.028  0.00  0.00    +0.021 C 
ATOM     26  C   UNL A   1     -25.336   0.684  33.544  0.00  0.00    +0.020 C 
ATOM     27  C   UNL A   1     -24.829  -0.715  33.905  0.00  0.00    +0.089 C 
ATOM     28  N   UNL A   1     -24.758  -1.481  32.646  0.00  0.00    -0.218 NA
ENDBRANCH  17  24
ENDBRANCH  16  17
ENDBRANCH  11  16
ENDBRANCH  10  11
ENDBRANCH   9  10
ENDBRANCH   1   9
BRANCH   1  29
ATOM     29  O   UNL A   1     -25.143   3.966  28.243  0.00  0.00    -0.437 OA
BRANCH  29  30
ATOM     30  C   UNL A   1     -25.642   4.093  27.123  0.00  0.00    +0.224 C 
ATOM     31  N   UNL A   1     -25.614   5.252  26.449  0.00  0.00    -0.236 NA
ATOM     32  C   UNL A   1     -25.026   6.479  26.963  0.00  0.00    +0.155 C 
BRANCH  30  34
ATOM     33  C   UNL A   1     -25.688   1.614  26.461  0.00  0.00    +0.041 C 
ATOM     34  C   UNL A   1     -26.250   2.920  26.395  0.00  0.00    +0.074 C 
ATOM     35  C   UNL A   1     -27.438   3.091  25.645  0.00  0.00    +0.107 C 
ATOM     36  N   UNL A   1     -28.075   2.089  25.003  0.00  0.00    -0.208 NA
ATOM     37  C   UNL A   1     -27.543   0.849  25.079  0.00  0.00    +0.253 C 
ATOM     38  C   UNL A   1     -26.354   0.576  25.777  0.00  0.00    +0.193 C 
ATOM     39  F   UNL A   1     -25.860  -0.681  25.795  0.00  0.00    -0.199 F 
BRANCH  37  40
ATOM     40  O   UNL A   1     -28.193  -0.208  24.477  0.00  0.00    -0.456 OA
BRANCH  40  41
ATOM     41  C   UNL A   1     -29.460   0.005  23.866  0.00  0.00    +0.243 C 
BRANCH  41  42
ATOM     42  C   UNL A   1     -30.065  -1.377  23.573  0.00  0.00    +0.229 C 
ATOM     43  O   UNL A   1     -30.729  -1.878  24.721  0.00  0.00    -0.216 OA
ENDBRANCH  41  42
ENDBRANCH  40  41
ENDBRANCH  37  40
ENDBRANCH  30  34
ENDBRANCH  29  30
ENDBRANCH   1  29
TORSDOF 16
