REMARK  Name = outputs/IAG933/test6/raw/output_8587_IAG933_linker_design_.xyz
REMARK  10 active torsions:
REMARK  status: ('A' for Active; 'I' for Inactive)
REMARK    1  A    between atoms: C_1  and  C_2
REMARK    2  A    between atoms: C_1  and  C_8
REMARK    3  A    between atoms: C_1  and  N_32
REMARK    4  A    between atoms: C_13  and  N_31
REMARK    5  A    between atoms: C_14  and  C_15
REMARK    6  A    between atoms: C_21  and  O_22
REMARK    7  A    between atoms: O_22  and  C_23
REMARK    8  A    between atoms: C_23  and  C_24
REMARK    9  A    between atoms: C_30  and  O_35
REMARK   10  A    between atoms: C_34  and  C_39
REMARK                            x       y       z     vdW  Elec       q    Type
REMARK                         _______ _______ _______ _____ _____    ______ ____
ROOT
ATOM      1  F   UNL A   1     -25.876  -0.586  27.941  0.00  0.00    -0.190 F 
ATOM      2  C   UNL A   1     -23.445   1.760  27.022  0.00  0.00    +0.229 C 
ATOM      3  N   UNL A   1     -24.686   1.169  27.255  0.00  0.00    -0.211 N 
ATOM      4  N   UNL A   1     -24.271  -0.077  29.317  0.00  0.00    -0.261 N 
ATOM      5  C   UNL A   1     -25.029   0.195  28.226  0.00  0.00    +0.327 C 
ATOM      6  F   UNL A   1     -21.231   2.004  27.015  0.00  0.00    -0.199 F 
ATOM      7  C   UNL A   1     -22.983   0.364  29.660  0.00  0.00    +0.069 C 
ATOM      8  C   UNL A   1     -22.084   0.537  28.599  0.00  0.00    +0.067 C 
ATOM      9  C   UNL A   1     -22.353   1.375  27.517  0.00  0.00    +0.192 C 
ENDROOT
BRANCH   3  10
ATOM     10  C   UNL A   1     -25.688   1.614  26.461  0.00  0.00    +0.096 C 
ATOM     11  C   UNL A   1     -26.250   2.920  26.395  0.00  0.00    +0.090 C 
ATOM     12  C   UNL A   1     -27.438   3.091  25.645  0.00  0.00    +0.108 C 
ATOM     13  N   UNL A   1     -28.075   2.089  25.003  0.00  0.00    -0.208 NA
ATOM     14  C   UNL A   1     -27.543   0.849  25.079  0.00  0.00    +0.255 C 
ATOM     15  C   UNL A   1     -26.354   0.576  25.777  0.00  0.00    +0.207 C 
ATOM     16  F   UNL A   1     -25.860  -0.681  25.795  0.00  0.00    -0.198 F 
BRANCH  11  17
ATOM     17  C   UNL A   1     -25.642   4.093  27.123  0.00  0.00    +0.268 C 
ATOM     18  N   UNL A   1     -25.614   5.252  26.449  0.00  0.00    -0.200 NA
ATOM     19  C   UNL A   1     -25.026   6.479  26.963  0.00  0.00    +0.139 C 
ATOM     20  O   UNL A   1     -25.143   3.966  28.243  0.00  0.00    -0.268 OA
ENDBRANCH  11  17
BRANCH  14  21
ATOM     21  O   UNL A   1     -28.193  -0.208  24.477  0.00  0.00    -0.456 OA
BRANCH  21  22
ATOM     22  C   UNL A   1     -29.460   0.005  23.866  0.00  0.00    +0.243 C 
BRANCH  22  23
ATOM     23  C   UNL A   1     -30.065  -1.377  23.573  0.00  0.00    +0.229 C 
ATOM     24  O   UNL A   1     -30.729  -1.878  24.721  0.00  0.00    -0.216 OA
ENDBRANCH  22  23
ENDBRANCH  21  22
ENDBRANCH  14  21
ENDBRANCH   3  10
BRANCH   2  26
ATOM     25  C   UNL A   1     -23.019   2.524  24.884  0.00  0.00    +0.254 C 
ATOM     26  O   UNL A   1     -23.443   2.862  26.245  0.00  0.00    -0.457 OA
ENDBRANCH   2  26
BRANCH   8  27
ATOM     27  C   UNL A   1     -20.907  -0.206  28.567  0.00  0.00    +0.126 C 
ATOM     28  N   UNL A   1     -19.782   0.410  28.548  0.00  0.00    -0.146 NA
ENDBRANCH   8  27
BRANCH   4  29
ATOM     29  C   UNL A   1     -24.855  -1.012  30.143  0.00  0.00    +0.115 C 
BRANCH  29  30
ATOM     30  C   UNL A   1     -24.973  -2.505  29.788  0.00  0.00    -0.003 C 
ATOM     31  C   UNL A   1     -23.906  -3.173  29.146  0.00  0.00    -0.003 C 
ATOM     32  C   UNL A   1     -23.989  -4.549  28.853  0.00  0.00    -0.000 C 
ATOM     33  C   UNL A   1     -25.137  -5.280  29.205  0.00  0.00    -0.000 C 
ATOM     34  C   UNL A   1     -26.232  -4.611  29.784  0.00  0.00    -0.000 C 
ATOM     35  C   UNL A   1     -26.155  -3.232  30.065  0.00  0.00    -0.003 C 
ENDBRANCH  29  30
BRANCH  29  36
ATOM     36  C   UNL A   1     -25.387  -0.679  31.571  0.00  0.00    +0.095 C 
ATOM     37  C   UNL A   1     -25.189   0.773  32.028  0.00  0.00    +0.021 C 
ATOM     38  C   UNL A   1     -25.336   0.684  33.544  0.00  0.00    +0.020 C 
ATOM     39  C   UNL A   1     -24.829  -0.715  33.905  0.00  0.00    +0.089 C 
ATOM     40  N   UNL A   1     -24.758  -1.481  32.646  0.00  0.00    -0.217 NA
ENDBRANCH  29  36
ENDBRANCH   4  29
TORSDOF 10
