REMARK  Name = outputs/IAG933/test6/raw/output_8589_IAG933_linker_design_.xyz
REMARK  14 active torsions:
REMARK  status: ('A' for Active; 'I' for Inactive)
REMARK    1  A    between atoms: C_1  and  C_2
REMARK    2  A    between atoms: C_1  and  C_8
REMARK    3  A    between atoms: C_1  and  C_34
REMARK    4  A    between atoms: C_13  and  C_33
REMARK    5  A    between atoms: C_14  and  C_15
REMARK    6  A    between atoms: C_21  and  O_22
REMARK    7  A    between atoms: O_22  and  C_23
REMARK    8  A    between atoms: C_23  and  C_24
REMARK    9  A    between atoms: C_28  and  C_37
REMARK   10  A    between atoms: C_32  and  C_40
REMARK   11  A    between atoms: C_33  and  C_38
REMARK   12  A    between atoms: C_33  and  N_41
REMARK   13  A    between atoms: C_34  and  N_41
REMARK   14  A    between atoms: C_35  and  N_42
REMARK                            x       y       z     vdW  Elec       q    Type
REMARK                         _______ _______ _______ _____ _____    ______ ____
ROOT
ATOM      1  C   UNL A   1     -24.629   1.258  27.379  0.00  0.00    +0.126 C 
ENDROOT
BRANCH   1   2
ATOM      2  C   UNL A   1     -25.688   1.614  26.461  0.00  0.00    +0.038 C 
ATOM      3  C   UNL A   1     -26.250   2.920  26.395  0.00  0.00    +0.074 C 
ATOM      4  C   UNL A   1     -27.438   3.091  25.645  0.00  0.00    +0.106 C 
ATOM      5  N   UNL A   1     -28.075   2.089  25.003  0.00  0.00    -0.208 NA
ATOM      6  C   UNL A   1     -27.543   0.849  25.079  0.00  0.00    +0.253 C 
ATOM      7  C   UNL A   1     -26.354   0.576  25.777  0.00  0.00    +0.191 C 
ATOM      8  F   UNL A   1     -25.860  -0.681  25.795  0.00  0.00    -0.200 F 
BRANCH   3   9
ATOM      9  C   UNL A   1     -25.642   4.093  27.123  0.00  0.00    +0.266 C 
ATOM     10  N   UNL A   1     -25.614   5.252  26.449  0.00  0.00    -0.200 NA
ATOM     11  C   UNL A   1     -25.026   6.479  26.963  0.00  0.00    +0.139 C 
ATOM     12  O   UNL A   1     -25.143   3.966  28.243  0.00  0.00    -0.268 OA
ENDBRANCH   3   9
BRANCH   6  13
ATOM     13  O   UNL A   1     -28.193  -0.208  24.477  0.00  0.00    -0.456 OA
BRANCH  13  14
ATOM     14  C   UNL A   1     -29.460   0.005  23.866  0.00  0.00    +0.243 C 
BRANCH  14  15
ATOM     15  C   UNL A   1     -30.065  -1.377  23.573  0.00  0.00    +0.229 C 
ATOM     16  O   UNL A   1     -30.729  -1.878  24.721  0.00  0.00    -0.216 OA
ENDBRANCH  14  15
ENDBRANCH  13  14
ENDBRANCH   6  13
ENDBRANCH   1   2
BRANCH   1  20
ATOM     17  C   UNL A   1     -23.210   2.196  25.512  0.00  0.00    +0.211 C 
ATOM     18  O   UNL A   1     -21.929   2.397  25.214  0.00  0.00    -0.351 OA
ATOM     19  C   UNL A   1     -21.953   1.341  27.164  0.00  0.00    +0.132 C 
ATOM     20  C   UNL A   1     -23.289   1.565  26.743  0.00  0.00    +0.059 C 
ATOM     21  N   UNL A   1     -21.101   1.923  26.324  0.00  0.00    -0.079 NA
BRANCH  19  23
ATOM     22  O   UNL A   1     -22.222   0.323  29.411  0.00  0.00    -0.213 OA
ATOM     23  C   UNL A   1     -21.426   0.686  28.304  0.00  0.00    +0.231 C 
ENDBRANCH  19  23
ENDBRANCH   1  20
BRANCH   1  25
ATOM     24  C   UNL A   1     -24.713   1.906  29.741  0.00  0.00    +0.164 C 
ATOM     25  N   UNL A   1     -24.961   0.966  28.794  0.00  0.00    -0.284 N 
ATOM     26  N   UNL A   1     -25.729   2.591  30.280  0.00  0.00    -0.227 NA
BRANCH  26  28
ATOM     27  C   UNL A   1     -26.519   3.609  32.508  0.00  0.00    +0.015 C 
ATOM     28  C   UNL A   1     -25.586   3.462  31.320  0.00  0.00    +0.097 C 
BRANCH  27  30
ATOM     29  N   UNL A   1     -27.526   5.814  33.070  0.00  0.00    -0.126 NA
ATOM     30  C   UNL A   1     -26.515   4.815  33.459  0.00  0.00    +0.137 C 
ENDBRANCH  27  30
ENDBRANCH  26  28
BRANCH  25  31
ATOM     31  C   UNL A   1     -25.670  -0.245  29.125  0.00  0.00    +0.099 C 
BRANCH  31  32
ATOM     32  C   UNL A   1     -24.855  -1.012  30.143  0.00  0.00    +0.058 C 
BRANCH  32  33
ATOM     33  C   UNL A   1     -24.973  -2.505  29.788  0.00  0.00    -0.019 C 
ATOM     34  C   UNL A   1     -23.906  -3.173  29.146  0.00  0.00    -0.004 C 
ATOM     35  C   UNL A   1     -23.989  -4.549  28.853  0.00  0.00    -0.000 C 
ATOM     36  C   UNL A   1     -25.137  -5.280  29.205  0.00  0.00    -0.000 C 
ATOM     37  C   UNL A   1     -26.232  -4.611  29.784  0.00  0.00    -0.000 C 
ATOM     38  C   UNL A   1     -26.155  -3.232  30.065  0.00  0.00    -0.004 C 
ENDBRANCH  32  33
BRANCH  32  39
ATOM     39  C   UNL A   1     -25.387  -0.679  31.571  0.00  0.00    +0.079 C 
ATOM     40  C   UNL A   1     -25.189   0.773  32.028  0.00  0.00    +0.019 C 
ATOM     41  C   UNL A   1     -25.336   0.684  33.544  0.00  0.00    +0.020 C 
ATOM     42  C   UNL A   1     -24.829  -0.715  33.905  0.00  0.00    +0.089 C 
ATOM     43  N   UNL A   1     -24.758  -1.481  32.646  0.00  0.00    -0.219 NA
ENDBRANCH  32  39
ENDBRANCH  31  32
ENDBRANCH  25  31
ENDBRANCH   1  25
TORSDOF 14
