MODEL 858
MODEL 1
REMARK VINA RESULT:    -6.703      0.000      0.000
REMARK INTER + INTRA:          -8.492
REMARK INTER:                  -7.878
REMARK INTRA:                  -0.614
REMARK UNBOUND:                -0.614
REMARK  Name = No_858-gen_results/8p0m/2024-11-27-11-27-31/
REMARK  3 active torsions:
REMARK  status: ('A' for Active; 'I' for Inactive)
REMARK    1  A    between atoms: C_2  and  C_7
REMARK    2  A    between atoms: C_9  and  N_15
REMARK    3  A    between atoms: N_15  and  C_16
REMARK                            x       y       z     vdW  Elec       q    Type
REMARK                         _______ _______ _______ _____ _____    ______ ____
ROOT
ATOM      1  C   UNL A   1     -23.950  -1.386  28.918  0.00  0.00    +0.029 A 
ATOM      2  C   UNL A   1     -24.190  -0.448  28.174  0.00  0.00    +0.019 A 
ATOM      3  C   UNL A   1     -24.115   0.620  27.993  0.00  0.00    +0.071 A 
ATOM      4  C   UNL A   1     -23.486   1.489  28.991  0.00  0.00    +0.019 A 
ATOM      5  C   UNL A   1     -22.986   0.693  30.051  0.00  0.00    +0.031 A 
ATOM      6  C   UNL A   1     -23.333  -0.739  30.204  0.00  0.00    +0.140 A 
ATOM      7  F   UNL A   1     -22.910  -1.320  31.201  0.00  0.00    -0.204 F 
ENDROOT
BRANCH   1   9
ATOM      8  C   UNL A   1     -25.800  -2.785  29.526  0.00  0.00    +0.007 A 
ATOM      9  C   UNL A   1     -24.675  -2.673  29.099  0.00  0.00    +0.003 A 
ATOM     10  C   UNL A   1     -23.941  -3.787  28.706  0.00  0.00    +0.000 A 
ATOM     11  C   UNL A   1     -24.481  -5.115  28.841  0.00  0.00    +0.001 A 
ATOM     12  C   UNL A   1     -25.780  -5.155  29.366  0.00  0.00    +0.007 A 
ATOM     13  C   UNL A   1     -26.425  -4.073  29.737  0.00  0.00    +0.035 A 
ATOM     14 BR   UNL A   1     -28.110  -4.298  30.514  0.00  0.00    -0.049 Br
ENDBRANCH   1   9
BRANCH   3  15
ATOM     15  N   UNL A   1     -24.548   1.453  26.858  0.00  0.00    -0.211 NA
BRANCH  15  16
ATOM     16  C   UNL A   1     -23.933   1.383  25.672  0.00  0.00    +0.086 C 
ATOM     17  C   UNL A   1     -22.951   2.323  25.452  0.00  0.00    +0.019 C 
ENDBRANCH  15  16
ENDBRANCH   3  15
TORSDOF 3
ENDMDL
ENDMDL
