REMARK  Name = No_859-gen_results/8p0m/2024-11-27-11-27-31/
REMARK  5 active torsions:
REMARK  status: ('A' for Active; 'I' for Inactive)
REMARK    1  A    between atoms: C_1  and  C_16
REMARK    2  A    between atoms: C_3  and  C_10
REMARK    3  A    between atoms: C_5  and  C_6
REMARK    4  A    between atoms: C_11  and  C_20
REMARK    5  A    between atoms: C_24  and  C_26
REMARK                            x       y       z     vdW  Elec       q    Type
REMARK                         _______ _______ _______ _____ _____    ______ ____
ROOT
ATOM      1  C   UNL A   1     -25.569   1.262  27.274  0.00  0.00    -0.000 A 
ATOM      2  C   UNL A   1     -25.149   2.290  28.059  0.00  0.00    -0.000 A 
ATOM      3  C   UNL A   1     -23.836   2.807  27.810  0.00  0.00    -0.000 A 
ATOM      4  C   UNL A   1     -23.031   2.235  26.817  0.00  0.00    -0.000 A 
ATOM      5  C   UNL A   1     -24.672   0.760  26.306  0.00  0.00    -0.000 A 
ATOM      6  C   UNL A   1     -23.458   1.227  26.071  0.00  0.00    -0.000 A 
ENDROOT
BRANCH   1   9
ATOM      7  C   UNL A   1     -28.016  -0.814  28.878  0.00  0.00    +0.057 A 
ATOM      8  C   UNL A   1     -27.064  -0.119  28.608  0.00  0.00    +0.004 A 
ATOM      9  C   UNL A   1     -26.972   0.714  27.506  0.00  0.00    -0.004 A 
ATOM     10  C   UNL A   1     -28.105   0.774  26.642  0.00  0.00    -0.015 A 
ATOM     11  C   UNL A   1     -29.204   0.118  27.048  0.00  0.00    +0.076 A 
ATOM     12  C   UNL A   1     -29.182  -0.676  28.117  0.00  0.00    +0.011 A 
ATOM     13  C   UNL A   1     -27.955   1.701  25.489  0.00  0.00    +0.031 C 
BRANCH  11  14
ATOM     14  C   UNL A   1     -30.349   0.257  26.220  0.00  0.00    +0.387 C 
ATOM     15  O   UNL A   1     -30.328  -0.055  25.016  0.00  0.00    -0.241 OA
ATOM     16  O   UNL A   1     -31.541   0.494  26.726  0.00  0.00    -0.241 OA
ENDBRANCH  11  14
BRANCH   7  17
ATOM     17  C   UNL A   1     -28.050  -1.677  30.108  0.00  0.00    +0.284 C 
ATOM     18  N   UNL A   1     -26.973  -2.265  30.483  0.00  0.00    -0.084 NA
ATOM     19  O   UNL A   1     -29.126  -1.958  30.634  0.00  0.00    -0.267 OA
ENDBRANCH   7  17
ENDBRANCH   1   9
BRANCH   2  20
ATOM     20  C   UNL A   1     -25.903   2.942  29.170  0.00  0.00    -0.000 A 
ATOM     21  C   UNL A   1     -25.789   4.174  29.375  0.00  0.00    -0.000 A 
ATOM     22  C   UNL A   1     -26.353   4.789  30.564  0.00  0.00    +0.000 A 
ATOM     23  C   UNL A   1     -27.179   4.019  31.312  0.00  0.00    +0.000 A 
ATOM     24  C   UNL A   1     -27.342   2.663  31.056  0.00  0.00    +0.000 A 
ATOM     25  C   UNL A   1     -26.634   2.135  30.032  0.00  0.00    -0.000 A 
BRANCH  24  26
ATOM     26  C   UNL A   1     -28.173   1.827  31.945  0.00  0.00    +0.000 A 
ATOM     27  C   UNL A   1     -27.619   1.193  32.927  0.00  0.00    +0.000 A 
ATOM     28  C   UNL A   1     -29.547   1.762  31.586  0.00  0.00    +0.000 A 
ATOM     29  C   UNL A   1     -28.264   0.074  33.582  0.00  0.00    +0.000 A 
ATOM     30  C   UNL A   1     -30.276   0.720  32.326  0.00  0.00    +0.000 A 
ATOM     31  C   UNL A   1     -29.646  -0.005  33.330  0.00  0.00    +0.000 A 
ENDBRANCH  24  26
ENDBRANCH   2  20
TORSDOF 5
