MODEL 85
MODEL 1
REMARK VINA RESULT:    -7.359      0.000      0.000
REMARK INTER + INTRA:          -9.933
REMARK INTER:                  -8.649
REMARK INTRA:                  -1.284
REMARK UNBOUND:                -1.284
REMARK  Name = No_85-gen_results/8p0m/2024-11-27-11-27-31/
REMARK  3 active torsions:
REMARK  status: ('A' for Active; 'I' for Inactive)
REMARK    1  A    between atoms: C_3  and  C_7
REMARK    2  A    between atoms: C_10  and  C_11
REMARK    3  A    between atoms: C_16  and  C_18
REMARK                            x       y       z     vdW  Elec       q    Type
REMARK                         _______ _______ _______ _____ _____    ______ ____
ROOT
ATOM      1  C   UNL A   1     -25.489  -2.614  29.992  0.00  0.00    -0.000 A 
ATOM      2  C   UNL A   1     -26.229  -3.571  30.083  0.00  0.00    -0.000 A 
ATOM      3  C   UNL A   1     -25.822  -4.880  29.523  0.00  0.00    -0.000 A 
ATOM      4  C   UNL A   1     -24.278  -2.686  29.265  0.00  0.00    -0.001 A 
ATOM      5  C   UNL A   1     -24.665  -4.895  28.697  0.00  0.00    -0.000 A 
ATOM      6  C   UNL A   1     -23.972  -3.780  28.544  0.00  0.00    -0.000 A 
ENDROOT
BRANCH   1   9
ATOM      7  C   UNL A   1     -26.674  -0.345  30.115  0.00  0.00    -0.000 A 
ATOM      8  C   UNL A   1     -26.839   0.540  30.663  0.00  0.00    -0.000 A 
ATOM      9  C   UNL A   1     -25.782  -1.298  30.654  0.00  0.00    -0.000 A 
ATOM     10  C   UNL A   1     -25.127  -1.090  31.851  0.00  0.00    -0.000 A 
ATOM     11  C   UNL A   1     -26.279   1.001  31.948  0.00  0.00    +0.000 A 
ATOM     12  C   UNL A   1     -25.417   0.118  32.499  0.00  0.00    -0.000 A 
ENDBRANCH   1   9
BRANCH   4  13
ATOM     13  C   UNL A   1     -23.416  -1.422  29.123  0.00  0.00    +0.014 C 
ATOM     14  C   UNL A   1     -22.507  -0.863  29.541  0.00  0.00    -0.002 C 
ATOM     15  C   UNL A   1     -21.905   0.308  29.039  0.00  0.00    -0.003 C 
ATOM     16  C   UNL A   1     -22.685   1.004  28.046  0.00  0.00    +0.022 C 
ATOM     17  C   UNL A   1     -24.009  -0.486  27.905  0.00  0.00    +0.204 C 
ATOM     18  F   UNL A   1     -25.152  -0.858  27.388  0.00  0.00    -0.228 F 
BRANCH  16  19
ATOM     19  C   UNL A   1     -23.505   0.677  27.273  0.00  0.00    +0.173 C 
ATOM     20  O   UNL A   1     -24.782   0.658  27.187  0.00  0.00    -0.218 OA
ATOM     21  C   UNL A   1     -23.421   1.857  26.331  0.00  0.00    +0.040 C 
ENDBRANCH  16  19
ENDBRANCH   4  13
TORSDOF 3
ENDMDL
ENDMDL
