REMARK  Name = outputs/IAG933/test6/raw/output_8600_IAG933_linker_design_.xyz
REMARK  10 active torsions:
REMARK  status: ('A' for Active; 'I' for Inactive)
REMARK    1  A    between atoms: C_1  and  C_2
REMARK    2  A    between atoms: C_1  and  C_8
REMARK    3  A    between atoms: C_1  and  C_43
REMARK    4  A    between atoms: C_13  and  C_33
REMARK    5  A    between atoms: C_14  and  C_15
REMARK    6  A    between atoms: C_21  and  O_22
REMARK    7  A    between atoms: O_22  and  C_23
REMARK    8  A    between atoms: C_23  and  C_24
REMARK    9  A    between atoms: C_34  and  N_42
REMARK   10  A    between atoms: C_37  and  N_42
REMARK                            x       y       z     vdW  Elec       q    Type
REMARK                         _______ _______ _______ _____ _____    ______ ____
ROOT
ATOM      1  C   UNL A   1     -23.672   2.190  25.306  0.00  0.00    +0.036 C 
ATOM      2  F   UNL A   1     -20.197   0.540  28.485  0.00  0.00    -0.205 F 
ATOM      3  C   UNL A   1     -22.215   1.146  27.476  0.00  0.00    +0.238 C 
ATOM      4  C   UNL A   1     -24.361   1.700  26.453  0.00  0.00    -0.011 C 
ATOM      5  C   UNL A   1     -24.318   0.845  28.870  0.00  0.00    +0.062 C 
ATOM      6  O   UNL A   1     -21.586   1.661  26.425  0.00  0.00    -0.465 OA
ATOM      7  C   UNL A   1     -21.514   0.416  28.494  0.00  0.00    +0.161 C 
ATOM      8  C   UNL A   1     -23.759  -0.184  29.513  0.00  0.00    -0.000 C 
ATOM      9  C   UNL A   1     -23.655   1.246  27.607  0.00  0.00    +0.035 C 
ATOM     10  C   UNL A   1     -22.264  -0.344  29.498  0.00  0.00    +0.026 C 
ATOM     11  C   UNL A   1     -22.274   2.185  25.359  0.00  0.00    +0.173 C 
ENDROOT
BRANCH   4  12
ATOM     12  C   UNL A   1     -25.688   1.614  26.461  0.00  0.00    +0.092 C 
ATOM     13  C   UNL A   1     -26.250   2.920  26.395  0.00  0.00    +0.059 C 
ATOM     14  C   UNL A   1     -27.438   3.091  25.645  0.00  0.00    +0.102 C 
ATOM     15  N   UNL A   1     -28.075   2.089  25.003  0.00  0.00    -0.212 NA
ATOM     16  C   UNL A   1     -27.543   0.849  25.079  0.00  0.00    +0.234 C 
ATOM     17  C   UNL A   1     -26.354   0.576  25.777  0.00  0.00    +0.244 C 
ATOM     18  F   UNL A   1     -25.860  -0.681  25.795  0.00  0.00    -0.227 F 
BRANCH  13  19
ATOM     19  C   UNL A   1     -25.642   4.093  27.123  0.00  0.00    +0.263 C 
ATOM     20  N   UNL A   1     -25.614   5.252  26.449  0.00  0.00    -0.200 NA
ATOM     21  C   UNL A   1     -25.026   6.479  26.963  0.00  0.00    +0.139 C 
ATOM     22  O   UNL A   1     -25.143   3.966  28.243  0.00  0.00    -0.269 OA
ENDBRANCH  13  19
BRANCH  16  23
ATOM     23  O   UNL A   1     -28.193  -0.208  24.477  0.00  0.00    -0.459 OA
BRANCH  23  24
ATOM     24  C   UNL A   1     -29.460   0.005  23.866  0.00  0.00    +0.242 C 
BRANCH  24  25
ATOM     25  C   UNL A   1     -30.065  -1.377  23.573  0.00  0.00    +0.229 C 
ATOM     26  O   UNL A   1     -30.729  -1.878  24.721  0.00  0.00    -0.216 OA
ENDBRANCH  24  25
ENDBRANCH  23  24
ENDBRANCH  16  23
ENDBRANCH   4  12
BRANCH   8  27
ATOM     27  C   UNL A   1     -24.855  -1.012  30.143  0.00  0.00    +0.062 C 
BRANCH  27  28
ATOM     28  C   UNL A   1     -24.973  -2.505  29.788  0.00  0.00    -0.017 C 
ATOM     29  C   UNL A   1     -23.906  -3.173  29.146  0.00  0.00    -0.004 C 
ATOM     30  C   UNL A   1     -23.989  -4.549  28.853  0.00  0.00    -0.000 C 
ATOM     31  C   UNL A   1     -25.137  -5.280  29.205  0.00  0.00    -0.000 C 
ATOM     32  C   UNL A   1     -26.232  -4.611  29.784  0.00  0.00    -0.000 C 
ATOM     33  C   UNL A   1     -26.155  -3.232  30.065  0.00  0.00    -0.004 C 
ENDBRANCH  27  28
BRANCH  27  34
ATOM     34  C   UNL A   1     -25.387  -0.679  31.571  0.00  0.00    +0.081 C 
ATOM     35  C   UNL A   1     -25.189   0.773  32.028  0.00  0.00    +0.019 C 
ATOM     36  C   UNL A   1     -25.336   0.684  33.544  0.00  0.00    +0.020 C 
ATOM     37  C   UNL A   1     -24.829  -0.715  33.905  0.00  0.00    +0.089 C 
ATOM     38  N   UNL A   1     -24.758  -1.481  32.646  0.00  0.00    -0.219 NA
ENDBRANCH  27  34
ENDBRANCH   8  27
BRANCH   5  39
ATOM     39  N   UNL A   1     -25.458   1.405  29.468  0.00  0.00    -0.232 NA
BRANCH  39  43
ATOM     40  O   UNL A   1     -28.256   4.058  30.367  0.00  0.00    -0.346 OA
ATOM     41  C   UNL A   1     -27.003   4.437  30.907  0.00  0.00    +0.208 C 
ATOM     42  C   UNL A   1     -27.810   1.917  29.811  0.00  0.00    +0.061 C 
ATOM     43  C   UNL A   1     -26.326   2.145  30.029  0.00  0.00    +0.154 C 
ATOM     44  C   UNL A   1     -25.952   3.301  30.845  0.00  0.00    +0.200 C 
ATOM     45  O   UNL A   1     -24.887   3.459  31.478  0.00  0.00    -0.292 OA
ATOM     46  C   UNL A   1     -28.562   2.731  30.830  0.00  0.00    +0.145 C 
ENDBRANCH  39  43
ENDBRANCH   5  39
TORSDOF 10
