MODEL 860
MODEL 1
REMARK VINA RESULT:    -4.440      0.000      0.000
REMARK INTER + INTRA:          -4.440
REMARK INTER:                  -4.440
REMARK INTRA:                   0.000
REMARK UNBOUND:                 0.000
REMARK  Name = No_860-gen_results/8p0m/2024-11-27-11-27-31/
REMARK  0 active torsions:
REMARK  status: ('A' for Active; 'I' for Inactive)
REMARK                            x       y       z     vdW  Elec       q    Type
REMARK                         _______ _______ _______ _____ _____    ______ ____
ROOT
ATOM      1  C   UNL A   1     -25.993  -2.968  29.602  0.00  0.00    +0.018 A 
ATOM      2  C   UNL A   1     -26.199  -3.998  29.687  0.00  0.00    +0.058 A 
ATOM      3  C   UNL A   1     -24.771  -2.588  29.004  0.00  0.00    +0.035 A 
ATOM      4  C   UNL A   1     -23.859  -3.520  28.551  0.00  0.00    +0.007 A 
ATOM      5  C   UNL A   1     -25.410  -5.180  29.287  0.00  0.00    +0.011 A 
ATOM      6  C   UNL A   1     -24.231  -4.861  28.711  0.00  0.00    +0.001 A 
ATOM      7 BR   UNL A   1     -24.297  -0.769  28.747  0.00  0.00    -0.049 Br
ATOM      8 CL   UNL A   1     -27.790  -4.548  30.379  0.00  0.00    -0.082 Cl
ENDROOT
TORSDOF 0
ENDMDL
ENDMDL
