REMARK  Name = No_861-gen_results/8p0m/2024-11-27-11-27-31/
REMARK  8 active torsions:
REMARK  status: ('A' for Active; 'I' for Inactive)
REMARK    1  A    between atoms: C_1  and  C_7
REMARK    2  A    between atoms: C_3  and  C_11
REMARK    3  A    between atoms: C_13  and  N_17
REMARK    4  A    between atoms: N_17  and  C_19
REMARK    5  A    between atoms: C_19  and  C_20
REMARK    6  A    between atoms: C_20  and  C_21
REMARK    7  A    between atoms: C_24  and  C_30
REMARK    8  A    between atoms: C_26  and  C_27
REMARK                            x       y       z     vdW  Elec       q    Type
REMARK                         _______ _______ _______ _____ _____    ______ ____
ROOT
ATOM      1  N   UNL A   1     -22.470   1.270  28.587  0.00  0.00    -0.291 N 
ATOM      2  C   UNL A   1     -21.351   0.686  28.243  0.00  0.00    +0.114 C 
ENDROOT
BRANCH   1   5
ATOM      3  C   UNL A   1     -25.705   1.334  27.002  0.00  0.00    +0.083 A 
ATOM      4  N   UNL A   1     -24.643   0.923  27.602  0.00  0.00    -0.231 NA
ATOM      5  C   UNL A   1     -23.477   1.731  27.701  0.00  0.00    +0.132 A 
ATOM      6  C   UNL A   1     -23.038   2.248  26.659  0.00  0.00    +0.034 A 
ATOM      7  C   UNL A   1     -25.622   2.228  26.021  0.00  0.00    +0.019 A 
ATOM      8  C   UNL A   1     -24.268   2.942  25.874  0.00  0.00    +0.004 A 
BRANCH   3  11
ATOM      9  C   UNL A   1     -28.016  -0.814  28.878  0.00  0.00    +0.082 A 
ATOM     10  C   UNL A   1     -27.064  -0.119  28.608  0.00  0.00    +0.008 A 
ATOM     11  C   UNL A   1     -27.001   0.691  27.491  0.00  0.00    +0.020 A 
ATOM     12  C   UNL A   1     -28.142   0.828  26.799  0.00  0.00    +0.031 A 
ATOM     13  C   UNL A   1     -29.290  -0.487  28.366  0.00  0.00    +0.036 A 
ATOM     14  C   UNL A   1     -29.285   0.261  27.262  0.00  0.00    +0.140 A 
ATOM     15  F   UNL A   1     -30.430   0.451  26.589  0.00  0.00    -0.204 F 
BRANCH   9  16
ATOM     16  C   UNL A   1     -27.939  -1.686  30.140  0.00  0.00    +0.388 C 
ATOM     17  O   UNL A   1     -28.676  -1.917  30.876  0.00  0.00    -0.241 OA
ATOM     18  O   UNL A   1     -26.659  -2.193  30.316  0.00  0.00    -0.241 OA
ENDBRANCH   9  16
ENDBRANCH   3  11
ENDBRANCH   1   5
BRANCH   1  19
ATOM     19  C   UNL A   1     -22.975   1.237  30.034  0.00  0.00    +0.097 C 
BRANCH  19  20
ATOM     20  C   UNL A   1     -23.939   2.111  30.498  0.00  0.00    +0.048 C 
BRANCH  20  21
ATOM     21  C   UNL A   1     -24.856   1.664  31.530  0.00  0.00    -0.014 A 
ATOM     22  C   UNL A   1     -24.936   0.400  31.925  0.00  0.00    -0.004 A 
ATOM     23  C   UNL A   1     -25.824  -0.014  32.938  0.00  0.00    -0.000 A 
ATOM     24  C   UNL A   1     -26.668   0.911  33.527  0.00  0.00    +0.000 A 
ATOM     25  C   UNL A   1     -26.568   2.286  33.181  0.00  0.00    +0.006 A 
ATOM     26  C   UNL A   1     -25.686   2.692  32.200  0.00  0.00    +0.076 A 
BRANCH  24  27
ATOM     27  C   UNL A   1     -27.615   0.508  34.603  0.00  0.00    +0.000 A 
ATOM     28  C   UNL A   1     -28.600   0.680  34.670  0.00  0.00    +0.000 A 
ATOM     29  C   UNL A   1     -29.577   0.254  35.732  0.00  0.00    +0.000 A 
ATOM     30  C   UNL A   1     -26.943  -0.297  35.673  0.00  0.00    +0.000 A 
ATOM     31  C   UNL A   1     -27.698  -0.813  36.734  0.00  0.00    +0.000 A 
ATOM     32  C   UNL A   1     -29.036  -0.497  36.763  0.00  0.00    +0.000 A 
ENDBRANCH  24  27
BRANCH  26  33
ATOM     33  C   UNL A   1     -25.579   4.088  31.857  0.00  0.00    +0.387 C 
ATOM     34  O   UNL A   1     -25.980   4.585  30.795  0.00  0.00    -0.241 OA
ATOM     35  O   UNL A   1     -24.900   4.894  32.774  0.00  0.00    -0.241 OA
ENDBRANCH  26  33
ENDBRANCH  20  21
ENDBRANCH  19  20
ENDBRANCH   1  19
TORSDOF 8
