REMARK  Name = outputs/IAG933/test6/raw/output_8614_IAG933_linker_design_.xyz
REMARK  14 active torsions:
REMARK  status: ('A' for Active; 'I' for Inactive)
REMARK    1  A    between atoms: C_1  and  C_2
REMARK    2  A    between atoms: C_1  and  C_8
REMARK    3  A    between atoms: C_9  and  C_44
REMARK    4  A    between atoms: C_13  and  N_40
REMARK    5  A    between atoms: C_14  and  C_15
REMARK    6  A    between atoms: C_21  and  O_22
REMARK    7  A    between atoms: O_22  and  C_23
REMARK    8  A    between atoms: C_23  and  C_24
REMARK    9  A    between atoms: C_29  and  C_33
REMARK   10  A    between atoms: C_29  and  O_41
REMARK   11  A    between atoms: C_33  and  C_35
REMARK   12  A    between atoms: C_35  and  N_40
REMARK   13  A    between atoms: C_39  and  C_44
REMARK   14  A    between atoms: O_41  and  N_43
REMARK                            x       y       z     vdW  Elec       q    Type
REMARK                         _______ _______ _______ _____ _____    ______ ____
ROOT
ATOM      1  O   UNL A   1     -23.056   1.742  29.608  0.00  0.00    -0.375 OA
ENDROOT
BRANCH   1   2
ATOM      2  N   UNL A   1     -24.392   2.307  30.283  0.00  0.00    -0.089 NA
ATOM      3  C   UNL A   1     -24.817   1.965  31.460  0.00  0.00    +0.103 C 
BRANCH   3  10
ATOM      4  C   UNL A   1     -25.487   4.377  31.487  0.00  0.00    +0.036 C 
ATOM      5  O   UNL A   1     -25.234   3.330  33.700  0.00  0.00    -0.339 OA
ATOM      6  C   UNL A   1     -27.280   5.028  34.367  0.00  0.00    +0.050 C 
ATOM      7  C   UNL A   1     -25.590   5.753  32.225  0.00  0.00    +0.007 C 
ATOM      8  N   UNL A   1     -25.630   4.224  35.835  0.00  0.00    -0.104 NA
ATOM      9  C   UNL A   1     -25.014   5.611  33.609  0.00  0.00    +0.046 C 
ATOM     10  C   UNL A   1     -25.075   3.278  32.193  0.00  0.00    +0.155 C 
ATOM     11  C   UNL A   1     -25.778   4.535  34.404  0.00  0.00    +0.169 C 
ENDBRANCH   3  10
BRANCH   3  13
ATOM     12  C   UNL A   1     -25.387  -0.679  31.571  0.00  0.00    +0.083 C 
ATOM     13  C   UNL A   1     -25.189   0.773  32.028  0.00  0.00    +0.059 C 
ATOM     14  C   UNL A   1     -25.336   0.684  33.544  0.00  0.00    +0.026 C 
ATOM     15  C   UNL A   1     -24.829  -0.715  33.905  0.00  0.00    +0.089 C 
ATOM     16  N   UNL A   1     -24.758  -1.481  32.646  0.00  0.00    -0.219 NA
BRANCH  12  17
ATOM     17  C   UNL A   1     -24.855  -1.012  30.143  0.00  0.00    +0.044 C 
BRANCH  17  18
ATOM     18  C   UNL A   1     -24.973  -2.505  29.788  0.00  0.00    -0.021 C 
ATOM     19  C   UNL A   1     -23.906  -3.173  29.146  0.00  0.00    -0.004 C 
ATOM     20  C   UNL A   1     -23.989  -4.549  28.853  0.00  0.00    -0.000 C 
ATOM     21  C   UNL A   1     -25.137  -5.280  29.205  0.00  0.00    -0.000 C 
ATOM     22  C   UNL A   1     -26.232  -4.611  29.784  0.00  0.00    -0.000 C 
ATOM     23  C   UNL A   1     -26.155  -3.232  30.065  0.00  0.00    -0.004 C 
ENDBRANCH  17  18
ENDBRANCH  12  17
ENDBRANCH   3  13
ENDBRANCH   1   2
BRANCH   1  24
ATOM     24  C   UNL A   1     -22.370   0.593  28.849  0.00  0.00    +0.275 C 
BRANCH  24  25
ATOM     25  C   UNL A   1     -22.117   1.085  27.390  0.00  0.00    +0.227 C 
ATOM     26  F   UNL A   1     -21.038   1.960  27.355  0.00  0.00    -0.231 F 
BRANCH  25  28
ATOM     27  C   UNL A   1     -23.078   2.446  25.468  0.00  0.00    +0.026 C 
ATOM     28  C   UNL A   1     -23.314   1.887  26.889  0.00  0.00    +0.129 C 
BRANCH  28  29
ATOM     29  N   UNL A   1     -24.619   1.327  27.240  0.00  0.00    -0.234 NA
BRANCH  29  30
ATOM     30  C   UNL A   1     -25.688   1.614  26.461  0.00  0.00    +0.103 C 
ATOM     31  C   UNL A   1     -26.250   2.920  26.395  0.00  0.00    +0.091 C 
ATOM     32  C   UNL A   1     -27.438   3.091  25.645  0.00  0.00    +0.108 C 
ATOM     33  N   UNL A   1     -28.075   2.089  25.003  0.00  0.00    -0.208 NA
ATOM     34  C   UNL A   1     -27.543   0.849  25.079  0.00  0.00    +0.255 C 
ATOM     35  C   UNL A   1     -26.354   0.576  25.777  0.00  0.00    +0.208 C 
ATOM     36  F   UNL A   1     -25.860  -0.681  25.795  0.00  0.00    -0.198 F 
BRANCH  31  37
ATOM     37  C   UNL A   1     -25.642   4.093  27.123  0.00  0.00    +0.268 C 
ATOM     38  N   UNL A   1     -25.614   5.252  26.449  0.00  0.00    -0.200 NA
ATOM     39  C   UNL A   1     -25.026   6.479  26.963  0.00  0.00    +0.139 C 
ATOM     40  O   UNL A   1     -25.143   3.966  28.243  0.00  0.00    -0.268 OA
ENDBRANCH  31  37
BRANCH  34  41
ATOM     41  O   UNL A   1     -28.193  -0.208  24.477  0.00  0.00    -0.456 OA
BRANCH  41  42
ATOM     42  C   UNL A   1     -29.460   0.005  23.866  0.00  0.00    +0.243 C 
BRANCH  42  43
ATOM     43  C   UNL A   1     -30.065  -1.377  23.573  0.00  0.00    +0.229 C 
ATOM     44  O   UNL A   1     -30.729  -1.878  24.721  0.00  0.00    -0.216 OA
ENDBRANCH  42  43
ENDBRANCH  41  42
ENDBRANCH  34  41
ENDBRANCH  29  30
ENDBRANCH  28  29
ENDBRANCH  25  28
ENDBRANCH  24  25
ENDBRANCH   1  24
TORSDOF 14
