REMARK  Name = outputs/IAG933/test6/raw/output_8618_IAG933_linker_design_.xyz
REMARK  11 active torsions:
REMARK  status: ('A' for Active; 'I' for Inactive)
REMARK    1  A    between atoms: C_1  and  C_2
REMARK    2  A    between atoms: C_1  and  C_8
REMARK    3  A    between atoms: C_1  and  C_44
REMARK    4  A    between atoms: C_13  and  N_33
REMARK    5  A    between atoms: C_14  and  C_15
REMARK    6  A    between atoms: C_21  and  O_22
REMARK    7  A    between atoms: O_22  and  C_23
REMARK    8  A    between atoms: C_23  and  C_24
REMARK    9  A    between atoms: N_33  and  C_35
REMARK   10  A    between atoms: N_33  and  C_38
REMARK   11  A    between atoms: C_37  and  N_40
REMARK                            x       y       z     vdW  Elec       q    Type
REMARK                         _______ _______ _______ _____ _____    ______ ____
ROOT
ATOM      1  N   UNL A   1     -22.723  -0.371  30.069  0.00  0.00    -0.129 NA
ATOM      2  C   UNL A   1     -21.397   0.563  28.312  0.00  0.00    +0.216 C 
ATOM      3  F   UNL A   1     -21.332   1.734  26.489  0.00  0.00    -0.233 F 
ATOM      4  C   UNL A   1     -24.237   1.028  28.799  0.00  0.00    +0.131 C 
ATOM      5  C   UNL A   1     -23.572   1.267  27.524  0.00  0.00    +0.122 C 
ATOM      6  N   UNL A   1     -21.951   0.194  29.410  0.00  0.00    -0.110 NA
ATOM      7  N   UNL A   1     -20.099  -0.002  28.304  0.00  0.00    -0.109 NA
ATOM      8  C   UNL A   1     -23.859  -0.058  29.522  0.00  0.00    +0.118 C 
ATOM      9  C   UNL A   1     -22.128   1.194  27.410  0.00  0.00    +0.213 C 
ENDROOT
BRANCH   4  13
ATOM     10  C   UNL A   1     -27.477   2.364  29.721  0.00  0.00    +0.096 C 
ATOM     11  O   UNL A   1     -25.668   3.661  30.581  0.00  0.00    -0.273 OA
ATOM     12  C   UNL A   1     -26.036   2.651  29.915  0.00  0.00    +0.242 C 
ATOM     13  N   UNL A   1     -25.122   1.868  29.350  0.00  0.00    -0.204 NA
ENDBRANCH   4  13
BRANCH   8  14
ATOM     14  C   UNL A   1     -24.855  -1.012  30.143  0.00  0.00    +0.058 C 
BRANCH  14  15
ATOM     15  C   UNL A   1     -24.973  -2.505  29.788  0.00  0.00    -0.020 C 
ATOM     16  C   UNL A   1     -23.906  -3.173  29.146  0.00  0.00    -0.004 C 
ATOM     17  C   UNL A   1     -23.989  -4.549  28.853  0.00  0.00    -0.000 C 
ATOM     18  C   UNL A   1     -25.137  -5.280  29.205  0.00  0.00    -0.000 C 
ATOM     19  C   UNL A   1     -26.232  -4.611  29.784  0.00  0.00    -0.000 C 
ATOM     20  C   UNL A   1     -26.155  -3.232  30.065  0.00  0.00    -0.004 C 
ENDBRANCH  14  15
BRANCH  14  21
ATOM     21  C   UNL A   1     -25.387  -0.679  31.571  0.00  0.00    +0.078 C 
ATOM     22  C   UNL A   1     -25.189   0.773  32.028  0.00  0.00    +0.019 C 
ATOM     23  C   UNL A   1     -25.336   0.684  33.544  0.00  0.00    +0.020 C 
ATOM     24  C   UNL A   1     -24.829  -0.715  33.905  0.00  0.00    +0.089 C 
ATOM     25  N   UNL A   1     -24.758  -1.481  32.646  0.00  0.00    -0.219 NA
ENDBRANCH  14  21
ENDBRANCH   8  14
BRANCH   5  26
ATOM     26  N   UNL A   1     -24.210   1.485  26.410  0.00  0.00    -0.185 NA
BRANCH  26  27
ATOM     27  C   UNL A   1     -25.688   1.614  26.461  0.00  0.00    +0.135 C 
ATOM     28  C   UNL A   1     -26.250   2.920  26.395  0.00  0.00    +0.070 C 
ATOM     29  C   UNL A   1     -27.438   3.091  25.645  0.00  0.00    +0.103 C 
ATOM     30  N   UNL A   1     -28.075   2.089  25.003  0.00  0.00    -0.212 NA
ATOM     31  C   UNL A   1     -27.543   0.849  25.079  0.00  0.00    +0.235 C 
ATOM     32  C   UNL A   1     -26.354   0.576  25.777  0.00  0.00    +0.255 C 
ATOM     33  F   UNL A   1     -25.860  -0.681  25.795  0.00  0.00    -0.225 F 
BRANCH  28  34
ATOM     34  C   UNL A   1     -25.642   4.093  27.123  0.00  0.00    +0.264 C 
ATOM     35  N   UNL A   1     -25.614   5.252  26.449  0.00  0.00    -0.200 NA
ATOM     36  C   UNL A   1     -25.026   6.479  26.963  0.00  0.00    +0.139 C 
ATOM     37  O   UNL A   1     -25.143   3.966  28.243  0.00  0.00    -0.269 OA
ENDBRANCH  28  34
BRANCH  31  38
ATOM     38  O   UNL A   1     -28.193  -0.208  24.477  0.00  0.00    -0.459 OA
BRANCH  38  39
ATOM     39  C   UNL A   1     -29.460   0.005  23.866  0.00  0.00    +0.242 C 
BRANCH  39  40
ATOM     40  C   UNL A   1     -30.065  -1.377  23.573  0.00  0.00    +0.229 C 
ATOM     41  O   UNL A   1     -30.729  -1.878  24.721  0.00  0.00    -0.216 OA
ENDBRANCH  39  40
ENDBRANCH  38  39
ENDBRANCH  31  38
ENDBRANCH  26  27
BRANCH  26  44
ATOM     42  F   UNL A   1     -24.069   0.956  24.224  0.00  0.00    -0.155 F 
ATOM     43  F   UNL A   1     -23.568   3.146  25.089  0.00  0.00    -0.155 F 
ATOM     44  C   UNL A   1     -23.576   1.824  25.091  0.00  0.00    +0.463 C 
ATOM     45  F   UNL A   1     -22.407   1.826  24.361  0.00  0.00    -0.155 F 
ENDBRANCH  26  44
ENDBRANCH   5  26
TORSDOF 11
