MODEL 861
MODEL 1
REMARK VINA RESULT:    -7.338      0.000      0.000
REMARK INTER + INTRA:         -14.534
REMARK INTER:                 -10.769
REMARK INTRA:                  -3.765
REMARK UNBOUND:                -3.765
REMARK  Name = No_861-gen_results/8p0m/2024-11-27-11-27-31/
REMARK  8 active torsions:
REMARK  status: ('A' for Active; 'I' for Inactive)
REMARK    1  A    between atoms: C_1  and  C_7
REMARK    2  A    between atoms: C_3  and  C_11
REMARK    3  A    between atoms: C_13  and  N_17
REMARK    4  A    between atoms: N_17  and  C_19
REMARK    5  A    between atoms: C_19  and  C_20
REMARK    6  A    between atoms: C_20  and  C_21
REMARK    7  A    between atoms: C_24  and  C_30
REMARK    8  A    between atoms: C_26  and  C_27
REMARK                            x       y       z     vdW  Elec       q    Type
REMARK                         _______ _______ _______ _____ _____    ______ ____
ROOT
ATOM      1  N   UNL A   1     -31.125 -10.319  35.876  0.00  0.00    -0.291 N 
ATOM      2  C   UNL A   1     -32.294  -9.751  36.030  0.00  0.00    +0.114 C 
ENDROOT
BRANCH   1   5
ATOM      3  C   UNL A   1     -31.145 -13.537  34.257  0.00  0.00    +0.083 A 
ATOM      4  N   UNL A   1     -31.461 -12.338  34.603  0.00  0.00    -0.231 NA
ATOM      5  C   UNL A   1     -30.886 -11.710  35.742  0.00  0.00    +0.132 A 
ATOM      6  C   UNL A   1     -30.898 -12.333  36.818  0.00  0.00    +0.034 A 
ATOM      7  C   UNL A   1     -30.733 -14.415  35.167  0.00  0.00    +0.019 A 
ATOM      8  C   UNL A   1     -30.370 -13.836  36.545  0.00  0.00    +0.004 A 
BRANCH   3  11
ATOM      9  C   UNL A   1     -30.751 -15.126  30.972  0.00  0.00    +0.082 A 
ATOM     10  C   UNL A   1     -30.826 -14.979  32.170  0.00  0.00    +0.008 A 
ATOM     11  C   UNL A   1     -31.320 -13.837  32.770  0.00  0.00    +0.020 A 
ATOM     12  C   UNL A   1     -31.907 -12.950  31.953  0.00  0.00    +0.031 A 
ATOM     13  C   UNL A   1     -31.593 -14.381  30.120  0.00  0.00    +0.036 A 
ATOM     14  C   UNL A   1     -32.066 -13.246  30.638  0.00  0.00    +0.140 A 
ATOM     15  F   UNL A   1     -32.703 -12.374  29.842  0.00  0.00    -0.204 F 
BRANCH   9  16
ATOM     16  C   UNL A   1     -30.155 -16.439  30.442  0.00  0.00    +0.388 C 
ATOM     17  O   UNL A   1     -30.496 -17.105  29.681  0.00  0.00    -0.241 OA
ATOM     18  O   UNL A   1     -29.005 -16.780  31.141  0.00  0.00    -0.241 OA
ENDBRANCH   9  16
ENDBRANCH   3  11
ENDBRANCH   1   5
BRANCH   1  19
ATOM     19  C   UNL A   1     -29.885  -9.501  35.499  0.00  0.00    +0.097 C 
BRANCH  19  20
ATOM     20  C   UNL A   1     -28.877 -10.016  34.706  0.00  0.00    +0.048 C 
BRANCH  20  21
ATOM     21  C   UNL A   1     -29.128 -10.219  33.292  0.00  0.00    -0.014 A 
ATOM     22  C   UNL A   1     -29.909  -9.420  32.576  0.00  0.00    -0.004 A 
ATOM     23  C   UNL A   1     -30.131  -9.625  31.200  0.00  0.00    -0.000 A 
ATOM     24  C   UNL A   1     -29.548 -10.709  30.567  0.00  0.00    +0.000 A 
ATOM     25  C   UNL A   1     -28.652 -11.550  31.281  0.00  0.00    +0.006 A 
ATOM     26  C   UNL A   1     -28.422 -11.338  32.625  0.00  0.00    +0.076 A 
BRANCH  24  27
ATOM     27  C   UNL A   1     -29.759 -10.952  29.114  0.00  0.00    +0.000 A 
ATOM     28  C   UNL A   1     -30.323 -10.436  28.465  0.00  0.00    +0.000 A 
ATOM     29  C   UNL A   1     -30.523 -10.648  26.989  0.00  0.00    +0.000 A 
ATOM     30  C   UNL A   1     -28.953 -12.112  28.614  0.00  0.00    +0.000 A 
ATOM     31  C   UNL A   1     -28.983 -12.445  27.253  0.00  0.00    +0.000 A 
ATOM     32  C   UNL A   1     -29.812 -11.705  26.444  0.00  0.00    +0.000 A 
ENDBRANCH  24  27
BRANCH  26  33
ATOM     33  C   UNL A   1     -27.506 -12.187  33.345  0.00  0.00    +0.387 C 
ATOM     34  O   UNL A   1     -27.584 -12.441  34.555  0.00  0.00    -0.241 OA
ATOM     35  O   UNL A   1     -26.421 -12.676  32.613  0.00  0.00    -0.241 OA
ENDBRANCH  26  33
ENDBRANCH  20  21
ENDBRANCH  19  20
ENDBRANCH   1  19
TORSDOF 8
ENDMDL
ENDMDL
