REMARK  Name = outputs/IAG933/test6/raw/output_8621_IAG933_linker_design_.xyz
REMARK  14 active torsions:
REMARK  status: ('A' for Active; 'I' for Inactive)
REMARK    1  A    between atoms: C_1  and  C_2
REMARK    2  A    between atoms: C_1  and  C_8
REMARK    3  A    between atoms: C_1  and  N_42
REMARK    4  A    between atoms: C_13  and  N_36
REMARK    5  A    between atoms: C_14  and  C_15
REMARK    6  A    between atoms: C_21  and  O_22
REMARK    7  A    between atoms: O_22  and  C_23
REMARK    8  A    between atoms: C_23  and  C_24
REMARK    9  A    between atoms: C_28  and  O_32
REMARK   10  A    between atoms: C_29  and  N_42
REMARK   11  A    between atoms: C_31  and  N_36
REMARK   12  A    between atoms: C_34  and  C_38
REMARK   13  A    between atoms: C_34  and  O_41
REMARK   14  A    between atoms: C_38  and  N_42
REMARK                            x       y       z     vdW  Elec       q    Type
REMARK                         _______ _______ _______ _____ _____    ______ ____
ROOT
ATOM      1  C   UNL A   1     -22.080   1.256  27.390  0.00  0.00    +0.194 C 
ATOM      2  C   UNL A   1     -23.787   0.421  28.660  0.00  0.00    +0.093 C 
ATOM      3  C   UNL A   1     -21.457   0.518  28.433  0.00  0.00    +0.262 C 
ATOM      4  C   UNL A   1     -23.433   1.101  27.512  0.00  0.00    +0.116 C 
ATOM      5  F   UNL A   1     -22.144  -0.493  30.332  0.00  0.00    -0.204 F 
ATOM      6  O   UNL A   1     -20.155  -0.003  28.436  0.00  0.00    -0.207 OA
ATOM      7  C   UNL A   1     -22.486   0.147  29.231  0.00  0.00    +0.170 C 
ENDROOT
BRANCH   1   8
ATOM      8  O   UNL A   1     -21.630   1.831  26.244  0.00  0.00    -0.383 OA
ATOM      9 CL   UNL A   1     -22.636   2.458  25.079  0.00  0.00    +0.135 Cl
ENDBRANCH   1   8
BRANCH   4  10
ATOM     10  N   UNL A   1     -24.491   1.521  26.854  0.00  0.00    -0.227 NA
BRANCH  10  11
ATOM     11  C   UNL A   1     -25.688   1.614  26.461  0.00  0.00    +0.162 C 
ATOM     12  C   UNL A   1     -26.250   2.920  26.395  0.00  0.00    +0.075 C 
ATOM     13  C   UNL A   1     -27.438   3.091  25.645  0.00  0.00    +0.104 C 
ATOM     14  N   UNL A   1     -28.075   2.089  25.003  0.00  0.00    -0.212 NA
ATOM     15  C   UNL A   1     -27.543   0.849  25.079  0.00  0.00    +0.236 C 
ATOM     16  C   UNL A   1     -26.354   0.576  25.777  0.00  0.00    +0.260 C 
ATOM     17  F   UNL A   1     -25.860  -0.681  25.795  0.00  0.00    -0.225 F 
BRANCH  12  18
ATOM     18  C   UNL A   1     -25.642   4.093  27.123  0.00  0.00    +0.264 C 
ATOM     19  N   UNL A   1     -25.614   5.252  26.449  0.00  0.00    -0.200 NA
ATOM     20  C   UNL A   1     -25.026   6.479  26.963  0.00  0.00    +0.139 C 
ATOM     21  O   UNL A   1     -25.143   3.966  28.243  0.00  0.00    -0.269 OA
ENDBRANCH  12  18
BRANCH  15  22
ATOM     22  O   UNL A   1     -28.193  -0.208  24.477  0.00  0.00    -0.459 OA
BRANCH  22  23
ATOM     23  C   UNL A   1     -29.460   0.005  23.866  0.00  0.00    +0.242 C 
BRANCH  23  24
ATOM     24  C   UNL A   1     -30.065  -1.377  23.573  0.00  0.00    +0.229 C 
ATOM     25  O   UNL A   1     -30.729  -1.878  24.721  0.00  0.00    -0.216 OA
ENDBRANCH  23  24
ENDBRANCH  22  23
ENDBRANCH  15  22
ENDBRANCH  10  11
ENDBRANCH   4  10
BRANCH   2  26
ATOM     26  N   UNL A   1     -25.023   0.014  29.105  0.00  0.00    -0.299 N 
BRANCH  26  27
ATOM     27  C   UNL A   1     -24.855  -1.012  30.143  0.00  0.00    +0.112 C 
BRANCH  27  28
ATOM     28  C   UNL A   1     -24.973  -2.505  29.788  0.00  0.00    -0.003 C 
ATOM     29  C   UNL A   1     -23.906  -3.173  29.146  0.00  0.00    -0.003 C 
ATOM     30  C   UNL A   1     -23.989  -4.549  28.853  0.00  0.00    -0.000 C 
ATOM     31  C   UNL A   1     -25.137  -5.280  29.205  0.00  0.00    -0.000 C 
ATOM     32  C   UNL A   1     -26.232  -4.611  29.784  0.00  0.00    -0.000 C 
ATOM     33  C   UNL A   1     -26.155  -3.232  30.065  0.00  0.00    -0.003 C 
ENDBRANCH  27  28
BRANCH  27  34
ATOM     34  C   UNL A   1     -25.387  -0.679  31.571  0.00  0.00    +0.095 C 
ATOM     35  C   UNL A   1     -25.189   0.773  32.028  0.00  0.00    +0.021 C 
ATOM     36  C   UNL A   1     -25.336   0.684  33.544  0.00  0.00    +0.020 C 
ATOM     37  C   UNL A   1     -24.829  -0.715  33.905  0.00  0.00    +0.089 C 
ATOM     38  N   UNL A   1     -24.758  -1.481  32.646  0.00  0.00    -0.217 NA
ENDBRANCH  27  34
ENDBRANCH  26  27
BRANCH  26  39
ATOM     39  C   UNL A   1     -26.210   0.283  28.445  0.00  0.00    +0.123 C 
BRANCH  39  40
ATOM     40  C   UNL A   1     -27.608   0.236  29.131  0.00  0.00    +0.164 C 
BRANCH  40  42
ATOM     41  C   UNL A   1     -29.829  -0.355  28.903  0.00  0.00    +0.174 C 
ATOM     42  O   UNL A   1     -28.599  -0.865  29.070  0.00  0.00    -0.349 OA
ENDBRANCH  40  42
ENDBRANCH  39  40
ENDBRANCH  26  39
ENDBRANCH   2  26
TORSDOF 14
