REMARK  Name = outputs/IAG933/test6/raw/output_863_IAG933_linker_design_.xyz
REMARK  8 active torsions:
REMARK  status: ('A' for Active; 'I' for Inactive)
REMARK    1  A    between atoms: C_1  and  C_2
REMARK    2  A    between atoms: C_1  and  C_8
REMARK    3  A    between atoms: C_1  and  N_28
REMARK    4  A    between atoms: C_21  and  O_22
REMARK    5  A    between atoms: O_22  and  C_23
REMARK    6  A    between atoms: C_23  and  C_24
REMARK    7  A    between atoms: C_33  and  C_41
REMARK    8  A    between atoms: C_38  and  C_43
REMARK                            x       y       z     vdW  Elec       q    Type
REMARK                         _______ _______ _______ _____ _____    ______ ____
ROOT
ATOM      1  C   UNL A   1     -25.688   1.614  26.461  0.00  0.00    +0.038 C 
ATOM      2  C   UNL A   1     -26.250   2.920  26.395  0.00  0.00    +0.074 C 
ATOM      3  C   UNL A   1     -25.642   4.093  27.123  0.00  0.00    +0.222 C 
ATOM      4  N   UNL A   1     -25.614   5.252  26.449  0.00  0.00    -0.236 NA
ATOM      5  C   UNL A   1     -25.026   6.479  26.963  0.00  0.00    +0.155 C 
ATOM      6  O   UNL A   1     -25.143   3.966  28.243  0.00  0.00    -0.462 OA
ATOM      7  C   UNL A   1     -27.438   3.091  25.645  0.00  0.00    +0.107 C 
ATOM      8  N   UNL A   1     -28.075   2.089  25.003  0.00  0.00    -0.208 NA
ATOM      9  C   UNL A   1     -27.543   0.849  25.079  0.00  0.00    +0.253 C 
ATOM     10  C   UNL A   1     -26.354   0.576  25.777  0.00  0.00    +0.193 C 
ATOM     11  F   UNL A   1     -25.860  -0.681  25.795  0.00  0.00    -0.199 F 
ATOM     12  N   UNL A   1     -25.157  -0.144  29.003  0.00  0.00    -0.255 NA
ATOM     13  C   UNL A   1     -26.494  -0.058  28.507  0.00  0.00    +0.105 C 
ATOM     14  O   UNL A   1     -27.945   2.001  28.952  0.00  0.00    -0.348 OA
ATOM     15  C   UNL A   1     -26.061   5.041  30.294  0.00  0.00    +0.050 C 
ATOM     16  C   UNL A   1     -23.253   1.934  26.415  0.00  0.00    +0.181 C 
ATOM     17  F   UNL A   1     -23.568   2.575  25.295  0.00  0.00    -0.203 F 
ATOM     18  C   UNL A   1     -27.329   3.217  29.398  0.00  0.00    +0.185 C 
ATOM     19  C   UNL A   1     -25.838   3.736  29.534  0.00  0.00    +0.197 C 
ATOM     20  C   UNL A   1     -24.389   1.379  27.137  0.00  0.00    +0.034 C 
ATOM     21  C   UNL A   1     -24.208   0.773  28.437  0.00  0.00    +0.187 C 
ATOM     22  C   UNL A   1     -27.663   0.447  29.347  0.00  0.00    +0.160 C 
ENDROOT
BRANCH  21  24
ATOM     23  O   UNL A   1     -22.888   2.304  29.539  0.00  0.00    -0.244 OA
ATOM     24  C   UNL A   1     -23.102   1.116  29.307  0.00  0.00    +0.383 C 
ATOM     25  O   UNL A   1     -22.421   0.172  29.866  0.00  0.00    -0.244 OA
ENDBRANCH  21  24
BRANCH  16  28
ATOM     26  F   UNL A   1     -21.235   1.649  27.777  0.00  0.00    -0.191 F 
ATOM     27  F   UNL A   1     -21.116   1.842  25.579  0.00  0.00    -0.191 F 
ATOM     28  C   UNL A   1     -21.778   1.879  26.643  0.00  0.00    +0.367 C 
ENDBRANCH  16  28
BRANCH  12  29
ATOM     29  C   UNL A   1     -24.855  -1.012  30.143  0.00  0.00    +0.097 C 
BRANCH  29  30
ATOM     30  C   UNL A   1     -24.973  -2.505  29.788  0.00  0.00    -0.006 C 
ATOM     31  C   UNL A   1     -23.906  -3.173  29.146  0.00  0.00    -0.003 C 
ATOM     32  C   UNL A   1     -23.989  -4.549  28.853  0.00  0.00    -0.000 C 
ATOM     33  C   UNL A   1     -25.137  -5.280  29.205  0.00  0.00    -0.000 C 
ATOM     34  C   UNL A   1     -26.232  -4.611  29.784  0.00  0.00    -0.000 C 
ATOM     35  C   UNL A   1     -26.155  -3.232  30.065  0.00  0.00    -0.003 C 
ENDBRANCH  29  30
BRANCH  29  36
ATOM     36  C   UNL A   1     -25.387  -0.679  31.571  0.00  0.00    +0.092 C 
ATOM     37  C   UNL A   1     -25.189   0.773  32.028  0.00  0.00    +0.021 C 
ATOM     38  C   UNL A   1     -25.336   0.684  33.544  0.00  0.00    +0.020 C 
ATOM     39  C   UNL A   1     -24.829  -0.715  33.905  0.00  0.00    +0.089 C 
ATOM     40  N   UNL A   1     -24.758  -1.481  32.646  0.00  0.00    -0.218 NA
ENDBRANCH  29  36
ENDBRANCH  12  29
BRANCH   9  41
ATOM     41  O   UNL A   1     -28.193  -0.208  24.477  0.00  0.00    -0.456 OA
BRANCH  41  42
ATOM     42  C   UNL A   1     -29.460   0.005  23.866  0.00  0.00    +0.243 C 
BRANCH  42  43
ATOM     43  C   UNL A   1     -30.065  -1.377  23.573  0.00  0.00    +0.229 C 
ATOM     44  O   UNL A   1     -30.729  -1.878  24.721  0.00  0.00    -0.216 OA
ENDBRANCH  42  43
ENDBRANCH  41  42
ENDBRANCH   9  41
TORSDOF 8
