REMARK  Name = outputs/IAG933/test6/raw/output_8632_IAG933_linker_design_.xyz
REMARK  11 active torsions:
REMARK  status: ('A' for Active; 'I' for Inactive)
REMARK    1  A    between atoms: C_1  and  C_2
REMARK    2  A    between atoms: C_1  and  C_8
REMARK    3  A    between atoms: C_1  and  C_29
REMARK    4  A    between atoms: C_13  and  C_37
REMARK    5  A    between atoms: C_14  and  C_15
REMARK    6  A    between atoms: C_21  and  O_22
REMARK    7  A    between atoms: O_22  and  C_23
REMARK    8  A    between atoms: C_23  and  C_24
REMARK    9  A    between atoms: C_28  and  N_38
REMARK   10  A    between atoms: C_33  and  CA_35
REMARK   11  A    between atoms: CA_35  and  N_38
REMARK                            x       y       z     vdW  Elec       q    Type
REMARK                         _______ _______ _______ _____ _____    ______ ____
ROOT
ATOM      1  C   UNK     1     -25.255   0.561  28.436  0.00  0.00    +0.047 C 
ATOM      2  C   UNK     1     -24.381   0.067  29.299  0.00  0.00    +0.065 C 
ATOM      3  C   UNK     1     -22.100   0.908  27.084  0.00  0.00    -0.004 C 
ATOM      4  C   UNK     1     -23.340   1.201  25.171  0.00  0.00    +0.031 C 
ATOM      5  C   UNK     1     -23.401   1.128  26.532  0.00  0.00    -0.021 C 
ATOM      6  C   UNK     1     -22.999   0.347  29.451  0.00  0.00    -0.020 C 
ATOM      7  C   UNK     1     -24.754   1.182  27.179  0.00  0.00    +0.010 C 
ATOM      8  C   UNK     1     -21.901   0.751  28.483  0.00  0.00    -0.004 C 
ENDROOT
BRANCH   7   9
ATOM      9  C   UNK     1     -25.688   1.614  26.461  0.00  0.00    +0.039 C 
ATOM     10  C   UNK     1     -26.250   2.920  26.395  0.00  0.00    +0.077 C 
ATOM     11  C   UNK     1     -27.438   3.091  25.645  0.00  0.00    +0.107 C 
ATOM     12  N   UNK     1     -28.075   2.089  25.003  0.00  0.00    -0.208 NA
ATOM     13  C   UNK     1     -27.543   0.849  25.079  0.00  0.00    +0.253 C 
ATOM     14  C   UNK     1     -26.354   0.576  25.777  0.00  0.00    +0.193 C 
ATOM     15  F   UNK     1     -25.860  -0.681  25.795  0.00  0.00    -0.199 F 
BRANCH  10  16
ATOM     16  C   UNK     1     -25.642   4.093  27.123  0.00  0.00    +0.266 C 
ATOM     17  N   UNK     1     -25.614   5.252  26.449  0.00  0.00    -0.200 NA
ATOM     18  C   UNK     1     -25.026   6.479  26.963  0.00  0.00    +0.139 C 
ATOM     19  O   UNK     1     -25.143   3.966  28.243  0.00  0.00    -0.268 OA
ENDBRANCH  10  16
BRANCH  13  20
ATOM     20  O   UNK     1     -28.193  -0.208  24.477  0.00  0.00    -0.456 OA
BRANCH  20  21
ATOM     21  C   UNK     1     -29.460   0.005  23.866  0.00  0.00    +0.243 C 
BRANCH  21  22
ATOM     22  C   UNK     1     -30.065  -1.377  23.573  0.00  0.00    +0.229 C 
ATOM     23  O   UNK     1     -30.729  -1.878  24.721  0.00  0.00    -0.216 OA
ENDBRANCH  21  22
ENDBRANCH  20  21
ENDBRANCH  13  20
ENDBRANCH   7   9
BRANCH   2  24
ATOM     24  C   UNK     1     -24.855  -1.012  30.143  0.00  0.00    +0.048 C 
BRANCH  24  25
ATOM     25  C   UNK     1     -24.973  -2.505  29.788  0.00  0.00    -0.021 C 
ATOM     26  C   UNK     1     -23.906  -3.173  29.146  0.00  0.00    -0.004 C 
ATOM     27  C   UNK     1     -23.989  -4.549  28.853  0.00  0.00    -0.000 C 
ATOM     28  C   UNK     1     -25.137  -5.280  29.205  0.00  0.00    -0.000 C 
ATOM     29  C   UNK     1     -26.232  -4.611  29.784  0.00  0.00    -0.000 C 
ATOM     30  C   UNK     1     -26.155  -3.232  30.065  0.00  0.00    -0.004 C 
ENDBRANCH  24  25
BRANCH  24  31
ATOM     31  C   UNK     1     -25.387  -0.679  31.571  0.00  0.00    +0.077 C 
ATOM     32  C   UNK     1     -25.189   0.773  32.028  0.00  0.00    +0.019 C 
ATOM     33  C   UNK     1     -25.336   0.684  33.544  0.00  0.00    +0.020 C 
ATOM     34  C   UNK     1     -24.829  -0.715  33.905  0.00  0.00    +0.089 C 
ATOM     35  N   UNK     1     -24.758  -1.481  32.646  0.00  0.00    -0.219 NA
ENDBRANCH  24  31
ENDBRANCH   2  24
BRANCH   1  36
ATOM     36  N   ALA A   1     -26.667   0.111  28.726  0.00  0.00    -0.241 NA
BRANCH  36  38
ATOM     37  CB  ALA A   1     -29.157  -1.736  29.514  0.00  0.00    +0.026 C 
ATOM     38  CA  ALA A   1     -28.193  -0.509  29.309  0.00  0.00    +0.125 C 
BRANCH  38  39
ATOM     39  C   ALA A   1     -28.767   0.718  30.020  0.00  0.00    +0.203 C 
ATOM     40  O   ALA A   1     -30.172   0.751  30.018  0.00  0.00    -0.218 OA
ENDBRANCH  38  39
ENDBRANCH  36  38
ENDBRANCH   1  36
TORSDOF 11
