REMARK  Name = outputs/IAG933/test6/raw/output_8637_IAG933_linker_design_.xyz
REMARK  10 active torsions:
REMARK  status: ('A' for Active; 'I' for Inactive)
REMARK    1  A    between atoms: C_1  and  C_2
REMARK    2  A    between atoms: C_1  and  C_8
REMARK    3  A    between atoms: C_1  and  C_42
REMARK    4  A    between atoms: C_13  and  C_32
REMARK    5  A    between atoms: C_14  and  C_15
REMARK    6  A    between atoms: C_21  and  O_22
REMARK    7  A    between atoms: O_22  and  C_23
REMARK    8  A    between atoms: C_23  and  C_24
REMARK    9  A    between atoms: C_33  and  C_36
REMARK   10  A    between atoms: C_40  and  C_41
REMARK                            x       y       z     vdW  Elec       q    Type
REMARK                         _______ _______ _______ _____ _____    ______ ____
ROOT
ATOM      1  C   UNL A   1     -21.473   1.495  27.473  0.00  0.00    +0.144 C 
ATOM      2  C   UNL A   1     -24.738   1.364  27.329  0.00  0.00    +0.025 C 
ATOM      3  C   UNL A   1     -25.486   0.866  28.583  0.00  0.00    +0.133 C 
ATOM      4  C   UNL A   1     -23.663   1.495  26.976  0.00  0.00    -0.102 C 
ATOM      5  F   UNL A   1     -20.243   2.000  27.424  0.00  0.00    -0.204 F 
ATOM      6  C   UNL A   1     -21.774   0.693  28.591  0.00  0.00    +0.004 C 
ATOM      7  C   UNL A   1     -22.930   0.183  29.197  0.00  0.00    +0.030 C 
ATOM      8  C   UNL A   1     -22.523   1.692  26.530  0.00  0.00    +0.105 C 
ATOM      9  C   UNL A   1     -24.402  -0.012  29.148  0.00  0.00    +0.025 C 
ENDROOT
BRANCH   2  10
ATOM     10  C   UNL A   1     -25.688   1.614  26.461  0.00  0.00    +0.042 C 
ATOM     11  C   UNL A   1     -26.250   2.920  26.395  0.00  0.00    +0.077 C 
ATOM     12  C   UNL A   1     -27.438   3.091  25.645  0.00  0.00    +0.107 C 
ATOM     13  N   UNL A   1     -28.075   2.089  25.003  0.00  0.00    -0.208 NA
ATOM     14  C   UNL A   1     -27.543   0.849  25.079  0.00  0.00    +0.253 C 
ATOM     15  C   UNL A   1     -26.354   0.576  25.777  0.00  0.00    +0.193 C 
ATOM     16  F   UNL A   1     -25.860  -0.681  25.795  0.00  0.00    -0.199 F 
BRANCH  11  17
ATOM     17  C   UNL A   1     -25.642   4.093  27.123  0.00  0.00    +0.266 C 
ATOM     18  N   UNL A   1     -25.614   5.252  26.449  0.00  0.00    -0.200 NA
ATOM     19  C   UNL A   1     -25.026   6.479  26.963  0.00  0.00    +0.139 C 
ATOM     20  O   UNL A   1     -25.143   3.966  28.243  0.00  0.00    -0.268 OA
ENDBRANCH  11  17
BRANCH  14  21
ATOM     21  O   UNL A   1     -28.193  -0.208  24.477  0.00  0.00    -0.456 OA
BRANCH  21  22
ATOM     22  C   UNL A   1     -29.460   0.005  23.866  0.00  0.00    +0.243 C 
BRANCH  22  23
ATOM     23  C   UNL A   1     -30.065  -1.377  23.573  0.00  0.00    +0.229 C 
ATOM     24  O   UNL A   1     -30.729  -1.878  24.721  0.00  0.00    -0.216 OA
ENDBRANCH  22  23
ENDBRANCH  21  22
ENDBRANCH  14  21
ENDBRANCH   2  10
BRANCH   3  27
ATOM     25  O   UNL A   1     -27.377  -0.732  28.214  0.00  0.00    -0.245 OA
ATOM     26  O   UNL A   1     -27.523   0.669  29.866  0.00  0.00    -0.245 OA
ATOM     27  C   UNL A   1     -27.010   0.153  28.958  0.00  0.00    +0.369 C 
ENDBRANCH   3  27
BRANCH   8  30
ATOM     28  F   UNL A   1     -23.508   1.238  24.485  0.00  0.00    -0.193 F 
ATOM     29  F   UNL A   1     -21.815   2.492  24.482  0.00  0.00    -0.193 F 
ATOM     30  C   UNL A   1     -22.554   1.978  25.011  0.00  0.00    +0.350 C 
ENDBRANCH   8  30
BRANCH   9  31
ATOM     31  C   UNL A   1     -24.855  -1.012  30.143  0.00  0.00    +0.040 C 
BRANCH  31  32
ATOM     32  C   UNL A   1     -24.973  -2.505  29.788  0.00  0.00    -0.021 C 
ATOM     33  C   UNL A   1     -23.906  -3.173  29.146  0.00  0.00    -0.004 C 
ATOM     34  C   UNL A   1     -23.989  -4.549  28.853  0.00  0.00    -0.000 C 
ATOM     35  C   UNL A   1     -25.137  -5.280  29.205  0.00  0.00    -0.000 C 
ATOM     36  C   UNL A   1     -26.232  -4.611  29.784  0.00  0.00    -0.000 C 
ATOM     37  C   UNL A   1     -26.155  -3.232  30.065  0.00  0.00    -0.004 C 
ENDBRANCH  31  32
BRANCH  31  38
ATOM     38  C   UNL A   1     -25.387  -0.679  31.571  0.00  0.00    +0.077 C 
ATOM     39  C   UNL A   1     -25.189   0.773  32.028  0.00  0.00    +0.019 C 
ATOM     40  C   UNL A   1     -25.336   0.684  33.544  0.00  0.00    +0.020 C 
ATOM     41  C   UNL A   1     -24.829  -0.715  33.905  0.00  0.00    +0.089 C 
ATOM     42  N   UNL A   1     -24.758  -1.481  32.646  0.00  0.00    -0.219 NA
ENDBRANCH  31  38
ENDBRANCH   9  31
TORSDOF 10
