MODEL 863
MODEL 1
REMARK VINA RESULT:    -6.638      0.000      0.000
REMARK INTER + INTRA:          -8.181
REMARK INTER:                  -7.802
REMARK INTRA:                  -0.378
REMARK UNBOUND:                -0.378
REMARK  Name = No_863-gen_results/8p0m/2024-11-27-11-27-31/
REMARK  3 active torsions:
REMARK  status: ('A' for Active; 'I' for Inactive)
REMARK    1  A    between atoms: C_2  and  C_18
REMARK    2  A    between atoms: C_18  and  C_19
REMARK    3  A    between atoms: C_18  and  C_20
REMARK                            x       y       z     vdW  Elec       q    Type
REMARK                         _______ _______ _______ _____ _____    ______ ____
ROOT
ATOM      1  C   UNL A   1     -23.692   0.392  28.057  0.00  0.00    +0.048 A 
ATOM      2  C   UNL A   1     -23.754   1.255  27.455  0.00  0.00    -0.000 A 
ATOM      3  C   UNL A   1     -22.383   0.046  28.534  0.00  0.00    +0.013 A 
ATOM      4  C   UNL A   1     -21.270   0.661  28.122  0.00  0.00    +0.001 A 
ATOM      5  C   UNL A   1     -21.440   1.725  27.281  0.00  0.00    -0.000 A 
ATOM      6  C   UNL A   1     -22.706   2.082  26.895  0.00  0.00    -0.003 A 
ATOM      7  C   UNL A   1     -22.276  -1.147  29.500  0.00  0.00    +0.001 C 
ATOM      8  C   UNL A   1     -22.920  -0.964  30.648  0.00  0.00    +0.001 C 
ATOM      9  C   UNL A   1     -23.718   0.157  31.068  0.00  0.00    +0.013 A 
ATOM     10  C   UNL A   1     -24.293   0.212  32.329  0.00  0.00    +0.001 A 
ATOM     11  C   UNL A   1     -25.221   1.238  32.677  0.00  0.00    -0.000 A 
ATOM     12  C   UNL A   1     -25.551   2.154  31.704  0.00  0.00    -0.003 A 
ATOM     13  C   UNL A   1     -24.972   2.188  30.489  0.00  0.00    -0.007 A 
ATOM     14  C   UNL A   1     -24.162   1.171  30.128  0.00  0.00    +0.048 A 
ATOM     15  N   UNL A   1     -24.081   0.927  28.900  0.00  0.00    -0.287 N 
ATOM     16  C   UNL A   1     -25.576   1.215  28.698  0.00  0.00    +0.100 C 
ATOM     17  C   UNL A   1     -25.743   2.592  29.368  0.00  0.00    +0.049 C 
ENDROOT
BRANCH   2  18
ATOM     18  C   UNL A   1     -24.406   1.664  26.239  0.00  0.00    +0.104 C 
BRANCH  18  19
ATOM     19  C   UNL A   1     -24.617   0.801  25.269  0.00  0.00    +0.107 C 
ATOM     20 CL   UNL A   1     -25.187  -0.021  24.817  0.00  0.00    -0.113 Cl
ENDBRANCH  18  19
BRANCH  18  21
ATOM     21  C   UNL A   1     -24.494   3.002  26.024  0.00  0.00    +0.213 C 
ATOM     22  O   UNL A   1     -25.492   3.676  25.930  0.00  0.00    -0.288 OA
ENDBRANCH  18  21
ENDBRANCH   2  18
TORSDOF 3
ENDMDL
ENDMDL
