REMARK  Name = No_864-gen_results/8p0m/2024-11-27-11-27-31/
REMARK  2 active torsions:
REMARK  status: ('A' for Active; 'I' for Inactive)
REMARK    1  A    between atoms: C_22  and  C_23
REMARK    2  A    between atoms: C_23  and  C_25
REMARK                            x       y       z     vdW  Elec       q    Type
REMARK                         _______ _______ _______ _____ _____    ______ ____
ROOT
ATOM      1  C   UNL A   1     -28.016  -0.814  28.878  0.00  0.00    -0.000 A 
ATOM      2  C   UNL A   1     -28.469  -0.785  29.829  0.00  0.00    -0.000 A 
ATOM      3  C   UNL A   1     -27.087   0.290  28.638  0.00  0.00    -0.005 A 
ATOM      4  C   UNL A   1     -26.768   1.027  29.472  0.00  0.00    -0.027 A 
ATOM      5  C   UNL A   1     -28.276   0.027  31.015  0.00  0.00    -0.005 A 
ATOM      6  C   UNL A   1     -27.329   1.054  30.753  0.00  0.00    -0.026 A 
ATOM      7  C   UNL A   1     -25.848   2.257  29.428  0.00  0.00    +0.023 C 
ATOM      8  C   UNL A   1     -25.565   2.642  28.099  0.00  0.00    +0.008 C 
ATOM      9  C   UNL A   1     -24.680   1.796  27.405  0.00  0.00    +0.026 C 
ATOM     10  C   UNL A   1     -23.500   1.415  28.076  0.00  0.00    -0.005 C 
ATOM     11  C   UNL A   1     -22.229   1.450  27.488  0.00  0.00    -0.002 C 
ATOM     12  C   UNL A   1     -21.077   1.071  28.267  0.00  0.00    +0.040 C 
ATOM     13  C   UNL A   1     -23.296   1.482  29.499  0.00  0.00    +0.185 C 
ATOM     14  O   UNL A   1     -22.312   0.878  30.142  0.00  0.00    -0.472 OA
ATOM     15  C   UNL A   1     -21.156   0.765  29.562  0.00  0.00    +0.172 C 
ATOM     16  C   UNL A   1     -24.391   1.899  30.009  0.00  0.00    +0.048 C 
ATOM     17  C   UNL A   1     -26.408   3.459  30.210  0.00  0.00    +0.008 C 
ATOM     18  C   UNL A   1     -26.546   4.649  29.546  0.00  0.00    +0.001 C 
ATOM     19  C   UNL A   1     -26.165   4.835  28.258  0.00  0.00    +0.000 C 
ATOM     20  C   UNL A   1     -25.807   3.862  27.443  0.00  0.00    +0.001 C 
ATOM     21  C   UNL A   1     -27.724   2.904  30.861  0.00  0.00    +0.026 C 
ATOM     22  C   UNL A   1     -25.496   3.771  31.567  0.00  0.00    +0.002 C 
ATOM     23  C   UNL A   1     -24.401   2.752  31.608  0.00  0.00    +0.004 C 
ENDROOT
BRANCH  22  24
ATOM     24  C   UNL A   1     -25.820   4.816  32.367  0.00  0.00    +0.018 C 
BRANCH  24  25
ATOM     25  C   UNL A   1     -25.473   5.966  31.977  0.00  0.00    +0.095 C 
ATOM     26 CL   UNL A   1     -25.915   7.240  32.023  0.00  0.00    -0.114 Cl
ENDBRANCH  24  25
ENDBRANCH  22  24
TORSDOF 2
