REMARK  Name = outputs/IAG933/test6/raw/output_8640_IAG933_linker_design_.xyz
REMARK  13 active torsions:
REMARK  status: ('A' for Active; 'I' for Inactive)
REMARK    1  A    between atoms: C_1  and  C_2
REMARK    2  A    between atoms: C_1  and  C_8
REMARK    3  A    between atoms: C_9  and  C_40
REMARK    4  A    between atoms: C_13  and  N_35
REMARK    5  A    between atoms: C_14  and  C_15
REMARK    6  A    between atoms: C_21  and  O_22
REMARK    7  A    between atoms: O_22  and  C_23
REMARK    8  A    between atoms: C_23  and  C_24
REMARK    9  A    between atoms: C_30  and  O_39
REMARK   10  A    between atoms: O_39  and  C_41
REMARK   11  A    between atoms: C_40  and  C_41
REMARK   12  A    between atoms: C_40  and  N_43
REMARK   13  A    between atoms: C_42  and  N_43
REMARK                            x       y       z     vdW  Elec       q    Type
REMARK                         _______ _______ _______ _____ _____    ______ ____
ROOT
ATOM      1  C   UNL A   1     -25.109   1.860  30.941  0.00  0.00    +0.119 C 
ENDROOT
BRANCH   1   3
ATOM      2  C   UNL A   1     -25.387  -0.679  31.571  0.00  0.00    +0.079 C 
ATOM      3  C   UNL A   1     -25.189   0.773  32.028  0.00  0.00    +0.038 C 
ATOM      4  C   UNL A   1     -25.336   0.684  33.544  0.00  0.00    +0.022 C 
ATOM      5  C   UNL A   1     -24.829  -0.715  33.905  0.00  0.00    +0.089 C 
ATOM      6  N   UNL A   1     -24.758  -1.481  32.646  0.00  0.00    -0.219 NA
BRANCH   2   7
ATOM      7  C   UNL A   1     -24.855  -1.012  30.143  0.00  0.00    +0.044 C 
BRANCH   7   8
ATOM      8  C   UNL A   1     -24.973  -2.505  29.788  0.00  0.00    -0.021 C 
ATOM      9  C   UNL A   1     -23.906  -3.173  29.146  0.00  0.00    -0.004 C 
ATOM     10  C   UNL A   1     -23.989  -4.549  28.853  0.00  0.00    -0.000 C 
ATOM     11  C   UNL A   1     -25.137  -5.280  29.205  0.00  0.00    -0.000 C 
ATOM     12  C   UNL A   1     -26.232  -4.611  29.784  0.00  0.00    -0.000 C 
ATOM     13  C   UNL A   1     -26.155  -3.232  30.065  0.00  0.00    -0.004 C 
ENDBRANCH   7   8
ENDBRANCH   2   7
ENDBRANCH   1   3
BRANCH   1  14
ATOM     14  C   UNL A   1     -26.158   2.890  31.380  0.00  0.00    +0.223 C 
BRANCH  14  15
ATOM     15  O   UNL A   1     -25.698   3.742  32.455  0.00  0.00    -0.473 OA
BRANCH  15  18
ATOM     16  C   UNL A   1     -27.408   5.415  31.727  0.00  0.00    +0.050 C 
ATOM     17  C   UNL A   1     -26.718   7.594  35.318  0.00  0.00    +0.136 C 
ATOM     18  C   UNL A   1     -26.440   4.938  32.657  0.00  0.00    +0.156 C 
ATOM     19  C   UNL A   1     -28.282   6.476  32.026  0.00  0.00    +0.046 C 
ATOM     20  C   UNL A   1     -28.862   8.356  33.775  0.00  0.00    +0.135 C 
ATOM     21  N   UNL A   1     -27.014   6.789  34.087  0.00  0.00    -0.232 N 
ATOM     22  N   UNL A   1     -28.046   7.177  33.258  0.00  0.00    -0.239 N 
ATOM     23  C   UNL A   1     -26.267   5.645  33.871  0.00  0.00    +0.117 C 
ATOM     24  C   UNL A   1     -29.388   6.841  31.069  0.00  0.00    +0.049 C 
ENDBRANCH  15  18
ENDBRANCH  14  15
ENDBRANCH   1  14
BRANCH   1  25
ATOM     25  N   UNL A   1     -25.021   1.630  29.493  0.00  0.00    -0.198 NA
BRANCH  25  30
ATOM     26  C   UNL A   1     -22.035   1.668  27.200  0.00  0.00    +0.025 C 
ATOM     27  N   UNL A   1     -24.540   1.523  27.119  0.00  0.00    -0.293 N 
ATOM     28  C   UNL A   1     -23.254   1.764  26.209  0.00  0.00    +0.092 C 
ATOM     29  C   UNL A   1     -22.643   1.453  28.648  0.00  0.00    +0.040 C 
ATOM     30  C   UNL A   1     -24.165   1.593  28.454  0.00  0.00    +0.148 C 
BRANCH  27  31
ATOM     31  C   UNL A   1     -25.688   1.614  26.461  0.00  0.00    +0.087 C 
ATOM     32  C   UNL A   1     -26.250   2.920  26.395  0.00  0.00    +0.090 C 
ATOM     33  C   UNL A   1     -27.438   3.091  25.645  0.00  0.00    +0.108 C 
ATOM     34  N   UNL A   1     -28.075   2.089  25.003  0.00  0.00    -0.208 NA
ATOM     35  C   UNL A   1     -27.543   0.849  25.079  0.00  0.00    +0.255 C 
ATOM     36  C   UNL A   1     -26.354   0.576  25.777  0.00  0.00    +0.206 C 
ATOM     37  F   UNL A   1     -25.860  -0.681  25.795  0.00  0.00    -0.198 F 
BRANCH  32  38
ATOM     38  C   UNL A   1     -25.642   4.093  27.123  0.00  0.00    +0.268 C 
ATOM     39  N   UNL A   1     -25.614   5.252  26.449  0.00  0.00    -0.200 NA
ATOM     40  C   UNL A   1     -25.026   6.479  26.963  0.00  0.00    +0.139 C 
ATOM     41  O   UNL A   1     -25.143   3.966  28.243  0.00  0.00    -0.268 OA
ENDBRANCH  32  38
BRANCH  35  42
ATOM     42  O   UNL A   1     -28.193  -0.208  24.477  0.00  0.00    -0.456 OA
BRANCH  42  43
ATOM     43  C   UNL A   1     -29.460   0.005  23.866  0.00  0.00    +0.243 C 
BRANCH  43  44
ATOM     44  C   UNL A   1     -30.065  -1.377  23.573  0.00  0.00    +0.229 C 
ATOM     45  O   UNL A   1     -30.729  -1.878  24.721  0.00  0.00    -0.216 OA
ENDBRANCH  43  44
ENDBRANCH  42  43
ENDBRANCH  35  42
ENDBRANCH  27  31
ENDBRANCH  25  30
ENDBRANCH   1  25
TORSDOF 13
