REMARK  Name = outputs/IAG933/test6/raw/output_8641_IAG933_linker_design_.xyz
REMARK  13 active torsions:
REMARK  status: ('A' for Active; 'I' for Inactive)
REMARK    1  A    between atoms: C_1  and  C_2
REMARK    2  A    between atoms: C_1  and  C_8
REMARK    3  A    between atoms: C_9  and  N_38
REMARK    4  A    between atoms: C_13  and  C_28
REMARK    5  A    between atoms: C_14  and  C_15
REMARK    6  A    between atoms: C_21  and  O_22
REMARK    7  A    between atoms: O_22  and  C_23
REMARK    8  A    between atoms: C_23  and  C_24
REMARK    9  A    between atoms: C_28  and  C_34
REMARK   10  A    between atoms: C_28  and  N_36
REMARK   11  A    between atoms: C_33  and  C_41
REMARK   12  A    between atoms: C_34  and  C_44
REMARK   13  A    between atoms: N_38  and  C_41
REMARK                            x       y       z     vdW  Elec       q    Type
REMARK                         _______ _______ _______ _____ _____    ______ ____
ROOT
ATOM      1  O   UNL A   1     -23.525   2.148  30.100  0.00  0.00    -0.251 OA
ATOM      2  N   UNL A   1     -25.099   1.340  28.649  0.00  0.00    -0.185 NA
ATOM      3  N   UNL A   1     -25.559   1.646  30.917  0.00  0.00    -0.259 N 
ATOM      4  C   UNL A   1     -24.703   1.730  29.865  0.00  0.00    +0.324 C 
ENDROOT
BRANCH   3   6
ATOM      5  C   UNL A   1     -25.387  -0.679  31.571  0.00  0.00    +0.095 C 
ATOM      6  C   UNL A   1     -25.189   0.773  32.028  0.00  0.00    +0.095 C 
ATOM      7  C   UNL A   1     -25.336   0.684  33.544  0.00  0.00    +0.040 C 
ATOM      8  C   UNL A   1     -24.829  -0.715  33.905  0.00  0.00    +0.090 C 
ATOM      9  N   UNL A   1     -24.758  -1.481  32.646  0.00  0.00    -0.217 NA
BRANCH   5  10
ATOM     10  C   UNL A   1     -24.855  -1.012  30.143  0.00  0.00    +0.045 C 
BRANCH  10  11
ATOM     11  C   UNL A   1     -24.973  -2.505  29.788  0.00  0.00    -0.021 C 
ATOM     12  C   UNL A   1     -23.906  -3.173  29.146  0.00  0.00    -0.004 C 
ATOM     13  C   UNL A   1     -23.989  -4.549  28.853  0.00  0.00    -0.000 C 
ATOM     14  C   UNL A   1     -25.137  -5.280  29.205  0.00  0.00    -0.000 C 
ATOM     15  C   UNL A   1     -26.232  -4.611  29.784  0.00  0.00    -0.000 C 
ATOM     16  C   UNL A   1     -26.155  -3.232  30.065  0.00  0.00    -0.004 C 
ENDBRANCH  10  11
ENDBRANCH   5  10
ENDBRANCH   3   6
BRANCH   2  17
ATOM     17  C   UNL A   1     -24.511   1.255  27.314  0.00  0.00    +0.134 C 
BRANCH  17  18
ATOM     18  C   UNL A   1     -25.688   1.614  26.461  0.00  0.00    +0.036 C 
ATOM     19  C   UNL A   1     -26.250   2.920  26.395  0.00  0.00    +0.074 C 
ATOM     20  C   UNL A   1     -27.438   3.091  25.645  0.00  0.00    +0.106 C 
ATOM     21  N   UNL A   1     -28.075   2.089  25.003  0.00  0.00    -0.208 NA
ATOM     22  C   UNL A   1     -27.543   0.849  25.079  0.00  0.00    +0.253 C 
ATOM     23  C   UNL A   1     -26.354   0.576  25.777  0.00  0.00    +0.191 C 
ATOM     24  F   UNL A   1     -25.860  -0.681  25.795  0.00  0.00    -0.200 F 
BRANCH  19  25
ATOM     25  C   UNL A   1     -25.642   4.093  27.123  0.00  0.00    +0.266 C 
ATOM     26  N   UNL A   1     -25.614   5.252  26.449  0.00  0.00    -0.200 NA
ATOM     27  C   UNL A   1     -25.026   6.479  26.963  0.00  0.00    +0.139 C 
ATOM     28  O   UNL A   1     -25.143   3.966  28.243  0.00  0.00    -0.268 OA
ENDBRANCH  19  25
BRANCH  22  29
ATOM     29  O   UNL A   1     -28.193  -0.208  24.477  0.00  0.00    -0.456 OA
BRANCH  29  30
ATOM     30  C   UNL A   1     -29.460   0.005  23.866  0.00  0.00    +0.243 C 
BRANCH  30  31
ATOM     31  C   UNL A   1     -30.065  -1.377  23.573  0.00  0.00    +0.229 C 
ATOM     32  O   UNL A   1     -30.729  -1.878  24.721  0.00  0.00    -0.216 OA
ENDBRANCH  30  31
ENDBRANCH  29  30
ENDBRANCH  22  29
ENDBRANCH  17  18
BRANCH  17  33
ATOM     33  C   UNL A   1     -23.336   2.193  27.069  0.00  0.00    +0.089 C 
ATOM     34  C   UNL A   1     -23.066   2.605  25.592  0.00  0.00    +0.016 C 
BRANCH  33  36
ATOM     35  C   UNL A   1     -21.087   1.100  28.165  0.00  0.00    -0.014 C 
ATOM     36  C   UNL A   1     -22.102   1.581  27.603  0.00  0.00    -0.077 C 
ENDBRANCH  33  36
ENDBRANCH  17  33
ENDBRANCH   2  17
BRANCH   3  37
ATOM     37  C   UNL A   1     -26.797   2.432  31.151  0.00  0.00    +0.121 C 
BRANCH  37  40
ATOM     38  C   UNL A   1     -27.429   4.798  31.898  0.00  0.00    -0.024 C 
ATOM     39  C   UNL A   1     -25.363   3.847  32.671  0.00  0.00    -0.003 C 
ATOM     40  C   UNL A   1     -26.521   3.686  31.936  0.00  0.00    -0.006 C 
ATOM     41  C   UNL A   1     -28.142   5.022  30.596  0.00  0.00    +0.031 C 
ATOM     42  C   UNL A   1     -25.209   4.947  33.556  0.00  0.00    -0.000 C 
ATOM     43  C   UNL A   1     -26.253   5.901  33.700  0.00  0.00    -0.000 C 
ATOM     44  C   UNL A   1     -27.467   5.718  32.930  0.00  0.00    -0.004 C 
ENDBRANCH  37  40
ENDBRANCH   3  37
TORSDOF 13
