REMARK  Name = outputs/IAG933/test6/raw/output_8642_IAG933_linker_design_.xyz
REMARK  13 active torsions:
REMARK  status: ('A' for Active; 'I' for Inactive)
REMARK    1  A    between atoms: C_1  and  C_2
REMARK    2  A    between atoms: C_1  and  C_8
REMARK    3  A    between atoms: C_1  and  O_38
REMARK    4  A    between atoms: C_13  and  C_40
REMARK    5  A    between atoms: C_14  and  C_15
REMARK    6  A    between atoms: C_15  and  O_18
REMARK    7  A    between atoms: O_18  and  C_42
REMARK    8  A    between atoms: C_21  and  O_22
REMARK    9  A    between atoms: O_22  and  C_23
REMARK   10  A    between atoms: C_23  and  C_24
REMARK   11  A    between atoms: C_28  and  C_41
REMARK   12  A    between atoms: C_30  and  C_42
REMARK   13  A    between atoms: O_38  and  C_43
REMARK                            x       y       z     vdW  Elec       q    Type
REMARK                         _______ _______ _______ _____ _____    ______ ____
ROOT
ATOM      1  C   UNL A   1     -25.688   1.614  26.461  0.00  0.00    +0.037 C 
ATOM      2  C   UNL A   1     -26.250   2.920  26.395  0.00  0.00    +0.074 C 
ATOM      3  C   UNL A   1     -27.438   3.091  25.645  0.00  0.00    +0.107 C 
ATOM      4  N   UNL A   1     -28.075   2.089  25.003  0.00  0.00    -0.208 NA
ATOM      5  C   UNL A   1     -27.543   0.849  25.079  0.00  0.00    +0.253 C 
ATOM      6  C   UNL A   1     -26.354   0.576  25.777  0.00  0.00    +0.193 C 
ATOM      7  F   UNL A   1     -25.860  -0.681  25.795  0.00  0.00    -0.199 F 
ENDROOT
BRANCH   1  12
ATOM      8  F   UNL A   1     -20.820   2.148  27.471  0.00  0.00    -0.205 F 
ATOM      9  N   UNL A   1     -22.131   0.815  28.832  0.00  0.00    -0.203 NA
ATOM     10  O   UNL A   1     -25.738   0.391  28.704  0.00  0.00    -0.208 OA
ATOM     11  C   UNL A   1     -23.036   1.732  26.720  0.00  0.00    +0.033 C 
ATOM     12  C   UNL A   1     -24.407   1.431  27.172  0.00  0.00    +0.020 C 
ATOM     13  C   UNL A   1     -23.370   0.425  29.221  0.00  0.00    +0.234 C 
ATOM     14  C   UNL A   1     -24.573   0.936  28.521  0.00  0.00    +0.249 C 
ATOM     15  C   UNL A   1     -21.987   1.541  27.664  0.00  0.00    +0.288 C 
BRANCH  13  16
ATOM     16  O   UNL A   1     -23.556  -0.491  30.137  0.00  0.00    -0.459 OA
BRANCH  16  17
ATOM     17  C   UNL A   1     -24.855  -1.012  30.143  0.00  0.00    +0.205 C 
BRANCH  17  18
ATOM     18  C   UNL A   1     -24.973  -2.505  29.788  0.00  0.00    +0.019 C 
ATOM     19  C   UNL A   1     -23.906  -3.173  29.146  0.00  0.00    -0.001 C 
ATOM     20  C   UNL A   1     -23.989  -4.549  28.853  0.00  0.00    -0.000 C 
ATOM     21  C   UNL A   1     -25.137  -5.280  29.205  0.00  0.00    -0.000 C 
ATOM     22  C   UNL A   1     -26.232  -4.611  29.784  0.00  0.00    -0.000 C 
ATOM     23  C   UNL A   1     -26.155  -3.232  30.065  0.00  0.00    -0.001 C 
ENDBRANCH  17  18
BRANCH  17  24
ATOM     24  C   UNL A   1     -25.387  -0.679  31.571  0.00  0.00    +0.117 C 
ATOM     25  C   UNL A   1     -25.189   0.773  32.028  0.00  0.00    +0.023 C 
ATOM     26  C   UNL A   1     -25.336   0.684  33.544  0.00  0.00    +0.020 C 
ATOM     27  C   UNL A   1     -24.829  -0.715  33.905  0.00  0.00    +0.089 C 
ATOM     28  N   UNL A   1     -24.758  -1.481  32.646  0.00  0.00    -0.215 NA
ENDBRANCH  17  24
ENDBRANCH  16  17
ENDBRANCH  13  16
ENDBRANCH   1  12
BRANCH   2  29
ATOM     29  C   UNL A   1     -25.642   4.093  27.123  0.00  0.00    +0.222 C 
ATOM     30  N   UNL A   1     -25.614   5.252  26.449  0.00  0.00    -0.236 NA
ATOM     31  C   UNL A   1     -25.026   6.479  26.963  0.00  0.00    +0.155 C 
BRANCH  29  32
ATOM     32  O   UNL A   1     -25.143   3.966  28.243  0.00  0.00    -0.455 OA
BRANCH  32  33
ATOM     33  C   UNL A   1     -25.494   3.958  29.663  0.00  0.00    +0.234 C 
BRANCH  33  36
ATOM     34  C   UNL A   1     -27.530   4.848  31.050  0.00  0.00    +0.010 C 
ATOM     35  C   UNL A   1     -28.098   5.870  31.875  0.00  0.00    -0.002 C 
ATOM     36  C   UNL A   1     -26.174   4.968  30.609  0.00  0.00    +0.020 C 
ATOM     37  C   UNL A   1     -27.343   7.012  32.221  0.00  0.00    -0.000 C 
ATOM     38  C   UNL A   1     -26.012   7.119  31.813  0.00  0.00    -0.000 C 
ATOM     39  C   UNL A   1     -25.412   6.101  31.007  0.00  0.00    -0.001 C 
BRANCH  34  41
ATOM     40  O   UNL A   1     -27.735   3.697  29.041  0.00  0.00    -0.215 OA
ATOM     41  C   UNL A   1     -28.326   3.815  30.313  0.00  0.00    +0.208 C 
ENDBRANCH  34  41
ENDBRANCH  33  36
ENDBRANCH  32  33
ENDBRANCH  29  32
ENDBRANCH   2  29
BRANCH   5  42
ATOM     42  O   UNL A   1     -28.193  -0.208  24.477  0.00  0.00    -0.456 OA
BRANCH  42  43
ATOM     43  C   UNL A   1     -29.460   0.005  23.866  0.00  0.00    +0.243 C 
BRANCH  43  44
ATOM     44  C   UNL A   1     -30.065  -1.377  23.573  0.00  0.00    +0.229 C 
ATOM     45  O   UNL A   1     -30.729  -1.878  24.721  0.00  0.00    -0.216 OA
ENDBRANCH  43  44
ENDBRANCH  42  43
ENDBRANCH   5  42
TORSDOF 13
