REMARK  Name = outputs/IAG933/test6/raw/output_865_IAG933_linker_design_.xyz
REMARK  18 active torsions:
REMARK  status: ('A' for Active; 'I' for Inactive)
REMARK    1  A    between atoms: C_1  and  C_2
REMARK    2  A    between atoms: C_1  and  C_8
REMARK    3  A    between atoms: C_1  and  C_32
REMARK    4  A    between atoms: C_13  and  C_37
REMARK    5  A    between atoms: C_14  and  C_15
REMARK    6  A    between atoms: C_21  and  O_22
REMARK    7  A    between atoms: O_22  and  C_23
REMARK    8  A    between atoms: C_23  and  C_24
REMARK    9  A    between atoms: N_28  and  C_44
REMARK   10  A    between atoms: N_28  and  C_45
REMARK   11  A    between atoms: C_29  and  C_39
REMARK   12  A    between atoms: C_30  and  C_34
REMARK   13  A    between atoms: C_30  and  C_36
REMARK   14  A    between atoms: O_31  and  C_34
REMARK   15  A    between atoms: C_32  and  C_36
REMARK   16  A    between atoms: C_33  and  C_39
REMARK   17  A    between atoms: C_39  and  C_46
REMARK   18  A    between atoms: C_44  and  C_46
REMARK                            x       y       z     vdW  Elec       q    Type
REMARK                         _______ _______ _______ _____ _____    ______ ____
ROOT
ATOM      1  C   UNL A   1     -25.109   0.031  29.072  0.00  0.00    +0.024 C 
ATOM      2  C   UNL A   1     -25.006   1.049  27.742  0.00  0.00    +0.025 C 
ATOM      3  C   UNL A   1     -26.113   0.701  28.679  0.00  0.00    +0.074 C 
ENDROOT
BRANCH   2   4
ATOM      4  C   UNL A   1     -25.688   1.614  26.461  0.00  0.00    +0.071 C 
ATOM      5  C   UNL A   1     -26.250   2.920  26.395  0.00  0.00    +0.055 C 
ATOM      6  C   UNL A   1     -27.438   3.091  25.645  0.00  0.00    +0.102 C 
ATOM      7  N   UNL A   1     -28.075   2.089  25.003  0.00  0.00    -0.212 NA
ATOM      8  C   UNL A   1     -27.543   0.849  25.079  0.00  0.00    +0.234 C 
ATOM      9  C   UNL A   1     -26.354   0.576  25.777  0.00  0.00    +0.240 C 
ATOM     10  F   UNL A   1     -25.860  -0.681  25.795  0.00  0.00    -0.227 F 
BRANCH   5  11
ATOM     11  C   UNL A   1     -25.642   4.093  27.123  0.00  0.00    +0.262 C 
ATOM     12  N   UNL A   1     -25.614   5.252  26.449  0.00  0.00    -0.200 NA
ATOM     13  C   UNL A   1     -25.026   6.479  26.963  0.00  0.00    +0.139 C 
ATOM     14  O   UNL A   1     -25.143   3.966  28.243  0.00  0.00    -0.269 OA
ENDBRANCH   5  11
BRANCH   8  15
ATOM     15  O   UNL A   1     -28.193  -0.208  24.477  0.00  0.00    -0.459 OA
BRANCH  15  16
ATOM     16  C   UNL A   1     -29.460   0.005  23.866  0.00  0.00    +0.242 C 
BRANCH  16  17
ATOM     17  C   UNL A   1     -30.065  -1.377  23.573  0.00  0.00    +0.229 C 
ATOM     18  O   UNL A   1     -30.729  -1.878  24.721  0.00  0.00    -0.216 OA
ENDBRANCH  16  17
ENDBRANCH  15  16
ENDBRANCH   8  15
ENDBRANCH   2   4
BRANCH   3  19
ATOM     19  N   UNL A   1     -27.462   1.356  28.521  0.00  0.00    -0.219 NA
BRANCH  19  20
ATOM     20  C   UNL A   1     -28.172   2.206  29.274  0.00  0.00    +0.089 C 
BRANCH  20  21
ATOM     21  C   UNL A   1     -29.149   1.529  30.242  0.00  0.00    +0.030 C 
BRANCH  21  22
ATOM     22  C   UNL A   1     -30.384   1.119  29.391  0.00  0.00    +0.105 C 
BRANCH  22  23
ATOM     23  C   UNL A   1     -30.047   0.137  28.307  0.00  0.00    +0.364 C 
ATOM     24  O   UNL A   1     -30.587   0.215  27.194  0.00  0.00    -0.246 OA
ATOM     25  O   UNL A   1     -29.284  -0.737  28.562  0.00  0.00    -0.246 OA
ENDBRANCH  22  23
BRANCH  22  26
ATOM     26  C   UNL A   1     -31.688   0.493  29.957  0.00  0.00    +0.011 C 
ATOM     27  C   UNL A   1     -32.696   1.284  29.105  0.00  0.00    +0.001 C 
ENDBRANCH  22  26
ENDBRANCH  21  22
ENDBRANCH  20  21
ENDBRANCH  19  20
ENDBRANCH   3  19
BRANCH   1  28
ATOM     28  C   UNL A   1     -24.855  -1.012  30.143  0.00  0.00    +0.040 C 
BRANCH  28  29
ATOM     29  C   UNL A   1     -24.973  -2.505  29.788  0.00  0.00    -0.021 C 
ATOM     30  C   UNL A   1     -23.906  -3.173  29.146  0.00  0.00    -0.004 C 
ATOM     31  C   UNL A   1     -23.989  -4.549  28.853  0.00  0.00    -0.000 C 
ATOM     32  C   UNL A   1     -25.137  -5.280  29.205  0.00  0.00    -0.000 C 
ATOM     33  C   UNL A   1     -26.232  -4.611  29.784  0.00  0.00    -0.000 C 
ATOM     34  C   UNL A   1     -26.155  -3.232  30.065  0.00  0.00    -0.004 C 
ENDBRANCH  28  29
BRANCH  28  35
ATOM     35  C   UNL A   1     -25.387  -0.679  31.571  0.00  0.00    +0.077 C 
ATOM     36  C   UNL A   1     -25.189   0.773  32.028  0.00  0.00    +0.019 C 
ATOM     37  C   UNL A   1     -25.336   0.684  33.544  0.00  0.00    +0.020 C 
ATOM     38  C   UNL A   1     -24.829  -0.715  33.905  0.00  0.00    +0.089 C 
ATOM     39  N   UNL A   1     -24.758  -1.481  32.646  0.00  0.00    -0.219 NA
ENDBRANCH  28  35
ENDBRANCH   1  28
BRANCH   1  40
ATOM     40  C   UNL A   1     -23.875   0.825  28.960  0.00  0.00    +0.043 C 
BRANCH  40  41
ATOM     41  C   UNL A   1     -22.741   0.821  28.610  0.00  0.00    +0.222 C 
ATOM     42  F   UNL A   1     -22.384   0.381  29.372  0.00  0.00    -0.232 F 
BRANCH  41  43
ATOM     43  C   UNL A   1     -22.012   1.242  27.337  0.00  0.00    +0.311 C 
ATOM     44  F   UNL A   1     -20.912   1.821  27.365  0.00  0.00    -0.201 F 
BRANCH  43  45
ATOM     45  O   UNL A   1     -22.921   1.201  26.121  0.00  0.00    -0.322 OA
ATOM     46  C   UNL A   1     -22.654   2.164  25.148  0.00  0.00    +0.177 C 
ENDBRANCH  43  45
ENDBRANCH  41  43
ENDBRANCH  40  41
ENDBRANCH   1  40
TORSDOF 18
