REMARK  Name = outputs/IAG933/test6/raw/output_8650_IAG933_linker_design_.xyz
REMARK  13 active torsions:
REMARK  status: ('A' for Active; 'I' for Inactive)
REMARK    1  A    between atoms: C_1  and  C_2
REMARK    2  A    between atoms: C_1  and  C_8
REMARK    3  A    between atoms: C_1  and  C_49
REMARK    4  A    between atoms: C_13  and  C_41
REMARK    5  A    between atoms: C_14  and  C_15
REMARK    6  A    between atoms: C_21  and  O_22
REMARK    7  A    between atoms: O_22  and  C_23
REMARK    8  A    between atoms: C_23  and  C_24
REMARK    9  A    between atoms: O_30  and  C_46
REMARK   10  A    between atoms: C_31  and  C_40
REMARK   11  A    between atoms: C_31  and  C_49
REMARK   12  A    between atoms: C_35  and  C_40
REMARK   13  A    between atoms: C_36  and  C_49
REMARK                            x       y       z     vdW  Elec       q    Type
REMARK                         _______ _______ _______ _____ _____    ______ ____
ROOT
ATOM      1  C   UNL A   1     -25.443  -0.203  29.040  0.00  0.00    +0.037 C 
ENDROOT
BRANCH   1   3
ATOM      2  O   UNL A   1     -22.682   2.244  25.726  0.00  0.00    -0.286 OA
ATOM      3  C   UNL A   1     -24.430   0.515  28.277  0.00  0.00    +0.144 C 
ATOM      4  C   UNL A   1     -23.161   1.705  26.821  0.00  0.00    +0.233 C 
ATOM      5  C   UNL A   1     -24.486   1.282  27.166  0.00  0.00    +0.047 C 
ATOM      6  O   UNL A   1     -23.103   0.232  28.674  0.00  0.00    -0.319 OA
ATOM      7  C   UNL A   1     -22.302   1.322  27.816  0.00  0.00    +0.341 C 
ATOM      8  F   UNL A   1     -20.982   1.615  27.581  0.00  0.00    -0.195 F 
BRANCH   5   9
ATOM      9  C   UNL A   1     -25.688   1.614  26.461  0.00  0.00    +0.039 C 
ATOM     10  C   UNL A   1     -26.250   2.920  26.395  0.00  0.00    +0.076 C 
ATOM     11  C   UNL A   1     -27.438   3.091  25.645  0.00  0.00    +0.107 C 
ATOM     12  N   UNL A   1     -28.075   2.089  25.003  0.00  0.00    -0.208 NA
ATOM     13  C   UNL A   1     -27.543   0.849  25.079  0.00  0.00    +0.253 C 
ATOM     14  C   UNL A   1     -26.354   0.576  25.777  0.00  0.00    +0.193 C 
ATOM     15  F   UNL A   1     -25.860  -0.681  25.795  0.00  0.00    -0.199 F 
BRANCH  10  16
ATOM     16  C   UNL A   1     -25.642   4.093  27.123  0.00  0.00    +0.266 C 
ATOM     17  N   UNL A   1     -25.614   5.252  26.449  0.00  0.00    -0.200 NA
ATOM     18  C   UNL A   1     -25.026   6.479  26.963  0.00  0.00    +0.139 C 
ATOM     19  O   UNL A   1     -25.143   3.966  28.243  0.00  0.00    -0.268 OA
ENDBRANCH  10  16
BRANCH  13  20
ATOM     20  O   UNL A   1     -28.193  -0.208  24.477  0.00  0.00    -0.456 OA
BRANCH  20  21
ATOM     21  C   UNL A   1     -29.460   0.005  23.866  0.00  0.00    +0.243 C 
BRANCH  21  22
ATOM     22  C   UNL A   1     -30.065  -1.377  23.573  0.00  0.00    +0.229 C 
ATOM     23  O   UNL A   1     -30.729  -1.878  24.721  0.00  0.00    -0.216 OA
ENDBRANCH  21  22
ENDBRANCH  20  21
ENDBRANCH  13  20
ENDBRANCH   5   9
ENDBRANCH   1   3
BRANCH   1  24
ATOM     24  C   UNL A   1     -24.855  -1.012  30.143  0.00  0.00    +0.041 C 
BRANCH  24  25
ATOM     25  C   UNL A   1     -24.973  -2.505  29.788  0.00  0.00    -0.021 C 
ATOM     26  C   UNL A   1     -23.906  -3.173  29.146  0.00  0.00    -0.004 C 
ATOM     27  C   UNL A   1     -23.989  -4.549  28.853  0.00  0.00    -0.000 C 
ATOM     28  C   UNL A   1     -25.137  -5.280  29.205  0.00  0.00    -0.000 C 
ATOM     29  C   UNL A   1     -26.232  -4.611  29.784  0.00  0.00    -0.000 C 
ATOM     30  C   UNL A   1     -26.155  -3.232  30.065  0.00  0.00    -0.004 C 
ENDBRANCH  24  25
BRANCH  24  31
ATOM     31  C   UNL A   1     -25.387  -0.679  31.571  0.00  0.00    +0.077 C 
ATOM     32  C   UNL A   1     -25.189   0.773  32.028  0.00  0.00    +0.019 C 
ATOM     33  C   UNL A   1     -25.336   0.684  33.544  0.00  0.00    +0.020 C 
ATOM     34  C   UNL A   1     -24.829  -0.715  33.905  0.00  0.00    +0.089 C 
ATOM     35  N   UNL A   1     -24.758  -1.481  32.646  0.00  0.00    -0.219 NA
ENDBRANCH  24  31
ENDBRANCH   1  24
BRANCH   1  36
ATOM     36  C   UNL A   1     -26.802   0.304  29.204  0.00  0.00    +0.008 C 
BRANCH  36  37
ATOM     37  C   UNL A   1     -28.033  -0.603  29.328  0.00  0.00    +0.028 C 
BRANCH  37  42
ATOM     38  C   UNL A   1     -30.544   2.390  31.938  0.00  0.00    +0.144 C 
ATOM     39  N   UNL A   1     -29.897   1.495  32.669  0.00  0.00    -0.106 NA
ATOM     40  N   UNL A   1     -28.999   0.872  31.823  0.00  0.00    -0.148 NA
ATOM     41  C   UNL A   1     -30.271   1.722  27.686  0.00  0.00    -0.018 C 
ATOM     42  C   UNL A   1     -29.145   0.373  29.376  0.00  0.00    -0.006 C 
ATOM     43  C   UNL A   1     -29.727   0.568  28.159  0.00  0.00    -0.007 C 
ATOM     44  C   UNL A   1     -30.125   2.298  30.666  0.00  0.00    +0.043 C 
ATOM     45  C   UNL A   1     -29.410   1.130  30.548  0.00  0.00    +0.081 C 
ATOM     46  C   UNL A   1     -30.422   2.932  28.353  0.00  0.00    +0.090 C 
ATOM     47  C   UNL A   1     -30.421   3.238  29.666  0.00  0.00    +0.119 C 
BRANCH  47  48
ATOM     48  O   UNL A   1     -30.765   4.525  29.935  0.00  0.00    -0.476 OA
ATOM     49  C   UNL A   1     -32.002   4.731  30.556  0.00  0.00    +0.252 C 
ENDBRANCH  47  48
ENDBRANCH  37  42
ENDBRANCH  36  37
ENDBRANCH   1  36
TORSDOF 13
