REMARK  Name = outputs/IAG933/test6/raw/output_866_IAG933_linker_design_.xyz
REMARK  11 active torsions:
REMARK  status: ('A' for Active; 'I' for Inactive)
REMARK    1  A    between atoms: C_1  and  C_2
REMARK    2  A    between atoms: C_1  and  C_8
REMARK    3  A    between atoms: C_9  and  C_35
REMARK    4  A    between atoms: C_13  and  C_43
REMARK    5  A    between atoms: C_14  and  C_15
REMARK    6  A    between atoms: C_21  and  O_22
REMARK    7  A    between atoms: O_22  and  C_23
REMARK    8  A    between atoms: C_23  and  C_24
REMARK    9  A    between atoms: N_32  and  C_35
REMARK   10  A    between atoms: C_33  and  C_36
REMARK   11  A    between atoms: C_35  and  C_36
REMARK                            x       y       z     vdW  Elec       q    Type
REMARK                         _______ _______ _______ _____ _____    ______ ____
ROOT
ATOM      1  C   UNL A   1     -21.351   0.369  28.548  0.00  0.00    +0.171 C 
ATOM      2  C   UNL A   1     -23.416   2.144  26.132  0.00  0.00    +0.145 C 
ATOM      3  O   UNL A   1     -22.138   0.342  29.702  0.00  0.00    -0.403 OA
ATOM      4  N   UNL A   1     -23.407   0.986  29.463  0.00  0.00    -0.121 NA
ATOM      5  C   UNL A   1     -20.211  -0.137  28.417  0.00  0.00    +0.040 C 
ATOM      6  C   UNL A   1     -23.442   1.204  28.025  0.00  0.00    +0.133 C 
ATOM      7  C   UNL A   1     -22.114   1.097  27.521  0.00  0.00    +0.192 C 
ATOM      8  C   UNL A   1     -24.296   1.528  26.926  0.00  0.00    +0.058 C 
ATOM      9  O   UNL A   1     -22.004   1.868  26.312  0.00  0.00    -0.347 OA
ENDROOT
BRANCH   8  10
ATOM     10  C   UNL A   1     -25.688   1.614  26.461  0.00  0.00    +0.074 C 
ATOM     11  C   UNL A   1     -26.250   2.920  26.395  0.00  0.00    +0.055 C 
ATOM     12  C   UNL A   1     -27.438   3.091  25.645  0.00  0.00    +0.102 C 
ATOM     13  N   UNL A   1     -28.075   2.089  25.003  0.00  0.00    -0.212 NA
ATOM     14  C   UNL A   1     -27.543   0.849  25.079  0.00  0.00    +0.234 C 
ATOM     15  C   UNL A   1     -26.354   0.576  25.777  0.00  0.00    +0.240 C 
ATOM     16  F   UNL A   1     -25.860  -0.681  25.795  0.00  0.00    -0.227 F 
BRANCH  11  17
ATOM     17  C   UNL A   1     -25.642   4.093  27.123  0.00  0.00    +0.262 C 
ATOM     18  N   UNL A   1     -25.614   5.252  26.449  0.00  0.00    -0.200 NA
ATOM     19  C   UNL A   1     -25.026   6.479  26.963  0.00  0.00    +0.139 C 
ATOM     20  O   UNL A   1     -25.143   3.966  28.243  0.00  0.00    -0.269 OA
ENDBRANCH  11  17
BRANCH  14  21
ATOM     21  O   UNL A   1     -28.193  -0.208  24.477  0.00  0.00    -0.459 OA
BRANCH  21  22
ATOM     22  C   UNL A   1     -29.460   0.005  23.866  0.00  0.00    +0.242 C 
BRANCH  22  23
ATOM     23  C   UNL A   1     -30.065  -1.377  23.573  0.00  0.00    +0.229 C 
ATOM     24  O   UNL A   1     -30.729  -1.878  24.721  0.00  0.00    -0.216 OA
ENDBRANCH  22  23
ENDBRANCH  21  22
ENDBRANCH  14  21
ENDBRANCH   8  10
BRANCH   4  25
ATOM     25  C   UNL A   1     -24.197   1.398  30.777  0.00  0.00    +0.099 C 
BRANCH  25  27
ATOM     26  C   UNL A   1     -25.387  -0.679  31.571  0.00  0.00    +0.079 C 
ATOM     27  C   UNL A   1     -25.189   0.773  32.028  0.00  0.00    +0.036 C 
ATOM     28  C   UNL A   1     -25.336   0.684  33.544  0.00  0.00    +0.022 C 
ATOM     29  C   UNL A   1     -24.829  -0.715  33.905  0.00  0.00    +0.089 C 
ATOM     30  N   UNL A   1     -24.758  -1.481  32.646  0.00  0.00    -0.219 NA
BRANCH  26  31
ATOM     31  C   UNL A   1     -24.855  -1.012  30.143  0.00  0.00    +0.044 C 
BRANCH  31  32
ATOM     32  C   UNL A   1     -24.973  -2.505  29.788  0.00  0.00    -0.021 C 
ATOM     33  C   UNL A   1     -23.906  -3.173  29.146  0.00  0.00    -0.004 C 
ATOM     34  C   UNL A   1     -23.989  -4.549  28.853  0.00  0.00    -0.000 C 
ATOM     35  C   UNL A   1     -25.137  -5.280  29.205  0.00  0.00    -0.000 C 
ATOM     36  C   UNL A   1     -26.232  -4.611  29.784  0.00  0.00    -0.000 C 
ATOM     37  C   UNL A   1     -26.155  -3.232  30.065  0.00  0.00    -0.004 C 
ENDBRANCH  31  32
ENDBRANCH  26  31
ENDBRANCH  25  27
BRANCH  25  38
ATOM     38  C   UNL A   1     -23.999   2.877  31.377  0.00  0.00    +0.049 C 
BRANCH  38  40
ATOM     39  O   UNL A   1     -26.805   5.360  31.548  0.00  0.00    -0.327 OA
ATOM     40  C   UNL A   1     -24.935   3.449  31.843  0.00  0.00    +0.122 C 
ATOM     41  C   UNL A   1     -25.667   5.791  32.260  0.00  0.00    +0.147 C 
ATOM     42  C   UNL A   1     -24.733   4.672  32.687  0.00  0.00    +0.062 C 
ATOM     43  O   UNL A   1     -26.232   3.236  31.585  0.00  0.00    -0.329 OA
ATOM     44  C   UNL A   1     -26.811   4.227  30.729  0.00  0.00    +0.294 C 
ENDBRANCH  38  40
ENDBRANCH  25  38
ENDBRANCH   4  25
TORSDOF 11
