REMARK  Name = outputs/IAG933/test6/raw/output_8662_IAG933_linker_design_.xyz
REMARK  14 active torsions:
REMARK  status: ('A' for Active; 'I' for Inactive)
REMARK    1  A    between atoms: C_1  and  C_2
REMARK    2  A    between atoms: C_1  and  C_8
REMARK    3  A    between atoms: C_1  and  C_31
REMARK    4  A    between atoms: C_9  and  C_35
REMARK    5  A    between atoms: C_13  and  C_28
REMARK    6  A    between atoms: C_14  and  C_15
REMARK    7  A    between atoms: C_21  and  O_22
REMARK    8  A    between atoms: O_22  and  C_23
REMARK    9  A    between atoms: C_23  and  C_24
REMARK   10  A    between atoms: C_28  and  N_42
REMARK   11  A    between atoms: C_29  and  C_34
REMARK   12  A    between atoms: C_33  and  O_38
REMARK   13  A    between atoms: C_34  and  C_44
REMARK   14  A    between atoms: C_35  and  C_44
REMARK                            x       y       z     vdW  Elec       q    Type
REMARK                         _______ _______ _______ _____ _____    ______ ____
ROOT
ATOM      1  N   UNL A   1     -24.648   0.207  28.238  0.00  0.00    -0.150 NA
ATOM      2  C   UNL A   1     -24.080  -0.192  29.316  0.00  0.00    +0.169 A 
ATOM      3  N   UNL A   1     -22.818   0.165  29.527  0.00  0.00    -0.175 NA
ATOM      4  C   UNL A   1     -22.576   0.967  28.456  0.00  0.00    +0.357 A 
ATOM      5  N   UNL A   1     -23.806   0.931  27.819  0.00  0.00    -0.200 N 
ENDROOT
BRANCH   4   6
ATOM      6  O   UNL A   1     -21.413   1.519  28.012  0.00  0.00    -0.262 OA
ATOM      7  O   UNL A   1     -21.206   1.993  26.799  0.00  0.00    +0.032 OA
ENDBRANCH   4   6
BRANCH   2   8
ATOM      8  C   UNL A   1     -24.855  -1.012  30.143  0.00  0.00    +0.099 C 
BRANCH   8   9
ATOM      9  C   UNL A   1     -24.973  -2.505  29.788  0.00  0.00    -0.014 C 
ATOM     10  C   UNL A   1     -23.906  -3.173  29.146  0.00  0.00    -0.004 C 
ATOM     11  C   UNL A   1     -23.989  -4.549  28.853  0.00  0.00    -0.000 C 
ATOM     12  C   UNL A   1     -25.137  -5.280  29.205  0.00  0.00    -0.000 C 
ATOM     13  C   UNL A   1     -26.232  -4.611  29.784  0.00  0.00    -0.000 C 
ATOM     14  C   UNL A   1     -26.155  -3.232  30.065  0.00  0.00    -0.004 C 
ENDBRANCH   8   9
BRANCH   8  15
ATOM     15  C   UNL A   1     -25.387  -0.679  31.571  0.00  0.00    +0.085 C 
ATOM     16  C   UNL A   1     -25.189   0.773  32.028  0.00  0.00    +0.036 C 
ATOM     17  C   UNL A   1     -25.336   0.684  33.544  0.00  0.00    +0.022 C 
ATOM     18  C   UNL A   1     -24.829  -0.715  33.905  0.00  0.00    +0.089 C 
ATOM     19  N   UNL A   1     -24.758  -1.481  32.646  0.00  0.00    -0.219 NA
BRANCH  16  20
ATOM     20  C   UNL A   1     -25.826   2.091  31.869  0.00  0.00    +0.101 C 
ATOM     21  N   UNL A   1     -27.191   2.124  31.531  0.00  0.00    -0.132 NA
BRANCH  20  22
ATOM     22  C   UNL A   1     -25.112   3.347  32.074  0.00  0.00    +0.086 C 
BRANCH  22  23
ATOM     23  C   UNL A   1     -25.938   4.452  31.636  0.00  0.00    +0.179 C 
ATOM     24  O   UNL A   1     -26.122   4.827  30.475  0.00  0.00    -0.293 OA
BRANCH  23  25
ATOM     25  C   UNL A   1     -26.348   5.482  32.754  0.00  0.00    +0.177 C 
ATOM     26  C   UNL A   1     -27.665   6.075  32.476  0.00  0.00    +0.041 C 
ATOM     27  C   UNL A   1     -25.215   6.467  32.811  0.00  0.00    +0.041 C 
ATOM     28  O   UNL A   1     -26.444   4.748  33.955  0.00  0.00    -0.218 OA
ENDBRANCH  23  25
ENDBRANCH  22  23
ENDBRANCH  20  22
ENDBRANCH  16  20
ENDBRANCH   8  15
ENDBRANCH   2   8
BRANCH   5  29
ATOM     29  C   UNL A   1     -24.218   1.675  26.518  0.00  0.00    +0.140 C 
BRANCH  29  30
ATOM     30  C   UNL A   1     -25.688   1.614  26.461  0.00  0.00    +0.095 C 
ATOM     31  C   UNL A   1     -26.250   2.920  26.395  0.00  0.00    +0.057 C 
ATOM     32  C   UNL A   1     -27.438   3.091  25.645  0.00  0.00    +0.102 C 
ATOM     33  N   UNL A   1     -28.075   2.089  25.003  0.00  0.00    -0.212 NA
ATOM     34  C   UNL A   1     -27.543   0.849  25.079  0.00  0.00    +0.234 C 
ATOM     35  C   UNL A   1     -26.354   0.576  25.777  0.00  0.00    +0.242 C 
ATOM     36  F   UNL A   1     -25.860  -0.681  25.795  0.00  0.00    -0.227 F 
BRANCH  31  37
ATOM     37  C   UNL A   1     -25.642   4.093  27.123  0.00  0.00    +0.263 C 
ATOM     38  N   UNL A   1     -25.614   5.252  26.449  0.00  0.00    -0.200 NA
ATOM     39  C   UNL A   1     -25.026   6.479  26.963  0.00  0.00    +0.139 C 
ATOM     40  O   UNL A   1     -25.143   3.966  28.243  0.00  0.00    -0.269 OA
ENDBRANCH  31  37
BRANCH  34  41
ATOM     41  O   UNL A   1     -28.193  -0.208  24.477  0.00  0.00    -0.459 OA
BRANCH  41  42
ATOM     42  C   UNL A   1     -29.460   0.005  23.866  0.00  0.00    +0.242 C 
BRANCH  42  43
ATOM     43  C   UNL A   1     -30.065  -1.377  23.573  0.00  0.00    +0.229 C 
ATOM     44  O   UNL A   1     -30.729  -1.878  24.721  0.00  0.00    -0.216 OA
ENDBRANCH  42  43
ENDBRANCH  41  42
ENDBRANCH  34  41
ENDBRANCH  29  30
ENDBRANCH   5  29
TORSDOF 14
