REMARK  Name = outputs/IAG933/test6/raw/output_8665_IAG933_linker_design_.xyz
REMARK  13 active torsions:
REMARK  status: ('A' for Active; 'I' for Inactive)
REMARK    1  A    between atoms: C_1  and  C_2
REMARK    2  A    between atoms: C_1  and  C_8
REMARK    3  A    between atoms: C_1  and  O_32
REMARK    4  A    between atoms: C_13  and  C_35
REMARK    5  A    between atoms: C_14  and  C_15
REMARK    6  A    between atoms: C_21  and  O_22
REMARK    7  A    between atoms: O_22  and  C_23
REMARK    8  A    between atoms: C_23  and  C_24
REMARK    9  A    between atoms: C_28  and  C_37
REMARK   10  A    between atoms: O_32  and  C_36
REMARK   11  A    between atoms: C_33  and  C_35
REMARK   12  A    between atoms: C_34  and  C_36
REMARK   13  A    between atoms: C_34  and  C_37
REMARK                            x       y       z     vdW  Elec       q    Type
REMARK                         _______ _______ _______ _____ _____    ______ ____
ROOT
ATOM      1  C   UNL A   1     -22.251   0.696  28.168  0.00  0.00    +0.005 C 
ATOM      2  C   UNL A   1     -20.910   1.281  27.592  0.00  0.00    +0.000 C 
ATOM      3  C   UNL A   1     -23.566   1.430  28.013  0.00  0.00    +0.035 C 
ATOM      4  C   UNL A   1     -24.048   1.244  29.601  0.00  0.00    +0.094 C 
ATOM      5  C   UNL A   1     -22.622   0.659  29.507  0.00  0.00    +0.028 C 
ENDROOT
BRANCH   3   6
ATOM      6  C   UNL A   1     -24.241   1.315  26.865  0.00  0.00    +0.068 C 
ATOM      7  S   UNL A   1     -23.074   1.831  25.532  0.00  0.00    -0.083 S 
BRANCH   6   8
ATOM      8  C   UNL A   1     -25.688   1.614  26.461  0.00  0.00    +0.081 C 
ATOM      9  C   UNL A   1     -26.250   2.920  26.395  0.00  0.00    +0.056 C 
ATOM     10  C   UNL A   1     -27.438   3.091  25.645  0.00  0.00    +0.102 C 
ATOM     11  N   UNL A   1     -28.075   2.089  25.003  0.00  0.00    -0.212 NA
ATOM     12  C   UNL A   1     -27.543   0.849  25.079  0.00  0.00    +0.234 C 
ATOM     13  C   UNL A   1     -26.354   0.576  25.777  0.00  0.00    +0.241 C 
ATOM     14  F   UNL A   1     -25.860  -0.681  25.795  0.00  0.00    -0.227 F 
BRANCH   9  15
ATOM     15  C   UNL A   1     -25.642   4.093  27.123  0.00  0.00    +0.263 C 
ATOM     16  N   UNL A   1     -25.614   5.252  26.449  0.00  0.00    -0.200 NA
ATOM     17  C   UNL A   1     -25.026   6.479  26.963  0.00  0.00    +0.139 C 
ATOM     18  O   UNL A   1     -25.143   3.966  28.243  0.00  0.00    -0.269 OA
ENDBRANCH   9  15
BRANCH  12  19
ATOM     19  O   UNL A   1     -28.193  -0.208  24.477  0.00  0.00    -0.459 OA
BRANCH  19  20
ATOM     20  C   UNL A   1     -29.460   0.005  23.866  0.00  0.00    +0.242 C 
BRANCH  20  21
ATOM     21  C   UNL A   1     -30.065  -1.377  23.573  0.00  0.00    +0.229 C 
ATOM     22  O   UNL A   1     -30.729  -1.878  24.721  0.00  0.00    -0.216 OA
ENDBRANCH  20  21
ENDBRANCH  19  20
ENDBRANCH  12  19
ENDBRANCH   6   8
ENDBRANCH   3   6
BRANCH   4  23
ATOM     23  O   UNL A   1     -24.989   0.025  29.205  0.00  0.00    -0.355 OA
BRANCH  23  24
ATOM     24  C   UNL A   1     -24.855  -1.012  30.143  0.00  0.00    +0.153 C 
BRANCH  24  25
ATOM     25  C   UNL A   1     -24.973  -2.505  29.788  0.00  0.00    +0.006 C 
ATOM     26  C   UNL A   1     -23.906  -3.173  29.146  0.00  0.00    -0.002 C 
ATOM     27  C   UNL A   1     -23.989  -4.549  28.853  0.00  0.00    -0.000 C 
ATOM     28  C   UNL A   1     -25.137  -5.280  29.205  0.00  0.00    -0.000 C 
ATOM     29  C   UNL A   1     -26.232  -4.611  29.784  0.00  0.00    -0.000 C 
ATOM     30  C   UNL A   1     -26.155  -3.232  30.065  0.00  0.00    -0.002 C 
ENDBRANCH  24  25
BRANCH  24  31
ATOM     31  C   UNL A   1     -25.387  -0.679  31.571  0.00  0.00    +0.104 C 
ATOM     32  C   UNL A   1     -25.189   0.773  32.028  0.00  0.00    +0.022 C 
ATOM     33  C   UNL A   1     -25.336   0.684  33.544  0.00  0.00    +0.020 C 
ATOM     34  C   UNL A   1     -24.829  -0.715  33.905  0.00  0.00    +0.089 C 
ATOM     35  N   UNL A   1     -24.758  -1.481  32.646  0.00  0.00    -0.217 NA
ENDBRANCH  24  31
ENDBRANCH  23  24
ENDBRANCH   4  23
BRANCH   4  36
ATOM     36  C   UNL A   1     -23.800   2.556  30.531  0.00  0.00    +0.027 C 
BRANCH  36  37
ATOM     37  C   UNL A   1     -23.050   3.920  30.819  0.00  0.00    +0.002 C 
BRANCH  37  38
ATOM     38  C   UNL A   1     -23.670   4.782  31.967  0.00  0.00    +0.000 C 
ATOM     39  C   UNL A   1     -24.800   4.048  32.723  0.00  0.00    +0.000 C 
ATOM     40  C   UNL A   1     -24.134   6.175  31.534  0.00  0.00    +0.000 C 
ENDBRANCH  37  38
ENDBRANCH  36  37
ENDBRANCH   4  36
TORSDOF 13
