MODEL 866
MODEL 1
REMARK VINA RESULT:    -4.840      0.000      0.000
REMARK INTER + INTRA:          -4.840
REMARK INTER:                  -4.840
REMARK INTRA:                   0.000
REMARK UNBOUND:                 0.000
REMARK  Name = No_866-gen_results/8p0m/2024-11-27-11-27-31/
REMARK  0 active torsions:
REMARK  status: ('A' for Active; 'I' for Inactive)
REMARK                            x       y       z     vdW  Elec       q    Type
REMARK                         _______ _______ _______ _____ _____    ______ ____
ROOT
ATOM      1  C   UNL A   1     -10.103 -10.376  18.009  0.00  0.00    +0.140 A 
ATOM      2  C   UNL A   1      -9.221 -10.873  17.714  0.00  0.00    +0.030 A 
ATOM      3  F   UNL A   1     -11.175 -10.493  17.216  0.00  0.00    -0.204 F 
ATOM      4  C   UNL A   1     -10.314  -9.347  18.946  0.00  0.00    +0.030 A 
ATOM      5  C   UNL A   1      -9.406  -9.238  20.037  0.00  0.00    +0.014 A 
ATOM      6  C   UNL A   1      -8.014 -10.772  18.742  0.00  0.00    +0.014 A 
ATOM      7  C   UNL A   1      -8.204  -9.905  19.778  0.00  0.00    +0.058 A 
ATOM      8 CL   UNL A   1      -6.952  -9.723  20.922  0.00  0.00    -0.082 Cl
ENDROOT
TORSDOF 0
ENDMDL
ENDMDL
