REMARK  Name = outputs/IAG933/test6/raw/output_8672_IAG933_linker_design_.xyz
REMARK  12 active torsions:
REMARK  status: ('A' for Active; 'I' for Inactive)
REMARK    1  A    between atoms: C_1  and  C_2
REMARK    2  A    between atoms: C_1  and  C_8
REMARK    3  A    between atoms: C_1  and  N_39
REMARK    4  A    between atoms: C_13  and  C_31
REMARK    5  A    between atoms: C_14  and  C_15
REMARK    6  A    between atoms: C_21  and  O_22
REMARK    7  A    between atoms: O_22  and  C_23
REMARK    8  A    between atoms: C_23  and  C_24
REMARK    9  A    between atoms: C_34  and  C_37
REMARK   10  A    between atoms: C_34  and  C_41
REMARK   11  A    between atoms: N_39  and  C_40
REMARK   12  A    between atoms: C_41  and  C_42
REMARK                            x       y       z     vdW  Elec       q    Type
REMARK                         _______ _______ _______ _____ _____    ______ ____
ROOT
ATOM      1  O   UNL A   1     -29.574  -0.392  27.615  0.00  0.00    -0.273 OA
ATOM      2  O   UNL A   1     -27.186   1.137  29.426  0.00  0.00    -0.250 OA
ATOM      3  C   UNL A   1     -26.918   0.058  29.248  0.00  0.00    +0.330 C 
ATOM      4  N   UNL A   1     -25.352  -0.125  29.105  0.00  0.00    -0.260 N 
ATOM      5  C   UNL A   1     -29.247  -0.437  28.857  0.00  0.00    +0.250 C 
ATOM      6  N   UNL A   1     -28.010  -0.942  29.234  0.00  0.00    -0.127 NA
ENDROOT
BRANCH   4  11
ATOM      7  C   UNL A   1     -24.408   1.348  26.881  0.00  0.00    +0.043 C 
ATOM      8  C   UNL A   1     -22.732   0.656  28.715  0.00  0.00    +0.020 C 
ATOM      9  C   UNL A   1     -23.067   2.062  26.551  0.00  0.00    +0.006 C 
ATOM     10  C   UNL A   1     -22.044   1.550  27.599  0.00  0.00    +0.002 C 
ATOM     11  C   UNL A   1     -24.323   0.945  28.486  0.00  0.00    +0.081 C 
BRANCH   7  12
ATOM     12  C   UNL A   1     -25.688   1.614  26.461  0.00  0.00    +0.017 C 
ATOM     13  C   UNL A   1     -26.250   2.920  26.395  0.00  0.00    +0.073 C 
ATOM     14  C   UNL A   1     -27.438   3.091  25.645  0.00  0.00    +0.106 C 
ATOM     15  N   UNL A   1     -28.075   2.089  25.003  0.00  0.00    -0.208 NA
ATOM     16  C   UNL A   1     -27.543   0.849  25.079  0.00  0.00    +0.253 C 
ATOM     17  C   UNL A   1     -26.354   0.576  25.777  0.00  0.00    +0.189 C 
ATOM     18  F   UNL A   1     -25.860  -0.681  25.795  0.00  0.00    -0.200 F 
BRANCH  13  19
ATOM     19  C   UNL A   1     -25.642   4.093  27.123  0.00  0.00    +0.266 C 
ATOM     20  N   UNL A   1     -25.614   5.252  26.449  0.00  0.00    -0.200 NA
ATOM     21  C   UNL A   1     -25.026   6.479  26.963  0.00  0.00    +0.139 C 
ATOM     22  O   UNL A   1     -25.143   3.966  28.243  0.00  0.00    -0.268 OA
ENDBRANCH  13  19
BRANCH  16  23
ATOM     23  O   UNL A   1     -28.193  -0.208  24.477  0.00  0.00    -0.456 OA
BRANCH  23  24
ATOM     24  C   UNL A   1     -29.460   0.005  23.866  0.00  0.00    +0.243 C 
BRANCH  24  25
ATOM     25  C   UNL A   1     -30.065  -1.377  23.573  0.00  0.00    +0.229 C 
ATOM     26  O   UNL A   1     -30.729  -1.878  24.721  0.00  0.00    -0.216 OA
ENDBRANCH  24  25
ENDBRANCH  23  24
ENDBRANCH  16  23
ENDBRANCH   7  12
ENDBRANCH   4  11
BRANCH   4  27
ATOM     27  C   UNL A   1     -24.855  -1.012  30.143  0.00  0.00    +0.115 C 
BRANCH  27  28
ATOM     28  C   UNL A   1     -24.973  -2.505  29.788  0.00  0.00    -0.003 C 
ATOM     29  C   UNL A   1     -23.906  -3.173  29.146  0.00  0.00    -0.003 C 
ATOM     30  C   UNL A   1     -23.989  -4.549  28.853  0.00  0.00    -0.000 C 
ATOM     31  C   UNL A   1     -25.137  -5.280  29.205  0.00  0.00    -0.000 C 
ATOM     32  C   UNL A   1     -26.232  -4.611  29.784  0.00  0.00    -0.000 C 
ATOM     33  C   UNL A   1     -26.155  -3.232  30.065  0.00  0.00    -0.003 C 
ENDBRANCH  27  28
BRANCH  27  34
ATOM     34  C   UNL A   1     -25.387  -0.679  31.571  0.00  0.00    +0.095 C 
ATOM     35  C   UNL A   1     -25.189   0.773  32.028  0.00  0.00    +0.021 C 
ATOM     36  C   UNL A   1     -25.336   0.684  33.544  0.00  0.00    +0.020 C 
ATOM     37  C   UNL A   1     -24.829  -0.715  33.905  0.00  0.00    +0.089 C 
ATOM     38  N   UNL A   1     -24.758  -1.481  32.646  0.00  0.00    -0.217 NA
ENDBRANCH  27  34
ENDBRANCH   4  27
BRANCH   5  39
ATOM     39  C   UNL A   1     -30.157  -0.091  30.014  0.00  0.00    +0.095 C 
BRANCH  39  41
ATOM     40  C   UNL A   1     -32.207  -1.571  30.322  0.00  0.00    +0.009 C 
ATOM     41  C   UNL A   1     -30.717  -1.324  30.661  0.00  0.00    +0.074 C 
BRANCH  41  43
ATOM     42  O   UNL A   1     -29.470  -3.399  30.598  0.00  0.00    -0.288 OA
ATOM     43  C   UNL A   1     -29.895  -2.313  31.077  0.00  0.00    +0.207 C 
ENDBRANCH  41  43
ENDBRANCH  39  41
ENDBRANCH   5  39
TORSDOF 12
