MODEL 867
MODEL 1
REMARK VINA RESULT:    -6.882      0.000      0.000
REMARK INTER + INTRA:          -7.661
REMARK INTER:                  -7.285
REMARK INTRA:                  -0.377
REMARK UNBOUND:                -0.377
REMARK  Name = No_867-gen_results/8p0m/2024-11-27-11-27-31/
REMARK  1 active torsions:
REMARK  status: ('A' for Active; 'I' for Inactive)
REMARK    1  A    between atoms: C_4  and  C_15
REMARK                            x       y       z     vdW  Elec       q    Type
REMARK                         _______ _______ _______ _____ _____    ______ ____
ROOT
ATOM      1  C   UNL A   1     -25.273  -0.529  27.925  0.00  0.00    +0.052 C 
ATOM      2  C   UNL A   1     -24.702  -0.001  27.214  0.00  0.00    -0.021 A 
ATOM      3  C   UNL A   1     -24.673  -0.608  29.311  0.00  0.00    -0.021 A 
ATOM      4  C   UNL A   1     -24.686  -1.784  30.080  0.00  0.00    -0.004 A 
ATOM      5  C   UNL A   1     -23.967  -1.834  31.265  0.00  0.00    -0.000 A 
ATOM      6  C   UNL A   1     -23.407  -0.628  31.809  0.00  0.00    -0.000 A 
ATOM      7  C   UNL A   1     -23.460   0.537  31.103  0.00  0.00    -0.004 A 
ATOM      8  C   UNL A   1     -24.096   0.562  29.872  0.00  0.00    -0.021 A 
ATOM      9  C   UNL A   1     -25.087  -0.024  25.779  0.00  0.00    -0.004 A 
ATOM     10  C   UNL A   1     -24.584   0.820  24.784  0.00  0.00    -0.000 A 
ATOM     11  C   UNL A   1     -23.545   1.716  25.160  0.00  0.00    -0.000 A 
ATOM     12  C   UNL A   1     -23.148   1.862  26.452  0.00  0.00    -0.004 A 
ATOM     13  C   UNL A   1     -23.672   1.142  27.406  0.00  0.00    -0.021 A 
ATOM     14  C   UNL A   1     -23.393   1.226  28.844  0.00  0.00    +0.052 C 
ENDROOT
BRANCH   4  15
ATOM     15  C   UNL A   1     -25.414  -2.962  29.732  0.00  0.00    -0.005 C 
ATOM     16  C   UNL A   1     -24.939  -4.029  29.165  0.00  0.00    -0.026 C 
ATOM     17  C   UNL A   1     -24.098  -4.080  28.621  0.00  0.00    +0.031 C 
ENDBRANCH   4  15
TORSDOF 1
ENDMDL
ENDMDL
