REMARK  Name = No_868-gen_results/8p0m/2024-11-27-11-27-31/
REMARK  1 active torsions:
REMARK  status: ('A' for Active; 'I' for Inactive)
REMARK    1  A    between atoms: C_4  and  C_7
REMARK                            x       y       z     vdW  Elec       q    Type
REMARK                         _______ _______ _______ _____ _____    ______ ____
ROOT
ATOM      1  C   UNL A   1     -28.016  -0.814  28.878  0.00  0.00    +0.000 A 
ATOM      2  C   UNL A   1     -28.469  -0.785  29.829  0.00  0.00    +0.000 A 
ATOM      3  C   UNL A   1     -26.546  -0.876  28.850  0.00  0.00    +0.000 A 
ATOM      4  C   UNL A   1     -25.804  -1.032  30.057  0.00  0.00    +0.002 A 
ATOM      5  C   UNL A   1     -26.537  -1.039  31.217  0.00  0.00    +0.000 A 
ATOM      6  C   UNL A   1     -27.884  -0.953  31.186  0.00  0.00    +0.000 A 
ENDROOT
BRANCH   4   7
ATOM      7  C   UNL A   1     -24.355  -1.112  30.035  0.00  0.00    +0.019 A 
ATOM      8  C   UNL A   1     -23.613  -1.108  29.041  0.00  0.00    +0.003 A 
ATOM      9  C   UNL A   1     -22.152  -0.991  29.079  0.00  0.00    +0.021 A 
ATOM     10  C   UNL A   1     -23.598  -0.119  30.928  0.00  0.00    +0.099 A 
ATOM     11  N   UNL A   1     -22.320   0.036  30.922  0.00  0.00    -0.242 NA
ATOM     12  C   UNL A   1     -21.652  -0.031  29.816  0.00  0.00    +0.099 A 
ENDBRANCH   4   7
TORSDOF 1
