MODEL 868
MODEL 1
REMARK VINA RESULT:    -6.065      0.000      0.000
REMARK INTER + INTRA:          -6.615
REMARK INTER:                  -6.420
REMARK INTRA:                  -0.195
REMARK UNBOUND:                -0.195
REMARK  Name = No_868-gen_results/8p0m/2024-11-27-11-27-31/
REMARK  1 active torsions:
REMARK  status: ('A' for Active; 'I' for Inactive)
REMARK    1  A    between atoms: C_4  and  C_7
REMARK                            x       y       z     vdW  Elec       q    Type
REMARK                         _______ _______ _______ _____ _____    ______ ____
ROOT
ATOM      1  C   UNL A   1     -26.337  -4.421  29.783  0.00  0.00    +0.000 A 
ATOM      2  C   UNL A   1     -25.715  -5.189  29.418  0.00  0.00    +0.000 A 
ATOM      3  C   UNL A   1     -25.788  -3.056  29.750  0.00  0.00    +0.000 A 
ATOM      4  C   UNL A   1     -24.536  -2.794  29.120  0.00  0.00    +0.002 A 
ATOM      5  C   UNL A   1     -23.866  -3.888  28.634  0.00  0.00    +0.000 A 
ATOM      6  C   UNL A   1     -24.406  -5.123  28.715  0.00  0.00    +0.000 A 
ENDROOT
BRANCH   4   7
ATOM      7  C   UNL A   1     -23.997  -1.447  29.068  0.00  0.00    +0.019 A 
ATOM      8  C   UNL A   1     -22.805  -1.109  29.112  0.00  0.00    +0.003 A 
ATOM      9  C   UNL A   1     -22.302   0.245  28.857  0.00  0.00    +0.021 A 
ATOM     10  C   UNL A   1     -24.477  -0.559  27.911  0.00  0.00    +0.099 A 
ATOM     11  N   UNL A   1     -23.997   0.604  27.640  0.00  0.00    -0.242 NA
ATOM     12  C   UNL A   1     -22.732   0.844  27.775  0.00  0.00    +0.099 A 
ENDBRANCH   4   7
TORSDOF 1
ENDMDL
ENDMDL
