REMARK  Name = outputs/IAG933/test6/raw/output_869_IAG933_linker_design_.xyz
REMARK  21 active torsions:
REMARK  status: ('A' for Active; 'I' for Inactive)
REMARK    1  A    between atoms: C_1  and  C_2
REMARK    2  A    between atoms: C_1  and  C_8
REMARK    3  A    between atoms: C_1  and  C_38
REMARK    4  A    between atoms: C_13  and  C_34
REMARK    5  A    between atoms: C_14  and  C_15
REMARK    6  A    between atoms: C_21  and  O_22
REMARK    7  A    between atoms: O_22  and  C_23
REMARK    8  A    between atoms: C_23  and  C_24
REMARK    9  A    between atoms: C_28  and  C_40
REMARK   10  A    between atoms: C_29  and  C_34
REMARK   11  A    between atoms: C_29  and  C_38
REMARK   12  A    between atoms: C_29  and  C_40
REMARK   13  A    between atoms: C_30  and  C_47
REMARK   14  A    between atoms: C_30  and  C_48
REMARK   15  A    between atoms: C_31  and  C_48
REMARK   16  A    between atoms: C_35  and  N_39
REMARK   17  A    between atoms: C_38  and  O_42
REMARK   18  A    between atoms: N_39  and  C_44
REMARK   19  A    between atoms: O_42  and  C_47
REMARK   20  A    between atoms: C_44  and  C_46
REMARK   21  A    between atoms: C_46  and  C_48
REMARK                            x       y       z     vdW  Elec       q    Type
REMARK                         _______ _______ _______ _____ _____    ______ ____
ROOT
ATOM      1  C   UNL A   1     -25.147  -0.135  28.851  0.00  0.00    +0.123 C 
ENDROOT
BRANCH   1   2
ATOM      2  C   UNL A   1     -24.065   0.727  28.236  0.00  0.00    +0.058 C 
BRANCH   2   4
ATOM      3  O   UNL A   1     -22.357  -0.250  29.695  0.00  0.00    -0.223 OA
ATOM      4  C   UNL A   1     -22.513   0.398  28.369  0.00  0.00    +0.154 C 
BRANCH   4   5
ATOM      5  C   UNL A   1     -21.824   1.703  27.858  0.00  0.00    +0.033 C 
ATOM      6  C   UNL A   1     -21.592   1.903  26.338  0.00  0.00    +0.003 C 
ENDBRANCH   4   5
ENDBRANCH   2   4
BRANCH   2   7
ATOM      7  C   UNL A   1     -24.279   1.341  26.872  0.00  0.00    +0.013 C 
BRANCH   7   8
ATOM      8  C   UNL A   1     -25.688   1.614  26.461  0.00  0.00    +0.070 C 
ATOM      9  C   UNL A   1     -26.250   2.920  26.395  0.00  0.00    +0.055 C 
ATOM     10  C   UNL A   1     -27.438   3.091  25.645  0.00  0.00    +0.102 C 
ATOM     11  N   UNL A   1     -28.075   2.089  25.003  0.00  0.00    -0.212 NA
ATOM     12  C   UNL A   1     -27.543   0.849  25.079  0.00  0.00    +0.234 C 
ATOM     13  C   UNL A   1     -26.354   0.576  25.777  0.00  0.00    +0.240 C 
ATOM     14  F   UNL A   1     -25.860  -0.681  25.795  0.00  0.00    -0.227 F 
BRANCH   9  15
ATOM     15  C   UNL A   1     -25.642   4.093  27.123  0.00  0.00    +0.262 C 
ATOM     16  N   UNL A   1     -25.614   5.252  26.449  0.00  0.00    -0.200 NA
ATOM     17  C   UNL A   1     -25.026   6.479  26.963  0.00  0.00    +0.139 C 
ATOM     18  O   UNL A   1     -25.143   3.966  28.243  0.00  0.00    -0.269 OA
ENDBRANCH   9  15
BRANCH  12  19
ATOM     19  O   UNL A   1     -28.193  -0.208  24.477  0.00  0.00    -0.459 OA
BRANCH  19  20
ATOM     20  C   UNL A   1     -29.460   0.005  23.866  0.00  0.00    +0.242 C 
BRANCH  20  21
ATOM     21  C   UNL A   1     -30.065  -1.377  23.573  0.00  0.00    +0.229 C 
ATOM     22  O   UNL A   1     -30.729  -1.878  24.721  0.00  0.00    -0.216 OA
ENDBRANCH  20  21
ENDBRANCH  19  20
ENDBRANCH  12  19
ENDBRANCH   7   8
ENDBRANCH   2   7
ENDBRANCH   1   2
BRANCH   1  23
ATOM     23  C   UNL A   1     -24.855  -1.012  30.143  0.00  0.00    +0.066 C 
BRANCH  23  24
ATOM     24  C   UNL A   1     -24.973  -2.505  29.788  0.00  0.00    -0.019 C 
ATOM     25  C   UNL A   1     -23.906  -3.173  29.146  0.00  0.00    -0.004 C 
ATOM     26  C   UNL A   1     -23.989  -4.549  28.853  0.00  0.00    -0.000 C 
ATOM     27  C   UNL A   1     -25.137  -5.280  29.205  0.00  0.00    -0.000 C 
ATOM     28  C   UNL A   1     -26.232  -4.611  29.784  0.00  0.00    -0.000 C 
ATOM     29  C   UNL A   1     -26.155  -3.232  30.065  0.00  0.00    -0.004 C 
ENDBRANCH  23  24
BRANCH  23  30
ATOM     30  C   UNL A   1     -25.387  -0.679  31.571  0.00  0.00    +0.079 C 
ATOM     31  C   UNL A   1     -25.189   0.773  32.028  0.00  0.00    +0.019 C 
ATOM     32  C   UNL A   1     -25.336   0.684  33.544  0.00  0.00    +0.020 C 
ATOM     33  C   UNL A   1     -24.829  -0.715  33.905  0.00  0.00    +0.089 C 
ATOM     34  N   UNL A   1     -24.758  -1.481  32.646  0.00  0.00    -0.219 NA
ENDBRANCH  23  30
ENDBRANCH   1  23
BRANCH   1  35
ATOM     35  O   UNL A   1     -26.397   0.535  29.041  0.00  0.00    -0.356 OA
BRANCH  35  36
ATOM     36  C   UNL A   1     -27.452  -0.308  29.309  0.00  0.00    +0.143 C 
BRANCH  36  37
ATOM     37  C   UNL A   1     -28.617  -0.280  28.458  0.00  0.00    +0.043 C 
BRANCH  37  38
ATOM     38  C   UNL A   1     -29.586   0.747  28.791  0.00  0.00    +0.107 C 
BRANCH  38  39
ATOM     39  C   UNL A   1     -30.901   0.620  28.023  0.00  0.00    +0.364 C 
ATOM     40  O   UNL A   1     -31.084   1.231  26.954  0.00  0.00    -0.246 OA
ATOM     41  O   UNL A   1     -31.733  -0.153  28.407  0.00  0.00    -0.246 OA
ENDBRANCH  38  39
BRANCH  38  42
ATOM     42  C   UNL A   1     -29.315   1.954  29.600  0.00  0.00    +0.030 C 
BRANCH  42  43
ATOM     43  C   UNL A   1     -28.768   1.803  30.971  0.00  0.00    +0.092 C 
BRANCH  43  44
ATOM     44  N   UNL A   1     -29.445   0.673  31.557  0.00  0.00    -0.191 NA
BRANCH  44  45
ATOM     45  C   UNL A   1     -29.840   0.026  32.663  0.00  0.00    +0.193 C 
ATOM     46  F   UNL A   1     -29.789   1.107  33.597  0.00  0.00    -0.222 F 
ATOM     47  C   UNL A   1     -31.324  -0.266  32.648  0.00  0.00    +0.054 C 
ATOM     48  C   UNL A   1     -28.759  -0.955  33.122  0.00  0.00    +0.054 C 
ENDBRANCH  44  45
ENDBRANCH  43  44
ENDBRANCH  42  43
ENDBRANCH  38  42
ENDBRANCH  37  38
ENDBRANCH  36  37
ENDBRANCH  35  36
ENDBRANCH   1  35
TORSDOF 21
