REMARK  Name = outputs/IAG933/test6/raw/output_8692_IAG933_linker_design_.xyz
REMARK  9 active torsions:
REMARK  status: ('A' for Active; 'I' for Inactive)
REMARK    1  A    between atoms: C_1  and  C_2
REMARK    2  A    between atoms: C_13  and  N_29
REMARK    3  A    between atoms: C_14  and  C_15
REMARK    4  A    between atoms: C_21  and  O_22
REMARK    5  A    between atoms: O_22  and  C_23
REMARK    6  A    between atoms: C_23  and  C_24
REMARK    7  A    between atoms: N_30  and  C_37
REMARK    8  A    between atoms: O_31  and  C_32
REMARK    9  A    between atoms: O_31  and  C_39
REMARK                            x       y       z     vdW  Elec       q    Type
REMARK                         _______ _______ _______ _____ _____    ______ ____
ROOT
ATOM      1  C   UNL A   1     -24.855  -1.012  30.143  0.00  0.00    +0.075 C 
ATOM      2  C   UNL A   1     -25.387  -0.679  31.571  0.00  0.00    +0.085 C 
ATOM      3  C   UNL A   1     -25.189   0.773  32.028  0.00  0.00    +0.047 C 
ATOM      4  C   UNL A   1     -25.336   0.684  33.544  0.00  0.00    +0.023 C 
ATOM      5  C   UNL A   1     -24.829  -0.715  33.905  0.00  0.00    +0.089 C 
ATOM      6  N   UNL A   1     -24.758  -1.481  32.646  0.00  0.00    -0.219 NA
ATOM      7  N   UNL A   1     -24.500   1.293  27.199  0.00  0.00    -0.232 N 
ATOM      8  C   UNL A   1     -21.986   1.395  27.544  0.00  0.00    +0.196 C 
ATOM      9  C   UNL A   1     -22.075   0.413  28.619  0.00  0.00    +0.020 C 
ATOM     10  O   UNL A   1     -20.872   2.065  27.208  0.00  0.00    -0.216 OA
ATOM     11  C   UNL A   1     -25.546   1.574  30.783  0.00  0.00    +0.141 C 
ATOM     12  C   UNL A   1     -25.919   0.956  29.361  0.00  0.00    +0.141 C 
ATOM     13  C   UNL A   1     -23.126   1.653  26.556  0.00  0.00    +0.150 C 
ATOM     14  C   UNL A   1     -23.471  -0.159  29.179  0.00  0.00    +0.046 C 
ATOM     15  N   UNL A   1     -24.741   0.292  28.434  0.00  0.00    -0.239 N 
ENDROOT
BRANCH   7  16
ATOM     16  C   UNL A   1     -25.688   1.614  26.461  0.00  0.00    +0.103 C 
ATOM     17  C   UNL A   1     -26.250   2.920  26.395  0.00  0.00    +0.091 C 
ATOM     18  C   UNL A   1     -27.438   3.091  25.645  0.00  0.00    +0.108 C 
ATOM     19  N   UNL A   1     -28.075   2.089  25.003  0.00  0.00    -0.208 NA
ATOM     20  C   UNL A   1     -27.543   0.849  25.079  0.00  0.00    +0.255 C 
ATOM     21  C   UNL A   1     -26.354   0.576  25.777  0.00  0.00    +0.208 C 
ATOM     22  F   UNL A   1     -25.860  -0.681  25.795  0.00  0.00    -0.198 F 
BRANCH  17  23
ATOM     23  C   UNL A   1     -25.642   4.093  27.123  0.00  0.00    +0.268 C 
ATOM     24  N   UNL A   1     -25.614   5.252  26.449  0.00  0.00    -0.200 NA
ATOM     25  C   UNL A   1     -25.026   6.479  26.963  0.00  0.00    +0.139 C 
ATOM     26  O   UNL A   1     -25.143   3.966  28.243  0.00  0.00    -0.268 OA
ENDBRANCH  17  23
BRANCH  20  27
ATOM     27  O   UNL A   1     -28.193  -0.208  24.477  0.00  0.00    -0.456 OA
BRANCH  27  28
ATOM     28  C   UNL A   1     -29.460   0.005  23.866  0.00  0.00    +0.243 C 
BRANCH  28  29
ATOM     29  C   UNL A   1     -30.065  -1.377  23.573  0.00  0.00    +0.229 C 
ATOM     30  O   UNL A   1     -30.729  -1.878  24.721  0.00  0.00    -0.216 OA
ENDBRANCH  28  29
ENDBRANCH  27  28
ENDBRANCH  20  27
ENDBRANCH   7  16
BRANCH   1  31
ATOM     31  C   UNL A   1     -24.973  -2.505  29.788  0.00  0.00    -0.016 C 
ATOM     32  C   UNL A   1     -23.906  -3.173  29.146  0.00  0.00    -0.004 C 
ATOM     33  C   UNL A   1     -23.989  -4.549  28.853  0.00  0.00    -0.000 C 
ATOM     34  C   UNL A   1     -25.137  -5.280  29.205  0.00  0.00    -0.000 C 
ATOM     35  C   UNL A   1     -26.232  -4.611  29.784  0.00  0.00    -0.000 C 
ATOM     36  C   UNL A   1     -26.155  -3.232  30.065  0.00  0.00    -0.004 C 
ENDBRANCH   1  31
BRANCH  11  37
ATOM     37  O   UNL A   1     -24.461   2.621  30.861  0.00  0.00    -0.328 OA
BRANCH  37  38
ATOM     38  C   UNL A   1     -24.993   3.781  31.541  0.00  0.00    +0.281 C 
ATOM     39  O   UNL A   1     -24.957   3.831  32.803  0.00  0.00    -0.309 OA
ATOM     40  C   UNL A   1     -26.259   4.152  32.235  0.00  0.00    +0.236 C 
BRANCH  40  42
ATOM     41  C   UNL A   1     -25.078   6.436  32.733  0.00  0.00    +0.092 C 
ATOM     42  N   UNL A   1     -26.122   5.487  33.089  0.00  0.00    -0.244 NA
ATOM     43  C   UNL A   1     -26.123   5.185  34.517  0.00  0.00    +0.092 C 
ENDBRANCH  40  42
ENDBRANCH  37  38
ENDBRANCH  11  37
TORSDOF 9
