REMARK  Name = outputs/IAG933/test6/raw/output_8694_IAG933_linker_design_.xyz
REMARK  12 active torsions:
REMARK  status: ('A' for Active; 'I' for Inactive)
REMARK    1  A    between atoms: C_1  and  C_2
REMARK    2  A    between atoms: C_1  and  C_8
REMARK    3  A    between atoms: C_1  and  C_30
REMARK    4  A    between atoms: C_13  and  C_38
REMARK    5  A    between atoms: C_14  and  C_15
REMARK    6  A    between atoms: C_21  and  O_22
REMARK    7  A    between atoms: O_22  and  C_23
REMARK    8  A    between atoms: C_23  and  C_24
REMARK    9  A    between atoms: C_28  and  C_38
REMARK   10  A    between atoms: C_30  and  N_37
REMARK   11  A    between atoms: C_30  and  C_40
REMARK   12  A    between atoms: N_37  and  C_38
REMARK                            x       y       z     vdW  Elec       q    Type
REMARK                         _______ _______ _______ _____ _____    ______ ____
ROOT
ATOM      1  C   UNL A   1     -24.798   1.316  27.524  0.00  0.00    +0.105 C 
ENDROOT
BRANCH   1   2
ATOM      2  C   UNL A   1     -25.688   1.614  26.461  0.00  0.00    +0.090 C 
ATOM      3  C   UNL A   1     -26.250   2.920  26.395  0.00  0.00    +0.057 C 
ATOM      4  C   UNL A   1     -27.438   3.091  25.645  0.00  0.00    +0.102 C 
ATOM      5  N   UNL A   1     -28.075   2.089  25.003  0.00  0.00    -0.212 NA
ATOM      6  C   UNL A   1     -27.543   0.849  25.079  0.00  0.00    +0.234 C 
ATOM      7  C   UNL A   1     -26.354   0.576  25.777  0.00  0.00    +0.242 C 
ATOM      8  F   UNL A   1     -25.860  -0.681  25.795  0.00  0.00    -0.227 F 
BRANCH   3   9
ATOM      9  C   UNL A   1     -25.642   4.093  27.123  0.00  0.00    +0.263 C 
ATOM     10  N   UNL A   1     -25.614   5.252  26.449  0.00  0.00    -0.200 NA
ATOM     11  C   UNL A   1     -25.026   6.479  26.963  0.00  0.00    +0.139 C 
ATOM     12  O   UNL A   1     -25.143   3.966  28.243  0.00  0.00    -0.269 OA
ENDBRANCH   3   9
BRANCH   6  13
ATOM     13  O   UNL A   1     -28.193  -0.208  24.477  0.00  0.00    -0.459 OA
BRANCH  13  14
ATOM     14  C   UNL A   1     -29.460   0.005  23.866  0.00  0.00    +0.242 C 
BRANCH  14  15
ATOM     15  C   UNL A   1     -30.065  -1.377  23.573  0.00  0.00    +0.229 C 
ATOM     16  O   UNL A   1     -30.729  -1.878  24.721  0.00  0.00    -0.216 OA
ENDBRANCH  14  15
ENDBRANCH  13  14
ENDBRANCH   6  13
ENDBRANCH   1   2
BRANCH   1  17
ATOM     17  C   UNL A   1     -23.485   1.395  27.134  0.00  0.00    +0.033 C 
ATOM     18  C   UNL A   1     -22.513   1.060  28.055  0.00  0.00    +0.193 C 
ATOM     19  O   UNL A   1     -22.710   0.242  29.125  0.00  0.00    -0.287 OA
ATOM     20  C   UNL A   1     -21.841   2.413  25.703  0.00  0.00    -0.000 C 
ATOM     21  C   UNL A   1     -20.927   2.258  26.742  0.00  0.00    +0.003 C 
ATOM     22  C   UNL A   1     -21.244   1.586  27.929  0.00  0.00    +0.042 C 
ATOM     23  C   UNL A   1     -23.115   1.889  25.921  0.00  0.00    +0.000 C 
ENDBRANCH   1  17
BRANCH   1  24
ATOM     24  N   UNL A   1     -25.151   1.156  28.819  0.00  0.00    -0.215 NA
BRANCH  24  25
ATOM     25  C   UNL A   1     -25.535  -0.061  29.325  0.00  0.00    +0.079 C 
BRANCH  25  30
ATOM     26  C   UNL A   1     -27.495  -0.860  28.513  0.00  0.00    +0.002 C 
ATOM     27  C   UNL A   1     -29.608   1.501  28.256  0.00  0.00    +0.142 C 
ATOM     28  C   UNL A   1     -28.816  -0.525  29.431  0.00  0.00    +0.005 C 
ATOM     29  C   UNL A   1     -28.508   0.899  29.237  0.00  0.00    +0.031 C 
ATOM     30  C   UNL A   1     -27.012   0.350  29.122  0.00  0.00    +0.019 C 
ATOM     31  O   UNL A   1     -30.061   0.518  27.308  0.00  0.00    -0.354 OA
ATOM     32  C   UNL A   1     -30.871  -0.388  28.041  0.00  0.00    +0.142 C 
ATOM     33  C   UNL A   1     -30.397  -0.610  29.485  0.00  0.00    +0.032 C 
ENDBRANCH  25  30
BRANCH  25  34
ATOM     34  C   UNL A   1     -24.855  -1.012  30.143  0.00  0.00    +0.054 C 
BRANCH  34  35
ATOM     35  C   UNL A   1     -24.973  -2.505  29.788  0.00  0.00    -0.020 C 
ATOM     36  C   UNL A   1     -23.906  -3.173  29.146  0.00  0.00    -0.004 C 
ATOM     37  C   UNL A   1     -23.989  -4.549  28.853  0.00  0.00    -0.000 C 
ATOM     38  C   UNL A   1     -25.137  -5.280  29.205  0.00  0.00    -0.000 C 
ATOM     39  C   UNL A   1     -26.232  -4.611  29.784  0.00  0.00    -0.000 C 
ATOM     40  C   UNL A   1     -26.155  -3.232  30.065  0.00  0.00    -0.004 C 
ENDBRANCH  34  35
BRANCH  34  41
ATOM     41  C   UNL A   1     -25.387  -0.679  31.571  0.00  0.00    +0.078 C 
ATOM     42  C   UNL A   1     -25.189   0.773  32.028  0.00  0.00    +0.019 C 
ATOM     43  C   UNL A   1     -25.336   0.684  33.544  0.00  0.00    +0.020 C 
ATOM     44  C   UNL A   1     -24.829  -0.715  33.905  0.00  0.00    +0.089 C 
ATOM     45  N   UNL A   1     -24.758  -1.481  32.646  0.00  0.00    -0.219 NA
ENDBRANCH  34  41
ENDBRANCH  25  34
ENDBRANCH  24  25
ENDBRANCH   1  24
TORSDOF 12
