REMARK  Name = outputs/IAG933/test6/raw/output_8695_IAG933_linker_design_.xyz
REMARK  15 active torsions:
REMARK  status: ('A' for Active; 'I' for Inactive)
REMARK    1  A    between atoms: C_1  and  C_2
REMARK    2  A    between atoms: C_1  and  C_8
REMARK    3  A    between atoms: C_1  and  C_32
REMARK    4  A    between atoms: C_13  and  N_33
REMARK    5  A    between atoms: C_14  and  C_15
REMARK    6  A    between atoms: C_21  and  O_22
REMARK    7  A    between atoms: O_22  and  C_23
REMARK    8  A    between atoms: C_23  and  C_24
REMARK    9  A    between atoms: C_28  and  C_36
REMARK   10  A    between atoms: C_32  and  C_38
REMARK   11  A    between atoms: C_32  and  C_39
REMARK   12  A    between atoms: N_33  and  C_39
REMARK   13  A    between atoms: C_34  and  C_37
REMARK   14  A    between atoms: O_35  and  C_36
REMARK   15  A    between atoms: C_38  and  N_41
REMARK                            x       y       z     vdW  Elec       q    Type
REMARK                         _______ _______ _______ _____ _____    ______ ____
ROOT
ATOM      1  C   UNL A   1     -23.270   1.604  26.976  0.00  0.00    +0.292 C 
ATOM      2  N   UNL A   1     -24.592   1.371  27.366  0.00  0.00    -0.252 N 
ATOM      3  O   UNL A   1     -23.007   2.290  26.026  0.00  0.00    -0.269 OA
ENDROOT
BRANCH   2   4
ATOM      4  C   UNL A   1     -25.688   1.614  26.461  0.00  0.00    +0.092 C 
ATOM      5  C   UNL A   1     -26.250   2.920  26.395  0.00  0.00    +0.090 C 
ATOM      6  C   UNL A   1     -27.438   3.091  25.645  0.00  0.00    +0.108 C 
ATOM      7  N   UNL A   1     -28.075   2.089  25.003  0.00  0.00    -0.208 NA
ATOM      8  C   UNL A   1     -27.543   0.849  25.079  0.00  0.00    +0.255 C 
ATOM      9  C   UNL A   1     -26.354   0.576  25.777  0.00  0.00    +0.207 C 
ATOM     10  F   UNL A   1     -25.860  -0.681  25.795  0.00  0.00    -0.198 F 
BRANCH   5  11
ATOM     11  C   UNL A   1     -25.642   4.093  27.123  0.00  0.00    +0.268 C 
ATOM     12  N   UNL A   1     -25.614   5.252  26.449  0.00  0.00    -0.200 NA
ATOM     13  C   UNL A   1     -25.026   6.479  26.963  0.00  0.00    +0.139 C 
ATOM     14  O   UNL A   1     -25.143   3.966  28.243  0.00  0.00    -0.268 OA
ENDBRANCH   5  11
BRANCH   8  15
ATOM     15  O   UNL A   1     -28.193  -0.208  24.477  0.00  0.00    -0.456 OA
BRANCH  15  16
ATOM     16  C   UNL A   1     -29.460   0.005  23.866  0.00  0.00    +0.243 C 
BRANCH  16  17
ATOM     17  C   UNL A   1     -30.065  -1.377  23.573  0.00  0.00    +0.229 C 
ATOM     18  O   UNL A   1     -30.729  -1.878  24.721  0.00  0.00    -0.216 OA
ENDBRANCH  16  17
ENDBRANCH  15  16
ENDBRANCH   8  15
ENDBRANCH   2   4
BRANCH   1  20
ATOM     19  F   UNL A   1     -20.940   1.698  27.264  0.00  0.00    -0.194 F 
ATOM     20  C   UNL A   1     -22.045   1.068  27.796  0.00  0.00    +0.356 C 
BRANCH  20  22
ATOM     21  C   UNL A   1     -20.536  -0.142  28.958  0.00  0.00    +0.178 C 
ATOM     22  O   UNL A   1     -21.694   0.021  28.439  0.00  0.00    -0.317 OA
ENDBRANCH  20  22
ENDBRANCH   1  20
BRANCH   2  23
ATOM     23  C   UNL A   1     -24.323   0.083  28.073  0.00  0.00    +0.101 C 
BRANCH  23  24
ATOM     24  C   UNL A   1     -25.303  -0.122  28.988  0.00  0.00    +0.047 C 
BRANCH  24  25
ATOM     25  C   UNL A   1     -24.855  -1.012  30.143  0.00  0.00    +0.042 C 
BRANCH  25  26
ATOM     26  C   UNL A   1     -24.973  -2.505  29.788  0.00  0.00    -0.021 C 
ATOM     27  C   UNL A   1     -23.906  -3.173  29.146  0.00  0.00    -0.004 C 
ATOM     28  C   UNL A   1     -23.989  -4.549  28.853  0.00  0.00    -0.000 C 
ATOM     29  C   UNL A   1     -25.137  -5.280  29.205  0.00  0.00    -0.000 C 
ATOM     30  C   UNL A   1     -26.232  -4.611  29.784  0.00  0.00    -0.000 C 
ATOM     31  C   UNL A   1     -26.155  -3.232  30.065  0.00  0.00    -0.004 C 
ENDBRANCH  25  26
BRANCH  25  32
ATOM     32  C   UNL A   1     -25.387  -0.679  31.571  0.00  0.00    +0.077 C 
ATOM     33  C   UNL A   1     -25.189   0.773  32.028  0.00  0.00    +0.019 C 
ATOM     34  C   UNL A   1     -25.336   0.684  33.544  0.00  0.00    +0.020 C 
ATOM     35  C   UNL A   1     -24.829  -0.715  33.905  0.00  0.00    +0.089 C 
ATOM     36  N   UNL A   1     -24.758  -1.481  32.646  0.00  0.00    -0.219 NA
ENDBRANCH  25  32
ENDBRANCH  24  25
BRANCH  24  37
ATOM     37  C   UNL A   1     -26.513   0.384  28.883  0.00  0.00    +0.117 C 
BRANCH  37  40
ATOM     38  O   UNL A   1     -29.047   1.443  29.390  0.00  0.00    -0.272 OA
ATOM     39  C   UNL A   1     -28.073   2.112  29.631  0.00  0.00    +0.261 C 
ATOM     40  N   UNL A   1     -26.838   1.764  29.305  0.00  0.00    -0.204 NA
BRANCH  39  41
ATOM     41  C   UNL A   1     -28.273   3.373  30.480  0.00  0.00    +0.196 C 
ATOM     42  N   UNL A   1     -28.070   2.958  31.916  0.00  0.00    -0.121 NA
ENDBRANCH  39  41
ENDBRANCH  37  40
ENDBRANCH  24  37
ENDBRANCH  23  24
ENDBRANCH   2  23
TORSDOF 15
