MODEL 869
MODEL 1
REMARK VINA RESULT:    -7.269      0.000      0.000
REMARK INTER + INTRA:          -9.044
REMARK INTER:                 -10.668
REMARK INTRA:                   1.625
REMARK UNBOUND:                 1.625
REMARK  Name = No_869-gen_results/8p0m/2024-11-27-11-27-31/
REMARK  8 active torsions:
REMARK  status: ('A' for Active; 'I' for Inactive)
REMARK    1  A    between atoms: C_1  and  C_2
REMARK    2  A    between atoms: C_1  and  C_8
REMARK    3  A    between atoms: C_5  and  C_10
REMARK    4  A    between atoms: C_8  and  C_9
REMARK    5  A    between atoms: N_16  and  C_17
REMARK    6  A    between atoms: C_17  and  C_18
REMARK    7  A    between atoms: C_18  and  C_19
REMARK    8  A    between atoms: C_26  and  S_29
REMARK                            x       y       z     vdW  Elec       q    Type
REMARK                         _______ _______ _______ _____ _____    ______ ____
ROOT
ATOM      1  C   UNL A   1     -26.780 -17.327   8.578  0.00  0.00    +0.226 C 
ATOM      2  O   UNL A   1     -26.029 -17.408   9.488  0.00  0.00    -0.275 OA
ATOM      3  N   UNL A   1     -26.840 -18.381   7.744  0.00  0.00    -0.277 N 
ATOM      4  C   UNL A   1     -26.863 -18.010   6.285  0.00  0.00    +0.115 C 
ENDROOT
BRANCH   1   5
ATOM      5  C   UNL A   1     -27.547 -16.174   8.262  0.00  0.00    +0.081 C 
ATOM      6  C   UNL A   1     -26.955 -15.187   7.433  0.00  0.00    +0.010 C 
BRANCH   5   7
ATOM      7  C   UNL A   1     -29.058 -16.084   8.613  0.00  0.00    +0.035 C 
BRANCH   7   8
ATOM      8  C   UNL A   1     -29.394 -15.290   9.462  0.00  0.00    -0.022 A 
ATOM      9  C   UNL A   1     -29.530 -13.958   9.242  0.00  0.00    -0.004 A 
ATOM     10  C   UNL A   1     -29.941 -12.974  10.269  0.00  0.00    +0.004 A 
ATOM     11  C   UNL A   1     -30.233 -13.485  11.577  0.00  0.00    +0.071 A 
ATOM     12  C   UNL A   1     -30.149 -14.885  11.745  0.00  0.00    +0.004 A 
ATOM     13  C   UNL A   1     -29.760 -15.738  10.745  0.00  0.00    -0.004 A 
BRANCH  11  14
ATOM     14  C   UNL A   1     -30.648 -12.627  12.653  0.00  0.00    +0.419 C 
ATOM     15  F   UNL A   1     -31.446 -11.942  12.641  0.00  0.00    -0.166 F 
ATOM     16  F   UNL A   1     -29.440 -11.831  13.052  0.00  0.00    -0.166 F 
ATOM     17  F   UNL A   1     -30.668 -13.439  13.853  0.00  0.00    -0.166 F 
ENDBRANCH  11  14
ENDBRANCH   7   8
ENDBRANCH   5   7
ENDBRANCH   1   5
BRANCH   3  18
ATOM     18  C   UNL A   1     -26.009 -19.556   7.941  0.00  0.00    +0.103 C 
BRANCH  18  19
ATOM     19  C   UNL A   1     -24.930 -19.705   7.014  0.00  0.00    +0.107 C 
BRANCH  19  20
ATOM     20  C   UNL A   1     -23.762 -19.968   7.571  0.00  0.00    +0.230 C 
ATOM     21  O   UNL A   1     -23.741 -20.285   8.782  0.00  0.00    -0.275 OA
ATOM     22  N   UNL A   1     -22.552 -19.847   6.949  0.00  0.00    -0.250 N 
ATOM     23  C   UNL A   1     -21.321 -20.056   7.527  0.00  0.00    +0.096 C 
ATOM     24  C   UNL A   1     -20.328 -19.704   6.795  0.00  0.00    +0.022 C 
ATOM     25  C   UNL A   1     -20.445 -19.176   5.535  0.00  0.00    +0.007 C 
ATOM     26  C   UNL A   1     -21.679 -19.047   4.937  0.00  0.00    +0.062 C 
ATOM     27  C   UNL A   1     -22.667 -19.292   5.689  0.00  0.00    +0.270 C 
ATOM     28  N   UNL A   1     -23.216 -20.406   4.827  0.00  0.00    -0.088 NA
BRANCH  27  29
ATOM     29  S   UNL A   1     -21.907 -18.732   6.049  0.00  0.00    +0.129 S 
ATOM     30  O   UNL A   1     -21.839 -17.510   6.666  0.00  0.00    -0.149 OA
ATOM     31  O   UNL A   1     -21.054 -17.981   4.965  0.00  0.00    -0.149 OA
ENDBRANCH  27  29
ENDBRANCH  19  20
ENDBRANCH  18  19
ENDBRANCH   3  18
TORSDOF 8
ENDMDL
ENDMDL
