MODEL 86
MODEL 1
REMARK VINA RESULT:    -4.436      0.000      0.000
REMARK INTER + INTRA:          -4.436
REMARK INTER:                  -4.436
REMARK INTRA:                   0.000
REMARK UNBOUND:                 0.000
REMARK  Name = No_86-gen_results/8p0m/2024-11-27-11-27-31/
REMARK  0 active torsions:
REMARK  status: ('A' for Active; 'I' for Inactive)
REMARK                            x       y       z     vdW  Elec       q    Type
REMARK                         _______ _______ _______ _____ _____    ______ ____
ROOT
ATOM      1 CL   UNL A   1     -23.247  -1.876  28.990  0.00  0.00    -0.082 Cl
ATOM      2  C   UNL A   1     -24.163  -2.987  29.061  0.00  0.00    +0.058 A 
ATOM      3  C   UNL A   1     -23.981  -4.109  28.748  0.00  0.00    +0.011 A 
ATOM      4  C   UNL A   1     -24.926  -5.133  29.061  0.00  0.00    +0.001 A 
ATOM      5  C   UNL A   1     -26.220  -4.829  29.575  0.00  0.00    +0.000 A 
ATOM      6  C   UNL A   1     -26.410  -3.532  29.921  0.00  0.00    +0.001 A 
ATOM      7  C   UNL A   1     -25.467  -2.621  29.699  0.00  0.00    +0.011 A 
ENDROOT
TORSDOF 0
ENDMDL
ENDMDL
