REMARK  Name = outputs/IAG933/test6/raw/output_87_IAG933_linker_design_.xyz
REMARK  10 active torsions:
REMARK  status: ('A' for Active; 'I' for Inactive)
REMARK    1  A    between atoms: C_1  and  C_2
REMARK    2  A    between atoms: C_1  and  C_8
REMARK    3  A    between atoms: C_1  and  N_34
REMARK    4  A    between atoms: C_13  and  C_39
REMARK    5  A    between atoms: C_14  and  C_15
REMARK    6  A    between atoms: C_21  and  O_22
REMARK    7  A    between atoms: O_22  and  C_23
REMARK    8  A    between atoms: C_23  and  C_24
REMARK    9  A    between atoms: N_29  and  C_37
REMARK   10  A    between atoms: N_29  and  C_40
REMARK                            x       y       z     vdW  Elec       q    Type
REMARK                         _______ _______ _______ _____ _____    ______ ____
ROOT
ATOM      1  O   UNL A   1     -26.496   0.532  28.730  0.00  0.00    -0.190 OA
ATOM      2  C   UNL A   1     -21.166  -0.541  29.048  0.00  0.00    +0.109 C 
ATOM      3  C   UNL A   1     -20.740   1.363  27.577  0.00  0.00    +0.234 C 
ATOM      4  C   UNL A   1     -22.417  -0.229  29.707  0.00  0.00    +0.095 C 
ATOM      5  N   UNL A   1     -23.970  -0.157  29.446  0.00  0.00    -0.233 NA
ATOM      6  N   UNL A   1     -20.507   0.273  28.281  0.00  0.00    -0.187 NA
ATOM      7  C   UNL A   1     -25.230   1.159  28.869  0.00  0.00    +0.245 C 
ATOM      8  O   UNL A   1     -21.920   1.629  27.302  0.00  0.00    -0.336 OA
ATOM      9  C   UNL A   1     -24.577   1.255  27.468  0.00  0.00    +0.113 C 
ATOM     10  C   UNL A   1     -23.093   1.268  28.127  0.00  0.00    +0.154 C 
ENDROOT
BRANCH   9  11
ATOM     11  C   UNL A   1     -25.688   1.614  26.461  0.00  0.00    +0.023 C 
ATOM     12  C   UNL A   1     -26.250   2.920  26.395  0.00  0.00    +0.073 C 
ATOM     13  C   UNL A   1     -27.438   3.091  25.645  0.00  0.00    +0.106 C 
ATOM     14  N   UNL A   1     -28.075   2.089  25.003  0.00  0.00    -0.208 NA
ATOM     15  C   UNL A   1     -27.543   0.849  25.079  0.00  0.00    +0.253 C 
ATOM     16  C   UNL A   1     -26.354   0.576  25.777  0.00  0.00    +0.189 C 
ATOM     17  F   UNL A   1     -25.860  -0.681  25.795  0.00  0.00    -0.200 F 
BRANCH  12  18
ATOM     18  C   UNL A   1     -25.642   4.093  27.123  0.00  0.00    +0.266 C 
ATOM     19  N   UNL A   1     -25.614   5.252  26.449  0.00  0.00    -0.200 NA
ATOM     20  C   UNL A   1     -25.026   6.479  26.963  0.00  0.00    +0.139 C 
ATOM     21  O   UNL A   1     -25.143   3.966  28.243  0.00  0.00    -0.268 OA
ENDBRANCH  12  18
BRANCH  15  22
ATOM     22  O   UNL A   1     -28.193  -0.208  24.477  0.00  0.00    -0.456 OA
BRANCH  22  23
ATOM     23  C   UNL A   1     -29.460   0.005  23.866  0.00  0.00    +0.243 C 
BRANCH  23  24
ATOM     24  C   UNL A   1     -30.065  -1.377  23.573  0.00  0.00    +0.229 C 
ATOM     25  O   UNL A   1     -30.729  -1.878  24.721  0.00  0.00    -0.216 OA
ENDBRANCH  23  24
ENDBRANCH  22  23
ENDBRANCH  15  22
ENDBRANCH   9  11
BRANCH   5  26
ATOM     26  C   UNL A   1     -24.855  -1.012  30.143  0.00  0.00    +0.099 C 
BRANCH  26  27
ATOM     27  C   UNL A   1     -24.973  -2.505  29.788  0.00  0.00    -0.006 C 
ATOM     28  C   UNL A   1     -23.906  -3.173  29.146  0.00  0.00    -0.003 C 
ATOM     29  C   UNL A   1     -23.989  -4.549  28.853  0.00  0.00    -0.000 C 
ATOM     30  C   UNL A   1     -25.137  -5.280  29.205  0.00  0.00    -0.000 C 
ATOM     31  C   UNL A   1     -26.232  -4.611  29.784  0.00  0.00    -0.000 C 
ATOM     32  C   UNL A   1     -26.155  -3.232  30.065  0.00  0.00    -0.003 C 
ENDBRANCH  26  27
BRANCH  26  33
ATOM     33  C   UNL A   1     -25.387  -0.679  31.571  0.00  0.00    +0.092 C 
ATOM     34  C   UNL A   1     -25.189   0.773  32.028  0.00  0.00    +0.021 C 
ATOM     35  C   UNL A   1     -25.336   0.684  33.544  0.00  0.00    +0.020 C 
ATOM     36  C   UNL A   1     -24.829  -0.715  33.905  0.00  0.00    +0.089 C 
ATOM     37  N   UNL A   1     -24.758  -1.481  32.646  0.00  0.00    -0.218 NA
ENDBRANCH  26  33
ENDBRANCH   5  26
BRANCH   7  38
ATOM     38  N   UNL A   1     -25.220   2.355  29.894  0.00  0.00    -0.152 NA
BRANCH  38  41
ATOM     39  C   UNL A   1     -24.681   4.932  32.731  0.00  0.00    +0.148 C 
ATOM     40  C   UNL A   1     -25.586   4.742  31.603  0.00  0.00    +0.080 C 
ATOM     41  C   UNL A   1     -25.212   3.457  30.783  0.00  0.00    +0.195 C 
ATOM     42  O   UNL A   1     -24.569   3.816  31.898  0.00  0.00    -0.339 OA
ENDBRANCH  38  41
ENDBRANCH   7  38
TORSDOF 10
