REMARK  Name = No_870-gen_results/8p0m/2024-11-27-11-27-31/
REMARK  7 active torsions:
REMARK  status: ('A' for Active; 'I' for Inactive)
REMARK    1  A    between atoms: C_4  and  C_11
REMARK    2  A    between atoms: C_19  and  C_24
REMARK    3  A    between atoms: C_24  and  O_26
REMARK    4  A    between atoms: O_26  and  C_27
REMARK    5  A    between atoms: C_27  and  C_28
REMARK    6  A    between atoms: N_30  and  C_31
REMARK    7  A    between atoms: C_32  and  C_33
REMARK                            x       y       z     vdW  Elec       q    Type
REMARK                         _______ _______ _______ _____ _____    ______ ____
ROOT
ATOM      1  C   UNL A   1     -24.582   1.562  27.959  0.00  0.00    +0.086 A 
ATOM      2  N   UNL A   1     -24.784   2.637  28.479  0.00  0.00    -0.214 NA
ATOM      3  C   UNL A   1     -24.380   1.429  26.569  0.00  0.00    +0.040 A 
ATOM      4  C   UNL A   1     -24.922   3.801  27.760  0.00  0.00    +0.220 A 
ATOM      5  C   UNL A   1     -24.431   2.550  25.771  0.00  0.00    +0.103 A 
ATOM      6  N   UNL A   1     -24.667   3.766  26.424  0.00  0.00    -0.212 NA
ATOM      7  N   UNL A   1     -25.062   5.037  28.332  0.00  0.00    -0.278 N 
ATOM      8  C   UNL A   1     -25.719   5.146  29.545  0.00  0.00    +0.105 C 
ATOM      9  C   UNL A   1     -25.767   6.441  30.110  0.00  0.00    +0.119 C 
ATOM     10  C   UNL A   1     -24.807   6.230  27.751  0.00  0.00    +0.094 C 
ATOM     11  C   UNL A   1     -25.147   7.382  28.350  0.00  0.00    +0.022 C 
ATOM     12  C   UNL A   1     -25.552   7.564  29.550  0.00  0.00    +0.015 C 
ENDROOT
BRANCH   1  16
ATOM     13  C   UNL A   1     -28.016  -0.814  28.878  0.00  0.00    +0.011 A 
ATOM     14  C   UNL A   1     -27.064  -0.119  28.608  0.00  0.00    +0.001 A 
ATOM     15  C   UNL A   1     -25.792  -0.430  29.076  0.00  0.00    +0.002 A 
ATOM     16  C   UNL A   1     -24.546   0.349  28.823  0.00  0.00    +0.018 A 
ATOM     17  C   UNL A   1     -23.241   0.022  29.332  0.00  0.00    +0.002 A 
ATOM     18  C   UNL A   1     -27.882  -1.899  29.863  0.00  0.00    +0.058 A 
ATOM     19  C   UNL A   1     -26.653  -2.314  30.314  0.00  0.00    +0.011 A 
ATOM     20  C   UNL A   1     -25.515  -1.561  29.979  0.00  0.00    +0.001 A 
ATOM     21  C   UNL A   1     -23.216  -1.228  30.050  0.00  0.00    +0.000 A 
ATOM     22  C   UNL A   1     -24.244  -1.937  30.399  0.00  0.00    +0.000 A 
ATOM     23 CL   UNL A   1     -29.303  -2.836  30.220  0.00  0.00    -0.082 Cl
ENDBRANCH   1  16
BRANCH   9  24
ATOM     24  C   UNL A   1     -26.350   6.369  31.603  0.00  0.00    +0.319 C 
ATOM     25  O   UNL A   1     -26.609   5.439  32.193  0.00  0.00    -0.250 OA
BRANCH  24  26
ATOM     26  O   UNL A   1     -26.384   7.598  32.170  0.00  0.00    -0.438 OA
BRANCH  26  27
ATOM     27  C   UNL A   1     -26.920   7.699  33.365  0.00  0.00    +0.294 C 
BRANCH  27  28
ATOM     28  C   UNL A   1     -27.639   8.884  33.551  0.00  0.00    +0.290 C 
ATOM     29  O   UNL A   1     -27.402   9.812  32.922  0.00  0.00    -0.269 OA
ATOM     30  N   UNL A   1     -28.674   8.899  34.475  0.00  0.00    -0.175 NA
BRANCH  30  31
ATOM     31  C   UNL A   1     -29.533  10.041  34.655  0.00  0.00    +0.089 C 
ATOM     32  C   UNL A   1     -30.494  10.041  35.193  0.00  0.00    +0.018 C 
BRANCH  32  33
ATOM     33  C   UNL A   1     -31.329  10.519  35.500  0.00  0.00    -0.003 C 
ATOM     34  C   UNL A   1     -31.373  12.012  35.092  0.00  0.00    -0.026 C 
ATOM     35  C   UNL A   1     -30.235  12.342  34.331  0.00  0.00    +0.031 C 
ENDBRANCH  32  33
ENDBRANCH  30  31
ENDBRANCH  27  28
ENDBRANCH  26  27
ENDBRANCH  24  26
ENDBRANCH   9  24
TORSDOF 7
