REMARK  Name = outputs/IAG933/test6/raw/output_8700_IAG933_linker_design_.xyz
REMARK  13 active torsions:
REMARK  status: ('A' for Active; 'I' for Inactive)
REMARK    1  A    between atoms: C_1  and  C_2
REMARK    2  A    between atoms: C_1  and  C_8
REMARK    3  A    between atoms: C_1  and  N_40
REMARK    4  A    between atoms: C_13  and  C_32
REMARK    5  A    between atoms: C_14  and  C_15
REMARK    6  A    between atoms: C_21  and  O_22
REMARK    7  A    between atoms: O_22  and  C_23
REMARK    8  A    between atoms: C_23  and  C_24
REMARK    9  A    between atoms: C_32  and  C_41
REMARK   10  A    between atoms: C_32  and  C_42
REMARK   11  A    between atoms: C_34  and  C_36
REMARK   12  A    between atoms: C_34  and  C_41
REMARK   13  A    between atoms: N_40  and  C_41
REMARK                            x       y       z     vdW  Elec       q    Type
REMARK                         _______ _______ _______ _____ _____    ______ ____
ROOT
ATOM      1  C   UNL A   1     -25.093   1.065  27.602  0.00  0.00    +0.055 C 
ENDROOT
BRANCH   1   9
ATOM      2  C   UNL A   1     -23.343   1.741  26.427  0.00  0.00    +0.163 C 
ATOM      3  F   UNL A   1     -23.935   2.436  25.478  0.00  0.00    -0.202 F 
ATOM      4  C   UNL A   1     -22.987   0.538  28.471  0.00  0.00    -0.002 C 
ATOM      5  C   UNL A   1     -21.070   1.766  27.320  0.00  0.00    +0.032 C 
ATOM      6  C   UNL A   1     -21.581   0.931  28.341  0.00  0.00    +0.002 C 
ATOM      7  F   UNL A   1     -21.433   2.229  25.054  0.00  0.00    -0.202 F 
ATOM      8  C   UNL A   1     -22.007   2.124  26.273  0.00  0.00    +0.167 C 
ATOM      9  C   UNL A   1     -23.942   1.183  27.573  0.00  0.00    +0.009 C 
ENDBRANCH   1   9
BRANCH   1  10
ATOM     10  C   UNL A   1     -25.688   1.614  26.461  0.00  0.00    +0.076 C 
ATOM     11  C   UNL A   1     -26.250   2.920  26.395  0.00  0.00    +0.055 C 
ATOM     12  C   UNL A   1     -27.438   3.091  25.645  0.00  0.00    +0.102 C 
ATOM     13  N   UNL A   1     -28.075   2.089  25.003  0.00  0.00    -0.212 NA
ATOM     14  C   UNL A   1     -27.543   0.849  25.079  0.00  0.00    +0.234 C 
ATOM     15  C   UNL A   1     -26.354   0.576  25.777  0.00  0.00    +0.240 C 
ATOM     16  F   UNL A   1     -25.860  -0.681  25.795  0.00  0.00    -0.227 F 
BRANCH  11  17
ATOM     17  C   UNL A   1     -25.642   4.093  27.123  0.00  0.00    +0.263 C 
ATOM     18  N   UNL A   1     -25.614   5.252  26.449  0.00  0.00    -0.200 NA
ATOM     19  C   UNL A   1     -25.026   6.479  26.963  0.00  0.00    +0.139 C 
ATOM     20  O   UNL A   1     -25.143   3.966  28.243  0.00  0.00    -0.269 OA
ENDBRANCH  11  17
BRANCH  14  21
ATOM     21  O   UNL A   1     -28.193  -0.208  24.477  0.00  0.00    -0.459 OA
BRANCH  21  22
ATOM     22  C   UNL A   1     -29.460   0.005  23.866  0.00  0.00    +0.242 C 
BRANCH  22  23
ATOM     23  C   UNL A   1     -30.065  -1.377  23.573  0.00  0.00    +0.229 C 
ATOM     24  O   UNL A   1     -30.729  -1.878  24.721  0.00  0.00    -0.216 OA
ENDBRANCH  22  23
ENDBRANCH  21  22
ENDBRANCH  14  21
ENDBRANCH   1  10
BRANCH   1  25
ATOM     25  C   UNL A   1     -25.921   0.515  28.692  0.00  0.00    +0.137 C 
BRANCH  25  26
ATOM     26  C   UNL A   1     -27.396   0.530  29.021  0.00  0.00    +0.200 C 
ATOM     27  O   UNL A   1     -28.061   1.320  29.540  0.00  0.00    -0.292 OA
BRANCH  26  28
ATOM     28  C   UNL A   1     -27.975  -0.759  28.485  0.00  0.00    +0.247 C 
ATOM     29  O   UNL A   1     -28.623  -1.633  29.334  0.00  0.00    -0.212 OA
ENDBRANCH  26  28
ENDBRANCH  25  26
BRANCH  25  30
ATOM     30  N   UNL A   1     -25.226  -0.137  29.217  0.00  0.00    -0.207 NA
BRANCH  30  31
ATOM     31  C   UNL A   1     -24.855  -1.012  30.143  0.00  0.00    +0.111 C 
BRANCH  31  32
ATOM     32  C   UNL A   1     -24.973  -2.505  29.788  0.00  0.00    -0.005 C 
ATOM     33  C   UNL A   1     -23.906  -3.173  29.146  0.00  0.00    -0.003 C 
ATOM     34  C   UNL A   1     -23.989  -4.549  28.853  0.00  0.00    -0.000 C 
ATOM     35  C   UNL A   1     -25.137  -5.280  29.205  0.00  0.00    -0.000 C 
ATOM     36  C   UNL A   1     -26.232  -4.611  29.784  0.00  0.00    -0.000 C 
ATOM     37  C   UNL A   1     -26.155  -3.232  30.065  0.00  0.00    -0.003 C 
ENDBRANCH  31  32
BRANCH  31  38
ATOM     38  C   UNL A   1     -25.387  -0.679  31.571  0.00  0.00    +0.093 C 
ATOM     39  C   UNL A   1     -25.189   0.773  32.028  0.00  0.00    +0.021 C 
ATOM     40  C   UNL A   1     -25.336   0.684  33.544  0.00  0.00    +0.020 C 
ATOM     41  C   UNL A   1     -24.829  -0.715  33.905  0.00  0.00    +0.089 C 
ATOM     42  N   UNL A   1     -24.758  -1.481  32.646  0.00  0.00    -0.218 NA
ENDBRANCH  31  38
ENDBRANCH  30  31
ENDBRANCH  25  30
ENDBRANCH   1  25
TORSDOF 13
