REMARK  Name = outputs/IAG933/test6/raw/output_8706_IAG933_linker_design_.xyz
REMARK  15 active torsions:
REMARK  status: ('A' for Active; 'I' for Inactive)
REMARK    1  A    between atoms: C_1  and  C_2
REMARK    2  A    between atoms: C_1  and  C_8
REMARK    3  A    between atoms: C_9  and  N_30
REMARK    4  A    between atoms: C_13  and  C_28
REMARK    5  A    between atoms: C_14  and  C_15
REMARK    6  A    between atoms: C_21  and  O_22
REMARK    7  A    between atoms: O_22  and  C_23
REMARK    8  A    between atoms: C_23  and  C_24
REMARK    9  A    between atoms: C_28  and  N_40
REMARK   10  A    between atoms: C_29  and  N_30
REMARK   11  A    between atoms: N_30  and  O_33
REMARK   12  A    between atoms: S_31  and  O_33
REMARK   13  A    between atoms: S_31  and  C_45
REMARK   14  A    between atoms: C_36  and  C_38
REMARK   15  A    between atoms: C_36  and  N_40
REMARK                            x       y       z     vdW  Elec       q    Type
REMARK                         _______ _______ _______ _____ _____    ______ ____
ROOT
ATOM      1  N   UNL A   1     -25.463   2.024  31.373  0.00  0.00    -0.218 N 
ENDROOT
BRANCH   1   3
ATOM      2  C   UNL A   1     -25.387  -0.679  31.571  0.00  0.00    +0.100 C 
ATOM      3  C   UNL A   1     -25.189   0.773  32.028  0.00  0.00    +0.129 C 
ATOM      4  C   UNL A   1     -25.336   0.684  33.544  0.00  0.00    +0.045 C 
ATOM      5  C   UNL A   1     -24.829  -0.715  33.905  0.00  0.00    +0.091 C 
ATOM      6  N   UNL A   1     -24.758  -1.481  32.646  0.00  0.00    -0.217 NA
BRANCH   2   7
ATOM      7  C   UNL A   1     -24.855  -1.012  30.143  0.00  0.00    +0.046 C 
BRANCH   7   8
ATOM      8  C   UNL A   1     -24.973  -2.505  29.788  0.00  0.00    -0.021 C 
ATOM      9  C   UNL A   1     -23.906  -3.173  29.146  0.00  0.00    -0.004 C 
ATOM     10  C   UNL A   1     -23.989  -4.549  28.853  0.00  0.00    -0.000 C 
ATOM     11  C   UNL A   1     -25.137  -5.280  29.205  0.00  0.00    -0.000 C 
ATOM     12  C   UNL A   1     -26.232  -4.611  29.784  0.00  0.00    -0.000 C 
ATOM     13  C   UNL A   1     -26.155  -3.232  30.065  0.00  0.00    -0.004 C 
ENDBRANCH   7   8
ENDBRANCH   2   7
ENDBRANCH   1   3
BRANCH   1  14
ATOM     14  C   UNL A   1     -24.252   2.227  30.475  0.00  0.00    +0.142 C 
ATOM     15  C   UNL A   1     -23.279   1.688  29.603  0.00  0.00    -0.083 C 
ATOM     16  C   UNL A   1     -22.191   1.073  28.761  0.00  0.00    +0.034 C 
BRANCH  16  17
ATOM     17  C   UNL A   1     -21.986   1.560  27.297  0.00  0.00    +0.107 C 
BRANCH  17  19
ATOM     18  C   UNL A   1     -23.298   2.123  25.234  0.00  0.00    +0.090 C 
ATOM     19  N   UNL A   1     -23.299   1.825  26.692  0.00  0.00    -0.263 NA
BRANCH  19  20
ATOM     20  C   UNL A   1     -24.504   1.129  27.174  0.00  0.00    +0.102 C 
BRANCH  20  21
ATOM     21  C   UNL A   1     -25.688   1.614  26.461  0.00  0.00    +0.032 C 
ATOM     22  C   UNL A   1     -26.250   2.920  26.395  0.00  0.00    +0.074 C 
ATOM     23  C   UNL A   1     -27.438   3.091  25.645  0.00  0.00    +0.106 C 
ATOM     24  N   UNL A   1     -28.075   2.089  25.003  0.00  0.00    -0.208 NA
ATOM     25  C   UNL A   1     -27.543   0.849  25.079  0.00  0.00    +0.253 C 
ATOM     26  C   UNL A   1     -26.354   0.576  25.777  0.00  0.00    +0.190 C 
ATOM     27  F   UNL A   1     -25.860  -0.681  25.795  0.00  0.00    -0.200 F 
BRANCH  22  28
ATOM     28  C   UNL A   1     -25.642   4.093  27.123  0.00  0.00    +0.266 C 
ATOM     29  N   UNL A   1     -25.614   5.252  26.449  0.00  0.00    -0.200 NA
ATOM     30  C   UNL A   1     -25.026   6.479  26.963  0.00  0.00    +0.139 C 
ATOM     31  O   UNL A   1     -25.143   3.966  28.243  0.00  0.00    -0.268 OA
ENDBRANCH  22  28
BRANCH  25  32
ATOM     32  O   UNL A   1     -28.193  -0.208  24.477  0.00  0.00    -0.456 OA
BRANCH  32  33
ATOM     33  C   UNL A   1     -29.460   0.005  23.866  0.00  0.00    +0.243 C 
BRANCH  33  34
ATOM     34  C   UNL A   1     -30.065  -1.377  23.573  0.00  0.00    +0.229 C 
ATOM     35  O   UNL A   1     -30.729  -1.878  24.721  0.00  0.00    -0.216 OA
ENDBRANCH  33  34
ENDBRANCH  32  33
ENDBRANCH  25  32
ENDBRANCH  20  21
ENDBRANCH  19  20
ENDBRANCH  17  19
ENDBRANCH  16  17
ENDBRANCH   1  14
BRANCH   1  36
ATOM     36  O   UNL A   1     -26.002   2.968  32.216  0.00  0.00    -0.189 OA
BRANCH  36  37
ATOM     37  S   UNL A   1     -26.404   4.184  31.451  0.00  0.00    +0.081 S 
ATOM     38  C   UNL A   1     -28.090   4.437  31.254  0.00  0.00    +0.116 C 
ATOM     39  O   UNL A   1     -25.580   4.384  30.508  0.00  0.00    -0.139 OA
BRANCH  37  45
ATOM     40  C   UNL A   1     -25.322   5.512  33.843  0.00  0.00    +0.221 C 
ATOM     41  O   UNL A   1     -25.290   6.849  34.123  0.00  0.00    -0.377 OA
ATOM     42  N   UNL A   1     -25.604   7.496  33.028  0.00  0.00    -0.117 N 
ATOM     43  O   UNL A   1     -26.319   6.993  30.761  0.00  0.00    -0.266 OA
ATOM     44  C   UNL A   1     -26.058   6.758  31.982  0.00  0.00    +0.292 C 
ATOM     45  C   UNL A   1     -25.952   5.397  32.465  0.00  0.00    +0.156 C 
ATOM     46  C   UNL A   1     -25.131   8.822  32.785  0.00  0.00    +0.162 C 
ENDBRANCH  37  45
ENDBRANCH  36  37
ENDBRANCH   1  36
TORSDOF 15
