REMARK  Name = outputs/IAG933/test6/raw/output_8713_IAG933_linker_design_.xyz
REMARK  16 active torsions:
REMARK  status: ('A' for Active; 'I' for Inactive)
REMARK    1  A    between atoms: C_1  and  C_2
REMARK    2  A    between atoms: C_1  and  C_8
REMARK    3  A    between atoms: C_1  and  C_48
REMARK    4  A    between atoms: C_15  and  N_16
REMARK    5  A    between atoms: C_21  and  O_22
REMARK    6  A    between atoms: O_22  and  C_23
REMARK    7  A    between atoms: C_23  and  C_24
REMARK    8  A    between atoms: C_28  and  C_41
REMARK    9  A    between atoms: C_28  and  C_43
REMARK   10  A    between atoms: C_29  and  C_49
REMARK   11  A    between atoms: C_32  and  N_40
REMARK   12  A    between atoms: C_34  and  C_39
REMARK   13  A    between atoms: C_39  and  C_48
REMARK   14  A    between atoms: N_40  and  C_48
REMARK   15  A    between atoms: C_41  and  C_49
REMARK   16  A    between atoms: C_45  and  C_49
REMARK                            x       y       z     vdW  Elec       q    Type
REMARK                         _______ _______ _______ _____ _____    ______ ____
ROOT
ATOM      1  C   UNL A   1     -25.688   1.614  26.461  0.00  0.00    +0.071 C 
ATOM      2  C   UNL A   1     -26.250   2.920  26.395  0.00  0.00    +0.056 C 
ATOM      3  C   UNL A   1     -25.642   4.093  27.123  0.00  0.00    +0.211 C 
ATOM      4  O   UNL A   1     -25.143   3.966  28.243  0.00  0.00    -0.429 OA
ATOM      5  C   UNL A   1     -27.438   3.091  25.645  0.00  0.00    +0.159 C 
ATOM      6  N   UNL A   1     -28.075   2.089  25.003  0.00  0.00    -0.234 NA
ATOM      7  C   UNL A   1     -27.543   0.849  25.079  0.00  0.00    +0.234 C 
ATOM      8  C   UNL A   1     -26.354   0.576  25.777  0.00  0.00    +0.262 C 
ATOM      9  F   UNL A   1     -25.860  -0.681  25.795  0.00  0.00    -0.222 F 
ATOM     10  C   UNL A   1     -25.359   1.155  27.894  0.00  0.00    +0.212 C 
ATOM     11  O   UNL A   1     -25.581   1.848  29.067  0.00  0.00    -0.429 OA
ATOM     12  C   UNL A   1     -25.724   3.079  29.291  0.00  0.00    +0.350 C 
ENDROOT
BRANCH   3  13
ATOM     13  N   UNL A   1     -25.614   5.252  26.449  0.00  0.00    -0.204 NA
ATOM     14  C   UNL A   1     -25.026   6.479  26.963  0.00  0.00    +0.139 C 
ENDBRANCH   3  13
BRANCH  12  15
ATOM     15  C   UNL A   1     -26.328   3.640  30.408  0.00  0.00    +0.142 C 
BRANCH  15  16
ATOM     16  C   UNL A   1     -25.800   3.943  31.618  0.00  0.00    +0.130 C 
ATOM     17  O   UNL A   1     -24.568   4.452  31.611  0.00  0.00    -0.454 OA
ATOM     18  C   UNL A   1     -25.523   4.828  33.788  0.00  0.00    +0.043 C 
ATOM     19  C   UNL A   1     -24.292   4.993  33.022  0.00  0.00    +0.179 C 
ATOM     20  C   UNL A   1     -26.422   4.022  32.888  0.00  0.00    +0.036 C 
ENDBRANCH  15  16
BRANCH  15  21
ATOM     21  C   UNL A   1     -27.852   3.857  30.481  0.00  0.00    +0.020 C 
BRANCH  21  22
ATOM     22  C   UNL A   1     -28.546   3.985  29.088  0.00  0.00    +0.027 C 
BRANCH  22  25
ATOM     23  C   UNL A   1     -28.909   1.571  29.763  0.00  0.00    -0.004 C 
ATOM     24  C   UNL A   1     -29.332   0.244  29.512  0.00  0.00    -0.000 C 
ATOM     25  C   UNL A   1     -29.135   2.604  28.826  0.00  0.00    -0.022 C 
ATOM     26  C   UNL A   1     -30.049  -0.014  28.341  0.00  0.00    -0.000 C 
ATOM     27  C   UNL A   1     -30.363   1.015  27.451  0.00  0.00    -0.000 C 
ATOM     28  C   UNL A   1     -29.881   2.302  27.669  0.00  0.00    -0.004 C 
ENDBRANCH  22  25
ENDBRANCH  21  22
ENDBRANCH  15  21
ENDBRANCH  12  15
BRANCH  10  29
ATOM     29  N   UNL A   1     -25.020  -0.165  28.027  0.00  0.00    -0.207 NA
BRANCH  29  30
ATOM     30  C   UNL A   1     -24.210  -0.337  29.071  0.00  0.00    +0.101 C 
BRANCH  30  31
ATOM     31  C   UNL A   1     -24.855  -1.012  30.143  0.00  0.00    +0.058 C 
BRANCH  31  32
ATOM     32  C   UNL A   1     -24.973  -2.505  29.788  0.00  0.00    -0.019 C 
ATOM     33  C   UNL A   1     -23.906  -3.173  29.146  0.00  0.00    -0.004 C 
ATOM     34  C   UNL A   1     -23.989  -4.549  28.853  0.00  0.00    -0.000 C 
ATOM     35  C   UNL A   1     -25.137  -5.280  29.205  0.00  0.00    -0.000 C 
ATOM     36  C   UNL A   1     -26.232  -4.611  29.784  0.00  0.00    -0.000 C 
ATOM     37  C   UNL A   1     -26.155  -3.232  30.065  0.00  0.00    -0.004 C 
ENDBRANCH  31  32
BRANCH  31  38
ATOM     38  C   UNL A   1     -25.387  -0.679  31.571  0.00  0.00    +0.079 C 
ATOM     39  C   UNL A   1     -25.189   0.773  32.028  0.00  0.00    +0.019 C 
ATOM     40  C   UNL A   1     -25.336   0.684  33.544  0.00  0.00    +0.020 C 
ATOM     41  C   UNL A   1     -24.829  -0.715  33.905  0.00  0.00    +0.089 C 
ATOM     42  N   UNL A   1     -24.758  -1.481  32.646  0.00  0.00    -0.219 NA
ENDBRANCH  31  38
ENDBRANCH  30  31
BRANCH  30  43
ATOM     43  C   UNL A   1     -22.831   0.300  28.948  0.00  0.00    +0.022 C 
BRANCH  43  45
ATOM     44  C   UNL A   1     -22.287   1.658  26.459  0.00  0.00    +0.000 C 
ATOM     45  C   UNL A   1     -22.378   1.480  27.999  0.00  0.00    +0.002 C 
ATOM     46  C   UNL A   1     -20.884   1.738  28.235  0.00  0.00    +0.000 C 
ENDBRANCH  43  45
ENDBRANCH  30  43
ENDBRANCH  29  30
ENDBRANCH  10  29
BRANCH   7  47
ATOM     47  O   UNL A   1     -28.193  -0.208  24.477  0.00  0.00    -0.459 OA
BRANCH  47  48
ATOM     48  C   UNL A   1     -29.460   0.005  23.866  0.00  0.00    +0.242 C 
BRANCH  48  49
ATOM     49  C   UNL A   1     -30.065  -1.377  23.573  0.00  0.00    +0.229 C 
ATOM     50  O   UNL A   1     -30.729  -1.878  24.721  0.00  0.00    -0.216 OA
ENDBRANCH  48  49
ENDBRANCH  47  48
ENDBRANCH   7  47
TORSDOF 16
