REMARK  Name = outputs/IAG933/test6/raw/output_8717_IAG933_linker_design_.xyz
REMARK  16 active torsions:
REMARK  status: ('A' for Active; 'I' for Inactive)
REMARK    1  A    between atoms: C_1  and  C_2
REMARK    2  A    between atoms: C_1  and  C_8
REMARK    3  A    between atoms: C_1  and  N_43
REMARK    4  A    between atoms: C_13  and  C_37
REMARK    5  A    between atoms: C_14  and  C_15
REMARK    6  A    between atoms: C_21  and  O_22
REMARK    7  A    between atoms: O_22  and  C_23
REMARK    8  A    between atoms: C_23  and  C_24
REMARK    9  A    between atoms: O_28  and  C_42
REMARK   10  A    between atoms: C_30  and  C_33
REMARK   11  A    between atoms: C_30  and  C_45
REMARK   12  A    between atoms: C_33  and  C_42
REMARK   13  A    between atoms: C_39  and  N_43
REMARK   14  A    between atoms: O_41  and  C_44
REMARK   15  A    between atoms: C_42  and  C_44
REMARK   16  A    between atoms: N_43  and  C_45
REMARK                            x       y       z     vdW  Elec       q    Type
REMARK                         _______ _______ _______ _____ _____    ______ ____
ROOT
ATOM      1  N   UNL A   1     -25.185   0.027  29.140  0.00  0.00    -0.304 N 
ENDROOT
BRANCH   1   8
ATOM      2  C   UNL A   1     -23.135   1.936  26.616  0.00  0.00    +0.059 C 
ATOM      3  C   UNL A   1     -22.841   0.490  28.953  0.00  0.00    +0.015 C 
ATOM      4 CL   UNL A   1     -23.130   2.720  25.038  0.00  0.00    -0.082 Cl
ATOM      5  C   UNL A   1     -21.900   1.947  27.313  0.00  0.00    +0.011 C 
ATOM      6  C   UNL A   1     -24.352   1.379  27.162  0.00  0.00    +0.026 C 
ATOM      7  C   UNL A   1     -21.752   1.170  28.468  0.00  0.00    +0.002 C 
ATOM      8  C   UNL A   1     -24.170   0.627  28.397  0.00  0.00    +0.049 C 
BRANCH   6   9
ATOM      9  C   UNL A   1     -25.688   1.614  26.461  0.00  0.00    +0.040 C 
ATOM     10  C   UNL A   1     -26.250   2.920  26.395  0.00  0.00    +0.077 C 
ATOM     11  C   UNL A   1     -27.438   3.091  25.645  0.00  0.00    +0.107 C 
ATOM     12  N   UNL A   1     -28.075   2.089  25.003  0.00  0.00    -0.208 NA
ATOM     13  C   UNL A   1     -27.543   0.849  25.079  0.00  0.00    +0.253 C 
ATOM     14  C   UNL A   1     -26.354   0.576  25.777  0.00  0.00    +0.193 C 
ATOM     15  F   UNL A   1     -25.860  -0.681  25.795  0.00  0.00    -0.199 F 
BRANCH  10  16
ATOM     16  C   UNL A   1     -25.642   4.093  27.123  0.00  0.00    +0.266 C 
ATOM     17  N   UNL A   1     -25.614   5.252  26.449  0.00  0.00    -0.200 NA
ATOM     18  C   UNL A   1     -25.026   6.479  26.963  0.00  0.00    +0.139 C 
ATOM     19  O   UNL A   1     -25.143   3.966  28.243  0.00  0.00    -0.268 OA
ENDBRANCH  10  16
BRANCH  13  20
ATOM     20  O   UNL A   1     -28.193  -0.208  24.477  0.00  0.00    -0.456 OA
BRANCH  20  21
ATOM     21  C   UNL A   1     -29.460   0.005  23.866  0.00  0.00    +0.243 C 
BRANCH  21  22
ATOM     22  C   UNL A   1     -30.065  -1.377  23.573  0.00  0.00    +0.229 C 
ATOM     23  O   UNL A   1     -30.729  -1.878  24.721  0.00  0.00    -0.216 OA
ENDBRANCH  21  22
ENDBRANCH  20  21
ENDBRANCH  13  20
ENDBRANCH   6   9
ENDBRANCH   1   8
BRANCH   1  24
ATOM     24  C   UNL A   1     -24.855  -1.012  30.143  0.00  0.00    +0.111 C 
BRANCH  24  25
ATOM     25  C   UNL A   1     -24.973  -2.505  29.788  0.00  0.00    -0.003 C 
ATOM     26  C   UNL A   1     -23.906  -3.173  29.146  0.00  0.00    -0.003 C 
ATOM     27  C   UNL A   1     -23.989  -4.549  28.853  0.00  0.00    -0.000 C 
ATOM     28  C   UNL A   1     -25.137  -5.280  29.205  0.00  0.00    -0.000 C 
ATOM     29  C   UNL A   1     -26.232  -4.611  29.784  0.00  0.00    -0.000 C 
ATOM     30  C   UNL A   1     -26.155  -3.232  30.065  0.00  0.00    -0.003 C 
ENDBRANCH  24  25
BRANCH  24  31
ATOM     31  C   UNL A   1     -25.387  -0.679  31.571  0.00  0.00    +0.095 C 
ATOM     32  C   UNL A   1     -25.189   0.773  32.028  0.00  0.00    +0.021 C 
ATOM     33  C   UNL A   1     -25.336   0.684  33.544  0.00  0.00    +0.020 C 
ATOM     34  C   UNL A   1     -24.829  -0.715  33.905  0.00  0.00    +0.089 C 
ATOM     35  N   UNL A   1     -24.758  -1.481  32.646  0.00  0.00    -0.217 NA
ENDBRANCH  24  31
ENDBRANCH   1  24
BRANCH   1  36
ATOM     36  C   UNL A   1     -26.604   0.475  29.098  0.00  0.00    +0.091 C 
BRANCH  36  37
ATOM     37  C   UNL A   1     -27.625  -0.666  28.987  0.00  0.00    +0.025 C 
BRANCH  37  38
ATOM     38  C   UNL A   1     -28.598  -0.517  27.806  0.00  0.00    +0.043 C 
BRANCH  38  39
ATOM     39  C   UNL A   1     -29.916   0.088  28.355  0.00  0.00    +0.213 C 
BRANCH  39  40
ATOM     40  O   UNL A   1     -30.538   0.995  27.378  0.00  0.00    -0.343 OA
ATOM     41  C   UNL A   1     -31.290   2.052  27.977  0.00  0.00    +0.175 C 
ENDBRANCH  39  40
BRANCH  39  43
ATOM     42  O   UNL A   1     -30.888  -1.320  30.024  0.00  0.00    -0.247 OA
ATOM     43  C   UNL A   1     -31.024  -0.835  28.885  0.00  0.00    +0.344 C 
BRANCH  43  45
ATOM     44  C   UNL A   1     -32.732  -2.432  28.436  0.00  0.00    +0.256 C 
ATOM     45  O   UNL A   1     -32.188  -1.065  28.271  0.00  0.00    -0.443 OA
ENDBRANCH  43  45
ENDBRANCH  39  43
ENDBRANCH  38  39
ENDBRANCH  37  38
ENDBRANCH  36  37
ENDBRANCH   1  36
TORSDOF 16
