REMARK  Name = outputs/IAG933/test6/raw/output_8722_IAG933_linker_design_.xyz
REMARK  11 active torsions:
REMARK  status: ('A' for Active; 'I' for Inactive)
REMARK    1  A    between atoms: C_1  and  C_2
REMARK    2  A    between atoms: C_1  and  C_8
REMARK    3  A    between atoms: C_1  and  C_35
REMARK    4  A    between atoms: C_13  and  N_33
REMARK    5  A    between atoms: C_14  and  C_15
REMARK    6  A    between atoms: C_21  and  O_22
REMARK    7  A    between atoms: O_22  and  C_23
REMARK    8  A    between atoms: C_23  and  C_24
REMARK    9  A    between atoms: C_29  and  C_38
REMARK   10  A    between atoms: N_33  and  C_38
REMARK   11  A    between atoms: C_38  and  C_40
REMARK                            x       y       z     vdW  Elec       q    Type
REMARK                         _______ _______ _______ _____ _____    ______ ____
ROOT
ATOM      1  O   UNL A   1     -26.388  -0.606  28.633  0.00  0.00    -0.275 OA
ATOM      2  N   UNL A   1     -24.856   0.957  27.492  0.00  0.00    -0.266 N 
ATOM      3  C   UNL A   1     -25.184   0.011  28.822  0.00  0.00    +0.231 C 
ENDROOT
BRANCH   2   4
ATOM      4  C   UNL A   1     -25.688   1.614  26.461  0.00  0.00    +0.146 C 
ATOM      5  C   UNL A   1     -26.250   2.920  26.395  0.00  0.00    +0.073 C 
ATOM      6  C   UNL A   1     -27.438   3.091  25.645  0.00  0.00    +0.104 C 
ATOM      7  N   UNL A   1     -28.075   2.089  25.003  0.00  0.00    -0.212 NA
ATOM      8  C   UNL A   1     -27.543   0.849  25.079  0.00  0.00    +0.236 C 
ATOM      9  C   UNL A   1     -26.354   0.576  25.777  0.00  0.00    +0.258 C 
ATOM     10  F   UNL A   1     -25.860  -0.681  25.795  0.00  0.00    -0.225 F 
BRANCH   5  11
ATOM     11  C   UNL A   1     -25.642   4.093  27.123  0.00  0.00    +0.264 C 
ATOM     12  N   UNL A   1     -25.614   5.252  26.449  0.00  0.00    -0.200 NA
ATOM     13  C   UNL A   1     -25.026   6.479  26.963  0.00  0.00    +0.139 C 
ATOM     14  O   UNL A   1     -25.143   3.966  28.243  0.00  0.00    -0.269 OA
ENDBRANCH   5  11
BRANCH   8  15
ATOM     15  O   UNL A   1     -28.193  -0.208  24.477  0.00  0.00    -0.459 OA
BRANCH  15  16
ATOM     16  C   UNL A   1     -29.460   0.005  23.866  0.00  0.00    +0.242 C 
BRANCH  16  17
ATOM     17  C   UNL A   1     -30.065  -1.377  23.573  0.00  0.00    +0.229 C 
ATOM     18  O   UNL A   1     -30.729  -1.878  24.721  0.00  0.00    -0.216 OA
ENDBRANCH  16  17
ENDBRANCH  15  16
ENDBRANCH   8  15
ENDBRANCH   2   4
BRANCH   3  19
ATOM     19  C   UNL A   1     -24.855  -1.012  30.143  0.00  0.00    +0.115 C 
BRANCH  19  20
ATOM     20  C   UNL A   1     -24.973  -2.505  29.788  0.00  0.00    -0.013 C 
ATOM     21  C   UNL A   1     -23.906  -3.173  29.146  0.00  0.00    -0.004 C 
ATOM     22  C   UNL A   1     -23.989  -4.549  28.853  0.00  0.00    -0.000 C 
ATOM     23  C   UNL A   1     -25.137  -5.280  29.205  0.00  0.00    -0.000 C 
ATOM     24  C   UNL A   1     -26.232  -4.611  29.784  0.00  0.00    -0.000 C 
ATOM     25  C   UNL A   1     -26.155  -3.232  30.065  0.00  0.00    -0.004 C 
ENDBRANCH  19  20
BRANCH  19  26
ATOM     26  C   UNL A   1     -25.387  -0.679  31.571  0.00  0.00    +0.086 C 
ATOM     27  C   UNL A   1     -25.189   0.773  32.028  0.00  0.00    +0.020 C 
ATOM     28  C   UNL A   1     -25.336   0.684  33.544  0.00  0.00    +0.020 C 
ATOM     29  C   UNL A   1     -24.829  -0.715  33.905  0.00  0.00    +0.089 C 
ATOM     30  N   UNL A   1     -24.758  -1.481  32.646  0.00  0.00    -0.219 NA
ENDBRANCH  19  26
ENDBRANCH   3  19
BRANCH   2  31
ATOM     31  C   UNL A   1     -23.549   1.310  26.846  0.00  0.00    +0.174 C 
BRANCH  31  32
ATOM     32  C   UNL A   1     -22.616   1.703  28.078  0.00  0.00    +0.208 C 
ATOM     33  C   UNL A   1     -22.659   0.550  28.848  0.00  0.00    +0.187 C 
ATOM     34  C   UNL A   1     -20.733  -0.179  29.006  0.00  0.00    +0.185 C 
ATOM     35  C   UNL A   1     -21.834  -0.924  28.830  0.00  0.00    +0.071 C 
ATOM     36  O   UNL A   1     -21.388   1.408  27.340  0.00  0.00    -0.218 OA
ATOM     37  O   UNL A   1     -20.371   0.965  28.214  0.00  0.00    -0.220 OA
ATOM     38  O   UNL A   1     -23.140   0.974  30.117  0.00  0.00    -0.220 OA
ENDBRANCH  31  32
BRANCH  31  40
ATOM     39  O   UNL A   1     -22.904   2.696  25.176  0.00  0.00    -0.286 OA
ATOM     40  C   UNL A   1     -23.183   1.627  25.666  0.00  0.00    +0.230 C 
ENDBRANCH  31  40
ENDBRANCH   2  31
TORSDOF 11
