MODEL 872
MODEL 1
REMARK VINA RESULT:    -5.262      0.000      0.000
REMARK INTER + INTRA:          -7.420
REMARK INTER:                  -6.800
REMARK INTRA:                  -0.620
REMARK UNBOUND:                -0.620
REMARK  Name = No_872-gen_results/8p0m/2024-11-27-11-27-31/
REMARK  5 active torsions:
REMARK  status: ('A' for Active; 'I' for Inactive)
REMARK    1  A    between atoms: C_2  and  O_13
REMARK    2  A    between atoms: C_4  and  C_7
REMARK    3  A    between atoms: C_7  and  C_8
REMARK    4  A    between atoms: C_8  and  C_9
REMARK    5  A    between atoms: C_9  and  C_11
REMARK                            x       y       z     vdW  Elec       q    Type
REMARK                         _______ _______ _______ _____ _____    ______ ____
ROOT
ATOM      1  C   UNL A   1     -26.200  -2.626  30.045  0.00  0.00    +0.037 A 
ATOM      2  C   UNL A   1     -26.002  -3.602  29.702  0.00  0.00    +0.139 A 
ATOM      3  C   UNL A   1     -25.050  -1.651  29.931  0.00  0.00    -0.001 A 
ATOM      4  C   UNL A   1     -23.872  -2.046  29.262  0.00  0.00    -0.022 A 
ATOM      5  C   UNL A   1     -24.903  -4.251  28.952  0.00  0.00    +0.037 A 
ATOM      6  C   UNL A   1     -23.829  -3.382  28.821  0.00  0.00    -0.001 A 
ENDROOT
BRANCH   2   7
ATOM      7  O   UNL A   1     -27.120  -4.539  29.872  0.00  0.00    -0.471 OA
ATOM      8  C   UNL A   1     -28.107  -4.435  30.500  0.00  0.00    +0.253 C 
ENDBRANCH   2   7
BRANCH   4   9
ATOM      9  C   UNL A   1     -22.752  -1.177  29.140  0.00  0.00    +0.026 C 
BRANCH   9  10
ATOM     10  C   UNL A   1     -23.073   0.194  28.920  0.00  0.00    +0.005 C 
BRANCH  10  11
ATOM     11  C   UNL A   1     -23.010   0.791  27.696  0.00  0.00    +0.000 C 
ATOM     12  C   UNL A   1     -21.993   1.659  27.424  0.00  0.00    +0.000 C 
BRANCH  11  13
ATOM     13  C   UNL A   1     -24.292   1.217  27.156  0.00  0.00    +0.000 C 
ATOM     14  C   UNL A   1     -24.526   0.647  25.808  0.00  0.00    +0.000 C 
ENDBRANCH  11  13
ENDBRANCH  10  11
ENDBRANCH   9  10
ENDBRANCH   4   9
TORSDOF 5
ENDMDL
ENDMDL
