REMARK  Name = outputs/IAG933/test6/raw/output_8730_IAG933_linker_design_.xyz
REMARK  14 active torsions:
REMARK  status: ('A' for Active; 'I' for Inactive)
REMARK    1  A    between atoms: C_1  and  C_2
REMARK    2  A    between atoms: C_1  and  C_8
REMARK    3  A    between atoms: C_1  and  C_29
REMARK    4  A    between atoms: C_13  and  C_44
REMARK    5  A    between atoms: C_14  and  C_15
REMARK    6  A    between atoms: C_21  and  O_22
REMARK    7  A    between atoms: O_22  and  C_23
REMARK    8  A    between atoms: C_23  and  C_24
REMARK    9  A    between atoms: C_29  and  C_33
REMARK   10  A    between atoms: C_29  and  C_34
REMARK   11  A    between atoms: N_31  and  C_44
REMARK   12  A    between atoms: C_33  and  C_36
REMARK   13  A    between atoms: C_36  and  O_42
REMARK   14  A    between atoms: O_42  and  C_45
REMARK                            x       y       z     vdW  Elec       q    Type
REMARK                         _______ _______ _______ _____ _____    ______ ____
ROOT
ATOM      1  C   UNL A   1     -25.107   0.034  28.995  0.00  0.00    +0.022 C 
ENDROOT
BRANCH   1   4
ATOM      2  C   UNL A   1     -22.370   0.291  29.202  0.00  0.00    +0.017 C 
ATOM      3  N   UNL A   1     -23.359   1.625  27.469  0.00  0.00    -0.274 NA
ATOM      4  C   UNL A   1     -23.698   0.899  28.775  0.00  0.00    +0.058 C 
ATOM      5  C   UNL A   1     -21.846   1.813  27.316  0.00  0.00    +0.072 C 
ATOM      6  C   UNL A   1     -21.254   0.820  28.287  0.00  0.00    +0.019 C 
BRANCH   3   7
ATOM      7  C   UNL A   1     -24.198   1.496  26.207  0.00  0.00    +0.080 C 
BRANCH   7   8
ATOM      8  C   UNL A   1     -25.688   1.614  26.461  0.00  0.00    +0.086 C 
ATOM      9  C   UNL A   1     -26.250   2.920  26.395  0.00  0.00    +0.056 C 
ATOM     10  C   UNL A   1     -27.438   3.091  25.645  0.00  0.00    +0.102 C 
ATOM     11  N   UNL A   1     -28.075   2.089  25.003  0.00  0.00    -0.212 NA
ATOM     12  C   UNL A   1     -27.543   0.849  25.079  0.00  0.00    +0.234 C 
ATOM     13  C   UNL A   1     -26.354   0.576  25.777  0.00  0.00    +0.241 C 
ATOM     14  F   UNL A   1     -25.860  -0.681  25.795  0.00  0.00    -0.227 F 
BRANCH   9  15
ATOM     15  C   UNL A   1     -25.642   4.093  27.123  0.00  0.00    +0.263 C 
ATOM     16  N   UNL A   1     -25.614   5.252  26.449  0.00  0.00    -0.200 NA
ATOM     17  C   UNL A   1     -25.026   6.479  26.963  0.00  0.00    +0.139 C 
ATOM     18  O   UNL A   1     -25.143   3.966  28.243  0.00  0.00    -0.269 OA
ENDBRANCH   9  15
BRANCH  12  19
ATOM     19  O   UNL A   1     -28.193  -0.208  24.477  0.00  0.00    -0.459 OA
BRANCH  19  20
ATOM     20  C   UNL A   1     -29.460   0.005  23.866  0.00  0.00    +0.242 C 
BRANCH  20  21
ATOM     21  C   UNL A   1     -30.065  -1.377  23.573  0.00  0.00    +0.229 C 
ATOM     22  O   UNL A   1     -30.729  -1.878  24.721  0.00  0.00    -0.216 OA
ENDBRANCH  20  21
ENDBRANCH  19  20
ENDBRANCH  12  19
ENDBRANCH   7   8
ENDBRANCH   3   7
ENDBRANCH   1   4
BRANCH   1  23
ATOM     23  C   UNL A   1     -24.855  -1.012  30.143  0.00  0.00    +0.040 C 
BRANCH  23  24
ATOM     24  C   UNL A   1     -24.973  -2.505  29.788  0.00  0.00    -0.021 C 
ATOM     25  C   UNL A   1     -23.906  -3.173  29.146  0.00  0.00    -0.004 C 
ATOM     26  C   UNL A   1     -23.989  -4.549  28.853  0.00  0.00    -0.000 C 
ATOM     27  C   UNL A   1     -25.137  -5.280  29.205  0.00  0.00    -0.000 C 
ATOM     28  C   UNL A   1     -26.232  -4.611  29.784  0.00  0.00    -0.000 C 
ATOM     29  C   UNL A   1     -26.155  -3.232  30.065  0.00  0.00    -0.004 C 
ENDBRANCH  23  24
BRANCH  23  30
ATOM     30  C   UNL A   1     -25.387  -0.679  31.571  0.00  0.00    +0.077 C 
ATOM     31  C   UNL A   1     -25.189   0.773  32.028  0.00  0.00    +0.019 C 
ATOM     32  C   UNL A   1     -25.336   0.684  33.544  0.00  0.00    +0.020 C 
ATOM     33  C   UNL A   1     -24.829  -0.715  33.905  0.00  0.00    +0.089 C 
ATOM     34  N   UNL A   1     -24.758  -1.481  32.646  0.00  0.00    -0.219 NA
ENDBRANCH  23  30
ENDBRANCH   1  23
BRANCH   1  35
ATOM     35  C   UNL A   1     -26.859   0.530  29.006  0.00  0.00    +0.034 C 
BRANCH  35  36
ATOM     36  C   UNL A   1     -28.050  -0.466  29.324  0.00  0.00    +0.142 C 
BRANCH  36  37
ATOM     37  O   UNL A   1     -28.852  -0.602  28.139  0.00  0.00    -0.354 OA
BRANCH  37  45
ATOM     38  O   UNL A   1     -30.417   3.486  28.349  0.00  0.00    -0.223 OA
ATOM     39  C   UNL A   1     -32.194   1.664  31.591  0.00  0.00    +0.032 C 
ATOM     40  C   UNL A   1     -30.935  -0.883  29.193  0.00  0.00    +0.172 C 
ATOM     41  O   UNL A   1     -31.620  -0.038  30.144  0.00  0.00    -0.354 OA
ATOM     42  C   UNL A   1     -30.655   1.120  27.561  0.00  0.00    +0.065 C 
ATOM     43  C   UNL A   1     -29.957   2.140  28.509  0.00  0.00    +0.157 C 
ATOM     44  C   UNL A   1     -31.703   1.338  30.181  0.00  0.00    +0.118 C 
ATOM     45  C   UNL A   1     -30.280  -0.381  27.945  0.00  0.00    +0.147 C 
ATOM     46  C   UNL A   1     -30.295   1.944  30.069  0.00  0.00    +0.062 C 
ENDBRANCH  37  45
ENDBRANCH  36  37
ENDBRANCH  35  36
ENDBRANCH   1  35
TORSDOF 14
