REMARK  Name = outputs/IAG933/test6/raw/output_8731_IAG933_linker_design_.xyz
REMARK  10 active torsions:
REMARK  status: ('A' for Active; 'I' for Inactive)
REMARK    1  A    between atoms: C_1  and  C_2
REMARK    2  A    between atoms: C_1  and  C_8
REMARK    3  A    between atoms: C_1  and  C_39
REMARK    4  A    between atoms: C_13  and  C_36
REMARK    5  A    between atoms: C_14  and  C_15
REMARK    6  A    between atoms: C_21  and  O_22
REMARK    7  A    between atoms: O_22  and  C_23
REMARK    8  A    between atoms: C_23  and  C_24
REMARK    9  A    between atoms: C_33  and  C_41
REMARK   10  A    between atoms: C_35  and  C_37
REMARK                            x       y       z     vdW  Elec       q    Type
REMARK                         _______ _______ _______ _____ _____    ______ ____
ROOT
ATOM      1  O   UNL A   1     -22.244   0.802  28.255  0.00  0.00    -0.462 OA
ATOM      2  C   UNL A   1     -22.809   0.107  29.227  0.00  0.00    +0.229 C 
ATOM      3  C   UNL A   1     -23.115   1.299  27.325  0.00  0.00    +0.207 C 
ATOM      4  C   UNL A   1     -24.535   1.149  27.413  0.00  0.00    +0.042 C 
ATOM      5  C   UNL A   1     -24.163  -0.186  29.273  0.00  0.00    +0.000 C 
ATOM      6  C   UNL A   1     -25.040   0.416  28.416  0.00  0.00    -0.023 C 
ENDROOT
BRANCH   4   7
ATOM      7  C   UNL A   1     -25.688   1.614  26.461  0.00  0.00    +0.041 C 
ATOM      8  C   UNL A   1     -26.250   2.920  26.395  0.00  0.00    +0.077 C 
ATOM      9  C   UNL A   1     -27.438   3.091  25.645  0.00  0.00    +0.107 C 
ATOM     10  N   UNL A   1     -28.075   2.089  25.003  0.00  0.00    -0.208 NA
ATOM     11  C   UNL A   1     -27.543   0.849  25.079  0.00  0.00    +0.253 C 
ATOM     12  C   UNL A   1     -26.354   0.576  25.777  0.00  0.00    +0.193 C 
ATOM     13  F   UNL A   1     -25.860  -0.681  25.795  0.00  0.00    -0.199 F 
BRANCH   8  14
ATOM     14  C   UNL A   1     -25.642   4.093  27.123  0.00  0.00    +0.266 C 
ATOM     15  N   UNL A   1     -25.614   5.252  26.449  0.00  0.00    -0.200 NA
ATOM     16  C   UNL A   1     -25.026   6.479  26.963  0.00  0.00    +0.139 C 
ATOM     17  O   UNL A   1     -25.143   3.966  28.243  0.00  0.00    -0.268 OA
ENDBRANCH   8  14
BRANCH  11  18
ATOM     18  O   UNL A   1     -28.193  -0.208  24.477  0.00  0.00    -0.456 OA
BRANCH  18  19
ATOM     19  C   UNL A   1     -29.460   0.005  23.866  0.00  0.00    +0.243 C 
BRANCH  19  20
ATOM     20  C   UNL A   1     -30.065  -1.377  23.573  0.00  0.00    +0.229 C 
ATOM     21  O   UNL A   1     -30.729  -1.878  24.721  0.00  0.00    -0.216 OA
ENDBRANCH  19  20
ENDBRANCH  18  19
ENDBRANCH  11  18
ENDBRANCH   4   7
BRANCH   6  24
ATOM     22  C   UNL A   1     -28.889   1.851  28.268  0.00  0.00    +0.000 C 
ATOM     23  C   UNL A   1     -28.010   2.091  29.492  0.00  0.00    +0.000 C 
ATOM     24  C   UNL A   1     -26.591   0.120  28.790  0.00  0.00    +0.022 C 
ATOM     25  C   UNL A   1     -27.066   1.121  29.793  0.00  0.00    +0.004 C 
ATOM     26  C   UNL A   1     -29.271  -0.341  29.138  0.00  0.00    +0.000 C 
ATOM     27  C   UNL A   1     -29.869   0.778  28.747  0.00  0.00    +0.000 C 
ATOM     28  C   UNL A   1     -27.884  -0.786  28.682  0.00  0.00    +0.004 C 
ENDBRANCH   6  24
BRANCH   3  30
ATOM     29  N   UNL A   1     -22.050   2.404  25.440  0.00  0.00    -0.188 NA
ATOM     30  C   UNL A   1     -22.517   1.901  26.312  0.00  0.00    +0.138 C 
ENDBRANCH   3  30
BRANCH   5  31
ATOM     31  C   UNL A   1     -24.855  -1.012  30.143  0.00  0.00    +0.060 C 
BRANCH  31  32
ATOM     32  C   UNL A   1     -24.973  -2.505  29.788  0.00  0.00    -0.017 C 
ATOM     33  C   UNL A   1     -23.906  -3.173  29.146  0.00  0.00    -0.004 C 
ATOM     34  C   UNL A   1     -23.989  -4.549  28.853  0.00  0.00    -0.000 C 
ATOM     35  C   UNL A   1     -25.137  -5.280  29.205  0.00  0.00    -0.000 C 
ATOM     36  C   UNL A   1     -26.232  -4.611  29.784  0.00  0.00    -0.000 C 
ATOM     37  C   UNL A   1     -26.155  -3.232  30.065  0.00  0.00    -0.004 C 
ENDBRANCH  31  32
BRANCH  31  38
ATOM     38  C   UNL A   1     -25.387  -0.679  31.571  0.00  0.00    +0.081 C 
ATOM     39  C   UNL A   1     -25.189   0.773  32.028  0.00  0.00    +0.019 C 
ATOM     40  C   UNL A   1     -25.336   0.684  33.544  0.00  0.00    +0.020 C 
ATOM     41  C   UNL A   1     -24.829  -0.715  33.905  0.00  0.00    +0.089 C 
ATOM     42  N   UNL A   1     -24.758  -1.481  32.646  0.00  0.00    -0.219 NA
ENDBRANCH  31  38
ENDBRANCH   5  31
TORSDOF 10
