REMARK  Name = outputs/IAG933/test6/raw/output_8732_IAG933_linker_design_.xyz
REMARK  18 active torsions:
REMARK  status: ('A' for Active; 'I' for Inactive)
REMARK    1  A    between atoms: C_1  and  C_2
REMARK    2  A    between atoms: C_1  and  C_8
REMARK    3  A    between atoms: C_1  and  N_32
REMARK    4  A    between atoms: C_13  and  C_38
REMARK    5  A    between atoms: C_14  and  C_15
REMARK    6  A    between atoms: C_21  and  O_22
REMARK    7  A    between atoms: O_22  and  C_23
REMARK    8  A    between atoms: C_23  and  C_24
REMARK    9  A    between atoms: C_29  and  C_30
REMARK   10  A    between atoms: C_29  and  C_38
REMARK   11  A    between atoms: C_30  and  C_42
REMARK   12  A    between atoms: C_31  and  N_32
REMARK   13  A    between atoms: C_31  and  C_38
REMARK   14  A    between atoms: N_32  and  C_34
REMARK   15  A    between atoms: C_34  and  C_40
REMARK   16  A    between atoms: C_36  and  C_43
REMARK   17  A    between atoms: C_37  and  C_40
REMARK   18  A    between atoms: C_37  and  C_43
REMARK                            x       y       z     vdW  Elec       q    Type
REMARK                         _______ _______ _______ _____ _____    ______ ____
ROOT
ATOM      1  C   UNL A   1     -24.614   1.292  27.433  0.00  0.00    +0.042 C 
ENDROOT
BRANCH   1   2
ATOM      2  C   UNL A   1     -25.688   1.614  26.461  0.00  0.00    +0.017 C 
ATOM      3  C   UNL A   1     -26.250   2.920  26.395  0.00  0.00    +0.073 C 
ATOM      4  C   UNL A   1     -27.438   3.091  25.645  0.00  0.00    +0.106 C 
ATOM      5  N   UNL A   1     -28.075   2.089  25.003  0.00  0.00    -0.208 NA
ATOM      6  C   UNL A   1     -27.543   0.849  25.079  0.00  0.00    +0.253 C 
ATOM      7  C   UNL A   1     -26.354   0.576  25.777  0.00  0.00    +0.189 C 
ATOM      8  F   UNL A   1     -25.860  -0.681  25.795  0.00  0.00    -0.200 F 
BRANCH   3   9
ATOM      9  C   UNL A   1     -25.642   4.093  27.123  0.00  0.00    +0.266 C 
ATOM     10  N   UNL A   1     -25.614   5.252  26.449  0.00  0.00    -0.200 NA
ATOM     11  C   UNL A   1     -25.026   6.479  26.963  0.00  0.00    +0.139 C 
ATOM     12  O   UNL A   1     -25.143   3.966  28.243  0.00  0.00    -0.268 OA
ENDBRANCH   3   9
BRANCH   6  13
ATOM     13  O   UNL A   1     -28.193  -0.208  24.477  0.00  0.00    -0.456 OA
BRANCH  13  14
ATOM     14  C   UNL A   1     -29.460   0.005  23.866  0.00  0.00    +0.243 C 
BRANCH  14  15
ATOM     15  C   UNL A   1     -30.065  -1.377  23.573  0.00  0.00    +0.229 C 
ATOM     16  O   UNL A   1     -30.729  -1.878  24.721  0.00  0.00    -0.216 OA
ENDBRANCH  14  15
ENDBRANCH  13  14
ENDBRANCH   6  13
ENDBRANCH   1   2
BRANCH   1  17
ATOM     17  C   UNL A   1     -24.391   0.816  28.687  0.00  0.00    +0.077 C 
BRANCH  17  18
ATOM     18  N   UNL A   1     -25.420  -0.164  29.121  0.00  0.00    -0.263 NA
BRANCH  18  19
ATOM     19  C   UNL A   1     -24.855  -1.012  30.143  0.00  0.00    +0.097 C 
BRANCH  19  20
ATOM     20  C   UNL A   1     -24.973  -2.505  29.788  0.00  0.00    -0.006 C 
ATOM     21  C   UNL A   1     -23.906  -3.173  29.146  0.00  0.00    -0.003 C 
ATOM     22  C   UNL A   1     -23.989  -4.549  28.853  0.00  0.00    -0.000 C 
ATOM     23  C   UNL A   1     -25.137  -5.280  29.205  0.00  0.00    -0.000 C 
ATOM     24  C   UNL A   1     -26.232  -4.611  29.784  0.00  0.00    -0.000 C 
ATOM     25  C   UNL A   1     -26.155  -3.232  30.065  0.00  0.00    -0.003 C 
ENDBRANCH  19  20
BRANCH  19  26
ATOM     26  C   UNL A   1     -25.387  -0.679  31.571  0.00  0.00    +0.092 C 
ATOM     27  C   UNL A   1     -25.189   0.773  32.028  0.00  0.00    +0.021 C 
ATOM     28  C   UNL A   1     -25.336   0.684  33.544  0.00  0.00    +0.020 C 
ATOM     29  C   UNL A   1     -24.829  -0.715  33.905  0.00  0.00    +0.089 C 
ATOM     30  N   UNL A   1     -24.758  -1.481  32.646  0.00  0.00    -0.218 NA
ENDBRANCH  19  26
ENDBRANCH  18  19
BRANCH  18  31
ATOM     31  C   UNL A   1     -26.866   0.108  29.061  0.00  0.00    +0.138 C 
BRANCH  31  33
ATOM     32  O   UNL A   1     -26.326   2.420  29.478  0.00  0.00    -0.295 OA
ATOM     33  C   UNL A   1     -27.208   1.569  29.435  0.00  0.00    +0.167 C 
BRANCH  33  34
ATOM     34  C   UNL A   1     -28.495   2.207  29.869  0.00  0.00    +0.069 C 
BRANCH  34  35
ATOM     35  C   UNL A   1     -29.569   2.037  28.812  0.00  0.00    +0.043 C 
BRANCH  35  37
ATOM     36  O   UNL A   1     -29.243  -0.238  27.558  0.00  0.00    -0.220 OA
ATOM     37  C   UNL A   1     -29.460   0.714  28.102  0.00  0.00    +0.183 C 
ENDBRANCH  35  37
ENDBRANCH  34  35
ENDBRANCH  33  34
ENDBRANCH  31  33
ENDBRANCH  18  31
ENDBRANCH  17  18
ENDBRANCH   1  17
BRANCH   1  38
ATOM     38  C   UNL A   1     -23.732   1.209  27.274  0.00  0.00    +0.026 C 
BRANCH  38  39
ATOM     39  C   UNL A   1     -22.573   1.725  26.526  0.00  0.00    +0.102 C 
ATOM     40 CL   UNL A   1     -22.645   2.018  24.841  0.00  0.00    -0.110 Cl
BRANCH  39  43
ATOM     41  C   UNL A   1     -21.070   0.883  28.336  0.00  0.00    -0.029 C 
ATOM     42  C   UNL A   1     -21.977  -0.031  29.193  0.00  0.00    +0.030 C 
ATOM     43  C   UNL A   1     -21.306   1.786  27.158  0.00  0.00    -0.015 C 
ENDBRANCH  39  43
ENDBRANCH  38  39
ENDBRANCH   1  38
TORSDOF 18
