MODEL 873
MODEL 1
REMARK VINA RESULT:    -5.723      0.000      0.000
REMARK INTER + INTRA:          -7.585
REMARK INTER:                  -7.062
REMARK INTRA:                  -0.523
REMARK UNBOUND:                -0.523
REMARK  Name = No_873-gen_results/8p0m/2024-11-27-11-27-31/
REMARK  4 active torsions:
REMARK  status: ('A' for Active; 'I' for Inactive)
REMARK    1  A    between atoms: C_1  and  C_3
REMARK    2  A    between atoms: C_3  and  C_4
REMARK    3  A    between atoms: C_4  and  C_5
REMARK    4  A    between atoms: C_8  and  O_11
REMARK                            x       y       z     vdW  Elec       q    Type
REMARK                         _______ _______ _______ _____ _____    ______ ____
ROOT
ATOM      1  C   UNL A   1     -24.339  -2.591  29.633  0.00  0.00    +0.011 A 
ATOM      2  C   UNL A   1     -23.756  -3.173  28.975  0.00  0.00    -0.002 A 
ATOM      3  C   UNL A   1     -24.175  -4.629  28.554  0.00  0.00    +0.003 A 
ATOM      4  C   UNL A   1     -25.354  -5.061  29.154  0.00  0.00    +0.037 A 
ATOM      5  C   UNL A   1     -26.222  -4.180  29.718  0.00  0.00    +0.139 A 
ATOM      6  C   UNL A   1     -25.806  -2.860  29.839  0.00  0.00    +0.035 A 
ENDROOT
BRANCH   1   7
ATOM      7  C   UNL A   1     -23.905  -1.239  29.837  0.00  0.00    +0.178 C 
ATOM      8  O   UNL A   1     -23.326  -0.852  31.007  0.00  0.00    -0.218 OA
BRANCH   7   9
ATOM      9  C   UNL A   1     -23.051  -0.557  28.843  0.00  0.00    +0.059 C 
BRANCH   9  10
ATOM     10  C   UNL A   1     -23.453   0.535  28.164  0.00  0.00    -0.041 C 
ATOM     11  C   UNL A   1     -24.269   0.296  27.058  0.00  0.00    -0.009 C 
ATOM     12  C   UNL A   1     -22.181   1.289  27.723  0.00  0.00    +0.026 C 
ENDBRANCH   9  10
ENDBRANCH   7   9
ENDBRANCH   1   7
BRANCH   5  13
ATOM     13  O   UNL A   1     -27.472  -4.598  30.067  0.00  0.00    -0.471 OA
ATOM     14  C   UNL A   1     -28.288  -3.765  30.851  0.00  0.00    +0.253 C 
ENDBRANCH   5  13
TORSDOF 4
ENDMDL
ENDMDL
