MODEL 874
MODEL 1
REMARK VINA RESULT:    -6.789      0.000      0.000
REMARK INTER + INTRA:         -10.705
REMARK INTER:                  -9.170
REMARK INTRA:                  -1.535
REMARK UNBOUND:                -1.535
REMARK  Name = No_874-gen_results/8p0m/2024-11-27-11-27-31/
REMARK  6 active torsions:
REMARK  status: ('A' for Active; 'I' for Inactive)
REMARK    1  A    between atoms: C_3  and  C_7
REMARK    2  A    between atoms: C_9  and  N_16
REMARK    3  A    between atoms: N_16  and  C_18
REMARK    4  A    between atoms: C_22  and  C_25
REMARK    5  A    between atoms: C_25  and  N_26
REMARK    6  A    between atoms: N_26  and  C_27
REMARK                            x       y       z     vdW  Elec       q    Type
REMARK                         _______ _______ _______ _____ _____    ______ ____
ROOT
ATOM      1  C   UNL A   1     -24.998  -0.651  30.217  0.00  0.00    +0.083 C 
ATOM      2  C   UNL A   1     -24.415  -0.426  31.433  0.00  0.00    +0.001 A 
ATOM      3  C   UNL A   1     -25.546   0.358  29.458  0.00  0.00    +0.178 C 
ATOM      4  N   UNL A   1     -25.327   1.574  29.893  0.00  0.00    -0.091 NA
ATOM      5  C   UNL A   1     -23.783  -1.440  32.253  0.00  0.00    -0.003 A 
ATOM      6  C   UNL A   1     -23.845  -1.509  33.533  0.00  0.00    -0.000 A 
ATOM      7  C   UNL A   1     -24.614  -0.435  34.264  0.00  0.00    +0.001 A 
ATOM      8  C   UNL A   1     -25.338   0.494  33.507  0.00  0.00    +0.017 A 
ATOM      9  C   UNL A   1     -24.431   0.878  32.024  0.00  0.00    +0.082 A 
ATOM     10  N   UNL A   1     -25.468   1.517  31.337  0.00  0.00    -0.147 NA
ENDROOT
BRANCH   1  13
ATOM     11  C   UNL A   1     -26.039  -2.987  30.060  0.00  0.00    -0.004 A 
ATOM     12  C   UNL A   1     -25.952  -3.973  29.697  0.00  0.00    -0.000 A 
ATOM     13  C   UNL A   1     -24.982  -2.090  29.789  0.00  0.00    -0.015 A 
ATOM     14  C   UNL A   1     -23.858  -2.475  29.085  0.00  0.00    -0.004 A 
ATOM     15  C   UNL A   1     -24.877  -4.631  28.928  0.00  0.00    -0.000 A 
ATOM     16  C   UNL A   1     -23.844  -3.806  28.648  0.00  0.00    -0.000 A 
ENDBRANCH   1  13
BRANCH   3  17
ATOM     17  N   UNL A   1     -26.514   0.158  28.605  0.00  0.00    -0.292 N 
ATOM     18  C   UNL A   1     -27.833   0.117  29.285  0.00  0.00    +0.114 C 
BRANCH  17  19
ATOM     19  C   UNL A   1     -26.526   0.089  27.215  0.00  0.00    +0.049 A 
ATOM     20  C   UNL A   1     -25.467  -0.150  26.549  0.00  0.00    +0.015 A 
ATOM     21  C   UNL A   1     -27.791   0.397  26.549  0.00  0.00    +0.012 A 
ATOM     22  C   UNL A   1     -27.767   0.620  25.141  0.00  0.00    +0.001 A 
ATOM     23  C   UNL A   1     -25.381  -0.007  25.090  0.00  0.00    +0.001 A 
ATOM     24  C   UNL A   1     -26.568   0.282  24.417  0.00  0.00    -0.003 A 
BRANCH  22  25
ATOM     25  C   UNL A   1     -28.992   0.959  24.416  0.00  0.00    +0.139 C 
BRANCH  25  26
ATOM     26  N   UNL A   1     -29.316   0.349  23.351  0.00  0.00    -0.232 NA
BRANCH  26  27
ATOM     27  C   UNL A   1     -30.135  -0.381  23.186  0.00  0.00    +0.081 C 
ATOM     28  C   UNL A   1     -30.400  -1.523  24.093  0.00  0.00    +0.019 C 
ENDBRANCH  26  27
ENDBRANCH  25  26
ENDBRANCH  22  25
ENDBRANCH  17  19
ENDBRANCH   3  17
TORSDOF 6
ENDMDL
ENDMDL
