REMARK  Name = outputs/IAG933/test6/raw/output_875_IAG933_linker_design_.xyz
REMARK  13 active torsions:
REMARK  status: ('A' for Active; 'I' for Inactive)
REMARK    1  A    between atoms: C_1  and  C_2
REMARK    2  A    between atoms: C_1  and  C_8
REMARK    3  A    between atoms: C_1  and  N_40
REMARK    4  A    between atoms: C_13  and  C_45
REMARK    5  A    between atoms: C_14  and  C_15
REMARK    6  A    between atoms: C_21  and  O_22
REMARK    7  A    between atoms: O_22  and  C_23
REMARK    8  A    between atoms: C_23  and  C_24
REMARK    9  A    between atoms: N_28  and  C_35
REMARK   10  A    between atoms: C_30  and  C_35
REMARK   11  A    between atoms: C_30  and  C_38
REMARK   12  A    between atoms: C_37  and  N_41
REMARK   13  A    between atoms: C_37  and  C_46
REMARK                            x       y       z     vdW  Elec       q    Type
REMARK                         _______ _______ _______ _____ _____    ______ ____
ROOT
ATOM      1  C   UNL A   1     -22.585   1.081  28.157  0.00  0.00    +0.247 C 
ATOM      2  C   UNL A   1     -23.374   1.494  27.061  0.00  0.00    +0.102 C 
ATOM      3  C   UNL A   1     -25.360   0.201  28.303  0.00  0.00    +0.116 C 
ATOM      4  F   UNL A   1     -21.434   1.456  27.985  0.00  0.00    -0.181 F 
ATOM      5  N   UNL A   1     -24.508  -0.084  29.371  0.00  0.00    -0.224 N 
ATOM      6  N   UNL A   1     -23.113   0.264  29.133  0.00  0.00    -0.150 NA
ATOM      7 CL   UNL A   1     -22.761   2.212  25.733  0.00  0.00    -0.079 Cl
ATOM      8  C   UNL A   1     -24.613   1.228  27.304  0.00  0.00    +0.014 C 
ENDROOT
BRANCH   8   9
ATOM      9  C   UNL A   1     -25.688   1.614  26.461  0.00  0.00    +0.037 C 
ATOM     10  C   UNL A   1     -26.250   2.920  26.395  0.00  0.00    +0.076 C 
ATOM     11  C   UNL A   1     -27.438   3.091  25.645  0.00  0.00    +0.107 C 
ATOM     12  N   UNL A   1     -28.075   2.089  25.003  0.00  0.00    -0.208 NA
ATOM     13  C   UNL A   1     -27.543   0.849  25.079  0.00  0.00    +0.253 C 
ATOM     14  C   UNL A   1     -26.354   0.576  25.777  0.00  0.00    +0.193 C 
ATOM     15  F   UNL A   1     -25.860  -0.681  25.795  0.00  0.00    -0.199 F 
BRANCH  10  16
ATOM     16  C   UNL A   1     -25.642   4.093  27.123  0.00  0.00    +0.266 C 
ATOM     17  N   UNL A   1     -25.614   5.252  26.449  0.00  0.00    -0.200 NA
ATOM     18  C   UNL A   1     -25.026   6.479  26.963  0.00  0.00    +0.139 C 
ATOM     19  O   UNL A   1     -25.143   3.966  28.243  0.00  0.00    -0.268 OA
ENDBRANCH  10  16
BRANCH  13  20
ATOM     20  O   UNL A   1     -28.193  -0.208  24.477  0.00  0.00    -0.456 OA
BRANCH  20  21
ATOM     21  C   UNL A   1     -29.460   0.005  23.866  0.00  0.00    +0.243 C 
BRANCH  21  22
ATOM     22  C   UNL A   1     -30.065  -1.377  23.573  0.00  0.00    +0.229 C 
ATOM     23  O   UNL A   1     -30.729  -1.878  24.721  0.00  0.00    -0.216 OA
ENDBRANCH  21  22
ENDBRANCH  20  21
ENDBRANCH  13  20
ENDBRANCH   8   9
BRANCH   5  24
ATOM     24  C   UNL A   1     -24.855  -1.012  30.143  0.00  0.00    +0.130 C 
BRANCH  24  25
ATOM     25  C   UNL A   1     -24.973  -2.505  29.788  0.00  0.00    -0.002 C 
ATOM     26  C   UNL A   1     -23.906  -3.173  29.146  0.00  0.00    -0.003 C 
ATOM     27  C   UNL A   1     -23.989  -4.549  28.853  0.00  0.00    -0.000 C 
ATOM     28  C   UNL A   1     -25.137  -5.280  29.205  0.00  0.00    -0.000 C 
ATOM     29  C   UNL A   1     -26.232  -4.611  29.784  0.00  0.00    -0.000 C 
ATOM     30  C   UNL A   1     -26.155  -3.232  30.065  0.00  0.00    -0.003 C 
ENDBRANCH  24  25
BRANCH  24  31
ATOM     31  C   UNL A   1     -25.387  -0.679  31.571  0.00  0.00    +0.097 C 
ATOM     32  C   UNL A   1     -25.189   0.773  32.028  0.00  0.00    +0.021 C 
ATOM     33  C   UNL A   1     -25.336   0.684  33.544  0.00  0.00    +0.020 C 
ATOM     34  C   UNL A   1     -24.829  -0.715  33.905  0.00  0.00    +0.089 C 
ATOM     35  N   UNL A   1     -24.758  -1.481  32.646  0.00  0.00    -0.217 NA
ENDBRANCH  24  31
ENDBRANCH   5  24
BRANCH   3  36
ATOM     36  C   UNL A   1     -26.879  -0.333  28.344  0.00  0.00    +0.043 C 
BRANCH  36  37
ATOM     37  C   UNL A   1     -28.218  -0.931  28.895  0.00  0.00    +0.074 C 
BRANCH  37  38
ATOM     38  N   UNL A   1     -29.335  -0.083  28.605  0.00  0.00    -0.270 NA
ATOM     39  C   UNL A   1     -30.312  -0.327  27.514  0.00  0.00    +0.090 C 
ATOM     40  C   UNL A   1     -31.748  -0.096  27.969  0.00  0.00    +0.090 C 
ATOM     41  C   UNL A   1     -30.682   0.212  30.332  0.00  0.00    +0.090 C 
ATOM     42  C   UNL A   1     -29.651   0.962  29.523  0.00  0.00    +0.090 C 
ATOM     43  N   UNL A   1     -31.836  -0.161  29.446  0.00  0.00    -0.268 NA
BRANCH  43  44
ATOM     44  C   UNL A   1     -32.441  -1.463  29.831  0.00  0.00    +0.108 C 
BRANCH  44  46
ATOM     45  O   UNL A   1     -32.063  -2.875  27.843  0.00  0.00    -0.219 OA
ATOM     46  C   UNL A   1     -33.009  -2.433  28.791  0.00  0.00    +0.199 C 
ENDBRANCH  44  46
ENDBRANCH  43  44
ENDBRANCH  37  38
ENDBRANCH  36  37
ENDBRANCH   3  36
TORSDOF 13
