REMARK  Name = outputs/IAG933/test6/raw/output_8755_IAG933_linker_design_.xyz
REMARK  12 active torsions:
REMARK  status: ('A' for Active; 'I' for Inactive)
REMARK    1  A    between atoms: C_1  and  C_2
REMARK    2  A    between atoms: C_1  and  C_8
REMARK    3  A    between atoms: C_1  and  N_34
REMARK    4  A    between atoms: C_13  and  C_36
REMARK    5  A    between atoms: C_14  and  C_15
REMARK    6  A    between atoms: C_21  and  O_22
REMARK    7  A    between atoms: O_22  and  C_23
REMARK    8  A    between atoms: C_23  and  C_24
REMARK    9  A    between atoms: C_30  and  C_37
REMARK   10  A    between atoms: C_32  and  C_46
REMARK   11  A    between atoms: N_34  and  C_35
REMARK   12  A    between atoms: N_34  and  C_42
REMARK                            x       y       z     vdW  Elec       q    Type
REMARK                         _______ _______ _______ _____ _____    ______ ____
ROOT
ATOM      1  C   UNL A   1     -21.705   1.053  28.115  0.00  0.00    +0.262 C 
ATOM      2  C   UNL A   1     -22.821   0.559  28.833  0.00  0.00    +0.175 C 
ATOM      3  C   UNL A   1     -24.158   0.636  28.357  0.00  0.00    +0.082 C 
ATOM      4  C   UNL A   1     -24.383   1.317  27.128  0.00  0.00    +0.051 C 
ATOM      5  F   UNL A   1     -22.581  -0.012  30.020  0.00  0.00    -0.204 F 
ATOM      6  O   UNL A   1     -21.956   1.669  26.985  0.00  0.00    -0.469 OA
ATOM      7  C   UNL A   1     -23.216   1.776  26.472  0.00  0.00    +0.153 C 
ENDROOT
BRANCH   4   8
ATOM      8  C   UNL A   1     -25.688   1.614  26.461  0.00  0.00    +0.042 C 
ATOM      9  C   UNL A   1     -26.250   2.920  26.395  0.00  0.00    +0.077 C 
ATOM     10  C   UNL A   1     -27.438   3.091  25.645  0.00  0.00    +0.107 C 
ATOM     11  N   UNL A   1     -28.075   2.089  25.003  0.00  0.00    -0.208 NA
ATOM     12  C   UNL A   1     -27.543   0.849  25.079  0.00  0.00    +0.253 C 
ATOM     13  C   UNL A   1     -26.354   0.576  25.777  0.00  0.00    +0.193 C 
ATOM     14  F   UNL A   1     -25.860  -0.681  25.795  0.00  0.00    -0.199 F 
BRANCH   9  15
ATOM     15  C   UNL A   1     -25.642   4.093  27.123  0.00  0.00    +0.266 C 
ATOM     16  N   UNL A   1     -25.614   5.252  26.449  0.00  0.00    -0.200 NA
ATOM     17  C   UNL A   1     -25.026   6.479  26.963  0.00  0.00    +0.139 C 
ATOM     18  O   UNL A   1     -25.143   3.966  28.243  0.00  0.00    -0.268 OA
ENDBRANCH   9  15
BRANCH  12  19
ATOM     19  O   UNL A   1     -28.193  -0.208  24.477  0.00  0.00    -0.456 OA
BRANCH  19  20
ATOM     20  C   UNL A   1     -29.460   0.005  23.866  0.00  0.00    +0.243 C 
BRANCH  20  21
ATOM     21  C   UNL A   1     -30.065  -1.377  23.573  0.00  0.00    +0.229 C 
ATOM     22  O   UNL A   1     -30.729  -1.878  24.721  0.00  0.00    -0.216 OA
ENDBRANCH  20  21
ENDBRANCH  19  20
ENDBRANCH  12  19
ENDBRANCH   4   8
BRANCH   7  24
ATOM     23  F   UNL A   1     -23.396   1.439  24.358  0.00  0.00    -0.226 F 
ATOM     24  C   UNL A   1     -23.297   2.555  25.186  0.00  0.00    +0.256 C 
ENDBRANCH   7  24
BRANCH   3  25
ATOM     25  N   UNL A   1     -25.160   0.045  29.169  0.00  0.00    -0.281 N 
BRANCH  25  27
ATOM     26  C   UNL A   1     -27.486   1.881  28.951  0.00  0.00    -0.010 C 
ATOM     27  C   UNL A   1     -26.477   0.687  29.183  0.00  0.00    +0.061 C 
BRANCH  26  29
ATOM     28  C   UNL A   1     -29.826   0.317  28.782  0.00  0.00    +0.061 C 
ATOM     29  C   UNL A   1     -29.100   1.852  29.093  0.00  0.00    +0.028 C 
ATOM     30  C   UNL A   1     -31.168   0.508  28.402  0.00  0.00    +0.120 C 
ATOM     31  C   UNL A   1     -29.810  -0.652  27.710  0.00  0.00    +0.142 C 
ATOM     32  O   UNL A   1     -31.135  -0.376  27.299  0.00  0.00    -0.356 OA
ATOM     33  C   UNL A   1     -29.810   2.409  27.881  0.00  0.00    +0.007 C 
ATOM     34  C   UNL A   1     -31.268   1.969  28.010  0.00  0.00    +0.030 C 
ENDBRANCH  26  29
ENDBRANCH  25  27
BRANCH  25  35
ATOM     35  C   UNL A   1     -24.855  -1.012  30.143  0.00  0.00    +0.116 C 
BRANCH  35  36
ATOM     36  C   UNL A   1     -24.973  -2.505  29.788  0.00  0.00    -0.003 C 
ATOM     37  C   UNL A   1     -23.906  -3.173  29.146  0.00  0.00    -0.003 C 
ATOM     38  C   UNL A   1     -23.989  -4.549  28.853  0.00  0.00    -0.000 C 
ATOM     39  C   UNL A   1     -25.137  -5.280  29.205  0.00  0.00    -0.000 C 
ATOM     40  C   UNL A   1     -26.232  -4.611  29.784  0.00  0.00    -0.000 C 
ATOM     41  C   UNL A   1     -26.155  -3.232  30.065  0.00  0.00    -0.003 C 
ENDBRANCH  35  36
BRANCH  35  42
ATOM     42  C   UNL A   1     -25.387  -0.679  31.571  0.00  0.00    +0.095 C 
ATOM     43  C   UNL A   1     -25.189   0.773  32.028  0.00  0.00    +0.021 C 
ATOM     44  C   UNL A   1     -25.336   0.684  33.544  0.00  0.00    +0.020 C 
ATOM     45  C   UNL A   1     -24.829  -0.715  33.905  0.00  0.00    +0.089 C 
ATOM     46  N   UNL A   1     -24.758  -1.481  32.646  0.00  0.00    -0.217 NA
ENDBRANCH  35  42
ENDBRANCH  25  35
ENDBRANCH   3  25
TORSDOF 12
