MODEL 875
MODEL 1
REMARK VINA RESULT:    -6.769      0.000      0.000
REMARK INTER + INTRA:          -8.182
REMARK INTER:                  -7.561
REMARK INTRA:                  -0.622
REMARK UNBOUND:                -0.622
REMARK  Name = No_875-gen_results/8p0m/2024-11-27-11-27-31/
REMARK  2 active torsions:
REMARK  status: ('A' for Active; 'I' for Inactive)
REMARK    1  A    between atoms: C_2  and  C_3
REMARK    2  A    between atoms: N_4  and  C_15
REMARK                            x       y       z     vdW  Elec       q    Type
REMARK                         _______ _______ _______ _____ _____    ______ ____
ROOT
ATOM      1  O   UNL A   1      -9.585   2.911  37.730  0.00  0.00    -0.274 OA
ATOM      2  C   UNL A   1     -10.302   2.011  37.797  0.00  0.00    +0.233 C 
ATOM      3  N   UNL A   1      -9.975   0.762  38.508  0.00  0.00    -0.257 N 
ATOM      4  C   UNL A   1      -8.667   0.646  39.018  0.00  0.00    +0.120 C 
ENDROOT
BRANCH   2   5
ATOM      5  C   UNL A   1     -11.598   2.085  37.327  0.00  0.00    +0.099 C 
ATOM      6  C   UNL A   1     -11.809   1.828  36.035  0.00  0.00    -0.018 A 
ATOM      7  C   UNL A   1     -12.684   2.431  38.202  0.00  0.00    +0.014 C 
ATOM      8  C   UNL A   1     -10.913   1.466  35.020  0.00  0.00    -0.004 A 
ATOM      9  C   UNL A   1     -11.249   1.147  33.741  0.00  0.00    -0.000 A 
ATOM     10  C   UNL A   1     -12.563   1.509  33.351  0.00  0.00    -0.000 A 
ATOM     11  C   UNL A   1     -13.506   2.079  34.179  0.00  0.00    -0.005 A 
ATOM     12  C   UNL A   1     -13.156   2.232  35.492  0.00  0.00    -0.026 A 
ATOM     13  C   UNL A   1     -14.089   2.742  36.395  0.00  0.00    +0.026 C 
ATOM     14  C   UNL A   1     -13.871   2.848  37.742  0.00  0.00    +0.005 C 
ENDBRANCH   2   5
BRANCH   3  15
ATOM     15  C   UNL A   1     -10.872  -0.302  38.651  0.00  0.00    +0.054 A 
ATOM     16  C   UNL A   1     -10.784  -1.235  37.618  0.00  0.00    +0.015 A 
ATOM     17  C   UNL A   1     -11.331  -2.372  37.609  0.00  0.00    +0.001 A 
ATOM     18  C   UNL A   1     -12.271  -2.706  38.689  0.00  0.00    +0.000 A 
ATOM     19  C   UNL A   1     -12.316  -1.831  39.773  0.00  0.00    +0.001 A 
ATOM     20  C   UNL A   1     -11.577  -0.704  39.713  0.00  0.00    +0.015 A 
ENDBRANCH   3  15
TORSDOF 2
ENDMDL
ENDMDL
