REMARK  Name = outputs/IAG933/test6/raw/output_876_IAG933_linker_design_.xyz
REMARK  18 active torsions:
REMARK  status: ('A' for Active; 'I' for Inactive)
REMARK    1  A    between atoms: C_1  and  C_2
REMARK    2  A    between atoms: C_1  and  C_8
REMARK    3  A    between atoms: C_9  and  C_35
REMARK    4  A    between atoms: C_13  and  C_41
REMARK    5  A    between atoms: C_14  and  C_15
REMARK    6  A    between atoms: C_21  and  O_22
REMARK    7  A    between atoms: O_22  and  C_23
REMARK    8  A    between atoms: C_23  and  C_24
REMARK    9  A    between atoms: C_28  and  C_30
REMARK   10  A    between atoms: C_28  and  C_34
REMARK   11  A    between atoms: N_29  and  C_40
REMARK   12  A    between atoms: C_30  and  O_38
REMARK   13  A    between atoms: C_31  and  C_35
REMARK   14  A    between atoms: C_31  and  C_40
REMARK   15  A    between atoms: C_34  and  C_39
REMARK   16  A    between atoms: C_35  and  O_38
REMARK   17  A    between atoms: C_39  and  C_42
REMARK   18  A    between atoms: C_41  and  C_42
REMARK                            x       y       z     vdW  Elec       q    Type
REMARK                         _______ _______ _______ _____ _____    ______ ____
ROOT
ATOM      1  C   UNL A   1     -22.911   1.308  28.531  0.00  0.00    +0.121 C 
ATOM      2  N   UNL A   1     -23.643   1.289  28.212  0.00  0.00    -0.130 NA
ENDROOT
BRANCH   1   3
ATOM      3  C   UNL A   1     -23.121   1.671  29.095  0.00  0.00    +0.161 C 
BRANCH   3   4
ATOM      4  O   UNL A   1     -23.605   1.301  30.543  0.00  0.00    -0.355 OA
BRANCH   4   5
ATOM      5  C   UNL A   1     -24.589   1.986  31.378  0.00  0.00    +0.118 C 
BRANCH   5   7
ATOM      6  C   UNL A   1     -25.387  -0.679  31.571  0.00  0.00    +0.080 C 
ATOM      7  C   UNL A   1     -25.189   0.773  32.028  0.00  0.00    +0.045 C 
ATOM      8  C   UNL A   1     -25.336   0.684  33.544  0.00  0.00    +0.023 C 
ATOM      9  C   UNL A   1     -24.829  -0.715  33.905  0.00  0.00    +0.089 C 
ATOM     10  N   UNL A   1     -24.758  -1.481  32.646  0.00  0.00    -0.219 NA
BRANCH   6  11
ATOM     11  C   UNL A   1     -24.855  -1.012  30.143  0.00  0.00    +0.044 C 
BRANCH  11  12
ATOM     12  C   UNL A   1     -24.973  -2.505  29.788  0.00  0.00    -0.021 C 
ATOM     13  C   UNL A   1     -23.906  -3.173  29.146  0.00  0.00    -0.004 C 
ATOM     14  C   UNL A   1     -23.989  -4.549  28.853  0.00  0.00    -0.000 C 
ATOM     15  C   UNL A   1     -25.137  -5.280  29.205  0.00  0.00    -0.000 C 
ATOM     16  C   UNL A   1     -26.232  -4.611  29.784  0.00  0.00    -0.000 C 
ATOM     17  C   UNL A   1     -26.155  -3.232  30.065  0.00  0.00    -0.004 C 
ENDBRANCH  11  12
ENDBRANCH   6  11
ENDBRANCH   5   7
BRANCH   5  18
ATOM     18  C   UNL A   1     -25.630   3.073  31.251  0.00  0.00    +0.053 C 
BRANCH  18  19
ATOM     19  C   UNL A   1     -25.837   3.770  32.614  0.00  0.00    +0.118 C 
BRANCH  19  20
ATOM     20  N   UNL A   1     -27.132   4.471  32.576  0.00  0.00    -0.205 NA
ATOM     21  C   UNL A   1     -28.076   4.241  31.645  0.00  0.00    +0.242 C 
ATOM     22  C   UNL A   1     -29.251   5.185  31.549  0.00  0.00    +0.096 C 
ATOM     23  O   UNL A   1     -28.073   3.244  30.894  0.00  0.00    -0.273 OA
ENDBRANCH  19  20
ENDBRANCH  18  19
ENDBRANCH   5  18
ENDBRANCH   4   5
ENDBRANCH   3   4
ENDBRANCH   1   3
BRANCH   1  24
ATOM     24  C   UNL A   1     -21.592   1.760  27.465  0.00  0.00    +0.022 C 
BRANCH  24  25
ATOM     25  C   UNL A   1     -22.128   1.946  26.312  0.00  0.00    +0.002 C 
BRANCH  25  26
ATOM     26  C   UNL A   1     -23.415   1.801  25.868  0.00  0.00    +0.001 C 
BRANCH  26  27
ATOM     27  C   UNL A   1     -24.298   1.534  26.811  0.00  0.00    +0.008 C 
BRANCH  27  28
ATOM     28  C   UNL A   1     -25.688   1.614  26.461  0.00  0.00    +0.070 C 
ATOM     29  C   UNL A   1     -26.250   2.920  26.395  0.00  0.00    +0.055 C 
ATOM     30  C   UNL A   1     -27.438   3.091  25.645  0.00  0.00    +0.102 C 
ATOM     31  N   UNL A   1     -28.075   2.089  25.003  0.00  0.00    -0.212 NA
ATOM     32  C   UNL A   1     -27.543   0.849  25.079  0.00  0.00    +0.234 C 
ATOM     33  C   UNL A   1     -26.354   0.576  25.777  0.00  0.00    +0.240 C 
ATOM     34  F   UNL A   1     -25.860  -0.681  25.795  0.00  0.00    -0.227 F 
BRANCH  29  35
ATOM     35  C   UNL A   1     -25.642   4.093  27.123  0.00  0.00    +0.262 C 
ATOM     36  N   UNL A   1     -25.614   5.252  26.449  0.00  0.00    -0.200 NA
ATOM     37  C   UNL A   1     -25.026   6.479  26.963  0.00  0.00    +0.139 C 
ATOM     38  O   UNL A   1     -25.143   3.966  28.243  0.00  0.00    -0.269 OA
ENDBRANCH  29  35
BRANCH  32  39
ATOM     39  O   UNL A   1     -28.193  -0.208  24.477  0.00  0.00    -0.459 OA
BRANCH  39  40
ATOM     40  C   UNL A   1     -29.460   0.005  23.866  0.00  0.00    +0.242 C 
BRANCH  40  41
ATOM     41  C   UNL A   1     -30.065  -1.377  23.573  0.00  0.00    +0.229 C 
ATOM     42  O   UNL A   1     -30.729  -1.878  24.721  0.00  0.00    -0.216 OA
ENDBRANCH  40  41
ENDBRANCH  39  40
ENDBRANCH  32  39
ENDBRANCH  27  28
ENDBRANCH  26  27
ENDBRANCH  25  26
ENDBRANCH  24  25
ENDBRANCH   1  24
TORSDOF 18
