REMARK  Name = outputs/IAG933/test6/raw/output_8762_IAG933_linker_design_.xyz
REMARK  10 active torsions:
REMARK  status: ('A' for Active; 'I' for Inactive)
REMARK    1  A    between atoms: C_1  and  C_2
REMARK    2  A    between atoms: C_1  and  C_8
REMARK    3  A    between atoms: C_9  and  N_44
REMARK    4  A    between atoms: C_13  and  C_35
REMARK    5  A    between atoms: C_14  and  C_15
REMARK    6  A    between atoms: C_21  and  O_22
REMARK    7  A    between atoms: O_22  and  C_23
REMARK    8  A    between atoms: C_23  and  C_24
REMARK    9  A    between atoms: N_36  and  C_45
REMARK   10  A    between atoms: C_40  and  C_45
REMARK                            x       y       z     vdW  Elec       q    Type
REMARK                         _______ _______ _______ _____ _____    ______ ____
ROOT
ATOM      1  C   UNL A   1     -24.872   1.662  29.423  0.00  0.00    +0.107 C 
ENDROOT
BRANCH   1   7
ATOM      2  C   UNL A   1     -26.617   5.018  32.576  0.00  0.00    +0.055 C 
ATOM      3  S   UNL A   1     -28.309   4.637  32.718  0.00  0.00    -0.139 S 
ATOM      4  C   UNL A   1     -27.815   3.001  32.903  0.00  0.00    +0.075 C 
ATOM      5  N   UNL A   1     -25.077   4.018  30.981  0.00  0.00    -0.201 NA
ATOM      6  C   UNL A   1     -26.410   2.713  32.316  0.00  0.00    +0.086 C 
ATOM      7  C   UNL A   1     -24.944   2.476  30.517  0.00  0.00    +0.148 C 
ATOM      8  C   UNL A   1     -25.808   4.846  33.979  0.00  0.00    +0.012 C 
ATOM      9  C   UNL A   1     -26.100   3.938  31.881  0.00  0.00    +0.099 C 
ATOM     10  C   UNL A   1     -26.341   6.448  32.052  0.00  0.00    +0.012 C 
ATOM     11  N   UNL A   1     -25.847   1.940  31.444  0.00  0.00    -0.258 NA
BRANCH  11  13
ATOM     12  C   UNL A   1     -25.387  -0.679  31.571  0.00  0.00    +0.092 C 
ATOM     13  C   UNL A   1     -25.189   0.773  32.028  0.00  0.00    +0.076 C 
ATOM     14  C   UNL A   1     -25.336   0.684  33.544  0.00  0.00    +0.036 C 
ATOM     15  C   UNL A   1     -24.829  -0.715  33.905  0.00  0.00    +0.090 C 
ATOM     16  N   UNL A   1     -24.758  -1.481  32.646  0.00  0.00    -0.218 NA
BRANCH  12  17
ATOM     17  C   UNL A   1     -24.855  -1.012  30.143  0.00  0.00    +0.045 C 
BRANCH  17  18
ATOM     18  C   UNL A   1     -24.973  -2.505  29.788  0.00  0.00    -0.021 C 
ATOM     19  C   UNL A   1     -23.906  -3.173  29.146  0.00  0.00    -0.004 C 
ATOM     20  C   UNL A   1     -23.989  -4.549  28.853  0.00  0.00    -0.000 C 
ATOM     21  C   UNL A   1     -25.137  -5.280  29.205  0.00  0.00    -0.000 C 
ATOM     22  C   UNL A   1     -26.232  -4.611  29.784  0.00  0.00    -0.000 C 
ATOM     23  C   UNL A   1     -26.155  -3.232  30.065  0.00  0.00    -0.004 C 
ENDBRANCH  17  18
ENDBRANCH  12  17
ENDBRANCH  11  13
ENDBRANCH   1   7
BRANCH   1  28
ATOM     24  C   UNL A   1     -22.107   1.132  27.432  0.00  0.00    +0.209 C 
ATOM     25  F   UNL A   1     -20.990   1.932  27.303  0.00  0.00    -0.233 F 
ATOM     26  O   UNL A   1     -22.831   2.040  25.323  0.00  0.00    -0.218 OA
ATOM     27  C   UNL A   1     -24.380   1.456  27.062  0.00  0.00    +0.116 C 
ATOM     28  N   UNL A   1     -24.120   1.379  28.318  0.00  0.00    -0.263 NA
ATOM     29  C   UNL A   1     -23.188   1.419  26.483  0.00  0.00    +0.204 C 
ATOM     30  C   UNL A   1     -22.764   1.153  28.791  0.00  0.00    +0.111 C 
BRANCH  27  31
ATOM     31  C   UNL A   1     -25.688   1.614  26.461  0.00  0.00    +0.033 C 
ATOM     32  C   UNL A   1     -26.250   2.920  26.395  0.00  0.00    +0.074 C 
ATOM     33  C   UNL A   1     -27.438   3.091  25.645  0.00  0.00    +0.106 C 
ATOM     34  N   UNL A   1     -28.075   2.089  25.003  0.00  0.00    -0.208 NA
ATOM     35  C   UNL A   1     -27.543   0.849  25.079  0.00  0.00    +0.253 C 
ATOM     36  C   UNL A   1     -26.354   0.576  25.777  0.00  0.00    +0.191 C 
ATOM     37  F   UNL A   1     -25.860  -0.681  25.795  0.00  0.00    -0.200 F 
BRANCH  32  38
ATOM     38  C   UNL A   1     -25.642   4.093  27.123  0.00  0.00    +0.266 C 
ATOM     39  N   UNL A   1     -25.614   5.252  26.449  0.00  0.00    -0.200 NA
ATOM     40  C   UNL A   1     -25.026   6.479  26.963  0.00  0.00    +0.139 C 
ATOM     41  O   UNL A   1     -25.143   3.966  28.243  0.00  0.00    -0.268 OA
ENDBRANCH  32  38
BRANCH  35  42
ATOM     42  O   UNL A   1     -28.193  -0.208  24.477  0.00  0.00    -0.456 OA
BRANCH  42  43
ATOM     43  C   UNL A   1     -29.460   0.005  23.866  0.00  0.00    +0.243 C 
BRANCH  43  44
ATOM     44  C   UNL A   1     -30.065  -1.377  23.573  0.00  0.00    +0.229 C 
ATOM     45  O   UNL A   1     -30.729  -1.878  24.721  0.00  0.00    -0.216 OA
ENDBRANCH  43  44
ENDBRANCH  42  43
ENDBRANCH  35  42
ENDBRANCH  27  31
ENDBRANCH   1  28
TORSDOF 10
