REMARK  Name = outputs/IAG933/test6/raw/output_8768_IAG933_linker_design_.xyz
REMARK  10 active torsions:
REMARK  status: ('A' for Active; 'I' for Inactive)
REMARK    1  A    between atoms: C_1  and  C_2
REMARK    2  A    between atoms: C_1  and  C_8
REMARK    3  A    between atoms: C_13  and  C_38
REMARK    4  A    between atoms: C_14  and  C_15
REMARK    5  A    between atoms: C_21  and  O_22
REMARK    6  A    between atoms: O_22  and  C_23
REMARK    7  A    between atoms: C_23  and  C_24
REMARK    8  A    between atoms: C_29  and  C_38
REMARK    9  A    between atoms: C_31  and  O_36
REMARK   10  A    between atoms: O_36  and  C_38
REMARK                            x       y       z     vdW  Elec       q    Type
REMARK                         _______ _______ _______ _____ _____    ______ ____
ROOT
ATOM      1  C   UNL A   1     -24.855  -1.012  30.143  0.00  0.00    +0.171 C 
ATOM      2  O   UNL A   1     -25.078  -0.238  29.015  0.00  0.00    -0.330 OA
ATOM      3  C   UNL A   1     -23.108   2.030  27.830  0.00  0.00    +0.102 C 
ATOM      4  C   UNL A   1     -23.417   1.560  29.216  0.00  0.00    +0.196 C 
ATOM      5  C   UNL A   1     -21.624   1.368  27.681  0.00  0.00    +0.012 C 
ATOM      6  C   UNL A   1     -23.711  -0.043  28.884  0.00  0.00    +0.233 C 
ATOM      7  O   UNL A   1     -23.544   2.149  30.258  0.00  0.00    -0.292 OA
ATOM      8  N   UNL A   1     -22.579  -0.319  29.603  0.00  0.00    -0.187 NA
ATOM      9  C   UNL A   1     -21.535  -0.874  29.162  0.00  0.00    +0.092 C 
ATOM     10  C   UNL A   1     -21.257   0.226  28.519  0.00  0.00    +0.018 C 
ATOM     11  C   UNL A   1     -20.128   1.112  27.940  0.00  0.00    +0.002 C 
ENDROOT
BRANCH   1  12
ATOM     12  C   UNL A   1     -24.973  -2.505  29.788  0.00  0.00    +0.007 C 
ATOM     13  C   UNL A   1     -23.906  -3.173  29.146  0.00  0.00    -0.002 C 
ATOM     14  C   UNL A   1     -23.989  -4.549  28.853  0.00  0.00    -0.000 C 
ATOM     15  C   UNL A   1     -25.137  -5.280  29.205  0.00  0.00    -0.000 C 
ATOM     16  C   UNL A   1     -26.232  -4.611  29.784  0.00  0.00    -0.000 C 
ATOM     17  C   UNL A   1     -26.155  -3.232  30.065  0.00  0.00    -0.002 C 
ENDBRANCH   1  12
BRANCH   1  18
ATOM     18  C   UNL A   1     -25.387  -0.679  31.571  0.00  0.00    +0.106 C 
ATOM     19  C   UNL A   1     -25.189   0.773  32.028  0.00  0.00    +0.022 C 
ATOM     20  C   UNL A   1     -25.336   0.684  33.544  0.00  0.00    +0.020 C 
ATOM     21  C   UNL A   1     -24.829  -0.715  33.905  0.00  0.00    +0.089 C 
ATOM     22  N   UNL A   1     -24.758  -1.481  32.646  0.00  0.00    -0.217 NA
ENDBRANCH   1  18
BRANCH   3  23
ATOM     23  C   UNL A   1     -24.227   1.418  26.842  0.00  0.00    +0.186 C 
BRANCH  23  24
ATOM     24  C   UNL A   1     -25.688   1.614  26.461  0.00  0.00    +0.111 C 
ATOM     25  C   UNL A   1     -26.250   2.920  26.395  0.00  0.00    +0.058 C 
ATOM     26  C   UNL A   1     -27.438   3.091  25.645  0.00  0.00    +0.102 C 
ATOM     27  N   UNL A   1     -28.075   2.089  25.003  0.00  0.00    -0.212 NA
ATOM     28  C   UNL A   1     -27.543   0.849  25.079  0.00  0.00    +0.234 C 
ATOM     29  C   UNL A   1     -26.354   0.576  25.777  0.00  0.00    +0.243 C 
ATOM     30  F   UNL A   1     -25.860  -0.681  25.795  0.00  0.00    -0.227 F 
BRANCH  25  31
ATOM     31  C   UNL A   1     -25.642   4.093  27.123  0.00  0.00    +0.263 C 
ATOM     32  N   UNL A   1     -25.614   5.252  26.449  0.00  0.00    -0.200 NA
ATOM     33  C   UNL A   1     -25.026   6.479  26.963  0.00  0.00    +0.139 C 
ATOM     34  O   UNL A   1     -25.143   3.966  28.243  0.00  0.00    -0.269 OA
ENDBRANCH  25  31
BRANCH  28  35
ATOM     35  O   UNL A   1     -28.193  -0.208  24.477  0.00  0.00    -0.459 OA
BRANCH  35  36
ATOM     36  C   UNL A   1     -29.460   0.005  23.866  0.00  0.00    +0.242 C 
BRANCH  36  37
ATOM     37  C   UNL A   1     -30.065  -1.377  23.573  0.00  0.00    +0.229 C 
ATOM     38  O   UNL A   1     -30.729  -1.878  24.721  0.00  0.00    -0.216 OA
ENDBRANCH  36  37
ENDBRANCH  35  36
ENDBRANCH  28  35
ENDBRANCH  23  24
BRANCH  23  39
ATOM     39  O   UNL A   1     -23.543   0.800  25.679  0.00  0.00    -0.427 OA
BRANCH  39  40
ATOM     40  C   UNL A   1     -22.969   1.656  24.697  0.00  0.00    +0.497 C 
ATOM     41  F   UNL A   1     -23.383   1.417  23.527  0.00  0.00    -0.125 F 
ATOM     42  O   UNL A   1     -21.912   2.327  24.942  0.00  0.00    -0.210 OA
ENDBRANCH  39  40
ENDBRANCH  23  39
ENDBRANCH   3  23
TORSDOF 10
