REMARK  Name = outputs/IAG933/test6/raw/output_877_IAG933_linker_design_.xyz
REMARK  16 active torsions:
REMARK  status: ('A' for Active; 'I' for Inactive)
REMARK    1  A    between atoms: C_1  and  C_2
REMARK    2  A    between atoms: C_1  and  C_8
REMARK    3  A    between atoms: C_1  and  N_37
REMARK    4  A    between atoms: C_13  and  N_34
REMARK    5  A    between atoms: C_14  and  C_15
REMARK    6  A    between atoms: C_21  and  O_22
REMARK    7  A    between atoms: O_22  and  C_23
REMARK    8  A    between atoms: C_23  and  C_24
REMARK    9  A    between atoms: C_28  and  N_34
REMARK   10  A    between atoms: O_33  and  C_38
REMARK   11  A    between atoms: O_33  and  C_40
REMARK   12  A    between atoms: N_34  and  C_41
REMARK   13  A    between atoms: N_37  and  C_41
REMARK   14  A    between atoms: C_38  and  C_42
REMARK   15  A    between atoms: C_39  and  C_40
REMARK   16  A    between atoms: C_39  and  C_41
REMARK                            x       y       z     vdW  Elec       q    Type
REMARK                         _______ _______ _______ _____ _____    ______ ____
ROOT
ATOM      1  N   UNL A   1     -24.843   1.198  27.481  0.00  0.00    -0.284 N 
ENDROOT
BRANCH   1   2
ATOM      2  C   UNL A   1     -23.482   1.350  27.570  0.00  0.00    +0.137 A 
ATOM      3  N   UNL A   1     -22.422   0.038  29.706  0.00  0.00    -0.102 NA
ATOM      4  O   UNL A   1     -21.450   2.099  27.057  0.00  0.00    -0.339 OA
ATOM      5  C   UNL A   1     -22.469   0.844  28.505  0.00  0.00    +0.225 A 
ATOM      6  N   UNL A   1     -21.311   1.229  28.136  0.00  0.00    -0.056 NA
ATOM      7 CL   UNL A   1     -23.217   2.590  25.167  0.00  0.00    -0.039 Cl
ATOM      8  C   UNL A   1     -22.705   2.068  26.688  0.00  0.00    +0.249 A 
ENDBRANCH   1   2
BRANCH   1   9
ATOM      9  C   UNL A   1     -25.688   1.614  26.461  0.00  0.00    +0.144 C 
ATOM     10  C   UNL A   1     -26.250   2.920  26.395  0.00  0.00    +0.073 C 
ATOM     11  C   UNL A   1     -27.438   3.091  25.645  0.00  0.00    +0.104 C 
ATOM     12  N   UNL A   1     -28.075   2.089  25.003  0.00  0.00    -0.212 NA
ATOM     13  C   UNL A   1     -27.543   0.849  25.079  0.00  0.00    +0.236 C 
ATOM     14  C   UNL A   1     -26.354   0.576  25.777  0.00  0.00    +0.258 C 
ATOM     15  F   UNL A   1     -25.860  -0.681  25.795  0.00  0.00    -0.225 F 
BRANCH  10  16
ATOM     16  C   UNL A   1     -25.642   4.093  27.123  0.00  0.00    +0.264 C 
ATOM     17  N   UNL A   1     -25.614   5.252  26.449  0.00  0.00    -0.200 NA
ATOM     18  C   UNL A   1     -25.026   6.479  26.963  0.00  0.00    +0.139 C 
ATOM     19  O   UNL A   1     -25.143   3.966  28.243  0.00  0.00    -0.269 OA
ENDBRANCH  10  16
BRANCH  13  20
ATOM     20  O   UNL A   1     -28.193  -0.208  24.477  0.00  0.00    -0.459 OA
BRANCH  20  21
ATOM     21  C   UNL A   1     -29.460   0.005  23.866  0.00  0.00    +0.242 C 
BRANCH  21  22
ATOM     22  C   UNL A   1     -30.065  -1.377  23.573  0.00  0.00    +0.229 C 
ATOM     23  O   UNL A   1     -30.729  -1.878  24.721  0.00  0.00    -0.216 OA
ENDBRANCH  21  22
ENDBRANCH  20  21
ENDBRANCH  13  20
ENDBRANCH   1   9
BRANCH   1  24
ATOM     24  C   UNL A   1     -25.468   0.598  28.413  0.00  0.00    +0.151 C 
BRANCH  24  25
ATOM     25  N   UNL A   1     -25.049  -0.032  29.202  0.00  0.00    -0.196 NA
BRANCH  25  26
ATOM     26  C   UNL A   1     -24.855  -1.012  30.143  0.00  0.00    +0.113 C 
BRANCH  26  27
ATOM     27  C   UNL A   1     -24.973  -2.505  29.788  0.00  0.00    -0.005 C 
ATOM     28  C   UNL A   1     -23.906  -3.173  29.146  0.00  0.00    -0.003 C 
ATOM     29  C   UNL A   1     -23.989  -4.549  28.853  0.00  0.00    -0.000 C 
ATOM     30  C   UNL A   1     -25.137  -5.280  29.205  0.00  0.00    -0.000 C 
ATOM     31  C   UNL A   1     -26.232  -4.611  29.784  0.00  0.00    -0.000 C 
ATOM     32  C   UNL A   1     -26.155  -3.232  30.065  0.00  0.00    -0.003 C 
ENDBRANCH  26  27
BRANCH  26  33
ATOM     33  C   UNL A   1     -25.387  -0.679  31.571  0.00  0.00    +0.093 C 
ATOM     34  C   UNL A   1     -25.189   0.773  32.028  0.00  0.00    +0.021 C 
ATOM     35  C   UNL A   1     -25.336   0.684  33.544  0.00  0.00    +0.020 C 
ATOM     36  C   UNL A   1     -24.829  -0.715  33.905  0.00  0.00    +0.089 C 
ATOM     37  N   UNL A   1     -24.758  -1.481  32.646  0.00  0.00    -0.218 NA
ENDBRANCH  26  33
ENDBRANCH  25  26
ENDBRANCH  24  25
BRANCH  24  38
ATOM     38  C   UNL A   1     -26.605   0.660  29.267  0.00  0.00    +0.070 C 
BRANCH  38  39
ATOM     39  C   UNL A   1     -27.892  -0.236  28.931  0.00  0.00    +0.145 C 
BRANCH  39  40
ATOM     40  O   UNL A   1     -29.032   0.350  29.645  0.00  0.00    -0.354 OA
BRANCH  40  41
ATOM     41  C   UNL A   1     -29.602   1.562  29.140  0.00  0.00    +0.142 C 
BRANCH  41  44
ATOM     42  C   UNL A   1     -29.453   3.868  28.324  0.00  0.00    +0.003 C 
ATOM     43  C   UNL A   1     -29.030   3.433  30.717  0.00  0.00    +0.003 C 
ATOM     44  C   UNL A   1     -28.806   2.879  29.286  0.00  0.00    +0.030 C 
ENDBRANCH  41  44
ENDBRANCH  40  41
ENDBRANCH  39  40
ENDBRANCH  38  39
ENDBRANCH  24  38
ENDBRANCH   1  24
TORSDOF 16
