REMARK  Name = outputs/IAG933/test6/raw/output_8775_IAG933_linker_design_.xyz
REMARK  7 active torsions:
REMARK  status: ('A' for Active; 'I' for Inactive)
REMARK    1  A    between atoms: C_1  and  C_2
REMARK    2  A    between atoms: C_1  and  C_8
REMARK    3  A    between atoms: C_1  and  C_42
REMARK    4  A    between atoms: C_21  and  O_22
REMARK    5  A    between atoms: O_22  and  C_23
REMARK    6  A    between atoms: C_23  and  C_24
REMARK    7  A    between atoms: N_32  and  C_38
REMARK                            x       y       z     vdW  Elec       q    Type
REMARK                         _______ _______ _______ _____ _____    ______ ____
ROOT
ATOM      1  C   UNL A   1     -25.688   1.614  26.461  0.00  0.00    +0.095 C 
ATOM      2  C   UNL A   1     -26.250   2.920  26.395  0.00  0.00    +0.057 C 
ATOM      3  C   UNL A   1     -25.642   4.093  27.123  0.00  0.00    +0.221 C 
ATOM      4  N   UNL A   1     -25.614   5.252  26.449  0.00  0.00    -0.236 NA
ATOM      5  C   UNL A   1     -25.026   6.479  26.963  0.00  0.00    +0.155 C 
ATOM      6  O   UNL A   1     -25.143   3.966  28.243  0.00  0.00    -0.431 OA
ATOM      7  C   UNL A   1     -27.438   3.091  25.645  0.00  0.00    +0.102 C 
ATOM      8  N   UNL A   1     -28.075   2.089  25.003  0.00  0.00    -0.212 NA
ATOM      9  C   UNL A   1     -27.543   0.849  25.079  0.00  0.00    +0.234 C 
ATOM     10  C   UNL A   1     -26.354   0.576  25.777  0.00  0.00    +0.244 C 
ATOM     11  F   UNL A   1     -25.860  -0.681  25.795  0.00  0.00    -0.227 F 
ATOM     12  C   UNL A   1     -21.951   1.485  27.126  0.00  0.00    +0.285 C 
ATOM     13  F   UNL A   1     -20.750   1.370  27.660  0.00  0.00    -0.163 F 
ATOM     14  C   UNL A   1     -24.192   1.522  26.738  0.00  0.00    +0.025 C 
ATOM     15  C   UNL A   1     -23.491   2.013  25.738  0.00  0.00    +0.178 C 
ATOM     16  N   UNL A   1     -22.331  -0.044  29.614  0.00  0.00    -0.126 NA
ATOM     17  O   UNL A   1     -22.058   2.019  25.909  0.00  0.00    -0.427 OA
ATOM     18  C   UNL A   1     -25.052   2.789  29.188  0.00  0.00    +0.335 C 
ATOM     19  C   UNL A   1     -23.417   0.382  28.847  0.00  0.00    +0.136 C 
ATOM     20  N   UNL A   1     -25.501   1.259  29.386  0.00  0.00    -0.162 NA
ATOM     21  C   UNL A   1     -24.606   0.258  29.412  0.00  0.00    +0.105 C 
ATOM     22  C   UNL A   1     -23.212   1.103  27.691  0.00  0.00    +0.060 C 
ENDROOT
BRANCH  18  25
ATOM     23  O   UNL A   1     -27.094   3.356  29.949  0.00  0.00    -0.275 OA
ATOM     24  C   UNL A   1     -25.898   3.704  31.859  0.00  0.00    +0.138 C 
ATOM     25  N   UNL A   1     -25.739   3.305  30.451  0.00  0.00    -0.111 NA
ATOM     26  C   UNL A   1     -27.426   4.758  29.860  0.00  0.00    +0.199 C 
ATOM     27  C   UNL A   1     -25.502   5.169  32.306  0.00  0.00    +0.162 C 
ATOM     28  C   UNL A   1     -26.285   5.818  29.973  0.00  0.00    +0.176 C 
ATOM     29  O   UNL A   1     -25.960   6.149  31.340  0.00  0.00    -0.349 OA
ENDBRANCH  18  25
BRANCH  21  30
ATOM     30  C   UNL A   1     -24.855  -1.012  30.143  0.00  0.00    +0.056 C 
BRANCH  30  31
ATOM     31  C   UNL A   1     -24.973  -2.505  29.788  0.00  0.00    -0.020 C 
ATOM     32  C   UNL A   1     -23.906  -3.173  29.146  0.00  0.00    -0.004 C 
ATOM     33  C   UNL A   1     -23.989  -4.549  28.853  0.00  0.00    -0.000 C 
ATOM     34  C   UNL A   1     -25.137  -5.280  29.205  0.00  0.00    -0.000 C 
ATOM     35  C   UNL A   1     -26.232  -4.611  29.784  0.00  0.00    -0.000 C 
ATOM     36  C   UNL A   1     -26.155  -3.232  30.065  0.00  0.00    -0.004 C 
ENDBRANCH  30  31
BRANCH  30  37
ATOM     37  C   UNL A   1     -25.387  -0.679  31.571  0.00  0.00    +0.078 C 
ATOM     38  C   UNL A   1     -25.189   0.773  32.028  0.00  0.00    +0.019 C 
ATOM     39  C   UNL A   1     -25.336   0.684  33.544  0.00  0.00    +0.020 C 
ATOM     40  C   UNL A   1     -24.829  -0.715  33.905  0.00  0.00    +0.089 C 
ATOM     41  N   UNL A   1     -24.758  -1.481  32.646  0.00  0.00    -0.219 NA
ENDBRANCH  30  37
ENDBRANCH  21  30
BRANCH   9  42
ATOM     42  O   UNL A   1     -28.193  -0.208  24.477  0.00  0.00    -0.459 OA
BRANCH  42  43
ATOM     43  C   UNL A   1     -29.460   0.005  23.866  0.00  0.00    +0.242 C 
BRANCH  43  44
ATOM     44  C   UNL A   1     -30.065  -1.377  23.573  0.00  0.00    +0.229 C 
ATOM     45  O   UNL A   1     -30.729  -1.878  24.721  0.00  0.00    -0.216 OA
ENDBRANCH  43  44
ENDBRANCH  42  43
ENDBRANCH   9  42
TORSDOF 7
