REMARK  Name = outputs/IAG933/test6/raw/output_8777_IAG933_linker_design_.xyz
REMARK  14 active torsions:
REMARK  status: ('A' for Active; 'I' for Inactive)
REMARK    1  A    between atoms: C_1  and  C_2
REMARK    2  A    between atoms: C_1  and  C_8
REMARK    3  A    between atoms: C_1  and  C_38
REMARK    4  A    between atoms: C_14  and  C_15
REMARK    5  A    between atoms: C_15  and  O_18
REMARK    6  A    between atoms: O_18  and  C_44
REMARK    7  A    between atoms: C_21  and  O_22
REMARK    8  A    between atoms: O_22  and  C_23
REMARK    9  A    between atoms: C_23  and  C_24
REMARK   10  A    between atoms: C_29  and  N_30
REMARK   11  A    between atoms: C_29  and  C_44
REMARK   12  A    between atoms: N_30  and  C_35
REMARK   13  A    between atoms: C_35  and  C_39
REMARK   14  A    between atoms: C_43  and  C_44
REMARK                            x       y       z     vdW  Elec       q    Type
REMARK                         _______ _______ _______ _____ _____    ______ ____
ROOT
ATOM      1  C   UNL A   1     -25.411   3.170  29.344  0.00  0.00    +0.216 C 
ENDROOT
BRANCH   1   9
ATOM      2  C   UNL A   1     -20.571  -0.208  28.557  0.00  0.00    +0.022 C 
ATOM      3  C   UNL A   1     -23.083   2.320  28.673  0.00  0.00    +0.042 C 
ATOM      4  C   UNL A   1     -21.931   0.089  28.718  0.00  0.00    +0.105 C 
ATOM      5  C   UNL A   1     -22.170   1.295  27.945  0.00  0.00    +0.177 C 
ATOM      6  C   UNL A   1     -24.427   0.320  29.495  0.00  0.00    +0.082 C 
ATOM      7  F   UNL A   1     -21.589   1.833  26.934  0.00  0.00    -0.236 F 
ATOM      8  N   UNL A   1     -22.974   0.047  29.975  0.00  0.00    -0.218 NA
ATOM      9  C   UNL A   1     -24.314   1.947  29.398  0.00  0.00    +0.063 C 
BRANCH   6  10
ATOM     10  C   UNL A   1     -24.855  -1.012  30.143  0.00  0.00    +0.054 C 
BRANCH  10  11
ATOM     11  C   UNL A   1     -24.973  -2.505  29.788  0.00  0.00    -0.020 C 
ATOM     12  C   UNL A   1     -23.906  -3.173  29.146  0.00  0.00    -0.004 C 
ATOM     13  C   UNL A   1     -23.989  -4.549  28.853  0.00  0.00    -0.000 C 
ATOM     14  C   UNL A   1     -25.137  -5.280  29.205  0.00  0.00    -0.000 C 
ATOM     15  C   UNL A   1     -26.232  -4.611  29.784  0.00  0.00    -0.000 C 
ATOM     16  C   UNL A   1     -26.155  -3.232  30.065  0.00  0.00    -0.004 C 
ENDBRANCH  10  11
BRANCH  10  17
ATOM     17  C   UNL A   1     -25.387  -0.679  31.571  0.00  0.00    +0.078 C 
ATOM     18  C   UNL A   1     -25.189   0.773  32.028  0.00  0.00    +0.019 C 
ATOM     19  C   UNL A   1     -25.336   0.684  33.544  0.00  0.00    +0.020 C 
ATOM     20  C   UNL A   1     -24.829  -0.715  33.905  0.00  0.00    +0.089 C 
ATOM     21  N   UNL A   1     -24.758  -1.481  32.646  0.00  0.00    -0.219 NA
ENDBRANCH  10  17
ENDBRANCH   6  10
ENDBRANCH   1   9
BRANCH   1  22
ATOM     22  C   UNL A   1     -26.647   3.563  30.104  0.00  0.00    +0.266 C 
ATOM     23  O   UNL A   1     -27.445   4.584  29.397  0.00  0.00    -0.200 OA
BRANCH  22  24
ATOM     24  N   UNL A   1     -26.549   4.096  31.459  0.00  0.00    -0.181 NA
BRANCH  24  25
ATOM     25  C   UNL A   1     -27.141   5.295  32.066  0.00  0.00    +0.118 C 
BRANCH  25  28
ATOM     26  C   UNL A   1     -25.684   8.430  30.392  0.00  0.00    -0.000 C 
ATOM     27  C   UNL A   1     -28.164   7.603  31.451  0.00  0.00    -0.003 C 
ATOM     28  C   UNL A   1     -27.051   6.710  31.490  0.00  0.00    -0.005 C 
ATOM     29  C   UNL A   1     -25.831   7.160  30.978  0.00  0.00    -0.003 C 
ATOM     30  C   UNL A   1     -26.775   9.299  30.351  0.00  0.00    -0.000 C 
ATOM     31  C   UNL A   1     -27.997   8.890  30.891  0.00  0.00    -0.000 C 
ENDBRANCH  25  28
ENDBRANCH  24  25
ENDBRANCH  22  24
ENDBRANCH   1  22
BRANCH   1  32
ATOM     32  O   UNL A   1     -25.143   3.966  28.243  0.00  0.00    -0.460 OA
BRANCH  32  33
ATOM     33  C   UNL A   1     -25.642   4.093  27.123  0.00  0.00    +0.222 C 
ATOM     34  N   UNL A   1     -25.614   5.252  26.449  0.00  0.00    -0.236 NA
ATOM     35  C   UNL A   1     -25.026   6.479  26.963  0.00  0.00    +0.155 C 
BRANCH  33  37
ATOM     36  C   UNL A   1     -25.688   1.614  26.461  0.00  0.00    +0.041 C 
ATOM     37  C   UNL A   1     -26.250   2.920  26.395  0.00  0.00    +0.074 C 
ATOM     38  C   UNL A   1     -27.438   3.091  25.645  0.00  0.00    +0.107 C 
ATOM     39  N   UNL A   1     -28.075   2.089  25.003  0.00  0.00    -0.208 NA
ATOM     40  C   UNL A   1     -27.543   0.849  25.079  0.00  0.00    +0.253 C 
ATOM     41  C   UNL A   1     -26.354   0.576  25.777  0.00  0.00    +0.193 C 
ATOM     42  F   UNL A   1     -25.860  -0.681  25.795  0.00  0.00    -0.199 F 
BRANCH  40  43
ATOM     43  O   UNL A   1     -28.193  -0.208  24.477  0.00  0.00    -0.456 OA
BRANCH  43  44
ATOM     44  C   UNL A   1     -29.460   0.005  23.866  0.00  0.00    +0.243 C 
BRANCH  44  45
ATOM     45  C   UNL A   1     -30.065  -1.377  23.573  0.00  0.00    +0.229 C 
ATOM     46  O   UNL A   1     -30.729  -1.878  24.721  0.00  0.00    -0.216 OA
ENDBRANCH  44  45
ENDBRANCH  43  44
ENDBRANCH  40  43
ENDBRANCH  33  37
ENDBRANCH  32  33
ENDBRANCH   1  32
TORSDOF 14
