REMARK  Name = outputs/IAG933/test6/raw/output_8778_IAG933_linker_design_.xyz
REMARK  10 active torsions:
REMARK  status: ('A' for Active; 'I' for Inactive)
REMARK    1  A    between atoms: C_1  and  C_2
REMARK    2  A    between atoms: C_1  and  C_8
REMARK    3  A    between atoms: C_1  and  N_34
REMARK    4  A    between atoms: C_13  and  N_38
REMARK    5  A    between atoms: C_14  and  C_15
REMARK    6  A    between atoms: C_21  and  O_22
REMARK    7  A    between atoms: O_22  and  C_23
REMARK    8  A    between atoms: C_23  and  C_24
REMARK    9  A    between atoms: C_31  and  N_34
REMARK   10  A    between atoms: N_34  and  C_35
REMARK                            x       y       z     vdW  Elec       q    Type
REMARK                         _______ _______ _______ _____ _____    ______ ____
ROOT
ATOM      1  C   UNL A   1     -22.363   0.160  29.225  0.00  0.00    +0.011 C 
ATOM      2  C   UNL A   1     -21.246   0.606  28.661  0.00  0.00    -0.001 C 
ATOM      3  C   UNL A   1     -22.357   1.823  24.093  0.00  0.00    +0.295 C 
ATOM      4  C   UNL A   1     -21.094   1.152  27.447  0.00  0.00    +0.007 C 
ATOM      5  C   UNL A   1     -23.664   0.487  28.733  0.00  0.00    +0.043 C 
ATOM      6  O   UNL A   1     -21.098   1.661  25.210  0.00  0.00    -0.321 OA
ATOM      7  C   UNL A   1     -23.368   1.927  26.030  0.00  0.00    +0.211 C 
ATOM      8  N   UNL A   1     -24.328   1.304  26.740  0.00  0.00    -0.238 NA
ATOM      9  C   UNL A   1     -21.916   1.661  26.213  0.00  0.00    +0.183 C 
ATOM     10  C   UNL A   1     -23.806   1.365  27.782  0.00  0.00    +0.116 C 
ATOM     11  O   UNL A   1     -23.618   1.569  24.639  0.00  0.00    -0.310 OA
ENDROOT
BRANCH   8  12
ATOM     12  C   UNL A   1     -25.688   1.614  26.461  0.00  0.00    +0.130 C 
ATOM     13  C   UNL A   1     -26.250   2.920  26.395  0.00  0.00    +0.070 C 
ATOM     14  C   UNL A   1     -27.438   3.091  25.645  0.00  0.00    +0.103 C 
ATOM     15  N   UNL A   1     -28.075   2.089  25.003  0.00  0.00    -0.212 NA
ATOM     16  C   UNL A   1     -27.543   0.849  25.079  0.00  0.00    +0.235 C 
ATOM     17  C   UNL A   1     -26.354   0.576  25.777  0.00  0.00    +0.255 C 
ATOM     18  F   UNL A   1     -25.860  -0.681  25.795  0.00  0.00    -0.225 F 
BRANCH  13  19
ATOM     19  C   UNL A   1     -25.642   4.093  27.123  0.00  0.00    +0.264 C 
ATOM     20  N   UNL A   1     -25.614   5.252  26.449  0.00  0.00    -0.200 NA
ATOM     21  C   UNL A   1     -25.026   6.479  26.963  0.00  0.00    +0.139 C 
ATOM     22  O   UNL A   1     -25.143   3.966  28.243  0.00  0.00    -0.269 OA
ENDBRANCH  13  19
BRANCH  16  23
ATOM     23  O   UNL A   1     -28.193  -0.208  24.477  0.00  0.00    -0.459 OA
BRANCH  23  24
ATOM     24  C   UNL A   1     -29.460   0.005  23.866  0.00  0.00    +0.242 C 
BRANCH  24  25
ATOM     25  C   UNL A   1     -30.065  -1.377  23.573  0.00  0.00    +0.229 C 
ATOM     26  O   UNL A   1     -30.729  -1.878  24.721  0.00  0.00    -0.216 OA
ENDBRANCH  24  25
ENDBRANCH  23  24
ENDBRANCH  16  23
ENDBRANCH   8  12
BRANCH   5  27
ATOM     27  N   UNL A   1     -24.879   0.010  29.169  0.00  0.00    -0.279 N 
BRANCH  27  29
ATOM     28  O   UNL A   1     -27.120  -0.482  28.481  0.00  0.00    -0.196 OA
ATOM     29  C   UNL A   1     -26.412   0.475  28.976  0.00  0.00    +0.278 C 
ENDBRANCH  27  29
BRANCH  27  30
ATOM     30  C   UNL A   1     -24.855  -1.012  30.143  0.00  0.00    +0.113 C 
BRANCH  30  31
ATOM     31  C   UNL A   1     -24.973  -2.505  29.788  0.00  0.00    -0.003 C 
ATOM     32  C   UNL A   1     -23.906  -3.173  29.146  0.00  0.00    -0.003 C 
ATOM     33  C   UNL A   1     -23.989  -4.549  28.853  0.00  0.00    -0.000 C 
ATOM     34  C   UNL A   1     -25.137  -5.280  29.205  0.00  0.00    -0.000 C 
ATOM     35  C   UNL A   1     -26.232  -4.611  29.784  0.00  0.00    -0.000 C 
ATOM     36  C   UNL A   1     -26.155  -3.232  30.065  0.00  0.00    -0.003 C 
ENDBRANCH  30  31
BRANCH  30  37
ATOM     37  C   UNL A   1     -25.387  -0.679  31.571  0.00  0.00    +0.095 C 
ATOM     38  C   UNL A   1     -25.189   0.773  32.028  0.00  0.00    +0.021 C 
ATOM     39  C   UNL A   1     -25.336   0.684  33.544  0.00  0.00    +0.020 C 
ATOM     40  C   UNL A   1     -24.829  -0.715  33.905  0.00  0.00    +0.089 C 
ATOM     41  N   UNL A   1     -24.758  -1.481  32.646  0.00  0.00    -0.217 NA
ENDBRANCH  30  37
ENDBRANCH  27  30
ENDBRANCH   5  27
TORSDOF 10
