REMARK  Name = outputs/IAG933/test6/raw/output_8786_IAG933_linker_design_.xyz
REMARK  16 active torsions:
REMARK  status: ('A' for Active; 'I' for Inactive)
REMARK    1  A    between atoms: C_1  and  C_2
REMARK    2  A    between atoms: C_1  and  C_8
REMARK    3  A    between atoms: C_1  and  N_29
REMARK    4  A    between atoms: C_13  and  C_36
REMARK    5  A    between atoms: C_14  and  C_15
REMARK    6  A    between atoms: C_21  and  O_22
REMARK    7  A    between atoms: O_22  and  C_23
REMARK    8  A    between atoms: C_23  and  C_24
REMARK    9  A    between atoms: N_29  and  C_43
REMARK   10  A    between atoms: N_29  and  C_45
REMARK   11  A    between atoms: N_30  and  C_32
REMARK   12  A    between atoms: C_31  and  C_48
REMARK   13  A    between atoms: C_32  and  C_48
REMARK   14  A    between atoms: C_33  and  C_40
REMARK   15  A    between atoms: C_33  and  C_45
REMARK   16  A    between atoms: C_35  and  C_40
REMARK                            x       y       z     vdW  Elec       q    Type
REMARK                         _______ _______ _______ _____ _____    ______ ____
ROOT
ATOM      1  N   UNL A   1     -25.581  -0.088  29.154  0.00  0.00    -0.263 NA
ENDROOT
BRANCH   1   4
ATOM      2  C   UNL A   1     -23.424   1.225  28.352  0.00  0.00    +0.275 C 
ATOM      3  C   UNL A   1     -24.596   1.249  27.265  0.00  0.00    +0.105 C 
ATOM      4  C   UNL A   1     -24.564  -0.067  28.024  0.00  0.00    +0.127 C 
ATOM      5  F   UNL A   1     -22.273   0.486  28.879  0.00  0.00    -0.205 F 
ATOM      6  O   UNL A   1     -22.553   2.317  28.131  0.00  0.00    -0.188 OA
BRANCH   3   7
ATOM      7  C   UNL A   1     -25.688   1.614  26.461  0.00  0.00    +0.022 C 
ATOM      8  C   UNL A   1     -26.250   2.920  26.395  0.00  0.00    +0.073 C 
ATOM      9  C   UNL A   1     -27.438   3.091  25.645  0.00  0.00    +0.106 C 
ATOM     10  N   UNL A   1     -28.075   2.089  25.003  0.00  0.00    -0.208 NA
ATOM     11  C   UNL A   1     -27.543   0.849  25.079  0.00  0.00    +0.253 C 
ATOM     12  C   UNL A   1     -26.354   0.576  25.777  0.00  0.00    +0.189 C 
ATOM     13  F   UNL A   1     -25.860  -0.681  25.795  0.00  0.00    -0.200 F 
BRANCH   8  14
ATOM     14  C   UNL A   1     -25.642   4.093  27.123  0.00  0.00    +0.266 C 
ATOM     15  N   UNL A   1     -25.614   5.252  26.449  0.00  0.00    -0.200 NA
ATOM     16  C   UNL A   1     -25.026   6.479  26.963  0.00  0.00    +0.139 C 
ATOM     17  O   UNL A   1     -25.143   3.966  28.243  0.00  0.00    -0.268 OA
ENDBRANCH   8  14
BRANCH  11  18
ATOM     18  O   UNL A   1     -28.193  -0.208  24.477  0.00  0.00    -0.456 OA
BRANCH  18  19
ATOM     19  C   UNL A   1     -29.460   0.005  23.866  0.00  0.00    +0.243 C 
BRANCH  19  20
ATOM     20  C   UNL A   1     -30.065  -1.377  23.573  0.00  0.00    +0.229 C 
ATOM     21  O   UNL A   1     -30.729  -1.878  24.721  0.00  0.00    -0.216 OA
ENDBRANCH  19  20
ENDBRANCH  18  19
ENDBRANCH  11  18
ENDBRANCH   3   7
ENDBRANCH   1   4
BRANCH   1  22
ATOM     22  C   UNL A   1     -24.855  -1.012  30.143  0.00  0.00    +0.096 C 
BRANCH  22  23
ATOM     23  C   UNL A   1     -24.973  -2.505  29.788  0.00  0.00    -0.006 C 
ATOM     24  C   UNL A   1     -23.906  -3.173  29.146  0.00  0.00    -0.003 C 
ATOM     25  C   UNL A   1     -23.989  -4.549  28.853  0.00  0.00    -0.000 C 
ATOM     26  C   UNL A   1     -25.137  -5.280  29.205  0.00  0.00    -0.000 C 
ATOM     27  C   UNL A   1     -26.232  -4.611  29.784  0.00  0.00    -0.000 C 
ATOM     28  C   UNL A   1     -26.155  -3.232  30.065  0.00  0.00    -0.003 C 
ENDBRANCH  22  23
BRANCH  22  29
ATOM     29  C   UNL A   1     -25.387  -0.679  31.571  0.00  0.00    +0.092 C 
ATOM     30  C   UNL A   1     -25.189   0.773  32.028  0.00  0.00    +0.021 C 
ATOM     31  C   UNL A   1     -25.336   0.684  33.544  0.00  0.00    +0.020 C 
ATOM     32  C   UNL A   1     -24.829  -0.715  33.905  0.00  0.00    +0.089 C 
ATOM     33  N   UNL A   1     -24.758  -1.481  32.646  0.00  0.00    -0.218 NA
ENDBRANCH  22  29
ENDBRANCH   1  22
BRANCH   1  34
ATOM     34  C   UNL A   1     -26.950  -0.395  28.650  0.00  0.00    +0.106 C 
BRANCH  34  35
ATOM     35  C   UNL A   1     -28.080   0.101  29.625  0.00  0.00    +0.177 C 
ATOM     36  O   UNL A   1     -28.721  -1.127  30.039  0.00  0.00    -0.221 OA
BRANCH  35  37
ATOM     37  C   UNL A   1     -29.220   0.992  29.167  0.00  0.00    +0.121 C 
BRANCH  37  40
ATOM     38  N   UNL A   1     -29.916   2.479  30.874  0.00  0.00    -0.205 NA
ATOM     39  O   UNL A   1     -28.341   3.095  29.859  0.00  0.00    -0.273 OA
ATOM     40  C   UNL A   1     -29.233   2.288  29.977  0.00  0.00    +0.244 C 
BRANCH  38  41
ATOM     41  C   UNL A   1     -29.635   3.394  32.011  0.00  0.00    +0.120 C 
BRANCH  41  42
ATOM     42  C   UNL A   1     -28.842   4.748  31.860  0.00  0.00    +0.050 C 
BRANCH  42  43
ATOM     43  C   UNL A   1     -27.352   4.580  32.230  0.00  0.00    -0.020 C 
ATOM     44  C   UNL A   1     -25.749   4.612  34.071  0.00  0.00    -0.000 C 
ATOM     45  C   UNL A   1     -26.260   4.701  31.307  0.00  0.00    -0.004 C 
ATOM     46  C   UNL A   1     -24.956   4.916  31.792  0.00  0.00    -0.000 C 
ATOM     47  C   UNL A   1     -27.046   4.407  33.569  0.00  0.00    -0.004 C 
ATOM     48  C   UNL A   1     -24.709   4.866  33.177  0.00  0.00    -0.000 C 
ENDBRANCH  42  43
ENDBRANCH  41  42
ENDBRANCH  38  41
ENDBRANCH  37  40
ENDBRANCH  35  37
ENDBRANCH  34  35
ENDBRANCH   1  34
TORSDOF 16
