REMARK  Name = outputs/IAG933/test6/raw/output_8787_IAG933_linker_design_.xyz
REMARK  17 active torsions:
REMARK  status: ('A' for Active; 'I' for Inactive)
REMARK    1  A    between atoms: C_1  and  C_2
REMARK    2  A    between atoms: C_1  and  C_8
REMARK    3  A    between atoms: C_1  and  N_31
REMARK    4  A    between atoms: C_13  and  C_28
REMARK    5  A    between atoms: C_14  and  C_15
REMARK    6  A    between atoms: C_21  and  O_22
REMARK    7  A    between atoms: O_22  and  C_23
REMARK    8  A    between atoms: C_23  and  C_24
REMARK    9  A    between atoms: C_28  and  N_31
REMARK   10  A    between atoms: C_28  and  C_39
REMARK   11  A    between atoms: C_30  and  C_35
REMARK   12  A    between atoms: C_30  and  N_38
REMARK   13  A    between atoms: N_31  and  C_35
REMARK   14  A    between atoms: S_32  and  N_38
REMARK   15  A    between atoms: S_32  and  C_44
REMARK   16  A    between atoms: C_33  and  N_38
REMARK   17  A    between atoms: C_34  and  C_39
REMARK                            x       y       z     vdW  Elec       q    Type
REMARK                         _______ _______ _______ _____ _____    ______ ____
ROOT
ATOM      1  N   UNL A   1     -25.458  -0.009  29.079  0.00  0.00    -0.265 NA
ENDROOT
BRANCH   1   2
ATOM      2  C   UNL A   1     -24.928   1.008  27.697  0.00  0.00    +0.098 C 
BRANCH   2   3
ATOM      3  C   UNL A   1     -25.688   1.614  26.461  0.00  0.00    +0.089 C 
ATOM      4  C   UNL A   1     -26.250   2.920  26.395  0.00  0.00    +0.057 C 
ATOM      5  C   UNL A   1     -27.438   3.091  25.645  0.00  0.00    +0.102 C 
ATOM      6  N   UNL A   1     -28.075   2.089  25.003  0.00  0.00    -0.212 NA
ATOM      7  C   UNL A   1     -27.543   0.849  25.079  0.00  0.00    +0.234 C 
ATOM      8  C   UNL A   1     -26.354   0.576  25.777  0.00  0.00    +0.242 C 
ATOM      9  F   UNL A   1     -25.860  -0.681  25.795  0.00  0.00    -0.227 F 
BRANCH   4  10
ATOM     10  C   UNL A   1     -25.642   4.093  27.123  0.00  0.00    +0.263 C 
ATOM     11  N   UNL A   1     -25.614   5.252  26.449  0.00  0.00    -0.200 NA
ATOM     12  C   UNL A   1     -25.026   6.479  26.963  0.00  0.00    +0.139 C 
ATOM     13  O   UNL A   1     -25.143   3.966  28.243  0.00  0.00    -0.269 OA
ENDBRANCH   4  10
BRANCH   7  14
ATOM     14  O   UNL A   1     -28.193  -0.208  24.477  0.00  0.00    -0.459 OA
BRANCH  14  15
ATOM     15  C   UNL A   1     -29.460   0.005  23.866  0.00  0.00    +0.242 C 
BRANCH  15  16
ATOM     16  C   UNL A   1     -30.065  -1.377  23.573  0.00  0.00    +0.229 C 
ATOM     17  O   UNL A   1     -30.729  -1.878  24.721  0.00  0.00    -0.216 OA
ENDBRANCH  15  16
ENDBRANCH  14  15
ENDBRANCH   7  14
ENDBRANCH   2   3
BRANCH   2  19
ATOM     18  C   UNL A   1     -22.948   0.273  28.723  0.00  0.00    +0.130 C 
ATOM     19  C   UNL A   1     -23.526   0.998  27.814  0.00  0.00    +0.093 C 
ATOM     20  O   UNL A   1     -22.233  -0.292  29.522  0.00  0.00    -0.232 OA
BRANCH  19  21
ATOM     21  C   UNL A   1     -22.449   1.869  27.171  0.00  0.00    +0.269 C 
ATOM     22  F   UNL A   1     -21.180   1.862  27.878  0.00  0.00    -0.214 F 
ATOM     23 CL   UNL A   1     -22.541   2.163  25.419  0.00  0.00    -0.071 Cl
ENDBRANCH  19  21
ENDBRANCH   2  19
ENDBRANCH   1   2
BRANCH   1  24
ATOM     24  C   UNL A   1     -24.855  -1.012  30.143  0.00  0.00    +0.097 C 
BRANCH  24  25
ATOM     25  C   UNL A   1     -24.973  -2.505  29.788  0.00  0.00    -0.006 C 
ATOM     26  C   UNL A   1     -23.906  -3.173  29.146  0.00  0.00    -0.003 C 
ATOM     27  C   UNL A   1     -23.989  -4.549  28.853  0.00  0.00    -0.000 C 
ATOM     28  C   UNL A   1     -25.137  -5.280  29.205  0.00  0.00    -0.000 C 
ATOM     29  C   UNL A   1     -26.232  -4.611  29.784  0.00  0.00    -0.000 C 
ATOM     30  C   UNL A   1     -26.155  -3.232  30.065  0.00  0.00    -0.003 C 
ENDBRANCH  24  25
BRANCH  24  31
ATOM     31  C   UNL A   1     -25.387  -0.679  31.571  0.00  0.00    +0.092 C 
ATOM     32  C   UNL A   1     -25.189   0.773  32.028  0.00  0.00    +0.021 C 
ATOM     33  C   UNL A   1     -25.336   0.684  33.544  0.00  0.00    +0.020 C 
ATOM     34  C   UNL A   1     -24.829  -0.715  33.905  0.00  0.00    +0.089 C 
ATOM     35  N   UNL A   1     -24.758  -1.481  32.646  0.00  0.00    -0.218 NA
ENDBRANCH  24  31
ENDBRANCH   1  24
BRANCH   1  36
ATOM     36  C   UNL A   1     -26.823  -0.354  28.814  0.00  0.00    +0.091 C 
BRANCH  36  37
ATOM     37  C   UNL A   1     -28.070  -0.525  28.694  0.00  0.00    +0.101 C 
BRANCH  37  38
ATOM     38  N   UNL A   1     -28.684   1.037  29.010  0.00  0.00    -0.219 NA
BRANCH  38  40
ATOM     39  C   UNL A   1     -30.453   2.635  27.728  0.00  0.00    +0.098 C 
ATOM     40  S   UNL A   1     -30.041   1.136  28.451  0.00  0.00    +0.011 S 
ATOM     41  O   UNL A   1     -30.166   0.202  27.328  0.00  0.00    -0.154 OA
BRANCH  40  42
ATOM     42  C   UNL A   1     -31.360   0.844  29.358  0.00  0.00    +0.263 C 
ATOM     43  O   UNL A   1     -31.948   2.031  29.879  0.00  0.00    -0.205 OA
ENDBRANCH  40  42
ENDBRANCH  38  40
BRANCH  38  44
ATOM     44  C   UNL A   1     -27.775   1.805  29.467  0.00  0.00    +0.084 C 
ATOM     45  C   UNL A   1     -27.467   2.997  30.221  0.00  0.00    +0.020 C 
ENDBRANCH  38  44
ENDBRANCH  37  38
ENDBRANCH  36  37
ENDBRANCH   1  36
TORSDOF 17
