MODEL 878
MODEL 1
REMARK VINA RESULT:    -5.166      0.000      0.000
REMARK INTER + INTRA:          -5.549
REMARK INTER:                  -5.467
REMARK INTRA:                  -0.082
REMARK UNBOUND:                -0.082
REMARK  Name = No_878-gen_results/8p0m/2024-11-27-11-27-31/
REMARK  1 active torsions:
REMARK  status: ('A' for Active; 'I' for Inactive)
REMARK    1  A    between atoms: C_2  and  C_7
REMARK                            x       y       z     vdW  Elec       q    Type
REMARK                         _______ _______ _______ _____ _____    ______ ____
ROOT
ATOM      1  C   UNL A   1     -23.820  -3.374  28.598  0.00  0.00    +0.004 A 
ATOM      2  C   UNL A   1     -24.502  -2.725  29.071  0.00  0.00    +0.054 A 
ATOM      3  C   UNL A   1     -24.160  -4.845  28.679  0.00  0.00    +0.000 A 
ATOM      4  C   UNL A   1     -25.396  -5.240  29.233  0.00  0.00    +0.000 A 
ATOM      5  C   UNL A   1     -25.847  -2.869  29.673  0.00  0.00    +0.004 A 
ATOM      6  C   UNL A   1     -26.197  -4.209  29.759  0.00  0.00    +0.000 A 
ENDROOT
BRANCH   2   7
ATOM      7  C   UNL A   1     -24.174  -1.155  28.989  0.00  0.00    +0.249 C 
ATOM      8  O   UNL A   1     -24.670  -0.629  28.143  0.00  0.00    -0.270 OA
ATOM      9  N   UNL A   1     -23.704  -0.499  30.171  0.00  0.00    -0.273 N 
ATOM     10  C   UNL A   1     -23.242  -1.010  31.341  0.00  0.00    +0.115 C 
ATOM     11  C   UNL A   1     -23.527   0.964  29.964  0.00  0.00    +0.115 C 
ENDBRANCH   2   7
TORSDOF 1
ENDMDL
ENDMDL
