REMARK  Name = outputs/IAG933/test6/raw/output_8791_IAG933_linker_design_.xyz
REMARK  13 active torsions:
REMARK  status: ('A' for Active; 'I' for Inactive)
REMARK    1  A    between atoms: C_1  and  C_2
REMARK    2  A    between atoms: C_1  and  C_8
REMARK    3  A    between atoms: C_1  and  N_29
REMARK    4  A    between atoms: C_13  and  C_33
REMARK    5  A    between atoms: C_14  and  C_15
REMARK    6  A    between atoms: C_21  and  O_22
REMARK    7  A    between atoms: O_22  and  C_23
REMARK    8  A    between atoms: C_23  and  C_24
REMARK    9  A    between atoms: N_29  and  C_32
REMARK   10  A    between atoms: O_31  and  C_32
REMARK   11  A    between atoms: O_31  and  C_34
REMARK   12  A    between atoms: C_34  and  C_42
REMARK   13  A    between atoms: C_36  and  C_39
REMARK                            x       y       z     vdW  Elec       q    Type
REMARK                         _______ _______ _______ _____ _____    ______ ____
ROOT
ATOM      1  N   UNL A   1     -24.486  -0.166  29.103  0.00  0.00    -0.250 N 
ATOM      2  C   UNL A   1     -23.276   0.241  28.869  0.00  0.00    +0.237 C 
ATOM      3  O   UNL A   1     -22.317  -0.003  29.625  0.00  0.00    -0.274 OA
ENDROOT
BRANCH   2   7
ATOM      4  C   UNL A   1     -21.873   1.573  27.220  0.00  0.00    +0.085 C 
ATOM      5  C   UNL A   1     -24.183   1.601  26.661  0.00  0.00    -0.004 C 
ATOM      6  N   UNL A   1     -22.043   2.217  26.088  0.00  0.00    -0.247 NA
ATOM      7  C   UNL A   1     -23.090   1.129  27.626  0.00  0.00    +0.138 C 
ATOM      8  C   UNL A   1     -23.395   2.200  25.704  0.00  0.00    +0.091 C 
BRANCH   5   9
ATOM      9  C   UNL A   1     -25.688   1.614  26.461  0.00  0.00    +0.091 C 
ATOM     10  C   UNL A   1     -26.250   2.920  26.395  0.00  0.00    +0.059 C 
ATOM     11  C   UNL A   1     -27.438   3.091  25.645  0.00  0.00    +0.102 C 
ATOM     12  N   UNL A   1     -28.075   2.089  25.003  0.00  0.00    -0.212 NA
ATOM     13  C   UNL A   1     -27.543   0.849  25.079  0.00  0.00    +0.234 C 
ATOM     14  C   UNL A   1     -26.354   0.576  25.777  0.00  0.00    +0.244 C 
ATOM     15  F   UNL A   1     -25.860  -0.681  25.795  0.00  0.00    -0.227 F 
BRANCH  10  16
ATOM     16  C   UNL A   1     -25.642   4.093  27.123  0.00  0.00    +0.263 C 
ATOM     17  N   UNL A   1     -25.614   5.252  26.449  0.00  0.00    -0.200 NA
ATOM     18  C   UNL A   1     -25.026   6.479  26.963  0.00  0.00    +0.139 C 
ATOM     19  O   UNL A   1     -25.143   3.966  28.243  0.00  0.00    -0.269 OA
ENDBRANCH  10  16
BRANCH  13  20
ATOM     20  O   UNL A   1     -28.193  -0.208  24.477  0.00  0.00    -0.459 OA
BRANCH  20  21
ATOM     21  C   UNL A   1     -29.460   0.005  23.866  0.00  0.00    +0.242 C 
BRANCH  21  22
ATOM     22  C   UNL A   1     -30.065  -1.377  23.573  0.00  0.00    +0.229 C 
ATOM     23  O   UNL A   1     -30.729  -1.878  24.721  0.00  0.00    -0.216 OA
ENDBRANCH  21  22
ENDBRANCH  20  21
ENDBRANCH  13  20
ENDBRANCH   5   9
ENDBRANCH   2   7
BRANCH   1  24
ATOM     24  C   UNL A   1     -24.855  -1.012  30.143  0.00  0.00    +0.116 C 
BRANCH  24  25
ATOM     25  C   UNL A   1     -24.973  -2.505  29.788  0.00  0.00    -0.003 C 
ATOM     26  C   UNL A   1     -23.906  -3.173  29.146  0.00  0.00    -0.003 C 
ATOM     27  C   UNL A   1     -23.989  -4.549  28.853  0.00  0.00    -0.000 C 
ATOM     28  C   UNL A   1     -25.137  -5.280  29.205  0.00  0.00    -0.000 C 
ATOM     29  C   UNL A   1     -26.232  -4.611  29.784  0.00  0.00    -0.000 C 
ATOM     30  C   UNL A   1     -26.155  -3.232  30.065  0.00  0.00    -0.003 C 
ENDBRANCH  24  25
BRANCH  24  31
ATOM     31  C   UNL A   1     -25.387  -0.679  31.571  0.00  0.00    +0.095 C 
ATOM     32  C   UNL A   1     -25.189   0.773  32.028  0.00  0.00    +0.021 C 
ATOM     33  C   UNL A   1     -25.336   0.684  33.544  0.00  0.00    +0.020 C 
ATOM     34  C   UNL A   1     -24.829  -0.715  33.905  0.00  0.00    +0.089 C 
ATOM     35  N   UNL A   1     -24.758  -1.481  32.646  0.00  0.00    -0.217 NA
ENDBRANCH  24  31
ENDBRANCH   1  24
BRANCH   1  36
ATOM     36  C   UNL A   1     -25.733   0.037  28.463  0.00  0.00    +0.243 C 
BRANCH  36  37
ATOM     37  O   UNL A   1     -26.976   0.131  29.138  0.00  0.00    -0.332 OA
BRANCH  37  38
ATOM     38  C   UNL A   1     -28.059  -0.743  28.938  0.00  0.00    +0.173 C 
BRANCH  38  42
ATOM     39  C   UNL A   1     -30.683   1.036  30.463  0.00  0.00    +0.005 C 
ATOM     40  C   UNL A   1     -30.828  -0.651  28.598  0.00  0.00    +0.142 C 
ATOM     41  C   UNL A   1     -31.140   0.792  29.020  0.00  0.00    +0.032 C 
ATOM     42  C   UNL A   1     -29.008  -0.818  30.140  0.00  0.00    +0.145 C 
ATOM     43  C   UNL A   1     -29.254   0.538  30.702  0.00  0.00    +0.032 C 
ATOM     44  O   UNL A   1     -30.266  -1.356  29.715  0.00  0.00    -0.354 OA
ENDBRANCH  38  42
ENDBRANCH  37  38
ENDBRANCH  36  37
ENDBRANCH   1  36
TORSDOF 13
