REMARK  Name = outputs/IAG933/test6/raw/output_8793_IAG933_linker_design_.xyz
REMARK  13 active torsions:
REMARK  status: ('A' for Active; 'I' for Inactive)
REMARK    1  A    between atoms: C_1  and  C_2
REMARK    2  A    between atoms: C_1  and  C_8
REMARK    3  A    between atoms: C_1  and  C_37
REMARK    4  A    between atoms: C_13  and  C_32
REMARK    5  A    between atoms: C_14  and  C_15
REMARK    6  A    between atoms: C_21  and  O_22
REMARK    7  A    between atoms: O_22  and  C_23
REMARK    8  A    between atoms: C_23  and  C_24
REMARK    9  A    between atoms: C_28  and  O_42
REMARK   10  A    between atoms: N_29  and  C_40
REMARK   11  A    between atoms: C_33  and  C_38
REMARK   12  A    between atoms: C_33  and  O_42
REMARK   13  A    between atoms: C_35  and  C_38
REMARK                            x       y       z     vdW  Elec       q    Type
REMARK                         _______ _______ _______ _____ _____    ______ ____
ROOT
ATOM      1  C   UNL A   1     -25.321   0.331  28.331  0.00  0.00    +0.131 C 
ATOM      2  C   UNL A   1     -22.565   0.990  28.066  0.00  0.00    +0.089 C 
ATOM      3  C   UNL A   1     -24.848   1.101  27.380  0.00  0.00    +0.020 C 
ATOM      4  C   UNL A   1     -23.529   1.346  27.131  0.00  0.00    +0.017 C 
ATOM      5  C   UNL A   1     -24.351  -0.074  29.149  0.00  0.00    +0.018 C 
ATOM      6  C   UNL A   1     -22.981   0.204  29.100  0.00  0.00    +0.017 C 
ATOM      7  N   UNL A   1     -21.241   1.389  27.928  0.00  0.00    -0.128 NA
ENDROOT
BRANCH   3   8
ATOM      8  C   UNL A   1     -25.688   1.614  26.461  0.00  0.00    +0.095 C 
ATOM      9  C   UNL A   1     -26.250   2.920  26.395  0.00  0.00    +0.059 C 
ATOM     10  C   UNL A   1     -27.438   3.091  25.645  0.00  0.00    +0.102 C 
ATOM     11  N   UNL A   1     -28.075   2.089  25.003  0.00  0.00    -0.212 NA
ATOM     12  C   UNL A   1     -27.543   0.849  25.079  0.00  0.00    +0.234 C 
ATOM     13  C   UNL A   1     -26.354   0.576  25.777  0.00  0.00    +0.244 C 
ATOM     14  F   UNL A   1     -25.860  -0.681  25.795  0.00  0.00    -0.227 F 
BRANCH   9  15
ATOM     15  C   UNL A   1     -25.642   4.093  27.123  0.00  0.00    +0.263 C 
ATOM     16  N   UNL A   1     -25.614   5.252  26.449  0.00  0.00    -0.200 NA
ATOM     17  C   UNL A   1     -25.026   6.479  26.963  0.00  0.00    +0.139 C 
ATOM     18  O   UNL A   1     -25.143   3.966  28.243  0.00  0.00    -0.269 OA
ENDBRANCH   9  15
BRANCH  12  19
ATOM     19  O   UNL A   1     -28.193  -0.208  24.477  0.00  0.00    -0.459 OA
BRANCH  19  20
ATOM     20  C   UNL A   1     -29.460   0.005  23.866  0.00  0.00    +0.242 C 
BRANCH  20  21
ATOM     21  C   UNL A   1     -30.065  -1.377  23.573  0.00  0.00    +0.229 C 
ATOM     22  O   UNL A   1     -30.729  -1.878  24.721  0.00  0.00    -0.216 OA
ENDBRANCH  20  21
ENDBRANCH  19  20
ENDBRANCH  12  19
ENDBRANCH   3   8
BRANCH   5  23
ATOM     23  C   UNL A   1     -24.855  -1.012  30.143  0.00  0.00    +0.064 C 
BRANCH  23  24
ATOM     24  C   UNL A   1     -24.973  -2.505  29.788  0.00  0.00    -0.017 C 
ATOM     25  C   UNL A   1     -23.906  -3.173  29.146  0.00  0.00    -0.004 C 
ATOM     26  C   UNL A   1     -23.989  -4.549  28.853  0.00  0.00    -0.000 C 
ATOM     27  C   UNL A   1     -25.137  -5.280  29.205  0.00  0.00    -0.000 C 
ATOM     28  C   UNL A   1     -26.232  -4.611  29.784  0.00  0.00    -0.000 C 
ATOM     29  C   UNL A   1     -26.155  -3.232  30.065  0.00  0.00    -0.004 C 
ENDBRANCH  23  24
BRANCH  23  30
ATOM     30  C   UNL A   1     -25.387  -0.679  31.571  0.00  0.00    +0.081 C 
ATOM     31  C   UNL A   1     -25.189   0.773  32.028  0.00  0.00    +0.019 C 
ATOM     32  C   UNL A   1     -25.336   0.684  33.544  0.00  0.00    +0.020 C 
ATOM     33  C   UNL A   1     -24.829  -0.715  33.905  0.00  0.00    +0.089 C 
ATOM     34  N   UNL A   1     -24.758  -1.481  32.646  0.00  0.00    -0.219 NA
ENDBRANCH  23  30
ENDBRANCH   5  23
BRANCH   1  35
ATOM     35  O   UNL A   1     -26.650  -0.368  28.323  0.00  0.00    -0.476 OA
BRANCH  35  36
ATOM     36  C   UNL A   1     -27.793   0.148  29.123  0.00  0.00    +0.205 C 
BRANCH  36  37
ATOM     37  C   UNL A   1     -29.196   0.261  28.439  0.00  0.00    +0.049 C 
BRANCH  37  40
ATOM     38  N   UNL A   1     -30.510   3.731  28.624  0.00  0.00    -0.245 NA
ATOM     39  C   UNL A   1     -29.813   2.057  30.144  0.00  0.00    +0.019 C 
ATOM     40  C   UNL A   1     -30.038   1.528  28.669  0.00  0.00    +0.021 C 
ATOM     41  C   UNL A   1     -29.891   2.693  27.793  0.00  0.00    +0.075 C 
ATOM     42  C   UNL A   1     -30.570   3.349  30.036  0.00  0.00    +0.074 C 
BRANCH  38  44
ATOM     43  O   UNL A   1     -31.083   5.857  28.101  0.00  0.00    -0.201 OA
ATOM     44  C   UNL A   1     -29.951   5.030  28.306  0.00  0.00    +0.259 C 
ENDBRANCH  38  44
ENDBRANCH  37  40
ENDBRANCH  36  37
ENDBRANCH  35  36
ENDBRANCH   1  35
TORSDOF 13
