REMARK  Name = outputs/IAG933/test6/raw/output_8796_IAG933_linker_design_.xyz
REMARK  12 active torsions:
REMARK  status: ('A' for Active; 'I' for Inactive)
REMARK    1  A    between atoms: C_1  and  C_2
REMARK    2  A    between atoms: C_1  and  C_8
REMARK    3  A    between atoms: C_1  and  C_37
REMARK    4  A    between atoms: C_13  and  C_30
REMARK    5  A    between atoms: C_14  and  C_15
REMARK    6  A    between atoms: C_21  and  O_22
REMARK    7  A    between atoms: O_22  and  C_23
REMARK    8  A    between atoms: C_23  and  C_24
REMARK    9  A    between atoms: C_31  and  C_45
REMARK   10  A    between atoms: N_34  and  C_38
REMARK   11  A    between atoms: C_38  and  C_39
REMARK   12  A    between atoms: N_42  and  C_45
REMARK                            x       y       z     vdW  Elec       q    Type
REMARK                         _______ _______ _______ _____ _____    ______ ____
ROOT
ATOM      1  C   UNL A   1     -23.250   1.189  26.567  0.00  0.00    +0.004 C 
ATOM      2  C   UNL A   1     -24.545   1.257  27.347  0.00  0.00    +0.027 C 
ATOM      3  C   UNL A   1     -24.949   0.152  28.255  0.00  0.00    +0.026 C 
ATOM      4  C   UNL A   1     -23.110   2.381  25.598  0.00  0.00    +0.000 C 
ATOM      5  C   UNL A   1     -23.962  -0.101  29.289  0.00  0.00    +0.007 C 
ATOM      6  C   UNL A   1     -22.696   0.809  28.898  0.00  0.00    +0.000 C 
ATOM      7  C   UNL A   1     -22.265   1.201  27.591  0.00  0.00    +0.000 C 
ENDROOT
BRANCH   2   8
ATOM      8  C   UNL A   1     -25.688   1.614  26.461  0.00  0.00    +0.016 C 
ATOM      9  C   UNL A   1     -26.250   2.920  26.395  0.00  0.00    +0.073 C 
ATOM     10  C   UNL A   1     -27.438   3.091  25.645  0.00  0.00    +0.106 C 
ATOM     11  N   UNL A   1     -28.075   2.089  25.003  0.00  0.00    -0.208 NA
ATOM     12  C   UNL A   1     -27.543   0.849  25.079  0.00  0.00    +0.253 C 
ATOM     13  C   UNL A   1     -26.354   0.576  25.777  0.00  0.00    +0.189 C 
ATOM     14  F   UNL A   1     -25.860  -0.681  25.795  0.00  0.00    -0.200 F 
BRANCH   9  15
ATOM     15  C   UNL A   1     -25.642   4.093  27.123  0.00  0.00    +0.266 C 
ATOM     16  N   UNL A   1     -25.614   5.252  26.449  0.00  0.00    -0.200 NA
ATOM     17  C   UNL A   1     -25.026   6.479  26.963  0.00  0.00    +0.139 C 
ATOM     18  O   UNL A   1     -25.143   3.966  28.243  0.00  0.00    -0.268 OA
ENDBRANCH   9  15
BRANCH  12  19
ATOM     19  O   UNL A   1     -28.193  -0.208  24.477  0.00  0.00    -0.456 OA
BRANCH  19  20
ATOM     20  C   UNL A   1     -29.460   0.005  23.866  0.00  0.00    +0.243 C 
BRANCH  20  21
ATOM     21  C   UNL A   1     -30.065  -1.377  23.573  0.00  0.00    +0.229 C 
ATOM     22  O   UNL A   1     -30.729  -1.878  24.721  0.00  0.00    -0.216 OA
ENDBRANCH  20  21
ENDBRANCH  19  20
ENDBRANCH  12  19
ENDBRANCH   2   8
BRANCH   5  23
ATOM     23  C   UNL A   1     -24.855  -1.012  30.143  0.00  0.00    +0.038 C 
BRANCH  23  24
ATOM     24  C   UNL A   1     -24.973  -2.505  29.788  0.00  0.00    -0.021 C 
ATOM     25  C   UNL A   1     -23.906  -3.173  29.146  0.00  0.00    -0.004 C 
ATOM     26  C   UNL A   1     -23.989  -4.549  28.853  0.00  0.00    -0.000 C 
ATOM     27  C   UNL A   1     -25.137  -5.280  29.205  0.00  0.00    -0.000 C 
ATOM     28  C   UNL A   1     -26.232  -4.611  29.784  0.00  0.00    -0.000 C 
ATOM     29  C   UNL A   1     -26.155  -3.232  30.065  0.00  0.00    -0.004 C 
ENDBRANCH  23  24
BRANCH  23  30
ATOM     30  C   UNL A   1     -25.387  -0.679  31.571  0.00  0.00    +0.077 C 
ATOM     31  C   UNL A   1     -25.189   0.773  32.028  0.00  0.00    +0.019 C 
ATOM     32  C   UNL A   1     -25.336   0.684  33.544  0.00  0.00    +0.020 C 
ATOM     33  C   UNL A   1     -24.829  -0.715  33.905  0.00  0.00    +0.089 C 
ATOM     34  N   UNL A   1     -24.758  -1.481  32.646  0.00  0.00    -0.219 NA
ENDBRANCH  23  30
ENDBRANCH   5  23
BRANCH   3  35
ATOM     35  C   UNL A   1     -26.441  -0.142  28.444  0.00  0.00    +0.116 C 
BRANCH  35  38
ATOM     36  O   UNL A   1     -29.551   1.119  29.250  0.00  0.00    -0.272 OA
ATOM     37  C   UNL A   1     -28.425   1.465  29.613  0.00  0.00    +0.258 C 
ATOM     38  N   UNL A   1     -27.320   0.683  29.236  0.00  0.00    -0.204 NA
BRANCH  37  39
ATOM     39  C   UNL A   1     -28.289   2.771  30.329  0.00  0.00    +0.162 C 
BRANCH  39  42
ATOM     40  C   UNL A   1     -29.680   2.942  32.397  0.00  0.00    +0.077 C 
ATOM     41  C   UNL A   1     -28.489   3.895  34.297  0.00  0.00    +0.145 C 
ATOM     42  N   UNL A   1     -28.382   2.596  31.789  0.00  0.00    -0.239 NA
ATOM     43  C   UNL A   1     -27.158   3.118  32.309  0.00  0.00    +0.220 C 
ATOM     44  O   UNL A   1     -27.286   3.810  33.511  0.00  0.00    -0.337 OA
ATOM     45  C   UNL A   1     -29.656   4.195  33.366  0.00  0.00    +0.050 C 
ENDBRANCH  39  42
ENDBRANCH  37  39
ENDBRANCH  35  38
ENDBRANCH   3  35
TORSDOF 12
