REMARK  Name = outputs/IAG933/test6/raw/output_8798_IAG933_linker_design_.xyz
REMARK  16 active torsions:
REMARK  status: ('A' for Active; 'I' for Inactive)
REMARK    1  A    between atoms: C_1  and  C_2
REMARK    2  A    between atoms: C_1  and  C_8
REMARK    3  A    between atoms: C_1  and  C_28
REMARK    4  A    between atoms: C_13  and  C_43
REMARK    5  A    between atoms: C_14  and  C_15
REMARK    6  A    between atoms: C_21  and  O_22
REMARK    7  A    between atoms: O_22  and  C_23
REMARK    8  A    between atoms: C_23  and  C_24
REMARK    9  A    between atoms: C_28  and  C_35
REMARK   10  A    between atoms: C_28  and  C_43
REMARK   11  A    between atoms: C_29  and  C_36
REMARK   12  A    between atoms: C_29  and  N_41
REMARK   13  A    between atoms: C_33  and  C_38
REMARK   14  A    between atoms: C_34  and  C_36
REMARK   15  A    between atoms: C_35  and  C_38
REMARK   16  A    between atoms: N_41  and  C_43
REMARK                            x       y       z     vdW  Elec       q    Type
REMARK                         _______ _______ _______ _____ _____    ______ ____
ROOT
ATOM      1  C   UNL A   1     -25.509   0.985  28.259  0.00  0.00    +0.083 C 
ENDROOT
BRANCH   1   2
ATOM      2  C   UNL A   1     -25.688   1.614  26.461  0.00  0.00    +0.086 C 
ATOM      3  C   UNL A   1     -26.250   2.920  26.395  0.00  0.00    +0.056 C 
ATOM      4  C   UNL A   1     -27.438   3.091  25.645  0.00  0.00    +0.102 C 
ATOM      5  N   UNL A   1     -28.075   2.089  25.003  0.00  0.00    -0.212 NA
ATOM      6  C   UNL A   1     -27.543   0.849  25.079  0.00  0.00    +0.234 C 
ATOM      7  C   UNL A   1     -26.354   0.576  25.777  0.00  0.00    +0.241 C 
ATOM      8  F   UNL A   1     -25.860  -0.681  25.795  0.00  0.00    -0.227 F 
BRANCH   3   9
ATOM      9  C   UNL A   1     -25.642   4.093  27.123  0.00  0.00    +0.263 C 
ATOM     10  N   UNL A   1     -25.614   5.252  26.449  0.00  0.00    -0.200 NA
ATOM     11  C   UNL A   1     -25.026   6.479  26.963  0.00  0.00    +0.139 C 
ATOM     12  O   UNL A   1     -25.143   3.966  28.243  0.00  0.00    -0.269 OA
ENDBRANCH   3   9
BRANCH   6  13
ATOM     13  O   UNL A   1     -28.193  -0.208  24.477  0.00  0.00    -0.459 OA
BRANCH  13  14
ATOM     14  C   UNL A   1     -29.460   0.005  23.866  0.00  0.00    +0.242 C 
BRANCH  14  15
ATOM     15  C   UNL A   1     -30.065  -1.377  23.573  0.00  0.00    +0.229 C 
ATOM     16  O   UNL A   1     -30.729  -1.878  24.721  0.00  0.00    -0.216 OA
ENDBRANCH  14  15
ENDBRANCH  13  14
ENDBRANCH   6  13
ENDBRANCH   1   2
BRANCH   1  17
ATOM     17  N   UNL A   1     -26.559   1.098  28.959  0.00  0.00    -0.219 NA
BRANCH  17  18
ATOM     18  C   UNL A   1     -27.199   0.023  29.066  0.00  0.00    +0.089 C 
BRANCH  18  19
ATOM     19  C   UNL A   1     -28.706   0.127  29.388  0.00  0.00    +0.019 C 
BRANCH  19  21
ATOM     20  C   UNL A   1     -29.990   2.216  31.715  0.00  0.00    +0.000 C 
ATOM     21  C   UNL A   1     -28.885   1.684  29.565  0.00  0.00    +0.001 C 
ATOM     22  C   UNL A   1     -31.022   2.053  30.541  0.00  0.00    +0.000 C 
ATOM     23  C   UNL A   1     -28.604   2.054  31.044  0.00  0.00    +0.000 C 
ATOM     24  C   UNL A   1     -30.297   2.113  29.185  0.00  0.00    +0.000 C 
ENDBRANCH  19  21
ENDBRANCH  18  19
ENDBRANCH  17  18
ENDBRANCH   1  17
BRANCH   1  25
ATOM     25  C   UNL A   1     -24.540  -0.071  29.071  0.00  0.00    +0.052 C 
BRANCH  25  26
ATOM     26  C   UNL A   1     -23.193   0.339  28.717  0.00  0.00    +0.154 C 
ATOM     27  O   UNL A   1     -22.233  -0.667  28.957  0.00  0.00    -0.223 OA
BRANCH  26  29
ATOM     28  C   UNL A   1     -21.373   1.798  27.498  0.00  0.00    +0.003 C 
ATOM     29  C   UNL A   1     -22.806   1.181  27.559  0.00  0.00    +0.030 C 
BRANCH  29  31
ATOM     30  C   UNL A   1     -23.488   1.952  25.329  0.00  0.00    +0.000 C 
ATOM     31  C   UNL A   1     -23.371   1.591  26.592  0.00  0.00    +0.003 C 
ENDBRANCH  29  31
ENDBRANCH  26  29
ENDBRANCH  25  26
BRANCH  25  32
ATOM     32  C   UNL A   1     -24.855  -1.012  30.143  0.00  0.00    +0.042 C 
BRANCH  32  33
ATOM     33  C   UNL A   1     -24.973  -2.505  29.788  0.00  0.00    -0.021 C 
ATOM     34  C   UNL A   1     -23.906  -3.173  29.146  0.00  0.00    -0.004 C 
ATOM     35  C   UNL A   1     -23.989  -4.549  28.853  0.00  0.00    -0.000 C 
ATOM     36  C   UNL A   1     -25.137  -5.280  29.205  0.00  0.00    -0.000 C 
ATOM     37  C   UNL A   1     -26.232  -4.611  29.784  0.00  0.00    -0.000 C 
ATOM     38  C   UNL A   1     -26.155  -3.232  30.065  0.00  0.00    -0.004 C 
ENDBRANCH  32  33
BRANCH  32  39
ATOM     39  C   UNL A   1     -25.387  -0.679  31.571  0.00  0.00    +0.077 C 
ATOM     40  C   UNL A   1     -25.189   0.773  32.028  0.00  0.00    +0.019 C 
ATOM     41  C   UNL A   1     -25.336   0.684  33.544  0.00  0.00    +0.020 C 
ATOM     42  C   UNL A   1     -24.829  -0.715  33.905  0.00  0.00    +0.089 C 
ATOM     43  N   UNL A   1     -24.758  -1.481  32.646  0.00  0.00    -0.219 NA
ENDBRANCH  32  39
ENDBRANCH  25  32
ENDBRANCH   1  25
TORSDOF 16
