MODEL 87
MODEL 1
REMARK VINA RESULT:    -8.358      0.000      0.000
REMARK INTER + INTRA:         -11.769
REMARK INTER:                 -10.801
REMARK INTRA:                  -0.968
REMARK UNBOUND:                -0.968
REMARK  Name = No_87-gen_results/8p0m/2024-11-27-11-27-31/
REMARK  5 active torsions:
REMARK  status: ('A' for Active; 'I' for Inactive)
REMARK    1  A    between atoms: C_1  and  C_2
REMARK    2  A    between atoms: C_1  and  N_8
REMARK    3  A    between atoms: C_5  and  C_12
REMARK    4  A    between atoms: C_11  and  C_19
REMARK    5  A    between atoms: C_23  and  C_25
REMARK                            x       y       z     vdW  Elec       q    Type
REMARK                         _______ _______ _______ _____ _____    ______ ____
ROOT
ATOM      1  N   UNL A   1     -26.088   1.388  25.360  0.00  0.00    -0.275 N 
ATOM      2  C   UNL A   1     -26.885   0.999  24.764  0.00  0.00    +0.230 C 
ATOM      3  O   UNL A   1     -26.968  -0.115  24.354  0.00  0.00    -0.275 OA
ATOM      4  C   UNL A   1     -28.225   1.925  24.686  0.00  0.00    +0.100 C 
ATOM      5  C   UNL A   1     -25.941   2.913  25.767  0.00  0.00    +0.094 C 
ATOM      6  C   UNL A   1     -27.111   3.471  26.109  0.00  0.00    +0.022 C 
ATOM      7  C   UNL A   1     -28.180   3.273  25.076  0.00  0.00    +0.015 C 
ENDROOT
BRANCH   4   8
ATOM      8  C   UNL A   1     -29.398   1.350  23.974  0.00  0.00    +0.005 A 
ATOM      9  C   UNL A   1     -29.819   0.457  24.135  0.00  0.00    +0.097 A 
ATOM     10  N   UNL A   1     -30.971   0.034  23.425  0.00  0.00    -0.217 NA
ATOM     11  C   UNL A   1     -30.313   2.283  23.309  0.00  0.00    +0.002 A 
ATOM     12  C   UNL A   1     -31.317   1.899  22.699  0.00  0.00    +0.046 A 
ATOM     13  C   UNL A   1     -31.763   0.699  22.738  0.00  0.00    +0.222 A 
ATOM     14  F   UNL A   1     -32.782   0.249  22.151  0.00  0.00    -0.183 F 
BRANCH  12  15
ATOM     15  C   UNL A   1     -32.090   2.980  21.891  0.00  0.00    +0.005 A 
ATOM     16  C   UNL A   1     -32.094   2.925  20.621  0.00  0.00    +0.003 A 
ATOM     17  C   UNL A   1     -32.746   3.974  22.656  0.00  0.00    +0.014 A 
ATOM     18  C   UNL A   1     -32.806   3.945  19.875  0.00  0.00    +0.030 A 
ATOM     19  C   UNL A   1     -33.460   4.956  21.916  0.00  0.00    +0.085 A 
ATOM     20  C   UNL A   1     -33.469   4.929  20.570  0.00  0.00    +0.151 A 
ATOM     21  F   UNL A   1     -34.149   5.868  19.958  0.00  0.00    -0.203 F 
ATOM     22 CL   UNL A   1     -34.216   6.144  22.827  0.00  0.00    -0.080 Cl
ENDBRANCH  12  15
ENDBRANCH   4   8
BRANCH   1  23
ATOM     23  C   UNL A   1     -24.810   0.882  25.543  0.00  0.00    +0.122 C 
BRANCH  23  24
ATOM     24  C   UNL A   1     -24.440   0.577  26.653  0.00  0.00    +0.025 A 
ATOM     25  C   UNL A   1     -23.287   1.065  27.236  0.00  0.00    +0.138 A 
ATOM     26  C   UNL A   1     -22.761   0.672  28.530  0.00  0.00    +0.033 A 
ATOM     27  C   UNL A   1     -23.473  -0.282  29.291  0.00  0.00    +0.074 A 
ATOM     28  C   UNL A   1     -24.671  -0.808  28.689  0.00  0.00    +0.004 A 
ATOM     29  C   UNL A   1     -25.130  -0.448  27.444  0.00  0.00    -0.000 A 
ATOM     30  F   UNL A   1     -22.490   1.870  26.601  0.00  0.00    -0.204 F 
BRANCH  27  31
ATOM     31  C   UNL A   1     -23.047  -0.703  30.599  0.00  0.00    +0.419 C 
ATOM     32  F   UNL A   1     -21.821  -0.808  30.698  0.00  0.00    -0.166 F 
ATOM     33  F   UNL A   1     -23.602  -1.875  31.006  0.00  0.00    -0.166 F 
ATOM     34  F   UNL A   1     -23.412   0.293  31.550  0.00  0.00    -0.166 F 
ENDBRANCH  27  31
ENDBRANCH  23  24
ENDBRANCH   1  23
TORSDOF 5
ENDMDL
ENDMDL
