REMARK  Name = outputs/IAG933/test6/raw/output_88_IAG933_linker_design_.xyz
REMARK  12 active torsions:
REMARK  status: ('A' for Active; 'I' for Inactive)
REMARK    1  A    between atoms: C_1  and  C_2
REMARK    2  A    between atoms: C_1  and  C_8
REMARK    3  A    between atoms: C_1  and  C_31
REMARK    4  A    between atoms: C_9  and  S_36
REMARK    5  A    between atoms: C_13  and  N_38
REMARK    6  A    between atoms: C_14  and  C_15
REMARK    7  A    between atoms: C_21  and  O_22
REMARK    8  A    between atoms: O_22  and  C_23
REMARK    9  A    between atoms: C_23  and  C_24
REMARK   10  A    between atoms: C_29  and  N_41
REMARK   11  A    between atoms: C_35  and  N_38
REMARK   12  A    between atoms: S_36  and  N_41
REMARK                            x       y       z     vdW  Elec       q    Type
REMARK                         _______ _______ _______ _____ _____    ______ ____
ROOT
ATOM      1  C   UNL A   1     -23.431   1.570  28.974  0.00  0.00    +0.147 C 
ATOM      2 CL   UNL A   1     -23.255   2.253  24.948  0.00  0.00    -0.078 Cl
ATOM      3  C   UNL A   1     -22.877   1.906  26.657  0.00  0.00    +0.111 C 
ATOM      4  F   UNL A   1     -22.191  -0.339  29.582  0.00  0.00    -0.182 F 
ATOM      5  C   UNL A   1     -23.738   1.637  27.690  0.00  0.00    +0.097 C 
ATOM      6  C   UNL A   1     -22.276   0.746  28.901  0.00  0.00    +0.369 C 
ATOM      7  O   UNL A   1     -21.261   0.987  28.043  0.00  0.00    -0.441 OA
ATOM      8  C   UNL A   1     -21.515   1.689  26.941  0.00  0.00    +0.188 C 
ENDROOT
BRANCH   5   9
ATOM      9  N   UNL A   1     -24.919   1.166  27.354  0.00  0.00    -0.229 NA
BRANCH   9  10
ATOM     10  C   UNL A   1     -25.688   1.614  26.461  0.00  0.00    +0.162 C 
ATOM     11  C   UNL A   1     -26.250   2.920  26.395  0.00  0.00    +0.075 C 
ATOM     12  C   UNL A   1     -27.438   3.091  25.645  0.00  0.00    +0.104 C 
ATOM     13  N   UNL A   1     -28.075   2.089  25.003  0.00  0.00    -0.212 NA
ATOM     14  C   UNL A   1     -27.543   0.849  25.079  0.00  0.00    +0.236 C 
ATOM     15  C   UNL A   1     -26.354   0.576  25.777  0.00  0.00    +0.260 C 
ATOM     16  F   UNL A   1     -25.860  -0.681  25.795  0.00  0.00    -0.225 F 
BRANCH  11  17
ATOM     17  C   UNL A   1     -25.642   4.093  27.123  0.00  0.00    +0.264 C 
ATOM     18  N   UNL A   1     -25.614   5.252  26.449  0.00  0.00    -0.200 NA
ATOM     19  C   UNL A   1     -25.026   6.479  26.963  0.00  0.00    +0.139 C 
ATOM     20  O   UNL A   1     -25.143   3.966  28.243  0.00  0.00    -0.269 OA
ENDBRANCH  11  17
BRANCH  14  21
ATOM     21  O   UNL A   1     -28.193  -0.208  24.477  0.00  0.00    -0.459 OA
BRANCH  21  22
ATOM     22  C   UNL A   1     -29.460   0.005  23.866  0.00  0.00    +0.242 C 
BRANCH  22  23
ATOM     23  C   UNL A   1     -30.065  -1.377  23.573  0.00  0.00    +0.229 C 
ATOM     24  O   UNL A   1     -30.729  -1.878  24.721  0.00  0.00    -0.216 OA
ENDBRANCH  22  23
ENDBRANCH  21  22
ENDBRANCH  14  21
ENDBRANCH   9  10
ENDBRANCH   5   9
BRANCH   1  25
ATOM     25  N   UNL A   1     -24.108   2.332  30.042  0.00  0.00    -0.156 NA
BRANCH  25  27
ATOM     26  N   UNL A   1     -26.351   3.002  31.166  0.00  0.00    -0.034 NA
ATOM     27  S   UNL A   1     -24.952   2.386  31.479  0.00  0.00    +0.091 S 
ATOM     28  O   UNL A   1     -24.374   3.204  32.462  0.00  0.00    -0.135 OA
BRANCH  27  30
ATOM     29  C   UNL A   1     -25.387  -0.679  31.571  0.00  0.00    +0.093 C 
ATOM     30  C   UNL A   1     -25.189   0.773  32.028  0.00  0.00    +0.109 C 
ATOM     31  C   UNL A   1     -25.336   0.684  33.544  0.00  0.00    +0.035 C 
ATOM     32  C   UNL A   1     -24.829  -0.715  33.905  0.00  0.00    +0.090 C 
ATOM     33  N   UNL A   1     -24.758  -1.481  32.646  0.00  0.00    -0.218 NA
BRANCH  29  34
ATOM     34  C   UNL A   1     -24.855  -1.012  30.143  0.00  0.00    +0.072 C 
BRANCH  34  35
ATOM     35  C   UNL A   1     -24.973  -2.505  29.788  0.00  0.00    -0.019 C 
ATOM     36  C   UNL A   1     -23.906  -3.173  29.146  0.00  0.00    -0.004 C 
ATOM     37  C   UNL A   1     -23.989  -4.549  28.853  0.00  0.00    -0.000 C 
ATOM     38  C   UNL A   1     -25.137  -5.280  29.205  0.00  0.00    -0.000 C 
ATOM     39  C   UNL A   1     -26.232  -4.611  29.784  0.00  0.00    -0.000 C 
ATOM     40  C   UNL A   1     -26.155  -3.232  30.065  0.00  0.00    -0.004 C 
ENDBRANCH  34  35
BRANCH  34  41
ATOM     41  C   UNL A   1     -25.435  -0.361  28.927  0.00  0.00    +0.188 C 
ATOM     42  O   UNL A   1     -25.129  -0.985  28.176  0.00  0.00    -0.220 OA
ENDBRANCH  34  41
ENDBRANCH  29  34
ENDBRANCH  27  30
ENDBRANCH  25  27
ENDBRANCH   1  25
TORSDOF 12
