REMARK  Name = outputs/IAG933/test6/raw/output_8802_IAG933_linker_design_.xyz
REMARK  14 active torsions:
REMARK  status: ('A' for Active; 'I' for Inactive)
REMARK    1  A    between atoms: C_1  and  C_2
REMARK    2  A    between atoms: C_1  and  C_8
REMARK    3  A    between atoms: C_1  and  N_37
REMARK    4  A    between atoms: C_13  and  C_33
REMARK    5  A    between atoms: C_14  and  C_15
REMARK    6  A    between atoms: C_21  and  O_22
REMARK    7  A    between atoms: O_22  and  C_23
REMARK    8  A    between atoms: C_23  and  C_24
REMARK    9  A    between atoms: C_29  and  C_42
REMARK   10  A    between atoms: C_30  and  C_32
REMARK   11  A    between atoms: C_32  and  C_42
REMARK   12  A    between atoms: C_35  and  C_43
REMARK   13  A    between atoms: N_38  and  C_41
REMARK   14  A    between atoms: C_41  and  C_44
REMARK                            x       y       z     vdW  Elec       q    Type
REMARK                         _______ _______ _______ _____ _____    ______ ____
ROOT
ATOM      1  C   UNL A   1     -23.908   0.172  27.984  0.00  0.00    +0.119 C 
ATOM      2  C   UNL A   1     -24.784   1.377  27.553  0.00  0.00    +0.045 C 
ATOM      3  N   UNL A   1     -24.789  -0.016  29.088  0.00  0.00    -0.264 NA
ATOM      4  C   UNL A   1     -25.710   0.827  28.851  0.00  0.00    +0.076 C 
ENDROOT
BRANCH   2   5
ATOM      5  C   UNL A   1     -25.688   1.614  26.461  0.00  0.00    +0.073 C 
ATOM      6  C   UNL A   1     -26.250   2.920  26.395  0.00  0.00    +0.055 C 
ATOM      7  C   UNL A   1     -27.438   3.091  25.645  0.00  0.00    +0.102 C 
ATOM      8  N   UNL A   1     -28.075   2.089  25.003  0.00  0.00    -0.212 NA
ATOM      9  C   UNL A   1     -27.543   0.849  25.079  0.00  0.00    +0.234 C 
ATOM     10  C   UNL A   1     -26.354   0.576  25.777  0.00  0.00    +0.240 C 
ATOM     11  F   UNL A   1     -25.860  -0.681  25.795  0.00  0.00    -0.227 F 
BRANCH   6  12
ATOM     12  C   UNL A   1     -25.642   4.093  27.123  0.00  0.00    +0.262 C 
ATOM     13  N   UNL A   1     -25.614   5.252  26.449  0.00  0.00    -0.200 NA
ATOM     14  C   UNL A   1     -25.026   6.479  26.963  0.00  0.00    +0.139 C 
ATOM     15  O   UNL A   1     -25.143   3.966  28.243  0.00  0.00    -0.269 OA
ENDBRANCH   6  12
BRANCH   9  16
ATOM     16  O   UNL A   1     -28.193  -0.208  24.477  0.00  0.00    -0.459 OA
BRANCH  16  17
ATOM     17  C   UNL A   1     -29.460   0.005  23.866  0.00  0.00    +0.242 C 
BRANCH  17  18
ATOM     18  C   UNL A   1     -30.065  -1.377  23.573  0.00  0.00    +0.229 C 
ATOM     19  O   UNL A   1     -30.729  -1.878  24.721  0.00  0.00    -0.216 OA
ENDBRANCH  17  18
ENDBRANCH  16  17
ENDBRANCH   9  16
ENDBRANCH   2   5
BRANCH   1  20
ATOM     20  C   UNL A   1     -22.669   0.518  28.586  0.00  0.00    +0.178 C 
ATOM     21  O   UNL A   1     -22.412   0.212  29.762  0.00  0.00    -0.294 OA
BRANCH  20  22
ATOM     22  C   UNL A   1     -21.633   1.192  27.608  0.00  0.00    +0.143 C 
BRANCH  22  23
ATOM     23  C   UNL A   1     -22.293   1.873  26.490  0.00  0.00    -0.070 C 
ATOM     24  C   UNL A   1     -22.553   2.295  25.313  0.00  0.00    -0.014 C 
ENDBRANCH  22  23
ENDBRANCH  20  22
ENDBRANCH   1  20
BRANCH   3  25
ATOM     25  C   UNL A   1     -24.855  -1.012  30.143  0.00  0.00    +0.097 C 
BRANCH  25  26
ATOM     26  C   UNL A   1     -24.973  -2.505  29.788  0.00  0.00    -0.006 C 
ATOM     27  C   UNL A   1     -23.906  -3.173  29.146  0.00  0.00    -0.003 C 
ATOM     28  C   UNL A   1     -23.989  -4.549  28.853  0.00  0.00    -0.000 C 
ATOM     29  C   UNL A   1     -25.137  -5.280  29.205  0.00  0.00    -0.000 C 
ATOM     30  C   UNL A   1     -26.232  -4.611  29.784  0.00  0.00    -0.000 C 
ATOM     31  C   UNL A   1     -26.155  -3.232  30.065  0.00  0.00    -0.003 C 
ENDBRANCH  25  26
BRANCH  25  32
ATOM     32  C   UNL A   1     -25.387  -0.679  31.571  0.00  0.00    +0.092 C 
ATOM     33  C   UNL A   1     -25.189   0.773  32.028  0.00  0.00    +0.021 C 
ATOM     34  C   UNL A   1     -25.336   0.684  33.544  0.00  0.00    +0.020 C 
ATOM     35  C   UNL A   1     -24.829  -0.715  33.905  0.00  0.00    +0.089 C 
ATOM     36  N   UNL A   1     -24.758  -1.481  32.646  0.00  0.00    -0.218 NA
ENDBRANCH  25  32
ENDBRANCH   3  25
BRANCH   4  37
ATOM     37  C   UNL A   1     -27.113   1.330  28.682  0.00  0.00    +0.090 C 
BRANCH  37  40
ATOM     38  F   UNL A   1     -29.636   0.081  26.857  0.00  0.00    -0.219 F 
ATOM     39  C   UNL A   1     -29.590   0.603  28.156  0.00  0.00    +0.224 C 
ATOM     40  N   UNL A   1     -28.184   0.330  28.510  0.00  0.00    -0.245 NA
ATOM     41  C   UNL A   1     -29.553  -0.562  30.154  0.00  0.00    +0.024 C 
ATOM     42  C   UNL A   1     -30.412  -0.234  28.913  0.00  0.00    +0.083 C 
ATOM     43  C   UNL A   1     -28.197  -0.807  29.443  0.00  0.00    +0.075 C 
BRANCH  42  44
ATOM     44  C   UNL A   1     -31.859   0.290  28.592  0.00  0.00    +0.186 C 
ATOM     45  O   UNL A   1     -32.189  -0.318  27.344  0.00  0.00    -0.220 OA
ENDBRANCH  42  44
ENDBRANCH  37  40
ENDBRANCH   4  37
TORSDOF 14
