REMARK  Name = outputs/IAG933/test6/raw/output_8804_IAG933_linker_design_.xyz
REMARK  7 active torsions:
REMARK  status: ('A' for Active; 'I' for Inactive)
REMARK    1  A    between atoms: C_1  and  C_2
REMARK    2  A    between atoms: C_13  and  N_39
REMARK    3  A    between atoms: C_14  and  C_15
REMARK    4  A    between atoms: C_21  and  O_22
REMARK    5  A    between atoms: O_22  and  C_23
REMARK    6  A    between atoms: C_23  and  C_24
REMARK    7  A    between atoms: O_28  and  C_33
REMARK                            x       y       z     vdW  Elec       q    Type
REMARK                         _______ _______ _______ _____ _____    ______ ____
ROOT
ATOM      1  C   UNL A   1     -24.855  -1.012  30.143  0.00  0.00    +0.058 C 
ATOM      2  C   UNL A   1     -25.387  -0.679  31.571  0.00  0.00    +0.090 C 
ATOM      3  C   UNL A   1     -25.189   0.773  32.028  0.00  0.00    +0.124 C 
ATOM      4  C   UNL A   1     -25.336   0.684  33.544  0.00  0.00    +0.032 C 
ATOM      5  C   UNL A   1     -24.829  -0.715  33.905  0.00  0.00    +0.089 C 
ATOM      6  N   UNL A   1     -24.758  -1.481  32.646  0.00  0.00    -0.218 NA
ATOM      7  C   UNL A   1     -24.856   4.183  32.540  0.00  0.00    +0.180 C 
ATOM      8  C   UNL A   1     -24.573  -0.014  28.786  0.00  0.00    +0.117 C 
ATOM      9  C   UNL A   1     -26.828   3.862  31.354  0.00  0.00    +0.180 C 
ATOM     10  F   UNL A   1     -21.239   1.932  27.738  0.00  0.00    -0.228 F 
ATOM     11  C   UNL A   1     -23.476   1.670  27.147  0.00  0.00    +0.214 C 
ATOM     12  C   UNL A   1     -22.494   1.496  28.210  0.00  0.00    +0.253 C 
ATOM     13  N   UNL A   1     -25.612   3.259  31.921  0.00  0.00    -0.147 N 
ATOM     14  C   UNL A   1     -23.530   0.896  29.478  0.00  0.00    +0.265 C 
ATOM     15  C   UNL A   1     -26.661   5.165  31.612  0.00  0.00    +0.048 C 
ATOM     16  C   UNL A   1     -25.497   5.368  32.395  0.00  0.00    +0.048 C 
ATOM     17  N   UNL A   1     -24.735   1.214  27.476  0.00  0.00    -0.240 NA
ATOM     18  C   UNL A   1     -25.028   2.135  31.323  0.00  0.00    +0.304 C 
ATOM     19  N   UNL A   1     -24.333   2.098  29.992  0.00  0.00    -0.069 NA
ENDROOT
BRANCH  17  20
ATOM     20  C   UNL A   1     -25.688   1.614  26.461  0.00  0.00    +0.130 C 
ATOM     21  C   UNL A   1     -26.250   2.920  26.395  0.00  0.00    +0.070 C 
ATOM     22  C   UNL A   1     -27.438   3.091  25.645  0.00  0.00    +0.103 C 
ATOM     23  N   UNL A   1     -28.075   2.089  25.003  0.00  0.00    -0.212 NA
ATOM     24  C   UNL A   1     -27.543   0.849  25.079  0.00  0.00    +0.235 C 
ATOM     25  C   UNL A   1     -26.354   0.576  25.777  0.00  0.00    +0.255 C 
ATOM     26  F   UNL A   1     -25.860  -0.681  25.795  0.00  0.00    -0.225 F 
BRANCH  21  27
ATOM     27  C   UNL A   1     -25.642   4.093  27.123  0.00  0.00    +0.264 C 
ATOM     28  N   UNL A   1     -25.614   5.252  26.449  0.00  0.00    -0.200 NA
ATOM     29  C   UNL A   1     -25.026   6.479  26.963  0.00  0.00    +0.139 C 
ATOM     30  O   UNL A   1     -25.143   3.966  28.243  0.00  0.00    -0.269 OA
ENDBRANCH  21  27
BRANCH  24  31
ATOM     31  O   UNL A   1     -28.193  -0.208  24.477  0.00  0.00    -0.459 OA
BRANCH  31  32
ATOM     32  C   UNL A   1     -29.460   0.005  23.866  0.00  0.00    +0.242 C 
BRANCH  32  33
ATOM     33  C   UNL A   1     -30.065  -1.377  23.573  0.00  0.00    +0.229 C 
ATOM     34  O   UNL A   1     -30.729  -1.878  24.721  0.00  0.00    -0.216 OA
ENDBRANCH  32  33
ENDBRANCH  31  32
ENDBRANCH  24  31
ENDBRANCH  17  20
BRANCH   1  35
ATOM     35  C   UNL A   1     -24.973  -2.505  29.788  0.00  0.00    -0.020 C 
ATOM     36  C   UNL A   1     -23.906  -3.173  29.146  0.00  0.00    -0.004 C 
ATOM     37  C   UNL A   1     -23.989  -4.549  28.853  0.00  0.00    -0.000 C 
ATOM     38  C   UNL A   1     -25.137  -5.280  29.205  0.00  0.00    -0.000 C 
ATOM     39  C   UNL A   1     -26.232  -4.611  29.784  0.00  0.00    -0.000 C 
ATOM     40  C   UNL A   1     -26.155  -3.232  30.065  0.00  0.00    -0.004 C 
ENDBRANCH   1  35
BRANCH  11  41
ATOM     41  O   UNL A   1     -23.288   1.768  25.937  0.00  0.00    -0.335 OA
ATOM     42  C   UNL A   1     -22.108   2.184  25.256  0.00  0.00    +0.176 C 
ENDBRANCH  11  41
TORSDOF 7
