MODEL 880
MODEL 1
REMARK VINA RESULT:    -4.836      0.000      0.000
REMARK INTER + INTRA:          -4.836
REMARK INTER:                  -4.836
REMARK INTRA:                   0.000
REMARK UNBOUND:                 0.000
REMARK  Name = No_880-gen_results/8p0m/2024-11-27-11-27-31/
REMARK  0 active torsions:
REMARK  status: ('A' for Active; 'I' for Inactive)
REMARK                            x       y       z     vdW  Elec       q    Type
REMARK                         _______ _______ _______ _____ _____    ______ ____
ROOT
ATOM      1  N   UNL A   1     -10.587  -9.258  18.814  0.00  0.00    -0.210 NA
ATOM      2  C   UNL A   1     -10.130 -10.023  18.171  0.00  0.00    +0.257 A 
ATOM      3  C   UNL A   1      -9.927  -9.017  19.984  0.00  0.00    +0.103 A 
ATOM      4  C   UNL A   1      -8.744  -9.356  20.091  0.00  0.00    +0.042 A 
ATOM      5  N   UNL A   1     -10.835 -10.328  16.882  0.00  0.00    -0.086 NA
ATOM      6  N   UNL A   1      -8.898 -10.553  18.142  0.00  0.00    -0.210 NA
ATOM      7  C   UNL A   1      -8.135 -10.273  19.209  0.00  0.00    +0.103 A 
ENDROOT
TORSDOF 0
ENDMDL
ENDMDL
