REMARK  Name = outputs/IAG933/test6/raw/output_8811_IAG933_linker_design_.xyz
REMARK  16 active torsions:
REMARK  status: ('A' for Active; 'I' for Inactive)
REMARK    1  A    between atoms: C_1  and  C_2
REMARK    2  A    between atoms: C_1  and  C_8
REMARK    3  A    between atoms: C_1  and  C_33
REMARK    4  A    between atoms: C_14  and  C_15
REMARK    5  A    between atoms: C_15  and  O_18
REMARK    6  A    between atoms: O_18  and  C_32
REMARK    7  A    between atoms: C_21  and  O_22
REMARK    8  A    between atoms: O_22  and  C_23
REMARK    9  A    between atoms: C_23  and  C_24
REMARK   10  A    between atoms: C_28  and  C_40
REMARK   11  A    between atoms: C_30  and  C_32
REMARK   12  A    between atoms: C_30  and  N_34
REMARK   13  A    between atoms: C_31  and  C_35
REMARK   14  A    between atoms: C_31  and  C_38
REMARK   15  A    between atoms: C_32  and  C_38
REMARK   16  A    between atoms: C_33  and  N_34
REMARK                            x       y       z     vdW  Elec       q    Type
REMARK                         _______ _______ _______ _____ _____    ______ ____
ROOT
ATOM      1  C   UNL A   1     -25.251   3.476  29.586  0.00  0.00    +0.188 C 
ENDROOT
BRANCH   1   2
ATOM      2  C   UNL A   1     -24.327   2.337  29.800  0.00  0.00    +0.137 C 
BRANCH   2   4
ATOM      3  C   UNL A   1     -22.852   0.718  28.542  0.00  0.00    +0.329 C 
ATOM      4  N   UNL A   1     -24.189   1.160  28.981  0.00  0.00    -0.267 N 
ATOM      5  O   UNL A   1     -22.203  -0.133  29.538  0.00  0.00    -0.263 OA
BRANCH   3   8
ATOM      6  O   UNL A   1     -20.720   1.546  27.935  0.00  0.00    -0.235 OA
ATOM      7  O   UNL A   1     -22.154   1.673  26.309  0.00  0.00    -0.235 OA
ATOM      8  C   UNL A   1     -21.841   1.341  27.477  0.00  0.00    +0.440 C 
ENDBRANCH   3   8
BRANCH   4   9
ATOM      9  C   UNL A   1     -25.133   0.024  29.063  0.00  0.00    +0.100 C 
BRANCH   9  10
ATOM     10  C   UNL A   1     -24.855  -1.012  30.143  0.00  0.00    +0.058 C 
BRANCH  10  11
ATOM     11  C   UNL A   1     -24.973  -2.505  29.788  0.00  0.00    -0.019 C 
ATOM     12  C   UNL A   1     -23.906  -3.173  29.146  0.00  0.00    -0.004 C 
ATOM     13  C   UNL A   1     -23.989  -4.549  28.853  0.00  0.00    -0.000 C 
ATOM     14  C   UNL A   1     -25.137  -5.280  29.205  0.00  0.00    -0.000 C 
ATOM     15  C   UNL A   1     -26.232  -4.611  29.784  0.00  0.00    -0.000 C 
ATOM     16  C   UNL A   1     -26.155  -3.232  30.065  0.00  0.00    -0.004 C 
ENDBRANCH  10  11
BRANCH  10  17
ATOM     17  C   UNL A   1     -25.387  -0.679  31.571  0.00  0.00    +0.079 C 
ATOM     18  C   UNL A   1     -25.189   0.773  32.028  0.00  0.00    +0.019 C 
ATOM     19  C   UNL A   1     -25.336   0.684  33.544  0.00  0.00    +0.020 C 
ATOM     20  C   UNL A   1     -24.829  -0.715  33.905  0.00  0.00    +0.089 C 
ATOM     21  N   UNL A   1     -24.758  -1.481  32.646  0.00  0.00    -0.219 NA
ENDBRANCH  10  17
ENDBRANCH   9  10
ENDBRANCH   4   9
ENDBRANCH   2   4
ENDBRANCH   1   2
BRANCH   1  22
ATOM     22  O   UNL A   1     -25.143   3.966  28.243  0.00  0.00    -0.462 OA
BRANCH  22  23
ATOM     23  C   UNL A   1     -25.642   4.093  27.123  0.00  0.00    +0.222 C 
ATOM     24  N   UNL A   1     -25.614   5.252  26.449  0.00  0.00    -0.236 NA
ATOM     25  C   UNL A   1     -25.026   6.479  26.963  0.00  0.00    +0.155 C 
BRANCH  23  27
ATOM     26  C   UNL A   1     -25.688   1.614  26.461  0.00  0.00    +0.041 C 
ATOM     27  C   UNL A   1     -26.250   2.920  26.395  0.00  0.00    +0.074 C 
ATOM     28  C   UNL A   1     -27.438   3.091  25.645  0.00  0.00    +0.107 C 
ATOM     29  N   UNL A   1     -28.075   2.089  25.003  0.00  0.00    -0.208 NA
ATOM     30  C   UNL A   1     -27.543   0.849  25.079  0.00  0.00    +0.253 C 
ATOM     31  C   UNL A   1     -26.354   0.576  25.777  0.00  0.00    +0.193 C 
ATOM     32  F   UNL A   1     -25.860  -0.681  25.795  0.00  0.00    -0.199 F 
BRANCH  30  33
ATOM     33  O   UNL A   1     -28.193  -0.208  24.477  0.00  0.00    -0.456 OA
BRANCH  33  34
ATOM     34  C   UNL A   1     -29.460   0.005  23.866  0.00  0.00    +0.243 C 
BRANCH  34  35
ATOM     35  C   UNL A   1     -30.065  -1.377  23.573  0.00  0.00    +0.229 C 
ATOM     36  O   UNL A   1     -30.729  -1.878  24.721  0.00  0.00    -0.216 OA
ENDBRANCH  34  35
ENDBRANCH  33  34
ENDBRANCH  30  33
ENDBRANCH  23  27
ENDBRANCH  22  23
ENDBRANCH   1  22
BRANCH   1  37
ATOM     37  C   UNL A   1     -25.351   4.714  30.620  0.00  0.00    +0.059 C 
BRANCH  37  38
ATOM     38  C   UNL A   1     -24.590   4.627  31.953  0.00  0.00    +0.137 C 
BRANCH  38  39
ATOM     39  C   UNL A   1     -25.167   5.604  33.033  0.00  0.00    +0.454 C 
ATOM     40  N   UNL A   1     -25.050   7.005  32.563  0.00  0.00    +0.199 NA
ATOM     41  N   UNL A   1     -24.901   4.974  34.387  0.00  0.00    +0.199 NA
ENDBRANCH  38  39
ENDBRANCH  37  38
ENDBRANCH   1  37
TORSDOF 16
