REMARK  Name = outputs/IAG933/test6/raw/output_8812_IAG933_linker_design_.xyz
REMARK  14 active torsions:
REMARK  status: ('A' for Active; 'I' for Inactive)
REMARK    1  A    between atoms: C_1  and  C_2
REMARK    2  A    between atoms: C_1  and  C_8
REMARK    3  A    between atoms: C_1  and  C_29
REMARK    4  A    between atoms: C_13  and  C_39
REMARK    5  A    between atoms: C_14  and  C_15
REMARK    6  A    between atoms: C_21  and  O_22
REMARK    7  A    between atoms: O_22  and  C_23
REMARK    8  A    between atoms: C_23  and  C_24
REMARK    9  A    between atoms: C_28  and  C_38
REMARK   10  A    between atoms: C_29  and  O_32
REMARK   11  A    between atoms: C_29  and  C_38
REMARK   12  A    between atoms: O_32  and  C_34
REMARK   13  A    between atoms: C_39  and  N_41
REMARK   14  A    between atoms: C_43  and  C_44
REMARK                            x       y       z     vdW  Elec       q    Type
REMARK                         _______ _______ _______ _____ _____    ______ ____
ROOT
ATOM      1  C   UNL A   1     -21.439   0.714  28.076  0.00  0.00    +0.117 C 
ATOM      2  C   UNL A   1     -23.624   0.871  28.348  0.00  0.00    +0.292 C 
ATOM      3  N   UNL A   1     -22.465   0.475  29.009  0.00  0.00    -0.195 NA
ATOM      4  N   UNL A   1     -23.248   1.220  27.103  0.00  0.00    -0.242 N 
ATOM      5  C   UNL A   1     -22.026   1.079  26.898  0.00  0.00    +0.087 C 
ENDROOT
BRANCH   5   7
ATOM      6  F   UNL A   1     -22.327   0.874  24.679  0.00  0.00    -0.228 F 
ATOM      7  C   UNL A   1     -21.521   1.550  25.647  0.00  0.00    +0.236 C 
ENDBRANCH   5   7
BRANCH   2   8
ATOM      8  O   UNL A   1     -24.910   0.957  28.892  0.00  0.00    -0.445 OA
BRANCH   8   9
ATOM      9  C   UNL A   1     -25.768  -0.177  29.208  0.00  0.00    +0.230 C 
BRANCH   9  11
ATOM     10  O   UNL A   1     -28.096  -0.112  28.318  0.00  0.00    -0.292 OA
ATOM     11  C   UNL A   1     -27.276   0.349  28.953  0.00  0.00    +0.190 C 
BRANCH  11  12
ATOM     12  C   UNL A   1     -28.036   1.909  29.151  0.00  0.00    +0.061 C 
ATOM     13  C   UNL A   1     -29.472   2.548  31.082  0.00  0.00    +0.000 C 
ATOM     14  C   UNL A   1     -28.007   2.227  31.442  0.00  0.00    +0.000 C 
ATOM     15  C   UNL A   1     -27.294   2.787  30.151  0.00  0.00    +0.007 C 
ATOM     16  C   UNL A   1     -29.596   2.437  29.518  0.00  0.00    +0.007 C 
ENDBRANCH  11  12
ENDBRANCH   9  11
BRANCH   9  17
ATOM     17  C   UNL A   1     -24.855  -1.012  30.143  0.00  0.00    +0.086 C 
BRANCH  17  18
ATOM     18  C   UNL A   1     -24.973  -2.505  29.788  0.00  0.00    -0.017 C 
ATOM     19  C   UNL A   1     -23.906  -3.173  29.146  0.00  0.00    -0.004 C 
ATOM     20  C   UNL A   1     -23.989  -4.549  28.853  0.00  0.00    -0.000 C 
ATOM     21  C   UNL A   1     -25.137  -5.280  29.205  0.00  0.00    -0.000 C 
ATOM     22  C   UNL A   1     -26.232  -4.611  29.784  0.00  0.00    -0.000 C 
ATOM     23  C   UNL A   1     -26.155  -3.232  30.065  0.00  0.00    -0.004 C 
ENDBRANCH  17  18
BRANCH  17  24
ATOM     24  C   UNL A   1     -25.387  -0.679  31.571  0.00  0.00    +0.081 C 
ATOM     25  C   UNL A   1     -25.189   0.773  32.028  0.00  0.00    +0.019 C 
ATOM     26  C   UNL A   1     -25.336   0.684  33.544  0.00  0.00    +0.020 C 
ATOM     27  C   UNL A   1     -24.829  -0.715  33.905  0.00  0.00    +0.089 C 
ATOM     28  N   UNL A   1     -24.758  -1.481  32.646  0.00  0.00    -0.219 NA
ENDBRANCH  17  24
ENDBRANCH   9  17
ENDBRANCH   8   9
ENDBRANCH   2   8
BRANCH   4  29
ATOM     29  C   UNL A   1     -24.256   1.773  26.406  0.00  0.00    +0.107 C 
BRANCH  29  30
ATOM     30  C   UNL A   1     -25.688   1.614  26.461  0.00  0.00    +0.090 C 
ATOM     31  C   UNL A   1     -26.250   2.920  26.395  0.00  0.00    +0.057 C 
ATOM     32  C   UNL A   1     -27.438   3.091  25.645  0.00  0.00    +0.102 C 
ATOM     33  N   UNL A   1     -28.075   2.089  25.003  0.00  0.00    -0.212 NA
ATOM     34  C   UNL A   1     -27.543   0.849  25.079  0.00  0.00    +0.234 C 
ATOM     35  C   UNL A   1     -26.354   0.576  25.777  0.00  0.00    +0.242 C 
ATOM     36  F   UNL A   1     -25.860  -0.681  25.795  0.00  0.00    -0.227 F 
BRANCH  31  37
ATOM     37  C   UNL A   1     -25.642   4.093  27.123  0.00  0.00    +0.263 C 
ATOM     38  N   UNL A   1     -25.614   5.252  26.449  0.00  0.00    -0.200 NA
ATOM     39  C   UNL A   1     -25.026   6.479  26.963  0.00  0.00    +0.139 C 
ATOM     40  O   UNL A   1     -25.143   3.966  28.243  0.00  0.00    -0.269 OA
ENDBRANCH  31  37
BRANCH  34  41
ATOM     41  O   UNL A   1     -28.193  -0.208  24.477  0.00  0.00    -0.459 OA
BRANCH  41  42
ATOM     42  C   UNL A   1     -29.460   0.005  23.866  0.00  0.00    +0.242 C 
BRANCH  42  43
ATOM     43  C   UNL A   1     -30.065  -1.377  23.573  0.00  0.00    +0.229 C 
ATOM     44  O   UNL A   1     -30.729  -1.878  24.721  0.00  0.00    -0.216 OA
ENDBRANCH  42  43
ENDBRANCH  41  42
ENDBRANCH  34  41
ENDBRANCH  29  30
ENDBRANCH   4  29
TORSDOF 14
