REMARK  Name = outputs/IAG933/test6/raw/output_8816_IAG933_linker_design_.xyz
REMARK  14 active torsions:
REMARK  status: ('A' for Active; 'I' for Inactive)
REMARK    1  A    between atoms: C_1  and  C_2
REMARK    2  A    between atoms: C_1  and  C_8
REMARK    3  A    between atoms: C_1  and  N_39
REMARK    4  A    between atoms: C_14  and  C_15
REMARK    5  A    between atoms: C_15  and  O_18
REMARK    6  A    between atoms: O_18  and  C_30
REMARK    7  A    between atoms: C_21  and  O_22
REMARK    8  A    between atoms: O_22  and  C_23
REMARK    9  A    between atoms: C_23  and  C_24
REMARK   10  A    between atoms: C_28  and  C_31
REMARK   11  A    between atoms: C_28  and  N_39
REMARK   12  A    between atoms: C_30  and  C_32
REMARK   13  A    between atoms: C_34  and  C_37
REMARK   14  A    between atoms: C_34  and  N_39
REMARK                            x       y       z     vdW  Elec       q    Type
REMARK                         _______ _______ _______ _____ _____    ______ ____
ROOT
ATOM      1  C   UNL A   1     -25.286   3.002  29.017  0.00  0.00    +0.144 C 
ATOM      2  C   UNL A   1     -24.465   1.891  28.990  0.00  0.00    +0.029 C 
ENDROOT
BRANCH   1   3
ATOM      3  C   UNL A   1     -26.460   2.999  29.856  0.00  0.00    +0.034 C 
ATOM      4  C   UNL A   1     -28.446   3.297  31.810  0.00  0.00    +0.000 C 
ATOM      5  C   UNL A   1     -27.488   2.032  29.969  0.00  0.00    +0.003 C 
ATOM      6  C   UNL A   1     -27.463   4.246  31.595  0.00  0.00    +0.000 C 
ATOM      7  C   UNL A   1     -26.473   4.065  30.645  0.00  0.00    +0.003 C 
ATOM      8  C   UNL A   1     -28.446   2.169  30.994  0.00  0.00    +0.000 C 
ENDBRANCH   1   3
BRANCH   1   9
ATOM      9  O   UNL A   1     -25.143   3.966  28.243  0.00  0.00    -0.437 OA
BRANCH   9  10
ATOM     10  C   UNL A   1     -25.642   4.093  27.123  0.00  0.00    +0.227 C 
ATOM     11  N   UNL A   1     -25.614   5.252  26.449  0.00  0.00    -0.235 NA
ATOM     12  C   UNL A   1     -25.026   6.479  26.963  0.00  0.00    +0.155 C 
BRANCH  10  14
ATOM     13  C   UNL A   1     -25.688   1.614  26.461  0.00  0.00    +0.041 C 
ATOM     14  C   UNL A   1     -26.250   2.920  26.395  0.00  0.00    +0.075 C 
ATOM     15  C   UNL A   1     -27.438   3.091  25.645  0.00  0.00    +0.107 C 
ATOM     16  N   UNL A   1     -28.075   2.089  25.003  0.00  0.00    -0.208 NA
ATOM     17  C   UNL A   1     -27.543   0.849  25.079  0.00  0.00    +0.253 C 
ATOM     18  C   UNL A   1     -26.354   0.576  25.777  0.00  0.00    +0.193 C 
ATOM     19  F   UNL A   1     -25.860  -0.681  25.795  0.00  0.00    -0.199 F 
BRANCH  17  20
ATOM     20  O   UNL A   1     -28.193  -0.208  24.477  0.00  0.00    -0.456 OA
BRANCH  20  21
ATOM     21  C   UNL A   1     -29.460   0.005  23.866  0.00  0.00    +0.243 C 
BRANCH  21  22
ATOM     22  C   UNL A   1     -30.065  -1.377  23.573  0.00  0.00    +0.229 C 
ATOM     23  O   UNL A   1     -30.729  -1.878  24.721  0.00  0.00    -0.216 OA
ENDBRANCH  21  22
ENDBRANCH  20  21
ENDBRANCH  17  20
ENDBRANCH  10  14
ENDBRANCH   9  10
ENDBRANCH   1   9
BRANCH   2  24
ATOM     24  C   UNL A   1     -24.239   0.887  29.282  0.00  0.00    +0.103 C 
BRANCH  24  25
ATOM     25  N   UNL A   1     -23.734  -0.202  29.552  0.00  0.00    -0.259 NA
BRANCH  25  26
ATOM     26  C   UNL A   1     -24.855  -1.012  30.143  0.00  0.00    +0.097 C 
BRANCH  26  27
ATOM     27  C   UNL A   1     -24.973  -2.505  29.788  0.00  0.00    -0.006 C 
ATOM     28  C   UNL A   1     -23.906  -3.173  29.146  0.00  0.00    -0.003 C 
ATOM     29  C   UNL A   1     -23.989  -4.549  28.853  0.00  0.00    -0.000 C 
ATOM     30  C   UNL A   1     -25.137  -5.280  29.205  0.00  0.00    -0.000 C 
ATOM     31  C   UNL A   1     -26.232  -4.611  29.784  0.00  0.00    -0.000 C 
ATOM     32  C   UNL A   1     -26.155  -3.232  30.065  0.00  0.00    -0.003 C 
ENDBRANCH  26  27
BRANCH  26  33
ATOM     33  C   UNL A   1     -25.387  -0.679  31.571  0.00  0.00    +0.092 C 
ATOM     34  C   UNL A   1     -25.189   0.773  32.028  0.00  0.00    +0.021 C 
ATOM     35  C   UNL A   1     -25.336   0.684  33.544  0.00  0.00    +0.020 C 
ATOM     36  C   UNL A   1     -24.829  -0.715  33.905  0.00  0.00    +0.089 C 
ATOM     37  N   UNL A   1     -24.758  -1.481  32.646  0.00  0.00    -0.218 NA
ENDBRANCH  26  33
ENDBRANCH  25  26
BRANCH  25  38
ATOM     38  C   UNL A   1     -22.416  -0.485  29.116  0.00  0.00    +0.142 C 
BRANCH  38  41
ATOM     39  C   UNL A   1     -22.456   1.487  27.870  0.00  0.00    +0.160 C 
ATOM     40  O   UNL A   1     -22.723   2.502  27.164  0.00  0.00    -0.229 OA
ATOM     41  C   UNL A   1     -21.965   0.588  28.405  0.00  0.00    +0.207 C 
ATOM     42  F   UNL A   1     -20.757   0.650  27.903  0.00  0.00    -0.196 F 
ENDBRANCH  38  41
ENDBRANCH  25  38
ENDBRANCH  24  25
ENDBRANCH   2  24
TORSDOF 14
