REMARK  Name = outputs/IAG933/test6/raw/output_8819_IAG933_linker_design_.xyz
REMARK  11 active torsions:
REMARK  status: ('A' for Active; 'I' for Inactive)
REMARK    1  A    between atoms: C_1  and  C_2
REMARK    2  A    between atoms: C_1  and  C_8
REMARK    3  A    between atoms: C_1  and  N_31
REMARK    4  A    between atoms: C_13  and  C_33
REMARK    5  A    between atoms: C_14  and  C_15
REMARK    6  A    between atoms: C_21  and  O_22
REMARK    7  A    between atoms: O_22  and  C_23
REMARK    8  A    between atoms: C_23  and  C_24
REMARK    9  A    between atoms: N_31  and  C_39
REMARK   10  A    between atoms: C_33  and  C_41
REMARK   11  A    between atoms: CA_37  and  C_39
REMARK                            x       y       z     vdW  Elec       q    Type
REMARK                         _______ _______ _______ _____ _____    ______ ____
ROOT
ATOM      1  C   UNL A   1     -24.538   1.306  27.057  0.00  0.00    -0.008 C 
ATOM      2  C   UNL A   1     -24.394   0.611  28.138  0.00  0.00    +0.058 C 
ENDROOT
BRANCH   1   3
ATOM      3  C   UNL A   1     -25.688   1.614  26.461  0.00  0.00    +0.035 C 
ATOM      4  C   UNL A   1     -26.250   2.920  26.395  0.00  0.00    +0.076 C 
ATOM      5  C   UNL A   1     -27.438   3.091  25.645  0.00  0.00    +0.107 C 
ATOM      6  N   UNL A   1     -28.075   2.089  25.003  0.00  0.00    -0.208 NA
ATOM      7  C   UNL A   1     -27.543   0.849  25.079  0.00  0.00    +0.253 C 
ATOM      8  C   UNL A   1     -26.354   0.576  25.777  0.00  0.00    +0.193 C 
ATOM      9  F   UNL A   1     -25.860  -0.681  25.795  0.00  0.00    -0.199 F 
BRANCH   4  10
ATOM     10  C   UNL A   1     -25.642   4.093  27.123  0.00  0.00    +0.266 C 
ATOM     11  N   UNL A   1     -25.614   5.252  26.449  0.00  0.00    -0.200 NA
ATOM     12  C   UNL A   1     -25.026   6.479  26.963  0.00  0.00    +0.139 C 
ATOM     13  O   UNL A   1     -25.143   3.966  28.243  0.00  0.00    -0.268 OA
ENDBRANCH   4  10
BRANCH   7  14
ATOM     14  O   UNL A   1     -28.193  -0.208  24.477  0.00  0.00    -0.456 OA
BRANCH  14  15
ATOM     15  C   UNL A   1     -29.460   0.005  23.866  0.00  0.00    +0.243 C 
BRANCH  15  16
ATOM     16  C   UNL A   1     -30.065  -1.377  23.573  0.00  0.00    +0.229 C 
ATOM     17  O   UNL A   1     -30.729  -1.878  24.721  0.00  0.00    -0.216 OA
ENDBRANCH  15  16
ENDBRANCH  14  15
ENDBRANCH   7  14
ENDBRANCH   1   3
BRANCH   2  20
ATOM     18  C   UNL A   1     -27.931   2.467  30.600  0.00  0.00    +0.250 C 
ATOM     19  O   UNL A   1     -27.626   3.122  31.569  0.00  0.00    -0.273 OA
ATOM     20  N   UNL A   1     -25.445  -0.082  29.186  0.00  0.00    -0.240 N 
ATOM     21  C   UNL A   1     -26.814   0.417  29.396  0.00  0.00    +0.334 C 
ATOM     22  O   UNL A   1     -27.755  -0.342  29.235  0.00  0.00    -0.250 OA
ATOM     23  N   UNL A   1     -27.013   1.771  29.832  0.00  0.00    -0.127 NA
ATOM     24  C   UNL A   1     -29.413   2.494  30.138  0.00  0.00    +0.097 C 
BRANCH  20  25
ATOM     25  C   UNL A   1     -24.855  -1.012  30.143  0.00  0.00    +0.119 C 
BRANCH  25  26
ATOM     26  C   UNL A   1     -24.973  -2.505  29.788  0.00  0.00    -0.003 C 
ATOM     27  C   UNL A   1     -23.906  -3.173  29.146  0.00  0.00    -0.003 C 
ATOM     28  C   UNL A   1     -23.989  -4.549  28.853  0.00  0.00    -0.000 C 
ATOM     29  C   UNL A   1     -25.137  -5.280  29.205  0.00  0.00    -0.000 C 
ATOM     30  C   UNL A   1     -26.232  -4.611  29.784  0.00  0.00    -0.000 C 
ATOM     31  C   UNL A   1     -26.155  -3.232  30.065  0.00  0.00    -0.003 C 
ENDBRANCH  25  26
BRANCH  25  32
ATOM     32  C   UNL A   1     -25.387  -0.679  31.571  0.00  0.00    +0.096 C 
ATOM     33  C   UNL A   1     -25.189   0.773  32.028  0.00  0.00    +0.021 C 
ATOM     34  C   UNL A   1     -25.336   0.684  33.544  0.00  0.00    +0.020 C 
ATOM     35  C   UNL A   1     -24.829  -0.715  33.905  0.00  0.00    +0.089 C 
ATOM     36  N   UNL A   1     -24.758  -1.481  32.646  0.00  0.00    -0.217 NA
ENDBRANCH  25  32
ENDBRANCH  20  25
ENDBRANCH   2  20
BRANCH   2  39
ATOM     37  O   UNL A   1     -20.854   1.178  27.755  0.00  0.00    -0.271 OA
ATOM     38  N   UNL A   1     -22.167  -0.178  29.135  0.00  0.00    -0.190 NA
ATOM     39  CA  UNL A   1     -23.059   0.470  28.544  0.00  0.00    +0.208 C 
ATOM     40  C   UNL A   1     -22.090   0.638  28.406  0.00  0.00    +0.268 C 
ENDBRANCH   2  39
BRANCH   1  42
ATOM     41  C   UNL A   1     -22.862   2.422  25.231  0.00  0.00    +0.005 C 
ATOM     42  C   UNL A   1     -23.636   1.786  26.236  0.00  0.00    +0.027 C 
ENDBRANCH   1  42
TORSDOF 11
