MODEL 881
MODEL 1
REMARK VINA RESULT:    -4.127      0.000      0.000
REMARK INTER + INTRA:          -4.817
REMARK INTER:                  -4.610
REMARK INTRA:                  -0.207
REMARK UNBOUND:                -0.207
REMARK  Name = No_881-gen_results/8p0m/2024-11-27-11-27-31/
REMARK  3 active torsions:
REMARK  status: ('A' for Active; 'I' for Inactive)
REMARK    1  A    between atoms: C_1  and  C_2
REMARK    2  A    between atoms: C_3  and  C_4
REMARK    3  A    between atoms: C_6  and  C_7
REMARK                            x       y       z     vdW  Elec       q    Type
REMARK                         _______ _______ _______ _____ _____    ______ ____
ROOT
ATOM      1  C   UNL A   1     -29.699 -11.100  29.041  0.00  0.00    -0.000 C 
ATOM      2  C   UNL A   1     -29.315 -11.051  30.452  0.00  0.00    -0.000 C 
ENDROOT
BRANCH   1   3
ATOM      3  C   UNL A   1     -29.103 -11.751  28.464  0.00  0.00    -0.000 C 
ATOM      4  C   UNL A   1     -29.151 -12.299  27.109  0.00  0.00    -0.000 C 
ENDBRANCH   1   3
BRANCH   2   5
ATOM      5  C   UNL A   1     -28.262 -11.778  30.948  0.00  0.00    -0.003 C 
ATOM      6  C   UNL A   1     -28.029 -11.723  32.298  0.00  0.00    -0.009 C 
BRANCH   6   7
ATOM      7  C   UNL A   1     -26.910 -12.471  32.887  0.00  0.00    +0.121 C 
ATOM      8 CL   UNL A   1     -27.169 -12.312  32.207  0.00  0.00    -0.108 Cl
ENDBRANCH   6   7
ENDBRANCH   2   5
TORSDOF 3
ENDMDL
ENDMDL
