REMARK  Name = outputs/IAG933/test6/raw/output_8820_IAG933_linker_design_.xyz
REMARK  11 active torsions:
REMARK  status: ('A' for Active; 'I' for Inactive)
REMARK    1  A    between atoms: C_1  and  C_2
REMARK    2  A    between atoms: C_1  and  C_8
REMARK    3  A    between atoms: C_1  and  C_29
REMARK    4  A    between atoms: C_13  and  C_34
REMARK    5  A    between atoms: C_14  and  C_15
REMARK    6  A    between atoms: C_21  and  O_22
REMARK    7  A    between atoms: O_22  and  C_23
REMARK    8  A    between atoms: C_23  and  C_24
REMARK    9  A    between atoms: C_29  and  C_32
REMARK   10  A    between atoms: C_29  and  C_35
REMARK   11  A    between atoms: C_41  and  C_42
REMARK                            x       y       z     vdW  Elec       q    Type
REMARK                         _______ _______ _______ _____ _____    ______ ____
ROOT
ATOM      1  C   UNL A   1     -25.549  -0.152  29.064  0.00  0.00    +0.016 C 
ENDROOT
BRANCH   1   4
ATOM      2  C   UNL A   1     -27.820   1.276  29.250  0.00  0.00    +0.151 C 
ATOM      3  C   UNL A   1     -28.482  -0.828  28.505  0.00  0.00    +0.008 C 
ATOM      4  C   UNL A   1     -27.221  -0.133  28.916  0.00  0.00    +0.058 C 
ATOM      5  C   UNL A   1     -29.293   0.088  27.834  0.00  0.00    +0.009 C 
ATOM      6  O   UNL A   1     -27.277   2.177  29.967  0.00  0.00    -0.296 OA
ATOM      7  C   UNL A   1     -29.169   1.380  28.459  0.00  0.00    +0.069 C 
BRANCH   7   9
ATOM      8  S   UNL A   1     -31.247   3.094  29.277  0.00  0.00    -0.082 S 
ATOM      9  C   UNL A   1     -30.702   1.923  27.959  0.00  0.00    +0.076 C 
ENDBRANCH   7   9
ENDBRANCH   1   4
BRANCH   1  10
ATOM     10  C   UNL A   1     -24.388   0.922  28.727  0.00  0.00    +0.023 C 
ATOM     11  C   UNL A   1     -21.594   1.624  27.086  0.00  0.00    +0.026 C 
ATOM     12  C   UNL A   1     -24.393   1.438  27.167  0.00  0.00    -0.024 C 
ATOM     13  C   UNL A   1     -21.567   1.024  28.503  0.00  0.00    +0.005 C 
ATOM     14  C   UNL A   1     -22.869   0.355  29.127  0.00  0.00    +0.005 C 
ATOM     15  C   UNL A   1     -23.009   1.775  26.539  0.00  0.00    -0.030 C 
BRANCH  12  16
ATOM     16  C   UNL A   1     -25.688   1.614  26.461  0.00  0.00    +0.034 C 
ATOM     17  C   UNL A   1     -26.250   2.920  26.395  0.00  0.00    +0.076 C 
ATOM     18  C   UNL A   1     -27.438   3.091  25.645  0.00  0.00    +0.107 C 
ATOM     19  N   UNL A   1     -28.075   2.089  25.003  0.00  0.00    -0.208 NA
ATOM     20  C   UNL A   1     -27.543   0.849  25.079  0.00  0.00    +0.253 C 
ATOM     21  C   UNL A   1     -26.354   0.576  25.777  0.00  0.00    +0.193 C 
ATOM     22  F   UNL A   1     -25.860  -0.681  25.795  0.00  0.00    -0.199 F 
BRANCH  17  23
ATOM     23  C   UNL A   1     -25.642   4.093  27.123  0.00  0.00    +0.266 C 
ATOM     24  N   UNL A   1     -25.614   5.252  26.449  0.00  0.00    -0.200 NA
ATOM     25  C   UNL A   1     -25.026   6.479  26.963  0.00  0.00    +0.139 C 
ATOM     26  O   UNL A   1     -25.143   3.966  28.243  0.00  0.00    -0.268 OA
ENDBRANCH  17  23
BRANCH  20  27
ATOM     27  O   UNL A   1     -28.193  -0.208  24.477  0.00  0.00    -0.456 OA
BRANCH  27  28
ATOM     28  C   UNL A   1     -29.460   0.005  23.866  0.00  0.00    +0.243 C 
BRANCH  28  29
ATOM     29  C   UNL A   1     -30.065  -1.377  23.573  0.00  0.00    +0.229 C 
ATOM     30  O   UNL A   1     -30.729  -1.878  24.721  0.00  0.00    -0.216 OA
ENDBRANCH  28  29
ENDBRANCH  27  28
ENDBRANCH  20  27
ENDBRANCH  12  16
ENDBRANCH   1  10
BRANCH   1  31
ATOM     31  C   UNL A   1     -24.855  -1.012  30.143  0.00  0.00    +0.039 C 
BRANCH  31  32
ATOM     32  C   UNL A   1     -24.973  -2.505  29.788  0.00  0.00    -0.021 C 
ATOM     33  C   UNL A   1     -23.906  -3.173  29.146  0.00  0.00    -0.004 C 
ATOM     34  C   UNL A   1     -23.989  -4.549  28.853  0.00  0.00    -0.000 C 
ATOM     35  C   UNL A   1     -25.137  -5.280  29.205  0.00  0.00    -0.000 C 
ATOM     36  C   UNL A   1     -26.232  -4.611  29.784  0.00  0.00    -0.000 C 
ATOM     37  C   UNL A   1     -26.155  -3.232  30.065  0.00  0.00    -0.004 C 
ENDBRANCH  31  32
BRANCH  31  38
ATOM     38  C   UNL A   1     -25.387  -0.679  31.571  0.00  0.00    +0.077 C 
ATOM     39  C   UNL A   1     -25.189   0.773  32.028  0.00  0.00    +0.019 C 
ATOM     40  C   UNL A   1     -25.336   0.684  33.544  0.00  0.00    +0.020 C 
ATOM     41  C   UNL A   1     -24.829  -0.715  33.905  0.00  0.00    +0.089 C 
ATOM     42  N   UNL A   1     -24.758  -1.481  32.646  0.00  0.00    -0.219 NA
ENDBRANCH  31  38
ENDBRANCH   1  31
TORSDOF 11
