REMARK  Name = outputs/IAG933/test6/raw/output_8821_IAG933_linker_design_.xyz
REMARK  14 active torsions:
REMARK  status: ('A' for Active; 'I' for Inactive)
REMARK    1  A    between atoms: C_1  and  C_2
REMARK    2  A    between atoms: C_1  and  C_8
REMARK    3  A    between atoms: C_1  and  C_37
REMARK    4  A    between atoms: C_13  and  N_42
REMARK    5  A    between atoms: C_14  and  C_15
REMARK    6  A    between atoms: C_21  and  O_22
REMARK    7  A    between atoms: O_22  and  C_23
REMARK    8  A    between atoms: C_23  and  C_24
REMARK    9  A    between atoms: C_28  and  N_38
REMARK   10  A    between atoms: O_31  and  C_33
REMARK   11  A    between atoms: O_31  and  C_37
REMARK   12  A    between atoms: C_32  and  C_36
REMARK   13  A    between atoms: C_33  and  C_35
REMARK   14  A    between atoms: C_36  and  C_37
REMARK                            x       y       z     vdW  Elec       q    Type
REMARK                         _______ _______ _______ _____ _____    ______ ____
ROOT
ATOM      1  C   UNL A   1     -23.748   0.411  28.539  0.00  0.00    +0.086 C 
ATOM      2  N   UNL A   1     -22.746  -0.057  29.313  0.00  0.00    -0.248 NA
ENDROOT
BRANCH   1   3
ATOM      3  C   UNL A   1     -23.514   1.216  27.449  0.00  0.00    +0.190 C 
ATOM      4  O   UNL A   1     -23.701   1.872  25.331  0.00  0.00    -0.133 OA
ATOM      5  O   UNL A   1     -22.471   2.222  25.693  0.00  0.00    -0.167 OA
ATOM      6  F   UNL A   1     -21.176   2.218  27.628  0.00  0.00    -0.199 F 
ATOM      7  N   UNL A   1     -24.323   1.541  26.440  0.00  0.00    -0.119 NA
ATOM      8  C   UNL A   1     -22.366   1.922  27.004  0.00  0.00    +0.334 C 
BRANCH   7   9
ATOM      9  C   UNL A   1     -25.688   1.614  26.461  0.00  0.00    +0.157 C 
ATOM     10  C   UNL A   1     -26.250   2.920  26.395  0.00  0.00    +0.072 C 
ATOM     11  C   UNL A   1     -27.438   3.091  25.645  0.00  0.00    +0.103 C 
ATOM     12  N   UNL A   1     -28.075   2.089  25.003  0.00  0.00    -0.212 NA
ATOM     13  C   UNL A   1     -27.543   0.849  25.079  0.00  0.00    +0.236 C 
ATOM     14  C   UNL A   1     -26.354   0.576  25.777  0.00  0.00    +0.257 C 
ATOM     15  F   UNL A   1     -25.860  -0.681  25.795  0.00  0.00    -0.225 F 
BRANCH  10  16
ATOM     16  C   UNL A   1     -25.642   4.093  27.123  0.00  0.00    +0.264 C 
ATOM     17  N   UNL A   1     -25.614   5.252  26.449  0.00  0.00    -0.200 NA
ATOM     18  C   UNL A   1     -25.026   6.479  26.963  0.00  0.00    +0.139 C 
ATOM     19  O   UNL A   1     -25.143   3.966  28.243  0.00  0.00    -0.269 OA
ENDBRANCH  10  16
BRANCH  13  20
ATOM     20  O   UNL A   1     -28.193  -0.208  24.477  0.00  0.00    -0.459 OA
BRANCH  20  21
ATOM     21  C   UNL A   1     -29.460   0.005  23.866  0.00  0.00    +0.242 C 
BRANCH  21  22
ATOM     22  C   UNL A   1     -30.065  -1.377  23.573  0.00  0.00    +0.229 C 
ATOM     23  O   UNL A   1     -30.729  -1.878  24.721  0.00  0.00    -0.216 OA
ENDBRANCH  21  22
ENDBRANCH  20  21
ENDBRANCH  13  20
ENDBRANCH   7   9
ENDBRANCH   1   3
BRANCH   2  24
ATOM     24  C   UNL A   1     -21.511   0.281  29.062  0.00  0.00    +0.098 C 
ATOM     25  C   UNL A   1     -20.674   0.345  28.145  0.00  0.00    +0.022 C 
ENDBRANCH   2  24
BRANCH   1  26
ATOM     26  C   UNL A   1     -25.121   0.083  29.104  0.00  0.00    +0.158 C 
BRANCH  26  27
ATOM     27  C   UNL A   1     -24.855  -1.012  30.143  0.00  0.00    +0.071 C 
BRANCH  27  28
ATOM     28  C   UNL A   1     -24.973  -2.505  29.788  0.00  0.00    -0.018 C 
ATOM     29  C   UNL A   1     -23.906  -3.173  29.146  0.00  0.00    -0.004 C 
ATOM     30  C   UNL A   1     -23.989  -4.549  28.853  0.00  0.00    -0.000 C 
ATOM     31  C   UNL A   1     -25.137  -5.280  29.205  0.00  0.00    -0.000 C 
ATOM     32  C   UNL A   1     -26.232  -4.611  29.784  0.00  0.00    -0.000 C 
ATOM     33  C   UNL A   1     -26.155  -3.232  30.065  0.00  0.00    -0.004 C 
ENDBRANCH  27  28
BRANCH  27  34
ATOM     34  C   UNL A   1     -25.387  -0.679  31.571  0.00  0.00    +0.080 C 
ATOM     35  C   UNL A   1     -25.189   0.773  32.028  0.00  0.00    +0.019 C 
ATOM     36  C   UNL A   1     -25.336   0.684  33.544  0.00  0.00    +0.020 C 
ATOM     37  C   UNL A   1     -24.829  -0.715  33.905  0.00  0.00    +0.089 C 
ATOM     38  N   UNL A   1     -24.758  -1.481  32.646  0.00  0.00    -0.219 NA
ENDBRANCH  27  34
ENDBRANCH  26  27
BRANCH  26  39
ATOM     39  O   UNL A   1     -26.405   0.295  28.411  0.00  0.00    -0.346 OA
BRANCH  39  40
ATOM     40  C   UNL A   1     -27.589  -0.557  28.772  0.00  0.00    +0.195 C 
BRANCH  40  42
ATOM     41  N   UNL A   1     -29.350   0.645  30.056  0.00  0.00    -0.094 NA
ATOM     42  C   UNL A   1     -28.780   0.372  28.770  0.00  0.00    +0.271 C 
ATOM     43  O   UNL A   1     -29.870  -0.303  27.950  0.00  0.00    -0.199 OA
ENDBRANCH  40  42
ENDBRANCH  39  40
ENDBRANCH  26  39
ENDBRANCH   1  26
TORSDOF 14
