REMARK  Name = outputs/IAG933/test6/raw/output_8826_IAG933_linker_design_.xyz
REMARK  12 active torsions:
REMARK  status: ('A' for Active; 'I' for Inactive)
REMARK    1  A    between atoms: C_1  and  C_2
REMARK    2  A    between atoms: C_1  and  C_8
REMARK    3  A    between atoms: C_1  and  C_42
REMARK    4  A    between atoms: C_13  and  C_45
REMARK    5  A    between atoms: C_14  and  C_15
REMARK    6  A    between atoms: C_21  and  O_22
REMARK    7  A    between atoms: O_22  and  C_23
REMARK    8  A    between atoms: C_23  and  C_24
REMARK    9  A    between atoms: C_29  and  S_39
REMARK   10  A    between atoms: O_33  and  C_41
REMARK   11  A    between atoms: C_35  and  C_44
REMARK   12  A    between atoms: C_36  and  O_38
REMARK                            x       y       z     vdW  Elec       q    Type
REMARK                         _______ _______ _______ _____ _____    ______ ____
ROOT
ATOM      1  C   UNL A   1     -24.976   0.638  28.334  0.00  0.00    +0.024 C 
ATOM      2  F   UNL A   1     -21.026   1.101  27.985  0.00  0.00    -0.201 F 
ATOM      3  C   UNL A   1     -23.245   1.444  27.115  0.00  0.00    +0.166 C 
ATOM      4  C   UNL A   1     -22.835   0.100  29.134  0.00  0.00    +0.029 C 
ATOM      5  C   UNL A   1     -24.247  -0.056  29.214  0.00  0.00    -0.009 C 
ATOM      6  C   UNL A   1     -22.361   0.874  28.086  0.00  0.00    +0.173 C 
ATOM      7  C   UNL A   1     -24.584   1.245  27.296  0.00  0.00    +0.044 C 
ENDROOT
BRANCH   7   8
ATOM      8  C   UNL A   1     -25.688   1.614  26.461  0.00  0.00    +0.042 C 
ATOM      9  C   UNL A   1     -26.250   2.920  26.395  0.00  0.00    +0.077 C 
ATOM     10  C   UNL A   1     -27.438   3.091  25.645  0.00  0.00    +0.107 C 
ATOM     11  N   UNL A   1     -28.075   2.089  25.003  0.00  0.00    -0.208 NA
ATOM     12  C   UNL A   1     -27.543   0.849  25.079  0.00  0.00    +0.253 C 
ATOM     13  C   UNL A   1     -26.354   0.576  25.777  0.00  0.00    +0.193 C 
ATOM     14  F   UNL A   1     -25.860  -0.681  25.795  0.00  0.00    -0.199 F 
BRANCH   9  15
ATOM     15  C   UNL A   1     -25.642   4.093  27.123  0.00  0.00    +0.266 C 
ATOM     16  N   UNL A   1     -25.614   5.252  26.449  0.00  0.00    -0.200 NA
ATOM     17  C   UNL A   1     -25.026   6.479  26.963  0.00  0.00    +0.139 C 
ATOM     18  O   UNL A   1     -25.143   3.966  28.243  0.00  0.00    -0.268 OA
ENDBRANCH   9  15
BRANCH  12  19
ATOM     19  O   UNL A   1     -28.193  -0.208  24.477  0.00  0.00    -0.456 OA
BRANCH  19  20
ATOM     20  C   UNL A   1     -29.460   0.005  23.866  0.00  0.00    +0.243 C 
BRANCH  20  21
ATOM     21  C   UNL A   1     -30.065  -1.377  23.573  0.00  0.00    +0.229 C 
ATOM     22  O   UNL A   1     -30.729  -1.878  24.721  0.00  0.00    -0.216 OA
ENDBRANCH  20  21
ENDBRANCH  19  20
ENDBRANCH  12  19
ENDBRANCH   7   8
BRANCH   1  26
ATOM     23  C   UNL A   1     -28.920   0.611  29.006  0.00  0.00    +0.012 C 
ATOM     24  C   UNL A   1     -27.011   2.102  29.980  0.00  0.00    +0.096 C 
ATOM     25  C   UNL A   1     -29.274   1.737  29.721  0.00  0.00    +0.097 C 
ATOM     26  S   UNL A   1     -27.098   0.554  28.979  0.00  0.00    -0.110 S 
ATOM     27  C   UNL A   1     -28.301   2.563  30.196  0.00  0.00    +0.130 C 
BRANCH  24  29
ATOM     28  O   UNL A   1     -26.115   3.970  31.399  0.00  0.00    -0.282 OA
ATOM     29  C   UNL A   1     -26.001   3.104  30.691  0.00  0.00    +0.243 C 
ENDBRANCH  24  29
BRANCH  27  30
ATOM     30  O   UNL A   1     -28.580   3.688  30.983  0.00  0.00    -0.475 OA
ATOM     31  C   UNL A   1     -29.890   4.275  30.932  0.00  0.00    +0.252 C 
ENDBRANCH  27  30
ENDBRANCH   1  26
BRANCH   3  33
ATOM     32  C   UNL A   1     -23.194   1.868  24.900  0.00  0.00    +0.253 C 
ATOM     33  O   UNL A   1     -22.653   2.182  26.188  0.00  0.00    -0.469 OA
ENDBRANCH   3  33
BRANCH   5  34
ATOM     34  C   UNL A   1     -24.855  -1.012  30.143  0.00  0.00    +0.061 C 
BRANCH  34  35
ATOM     35  C   UNL A   1     -24.973  -2.505  29.788  0.00  0.00    -0.017 C 
ATOM     36  C   UNL A   1     -23.906  -3.173  29.146  0.00  0.00    -0.004 C 
ATOM     37  C   UNL A   1     -23.989  -4.549  28.853  0.00  0.00    -0.000 C 
ATOM     38  C   UNL A   1     -25.137  -5.280  29.205  0.00  0.00    -0.000 C 
ATOM     39  C   UNL A   1     -26.232  -4.611  29.784  0.00  0.00    -0.000 C 
ATOM     40  C   UNL A   1     -26.155  -3.232  30.065  0.00  0.00    -0.004 C 
ENDBRANCH  34  35
BRANCH  34  41
ATOM     41  C   UNL A   1     -25.387  -0.679  31.571  0.00  0.00    +0.081 C 
ATOM     42  C   UNL A   1     -25.189   0.773  32.028  0.00  0.00    +0.019 C 
ATOM     43  C   UNL A   1     -25.336   0.684  33.544  0.00  0.00    +0.020 C 
ATOM     44  C   UNL A   1     -24.829  -0.715  33.905  0.00  0.00    +0.089 C 
ATOM     45  N   UNL A   1     -24.758  -1.481  32.646  0.00  0.00    -0.219 NA
ENDBRANCH  34  41
ENDBRANCH   5  34
TORSDOF 12
