REMARK  Name = outputs/IAG933/test6/raw/output_8829_IAG933_linker_design_.xyz
REMARK  14 active torsions:
REMARK  status: ('A' for Active; 'I' for Inactive)
REMARK    1  A    between atoms: C_1  and  C_2
REMARK    2  A    between atoms: C_1  and  C_8
REMARK    3  A    between atoms: C_1  and  N_43
REMARK    4  A    between atoms: C_13  and  C_44
REMARK    5  A    between atoms: C_14  and  C_15
REMARK    6  A    between atoms: C_21  and  O_22
REMARK    7  A    between atoms: O_22  and  C_23
REMARK    8  A    between atoms: C_23  and  C_24
REMARK    9  A    between atoms: C_29  and  O_37
REMARK   10  A    between atoms: C_33  and  C_34
REMARK   11  A    between atoms: C_33  and  C_39
REMARK   12  A    between atoms: C_36  and  C_40
REMARK   13  A    between atoms: O_37  and  C_40
REMARK   14  A    between atoms: C_41  and  O_42
REMARK                            x       y       z     vdW  Elec       q    Type
REMARK                         _______ _______ _______ _____ _____    ______ ____
ROOT
ATOM      1  C   UNL A   1     -23.640   1.290  27.493  0.00  0.00    +0.018 C 
ATOM      2  C   UNL A   1     -23.254  -0.022  28.462  0.00  0.00    +0.060 C 
ATOM      3  C   UNL A   1     -25.815   0.384  28.680  0.00  0.00    +0.088 C 
ATOM      4  N   UNL A   1     -24.533  -0.129  29.306  0.00  0.00    -0.269 NA
ATOM      5  C   UNL A   1     -25.031   1.125  27.465  0.00  0.00    +0.026 C 
ENDROOT
BRANCH   5   6
ATOM      6  C   UNL A   1     -25.688   1.614  26.461  0.00  0.00    +0.072 C 
ATOM      7  C   UNL A   1     -26.250   2.920  26.395  0.00  0.00    +0.055 C 
ATOM      8  C   UNL A   1     -27.438   3.091  25.645  0.00  0.00    +0.102 C 
ATOM      9  N   UNL A   1     -28.075   2.089  25.003  0.00  0.00    -0.212 NA
ATOM     10  C   UNL A   1     -27.543   0.849  25.079  0.00  0.00    +0.234 C 
ATOM     11  C   UNL A   1     -26.354   0.576  25.777  0.00  0.00    +0.240 C 
ATOM     12  F   UNL A   1     -25.860  -0.681  25.795  0.00  0.00    -0.227 F 
BRANCH   7  13
ATOM     13  C   UNL A   1     -25.642   4.093  27.123  0.00  0.00    +0.262 C 
ATOM     14  N   UNL A   1     -25.614   5.252  26.449  0.00  0.00    -0.200 NA
ATOM     15  C   UNL A   1     -25.026   6.479  26.963  0.00  0.00    +0.139 C 
ATOM     16  O   UNL A   1     -25.143   3.966  28.243  0.00  0.00    -0.269 OA
ENDBRANCH   7  13
BRANCH  10  17
ATOM     17  O   UNL A   1     -28.193  -0.208  24.477  0.00  0.00    -0.459 OA
BRANCH  17  18
ATOM     18  C   UNL A   1     -29.460   0.005  23.866  0.00  0.00    +0.242 C 
BRANCH  18  19
ATOM     19  C   UNL A   1     -30.065  -1.377  23.573  0.00  0.00    +0.229 C 
ATOM     20  O   UNL A   1     -30.729  -1.878  24.721  0.00  0.00    -0.216 OA
ENDBRANCH  18  19
ENDBRANCH  17  18
ENDBRANCH  10  17
ENDBRANCH   5   6
BRANCH   4  21
ATOM     21  C   UNL A   1     -24.855  -1.012  30.143  0.00  0.00    +0.096 C 
BRANCH  21  22
ATOM     22  C   UNL A   1     -24.973  -2.505  29.788  0.00  0.00    -0.006 C 
ATOM     23  C   UNL A   1     -23.906  -3.173  29.146  0.00  0.00    -0.003 C 
ATOM     24  C   UNL A   1     -23.989  -4.549  28.853  0.00  0.00    -0.000 C 
ATOM     25  C   UNL A   1     -25.137  -5.280  29.205  0.00  0.00    -0.000 C 
ATOM     26  C   UNL A   1     -26.232  -4.611  29.784  0.00  0.00    -0.000 C 
ATOM     27  C   UNL A   1     -26.155  -3.232  30.065  0.00  0.00    -0.003 C 
ENDBRANCH  21  22
BRANCH  21  28
ATOM     28  C   UNL A   1     -25.387  -0.679  31.571  0.00  0.00    +0.092 C 
ATOM     29  C   UNL A   1     -25.189   0.773  32.028  0.00  0.00    +0.021 C 
ATOM     30  C   UNL A   1     -25.336   0.684  33.544  0.00  0.00    +0.020 C 
ATOM     31  C   UNL A   1     -24.829  -0.715  33.905  0.00  0.00    +0.089 C 
ATOM     32  N   UNL A   1     -24.758  -1.481  32.646  0.00  0.00    -0.218 NA
ENDBRANCH  21  28
ENDBRANCH   4  21
BRANCH   2  33
ATOM     33  C   UNL A   1     -21.832   0.011  29.168  0.00  0.00    +0.051 C 
BRANCH  33  35
ATOM     34  O   UNL A   1     -20.868   1.596  27.262  0.00  0.00    -0.220 OA
ATOM     35  C   UNL A   1     -20.691   0.580  28.284  0.00  0.00    +0.183 C 
ENDBRANCH  33  35
ENDBRANCH   2  33
BRANCH   3  36
ATOM     36  C   UNL A   1     -26.961  -0.407  28.661  0.00  0.00    +0.161 C 
BRANCH  36  37
ATOM     37  O   UNL A   1     -28.446  -0.453  28.515  0.00  0.00    -0.329 OA
BRANCH  37  38
ATOM     38  C   UNL A   1     -28.978   0.417  29.384  0.00  0.00    +0.244 C 
ATOM     39  C   UNL A   1     -29.755  -0.739  29.333  0.00  0.00    +0.062 C 
ATOM     40  O   UNL A   1     -28.716   0.590  30.796  0.00  0.00    -0.193 OA
ATOM     41  C   UNL A   1     -30.399   1.151  27.823  0.00  0.00    +0.035 C 
ATOM     42  C   UNL A   1     -29.398   1.723  28.906  0.00  0.00    +0.169 C 
ATOM     43  C   UNL A   1     -30.975  -0.225  28.400  0.00  0.00    +0.008 C 
BRANCH  42  45
ATOM     44  C   UNL A   1     -28.133   3.191  30.409  0.00  0.00    +0.174 C 
ATOM     45  O   UNL A   1     -28.179   2.653  29.096  0.00  0.00    -0.348 OA
ENDBRANCH  42  45
ENDBRANCH  37  38
ENDBRANCH  36  37
ENDBRANCH   3  36
TORSDOF 14
