MODEL 882
MODEL 1
REMARK VINA RESULT:    -5.304      0.000      0.000
REMARK INTER + INTRA:          -5.864
REMARK INTER:                  -5.615
REMARK INTRA:                  -0.250
REMARK UNBOUND:                -0.250
REMARK  Name = No_882-gen_results/8p0m/2024-11-27-11-27-31/
REMARK  1 active torsions:
REMARK  status: ('A' for Active; 'I' for Inactive)
REMARK    1  A    between atoms: C_4  and  C_7
REMARK                            x       y       z     vdW  Elec       q    Type
REMARK                         _______ _______ _______ _____ _____    ______ ____
ROOT
ATOM      1  C   UNL A   1     -26.234  -4.567  29.686  0.00  0.00    -0.000 A 
ATOM      2  C   UNL A   1     -25.477  -5.195  29.308  0.00  0.00    -0.000 A 
ATOM      3  C   UNL A   1     -25.945  -3.125  29.706  0.00  0.00    -0.004 A 
ATOM      4  C   UNL A   1     -24.755  -2.615  29.108  0.00  0.00    -0.023 A 
ATOM      5  C   UNL A   1     -23.889  -3.551  28.600  0.00  0.00    -0.004 A 
ATOM      6  C   UNL A   1     -24.194  -4.866  28.632  0.00  0.00    -0.000 A 
ENDROOT
BRANCH   4   7
ATOM      7  C   UNL A   1     -24.366  -1.266  28.897  0.00  0.00    +0.019 C 
ATOM      8  C   UNL A   1     -22.994  -0.902  28.895  0.00  0.00    +0.004 C 
ATOM      9  C   UNL A   1     -25.015  -0.327  29.969  0.00  0.00    +0.004 C 
ATOM     10  C   UNL A   1     -25.088  -0.674  27.595  0.00  0.00    +0.004 C 
ENDBRANCH   4   7
TORSDOF 1
ENDMDL
ENDMDL
