REMARK  Name = No_883-gen_results/8p0m/2024-11-27-11-27-31/
REMARK  0 active torsions:
REMARK  status: ('A' for Active; 'I' for Inactive)
REMARK                            x       y       z     vdW  Elec       q    Type
REMARK                         _______ _______ _______ _____ _____    ______ ____
ROOT
ATOM      1  C   UNL A   1     -28.016  -0.814  28.878  0.00  0.00    +0.015 A 
ATOM      2  C   UNL A   1     -27.064  -0.119  28.608  0.00  0.00    +0.040 A 
ATOM      3  C   UNL A   1     -25.792  -0.430  29.076  0.00  0.00    +0.003 A 
ATOM      4  C   UNL A   1     -24.546   0.349  28.823  0.00  0.00    +0.004 A 
ATOM      5  C   UNL A   1     -24.659   1.420  27.888  0.00  0.00    +0.045 A 
ATOM      6  C   UNL A   1     -23.540   2.179  27.550  0.00  0.00    +0.147 A 
ATOM      7  C   UNL A   1     -22.293   1.743  28.047  0.00  0.00    +0.037 A 
ATOM      8  C   UNL A   1     -22.171   0.708  28.928  0.00  0.00    +0.003 A 
ATOM      9  C   UNL A   1     -23.334  -0.062  29.308  0.00  0.00    +0.000 A 
ATOM     10  C   UNL A   1     -27.947  -1.882  29.871  0.00  0.00    +0.058 A 
ATOM     11  C   UNL A   1     -26.716  -2.329  30.306  0.00  0.00    +0.011 A 
ATOM     12  C   UNL A   1     -25.592  -1.564  29.967  0.00  0.00    +0.001 A 
ATOM     13 CL   UNL A   1     -29.318  -2.800  30.293  0.00  0.00    -0.082 Cl
ATOM     14  O   UNL A   1     -23.639   3.174  26.698  0.00  0.00    -0.442 OA
ATOM     15  C   UNL A   1     -24.969   3.152  26.064  0.00  0.00    +0.222 C 
ATOM     16  C   UNL A   1     -25.799   1.746  27.257  0.00  0.00    +0.079 C 
ATOM     17  C   UNL A   1     -25.920   2.761  26.357  0.00  0.00    -0.058 C 
ATOM     18  C   UNL A   1     -27.058   1.016  27.677  0.00  0.00    +0.203 C 
ATOM     19  O   UNL A   1     -28.187   1.302  27.152  0.00  0.00    -0.286 OA
ENDROOT
TORSDOF 0
