REMARK  Name = outputs/IAG933/test6/raw/output_8831_IAG933_linker_design_.xyz
REMARK  15 active torsions:
REMARK  status: ('A' for Active; 'I' for Inactive)
REMARK    1  A    between atoms: C_1  and  C_2
REMARK    2  A    between atoms: C_1  and  C_8
REMARK    3  A    between atoms: C_1  and  N_44
REMARK    4  A    between atoms: C_14  and  C_15
REMARK    5  A    between atoms: C_15  and  O_18
REMARK    6  A    between atoms: O_18  and  C_43
REMARK    7  A    between atoms: C_21  and  O_22
REMARK    8  A    between atoms: O_22  and  C_23
REMARK    9  A    between atoms: C_23  and  C_24
REMARK   10  A    between atoms: C_29  and  C_36
REMARK   11  A    between atoms: N_33  and  C_40
REMARK   12  A    between atoms: N_33  and  C_43
REMARK   13  A    between atoms: C_34  and  C_46
REMARK   14  A    between atoms: C_35  and  C_43
REMARK   15  A    between atoms: C_35  and  C_45
REMARK                            x       y       z     vdW  Elec       q    Type
REMARK                         _______ _______ _______ _____ _____    ______ ____
ROOT
ATOM      1  C   UNL A   1     -25.338   3.307  29.350  0.00  0.00    +0.248 C 
ENDROOT
BRANCH   1   2
ATOM      2  O   UNL A   1     -25.143   3.966  28.243  0.00  0.00    -0.446 OA
BRANCH   2   3
ATOM      3  C   UNL A   1     -25.642   4.093  27.123  0.00  0.00    +0.223 C 
ATOM      4  N   UNL A   1     -25.614   5.252  26.449  0.00  0.00    -0.236 NA
ATOM      5  C   UNL A   1     -25.026   6.479  26.963  0.00  0.00    +0.155 C 
BRANCH   3   7
ATOM      6  C   UNL A   1     -25.688   1.614  26.461  0.00  0.00    +0.041 C 
ATOM      7  C   UNL A   1     -26.250   2.920  26.395  0.00  0.00    +0.074 C 
ATOM      8  C   UNL A   1     -27.438   3.091  25.645  0.00  0.00    +0.107 C 
ATOM      9  N   UNL A   1     -28.075   2.089  25.003  0.00  0.00    -0.208 NA
ATOM     10  C   UNL A   1     -27.543   0.849  25.079  0.00  0.00    +0.253 C 
ATOM     11  C   UNL A   1     -26.354   0.576  25.777  0.00  0.00    +0.193 C 
ATOM     12  F   UNL A   1     -25.860  -0.681  25.795  0.00  0.00    -0.199 F 
BRANCH  10  13
ATOM     13  O   UNL A   1     -28.193  -0.208  24.477  0.00  0.00    -0.456 OA
BRANCH  13  14
ATOM     14  C   UNL A   1     -29.460   0.005  23.866  0.00  0.00    +0.243 C 
BRANCH  14  15
ATOM     15  C   UNL A   1     -30.065  -1.377  23.573  0.00  0.00    +0.229 C 
ATOM     16  O   UNL A   1     -30.729  -1.878  24.721  0.00  0.00    -0.216 OA
ENDBRANCH  14  15
ENDBRANCH  13  14
ENDBRANCH  10  13
ENDBRANCH   3   7
ENDBRANCH   2   3
ENDBRANCH   1   2
BRANCH   1  17
ATOM     17  N   UNL A   1     -24.742   2.151  29.410  0.00  0.00    -0.164 NA
BRANCH  17  21
ATOM     18  C   UNL A   1     -22.172   0.810  28.738  0.00  0.00    +0.129 C 
ATOM     19  N   UNL A   1     -22.831  -0.344  28.770  0.00  0.00    -0.144 NA
ATOM     20  C   UNL A   1     -22.652   1.625  29.708  0.00  0.00    +0.057 C 
ATOM     21  C   UNL A   1     -23.910   1.268  29.637  0.00  0.00    +0.152 C 
ATOM     22  N   UNL A   1     -23.981  -0.080  29.532  0.00  0.00    -0.185 NA
BRANCH  18  23
ATOM     23  C   UNL A   1     -21.101   1.296  27.743  0.00  0.00    +0.212 C 
ATOM     24  F   UNL A   1     -19.887   1.498  28.293  0.00  0.00    -0.233 F 
ENDBRANCH  18  23
BRANCH  22  25
ATOM     25  C   UNL A   1     -24.855  -1.012  30.143  0.00  0.00    +0.114 C 
BRANCH  25  26
ATOM     26  C   UNL A   1     -24.973  -2.505  29.788  0.00  0.00    -0.005 C 
ATOM     27  C   UNL A   1     -23.906  -3.173  29.146  0.00  0.00    -0.003 C 
ATOM     28  C   UNL A   1     -23.989  -4.549  28.853  0.00  0.00    -0.000 C 
ATOM     29  C   UNL A   1     -25.137  -5.280  29.205  0.00  0.00    -0.000 C 
ATOM     30  C   UNL A   1     -26.232  -4.611  29.784  0.00  0.00    -0.000 C 
ATOM     31  C   UNL A   1     -26.155  -3.232  30.065  0.00  0.00    -0.003 C 
ENDBRANCH  25  26
BRANCH  25  32
ATOM     32  C   UNL A   1     -25.387  -0.679  31.571  0.00  0.00    +0.093 C 
ATOM     33  C   UNL A   1     -25.189   0.773  32.028  0.00  0.00    +0.021 C 
ATOM     34  C   UNL A   1     -25.336   0.684  33.544  0.00  0.00    +0.020 C 
ATOM     35  C   UNL A   1     -24.829  -0.715  33.905  0.00  0.00    +0.089 C 
ATOM     36  N   UNL A   1     -24.758  -1.481  32.646  0.00  0.00    -0.218 NA
ENDBRANCH  25  32
ENDBRANCH  22  25
ENDBRANCH  17  21
ENDBRANCH   1  17
BRANCH   1  37
ATOM     37  C   UNL A   1     -26.251   3.895  30.268  0.00  0.00    +0.089 C 
BRANCH  37  42
ATOM     38  C   UNL A   1     -28.989   5.505  28.402  0.00  0.00    -0.000 C 
ATOM     39  C   UNL A   1     -27.987   4.616  28.793  0.00  0.00    -0.004 C 
ATOM     40  C   UNL A   1     -27.371   6.108  30.659  0.00  0.00    -0.001 C 
ATOM     41  C   UNL A   1     -29.311   6.560  29.259  0.00  0.00    +0.003 C 
ATOM     42  C   UNL A   1     -27.192   4.892  29.938  0.00  0.00    -0.017 C 
ATOM     43  C   UNL A   1     -28.431   6.948  30.277  0.00  0.00    +0.034 C 
BRANCH  43  46
ATOM     44  O   UNL A   1     -29.867   8.671  30.975  0.00  0.00    -0.291 OA
ATOM     45  C   UNL A   1     -27.684   9.246  31.146  0.00  0.00    +0.077 C 
ATOM     46  C   UNL A   1     -28.697   8.335  30.851  0.00  0.00    +0.173 C 
ENDBRANCH  43  46
ENDBRANCH  37  42
ENDBRANCH   1  37
TORSDOF 15
