REMARK  Name = outputs/IAG933/test6/raw/output_8838_IAG933_linker_design_.xyz
REMARK  14 active torsions:
REMARK  status: ('A' for Active; 'I' for Inactive)
REMARK    1  A    between atoms: C_1  and  C_2
REMARK    2  A    between atoms: C_1  and  C_8
REMARK    3  A    between atoms: C_1  and  N_33
REMARK    4  A    between atoms: C_13  and  O_37
REMARK    5  A    between atoms: C_14  and  C_15
REMARK    6  A    between atoms: C_21  and  O_22
REMARK    7  A    between atoms: O_22  and  C_23
REMARK    8  A    between atoms: C_23  and  C_24
REMARK    9  A    between atoms: C_28  and  N_33
REMARK   10  A    between atoms: N_33  and  C_38
REMARK   11  A    between atoms: C_34  and  C_35
REMARK   12  A    between atoms: C_34  and  C_38
REMARK   13  A    between atoms: C_34  and  C_40
REMARK   14  A    between atoms: O_37  and  C_39
REMARK                            x       y       z     vdW  Elec       q    Type
REMARK                         _______ _______ _______ _____ _____    ______ ____
ROOT
ATOM      1  C   UNL A   1     -23.750   0.484  28.499  0.00  0.00    +0.120 C 
ATOM      2  C   UNL A   1     -21.532   1.951  27.158  0.00  0.00    +0.235 C 
ATOM      3  C   UNL A   1     -21.342   1.168  28.276  0.00  0.00    +0.022 C 
ATOM      4  C   UNL A   1     -22.392   0.393  28.890  0.00  0.00    +0.020 C 
ATOM      5  C   UNL A   1     -23.790   1.209  27.331  0.00  0.00    +0.306 C 
ATOM      6  O   UNL A   1     -22.885   2.026  26.710  0.00  0.00    -0.442 OA
ENDROOT
BRANCH   1   7
ATOM      7  N   UNL A   1     -24.929   0.005  29.162  0.00  0.00    -0.299 N 
BRANCH   7   8
ATOM      8  C   UNL A   1     -24.855  -1.012  30.143  0.00  0.00    +0.112 C 
BRANCH   8   9
ATOM      9  C   UNL A   1     -24.973  -2.505  29.788  0.00  0.00    -0.003 C 
ATOM     10  C   UNL A   1     -23.906  -3.173  29.146  0.00  0.00    -0.003 C 
ATOM     11  C   UNL A   1     -23.989  -4.549  28.853  0.00  0.00    -0.000 C 
ATOM     12  C   UNL A   1     -25.137  -5.280  29.205  0.00  0.00    -0.000 C 
ATOM     13  C   UNL A   1     -26.232  -4.611  29.784  0.00  0.00    -0.000 C 
ATOM     14  C   UNL A   1     -26.155  -3.232  30.065  0.00  0.00    -0.003 C 
ENDBRANCH   8   9
BRANCH   8  15
ATOM     15  C   UNL A   1     -25.387  -0.679  31.571  0.00  0.00    +0.095 C 
ATOM     16  C   UNL A   1     -25.189   0.773  32.028  0.00  0.00    +0.021 C 
ATOM     17  C   UNL A   1     -25.336   0.684  33.544  0.00  0.00    +0.020 C 
ATOM     18  C   UNL A   1     -24.829  -0.715  33.905  0.00  0.00    +0.089 C 
ATOM     19  N   UNL A   1     -24.758  -1.481  32.646  0.00  0.00    -0.217 NA
ENDBRANCH   8  15
ENDBRANCH   7   8
BRANCH   7  20
ATOM     20  C   UNL A   1     -26.389   0.243  28.611  0.00  0.00    +0.097 C 
BRANCH  20  21
ATOM     21  C   UNL A   1     -27.456   1.140  29.448  0.00  0.00    +0.086 C 
BRANCH  21  23
ATOM     22  O   UNL A   1     -28.881   3.062  30.407  0.00  0.00    -0.220 OA
ATOM     23  C   UNL A   1     -27.568   2.641  30.058  0.00  0.00    +0.186 C 
ENDBRANCH  21  23
BRANCH  21  25
ATOM     24  O   UNL A   1     -29.337  -0.330  28.995  0.00  0.00    -0.220 OA
ATOM     25  C   UNL A   1     -28.644   0.285  30.102  0.00  0.00    +0.186 C 
ENDBRANCH  21  25
ENDBRANCH  20  21
ENDBRANCH   7  20
ENDBRANCH   1   7
BRANCH   5  26
ATOM     26  O   UNL A   1     -24.615   1.155  26.625  0.00  0.00    -0.443 OA
BRANCH  26  27
ATOM     27  C   UNL A   1     -25.688   1.614  26.461  0.00  0.00    +0.239 C 
ATOM     28  C   UNL A   1     -26.250   2.920  26.395  0.00  0.00    +0.095 C 
ATOM     29  C   UNL A   1     -27.438   3.091  25.645  0.00  0.00    +0.106 C 
ATOM     30  N   UNL A   1     -28.075   2.089  25.003  0.00  0.00    -0.212 NA
ATOM     31  C   UNL A   1     -27.543   0.849  25.079  0.00  0.00    +0.238 C 
ATOM     32  C   UNL A   1     -26.354   0.576  25.777  0.00  0.00    +0.280 C 
ATOM     33  F   UNL A   1     -25.860  -0.681  25.795  0.00  0.00    -0.223 F 
BRANCH  28  34
ATOM     34  C   UNL A   1     -25.642   4.093  27.123  0.00  0.00    +0.266 C 
ATOM     35  N   UNL A   1     -25.614   5.252  26.449  0.00  0.00    -0.200 NA
ATOM     36  C   UNL A   1     -25.026   6.479  26.963  0.00  0.00    +0.139 C 
ATOM     37  O   UNL A   1     -25.143   3.966  28.243  0.00  0.00    -0.269 OA
ENDBRANCH  28  34
BRANCH  31  38
ATOM     38  O   UNL A   1     -28.193  -0.208  24.477  0.00  0.00    -0.458 OA
BRANCH  38  39
ATOM     39  C   UNL A   1     -29.460   0.005  23.866  0.00  0.00    +0.242 C 
BRANCH  39  40
ATOM     40  C   UNL A   1     -30.065  -1.377  23.573  0.00  0.00    +0.229 C 
ATOM     41  O   UNL A   1     -30.729  -1.878  24.721  0.00  0.00    -0.216 OA
ENDBRANCH  39  40
ENDBRANCH  38  39
ENDBRANCH  31  38
ENDBRANCH  26  27
ENDBRANCH   5  26
TORSDOF 14
