REMARK  Name = outputs/IAG933/test6/raw/output_8841_IAG933_linker_design_.xyz
REMARK  10 active torsions:
REMARK  status: ('A' for Active; 'I' for Inactive)
REMARK    1  A    between atoms: C_1  and  C_2
REMARK    2  A    between atoms: C_1  and  C_8
REMARK    3  A    between atoms: C_1  and  C_36
REMARK    4  A    between atoms: C_13  and  C_39
REMARK    5  A    between atoms: C_14  and  C_15
REMARK    6  A    between atoms: C_21  and  O_22
REMARK    7  A    between atoms: O_22  and  C_23
REMARK    8  A    between atoms: C_23  and  C_24
REMARK    9  A    between atoms: N_38  and  C_41
REMARK   10  A    between atoms: C_41  and  C_42
REMARK                            x       y       z     vdW  Elec       q    Type
REMARK                         _______ _______ _______ _____ _____    ______ ____
ROOT
ATOM      1  C   UNL A   1     -23.020   0.140  28.916  0.00  0.00    +0.034 C 
ATOM      2  C   UNL A   1     -21.157   0.765  27.907  0.00  0.00    +0.223 C 
ATOM      3  C   UNL A   1     -22.520   0.908  27.849  0.00  0.00    +0.060 C 
ATOM      4  N   UNL A   1     -20.771  -0.149  28.872  0.00  0.00    -0.216 NA
ATOM      5 CL   UNL A   1     -22.799   2.539  25.583  0.00  0.00    -0.081 Cl
ATOM      6  C   UNL A   1     -24.424   0.007  29.199  0.00  0.00    +0.035 C 
ATOM      7  F   UNL A   1     -20.396   1.524  27.191  0.00  0.00    -0.183 F 
ATOM      8  N   UNL A   1     -25.156   0.904  28.497  0.00  0.00    -0.289 N 
ATOM      9  C   UNL A   1     -24.675   1.414  27.373  0.00  0.00    +0.065 C 
ATOM     10  C   UNL A   1     -21.941  -0.435  29.586  0.00  0.00    +0.102 C 
ATOM     11  C   UNL A   1     -23.345   1.668  26.912  0.00  0.00    +0.075 C 
ENDROOT
BRANCH   9  12
ATOM     12  C   UNL A   1     -25.688   1.614  26.461  0.00  0.00    +0.052 C 
ATOM     13  C   UNL A   1     -26.250   2.920  26.395  0.00  0.00    +0.078 C 
ATOM     14  C   UNL A   1     -27.438   3.091  25.645  0.00  0.00    +0.107 C 
ATOM     15  N   UNL A   1     -28.075   2.089  25.003  0.00  0.00    -0.208 NA
ATOM     16  C   UNL A   1     -27.543   0.849  25.079  0.00  0.00    +0.253 C 
ATOM     17  C   UNL A   1     -26.354   0.576  25.777  0.00  0.00    +0.194 C 
ATOM     18  F   UNL A   1     -25.860  -0.681  25.795  0.00  0.00    -0.199 F 
BRANCH  13  19
ATOM     19  C   UNL A   1     -25.642   4.093  27.123  0.00  0.00    +0.267 C 
ATOM     20  N   UNL A   1     -25.614   5.252  26.449  0.00  0.00    -0.200 NA
ATOM     21  C   UNL A   1     -25.026   6.479  26.963  0.00  0.00    +0.139 C 
ATOM     22  O   UNL A   1     -25.143   3.966  28.243  0.00  0.00    -0.268 OA
ENDBRANCH  13  19
BRANCH  16  23
ATOM     23  O   UNL A   1     -28.193  -0.208  24.477  0.00  0.00    -0.456 OA
BRANCH  23  24
ATOM     24  C   UNL A   1     -29.460   0.005  23.866  0.00  0.00    +0.243 C 
BRANCH  24  25
ATOM     25  C   UNL A   1     -30.065  -1.377  23.573  0.00  0.00    +0.229 C 
ATOM     26  O   UNL A   1     -30.729  -1.878  24.721  0.00  0.00    -0.216 OA
ENDBRANCH  24  25
ENDBRANCH  23  24
ENDBRANCH  16  23
ENDBRANCH   9  12
BRANCH   6  27
ATOM     27  C   UNL A   1     -24.855  -1.012  30.143  0.00  0.00    +0.074 C 
BRANCH  27  28
ATOM     28  C   UNL A   1     -24.973  -2.505  29.788  0.00  0.00    -0.016 C 
ATOM     29  C   UNL A   1     -23.906  -3.173  29.146  0.00  0.00    -0.004 C 
ATOM     30  C   UNL A   1     -23.989  -4.549  28.853  0.00  0.00    -0.000 C 
ATOM     31  C   UNL A   1     -25.137  -5.280  29.205  0.00  0.00    -0.000 C 
ATOM     32  C   UNL A   1     -26.232  -4.611  29.784  0.00  0.00    -0.000 C 
ATOM     33  C   UNL A   1     -26.155  -3.232  30.065  0.00  0.00    -0.004 C 
ENDBRANCH  27  28
BRANCH  27  34
ATOM     34  C   UNL A   1     -25.387  -0.679  31.571  0.00  0.00    +0.082 C 
ATOM     35  C   UNL A   1     -25.189   0.773  32.028  0.00  0.00    +0.020 C 
ATOM     36  C   UNL A   1     -25.336   0.684  33.544  0.00  0.00    +0.020 C 
ATOM     37  C   UNL A   1     -24.829  -0.715  33.905  0.00  0.00    +0.089 C 
ATOM     38  N   UNL A   1     -24.758  -1.481  32.646  0.00  0.00    -0.219 NA
ENDBRANCH  27  34
ENDBRANCH   6  27
BRANCH   8  39
ATOM     39  C   UNL A   1     -26.381   1.367  28.976  0.00  0.00    +0.095 C 
BRANCH  39  44
ATOM     40  C   UNL A   1     -29.704  -1.197  29.216  0.00  0.00    +0.000 C 
ATOM     41  C   UNL A   1     -28.217  -0.943  29.178  0.00  0.00    +0.002 C 
ATOM     42  C   UNL A   1     -29.632   0.854  27.823  0.00  0.00    +0.000 C 
ATOM     43  C   UNL A   1     -30.562  -0.162  28.489  0.00  0.00    +0.000 C 
ATOM     44  C   UNL A   1     -27.717   0.493  29.451  0.00  0.00    +0.020 C 
ATOM     45  C   UNL A   1     -28.894   1.409  29.000  0.00  0.00    +0.002 C 
ENDBRANCH  39  44
ENDBRANCH   8  39
TORSDOF 10
