REMARK  Name = outputs/IAG933/test6/raw/output_8846_IAG933_linker_design_.xyz
REMARK  8 active torsions:
REMARK  status: ('A' for Active; 'I' for Inactive)
REMARK    1  A    between atoms: C_1  and  C_2
REMARK    2  A    between atoms: C_1  and  C_8
REMARK    3  A    between atoms: C_1  and  C_30
REMARK    4  A    between atoms: C_13  and  N_32
REMARK    5  A    between atoms: C_14  and  C_15
REMARK    6  A    between atoms: C_21  and  O_22
REMARK    7  A    between atoms: O_22  and  C_23
REMARK    8  A    between atoms: C_23  and  C_24
REMARK                            x       y       z     vdW  Elec       q    Type
REMARK                         _______ _______ _______ _____ _____    ______ ____
ROOT
ATOM      1  C   UNL A   1     -21.492  -0.731  28.866  0.00  0.00    +0.036 C 
ATOM      2  C   UNL A   1     -22.763   0.080  29.107  0.00  0.00    +0.143 C 
ATOM      3  C   UNL A   1     -24.238  -0.034  29.294  0.00  0.00    +0.086 C 
ATOM      4  C   UNL A   1     -23.331   1.516  27.038  0.00  0.00    +0.161 C 
ATOM      5  N   UNL A   1     -24.663   1.331  27.292  0.00  0.00    -0.269 N 
ATOM      6  C   UNL A   1     -21.124   1.443  27.742  0.00  0.00    +0.166 C 
ATOM      7  C   UNL A   1     -25.005   0.977  28.620  0.00  0.00    +0.232 C 
ATOM      8  C   UNL A   1     -20.363   0.227  28.443  0.00  0.00    +0.038 C 
ATOM      9  C   UNL A   1     -22.559   1.467  28.401  0.00  0.00    +0.097 C 
ATOM     10  O   UNL A   1     -25.140   2.048  29.532  0.00  0.00    -0.201 OA
ATOM     11  F   UNL A   1     -22.436   0.292  30.460  0.00  0.00    -0.240 F 
ATOM     12  F   UNL A   1     -20.709   2.361  27.079  0.00  0.00    -0.237 F 
ATOM     13 CL   UNL A   1     -22.934   2.380  25.570  0.00  0.00    -0.093 Cl
ENDROOT
BRANCH   5  14
ATOM     14  C   UNL A   1     -25.688   1.614  26.461  0.00  0.00    +0.089 C 
ATOM     15  C   UNL A   1     -26.250   2.920  26.395  0.00  0.00    +0.090 C 
ATOM     16  C   UNL A   1     -27.438   3.091  25.645  0.00  0.00    +0.108 C 
ATOM     17  N   UNL A   1     -28.075   2.089  25.003  0.00  0.00    -0.208 NA
ATOM     18  C   UNL A   1     -27.543   0.849  25.079  0.00  0.00    +0.255 C 
ATOM     19  C   UNL A   1     -26.354   0.576  25.777  0.00  0.00    +0.206 C 
ATOM     20  F   UNL A   1     -25.860  -0.681  25.795  0.00  0.00    -0.198 F 
BRANCH  15  21
ATOM     21  C   UNL A   1     -25.642   4.093  27.123  0.00  0.00    +0.268 C 
ATOM     22  N   UNL A   1     -25.614   5.252  26.449  0.00  0.00    -0.200 NA
ATOM     23  C   UNL A   1     -25.026   6.479  26.963  0.00  0.00    +0.139 C 
ATOM     24  O   UNL A   1     -25.143   3.966  28.243  0.00  0.00    -0.268 OA
ENDBRANCH  15  21
BRANCH  18  25
ATOM     25  O   UNL A   1     -28.193  -0.208  24.477  0.00  0.00    -0.456 OA
BRANCH  25  26
ATOM     26  C   UNL A   1     -29.460   0.005  23.866  0.00  0.00    +0.243 C 
BRANCH  26  27
ATOM     27  C   UNL A   1     -30.065  -1.377  23.573  0.00  0.00    +0.229 C 
ATOM     28  O   UNL A   1     -30.729  -1.878  24.721  0.00  0.00    -0.216 OA
ENDBRANCH  26  27
ENDBRANCH  25  26
ENDBRANCH  18  25
ENDBRANCH   5  14
BRANCH   3  29
ATOM     29  C   UNL A   1     -24.855  -1.012  30.143  0.00  0.00    +0.045 C 
BRANCH  29  30
ATOM     30  C   UNL A   1     -24.973  -2.505  29.788  0.00  0.00    -0.021 C 
ATOM     31  C   UNL A   1     -23.906  -3.173  29.146  0.00  0.00    -0.004 C 
ATOM     32  C   UNL A   1     -23.989  -4.549  28.853  0.00  0.00    -0.000 C 
ATOM     33  C   UNL A   1     -25.137  -5.280  29.205  0.00  0.00    -0.000 C 
ATOM     34  C   UNL A   1     -26.232  -4.611  29.784  0.00  0.00    -0.000 C 
ATOM     35  C   UNL A   1     -26.155  -3.232  30.065  0.00  0.00    -0.004 C 
ENDBRANCH  29  30
BRANCH  29  36
ATOM     36  C   UNL A   1     -25.387  -0.679  31.571  0.00  0.00    +0.077 C 
ATOM     37  C   UNL A   1     -25.189   0.773  32.028  0.00  0.00    +0.019 C 
ATOM     38  C   UNL A   1     -25.336   0.684  33.544  0.00  0.00    +0.020 C 
ATOM     39  C   UNL A   1     -24.829  -0.715  33.905  0.00  0.00    +0.089 C 
ATOM     40  N   UNL A   1     -24.758  -1.481  32.646  0.00  0.00    -0.219 NA
ENDBRANCH  29  36
ENDBRANCH   3  29
TORSDOF 8
