REMARK  Name = outputs/IAG933/test6/raw/output_8847_IAG933_linker_design_.xyz
REMARK  16 active torsions:
REMARK  status: ('A' for Active; 'I' for Inactive)
REMARK    1  A    between atoms: C_1  and  C_2
REMARK    2  A    between atoms: C_1  and  C_8
REMARK    3  A    between atoms: C_1  and  C_44
REMARK    4  A    between atoms: C_13  and  C_39
REMARK    5  A    between atoms: C_14  and  C_15
REMARK    6  A    between atoms: C_21  and  O_22
REMARK    7  A    between atoms: O_22  and  C_23
REMARK    8  A    between atoms: C_23  and  C_24
REMARK    9  A    between atoms: N_28  and  C_38
REMARK   10  A    between atoms: N_28  and  C_44
REMARK   11  A    between atoms: C_31  and  C_41
REMARK   12  A    between atoms: C_31  and  C_44
REMARK   13  A    between atoms: C_33  and  C_40
REMARK   14  A    between atoms: C_33  and  C_41
REMARK   15  A    between atoms: C_36  and  C_39
REMARK   16  A    between atoms: C_38  and  C_39
REMARK                            x       y       z     vdW  Elec       q    Type
REMARK                         _______ _______ _______ _____ _____    ______ ____
ROOT
ATOM      1  C   UNL A   1     -25.691  -0.393  29.112  0.00  0.00    +0.081 C 
ENDROOT
BRANCH   1   2
ATOM      2  C   UNL A   1     -24.855  -1.012  30.143  0.00  0.00    +0.054 C 
BRANCH   2   3
ATOM      3  C   UNL A   1     -24.973  -2.505  29.788  0.00  0.00    -0.020 C 
ATOM      4  C   UNL A   1     -23.906  -3.173  29.146  0.00  0.00    -0.004 C 
ATOM      5  C   UNL A   1     -23.989  -4.549  28.853  0.00  0.00    -0.000 C 
ATOM      6  C   UNL A   1     -25.137  -5.280  29.205  0.00  0.00    -0.000 C 
ATOM      7  C   UNL A   1     -26.232  -4.611  29.784  0.00  0.00    -0.000 C 
ATOM      8  C   UNL A   1     -26.155  -3.232  30.065  0.00  0.00    -0.004 C 
ENDBRANCH   2   3
BRANCH   2   9
ATOM      9  C   UNL A   1     -25.387  -0.679  31.571  0.00  0.00    +0.078 C 
ATOM     10  C   UNL A   1     -25.189   0.773  32.028  0.00  0.00    +0.019 C 
ATOM     11  C   UNL A   1     -25.336   0.684  33.544  0.00  0.00    +0.020 C 
ATOM     12  C   UNL A   1     -24.829  -0.715  33.905  0.00  0.00    +0.089 C 
ATOM     13  N   UNL A   1     -24.758  -1.481  32.646  0.00  0.00    -0.219 NA
ENDBRANCH   2   9
ENDBRANCH   1   2
BRANCH   1  14
ATOM     14  C   UNL A   1     -27.064  -0.794  28.827  0.00  0.00    +0.053 C 
BRANCH  14  16
ATOM     15  O   UNL A   1     -27.794   1.202  29.705  0.00  0.00    -0.220 OA
ATOM     16  C   UNL A   1     -28.275  -0.109  29.312  0.00  0.00    +0.186 C 
BRANCH  16  18
ATOM     17  O   UNL A   1     -29.163   0.120  27.103  0.00  0.00    -0.218 OA
ATOM     18  C   UNL A   1     -29.436  -0.386  28.420  0.00  0.00    +0.213 C 
BRANCH  18  23
ATOM     19  O   UNL A   1     -31.329  -2.713  28.693  0.00  0.00    -0.272 OA
ATOM     20  C   UNL A   1     -31.623  -1.515  28.414  0.00  0.00    +0.256 C 
ATOM     21  N   UNL A   1     -31.279   0.653  28.180  0.00  0.00    -0.243 NA
ATOM     22  N   UNL A   1     -32.452  -0.941  27.530  0.00  0.00    -0.238 N 
ATOM     23  C   UNL A   1     -30.688  -0.293  28.928  0.00  0.00    +0.213 C 
ATOM     24  C   UNL A   1     -33.803  -1.474  27.281  0.00  0.00    +0.122 C 
ATOM     25  C   UNL A   1     -32.257   0.390  27.289  0.00  0.00    +0.166 C 
ENDBRANCH  18  23
ENDBRANCH  16  18
ENDBRANCH  14  16
ENDBRANCH   1  14
BRANCH   1  26
ATOM     26  N   UNL A   1     -25.388   0.953  28.848  0.00  0.00    -0.219 NA
BRANCH  26  27
ATOM     27  C   UNL A   1     -24.026   0.828  27.995  0.00  0.00    +0.090 C 
BRANCH  27  28
ATOM     28  C   UNL A   1     -24.231   1.459  26.866  0.00  0.00    +0.041 C 
BRANCH  28  29
ATOM     29  C   UNL A   1     -25.688   1.614  26.461  0.00  0.00    +0.073 C 
ATOM     30  C   UNL A   1     -26.250   2.920  26.395  0.00  0.00    +0.055 C 
ATOM     31  C   UNL A   1     -27.438   3.091  25.645  0.00  0.00    +0.102 C 
ATOM     32  N   UNL A   1     -28.075   2.089  25.003  0.00  0.00    -0.212 NA
ATOM     33  C   UNL A   1     -27.543   0.849  25.079  0.00  0.00    +0.234 C 
ATOM     34  C   UNL A   1     -26.354   0.576  25.777  0.00  0.00    +0.240 C 
ATOM     35  F   UNL A   1     -25.860  -0.681  25.795  0.00  0.00    -0.227 F 
BRANCH  30  36
ATOM     36  C   UNL A   1     -25.642   4.093  27.123  0.00  0.00    +0.262 C 
ATOM     37  N   UNL A   1     -25.614   5.252  26.449  0.00  0.00    -0.200 NA
ATOM     38  C   UNL A   1     -25.026   6.479  26.963  0.00  0.00    +0.139 C 
ATOM     39  O   UNL A   1     -25.143   3.966  28.243  0.00  0.00    -0.269 OA
ENDBRANCH  30  36
BRANCH  33  40
ATOM     40  O   UNL A   1     -28.193  -0.208  24.477  0.00  0.00    -0.459 OA
BRANCH  40  41
ATOM     41  C   UNL A   1     -29.460   0.005  23.866  0.00  0.00    +0.242 C 
BRANCH  41  42
ATOM     42  C   UNL A   1     -30.065  -1.377  23.573  0.00  0.00    +0.229 C 
ATOM     43  O   UNL A   1     -30.729  -1.878  24.721  0.00  0.00    -0.216 OA
ENDBRANCH  41  42
ENDBRANCH  40  41
ENDBRANCH  33  40
ENDBRANCH  28  29
BRANCH  28  44
ATOM     44  C   UNL A   1     -23.143   2.167  26.169  0.00  0.00    +0.097 C 
ATOM     45 CL   UNL A   1     -21.797   2.183  27.213  0.00  0.00    -0.114 Cl
ENDBRANCH  28  44
ENDBRANCH  27  28
ENDBRANCH  26  27
ENDBRANCH   1  26
TORSDOF 16
