REMARK  Name = outputs/IAG933/test6/raw/output_8858_IAG933_linker_design_.xyz
REMARK  12 active torsions:
REMARK  status: ('A' for Active; 'I' for Inactive)
REMARK    1  A    between atoms: C_1  and  C_2
REMARK    2  A    between atoms: C_1  and  C_8
REMARK    3  A    between atoms: C_1  and  C_40
REMARK    4  A    between atoms: C_21  and  O_22
REMARK    5  A    between atoms: O_22  and  C_23
REMARK    6  A    between atoms: C_23  and  C_24
REMARK    7  A    between atoms: CA_28  and  N_35
REMARK    8  A    between atoms: CA_28  and  C_38
REMARK    9  A    between atoms: CA_28  and  C_45
REMARK   10  A    between atoms: C_29  and  C_42
REMARK   11  A    between atoms: C_31  and  N_35
REMARK   12  A    between atoms: C_33  and  C_44
REMARK                            x       y       z     vdW  Elec       q    Type
REMARK                         _______ _______ _______ _____ _____    ______ ____
ROOT
ATOM      1  C   UNL A   1     -25.688   1.614  26.461  0.00  0.00    +0.075 C 
ATOM      2  C   UNL A   1     -26.250   2.920  26.395  0.00  0.00    +0.053 C 
ATOM      3  C   UNL A   1     -25.642   4.093  27.123  0.00  0.00    +0.219 C 
ATOM      4  N   UNL A   1     -25.614   5.252  26.449  0.00  0.00    -0.236 NA
ATOM      5  C   UNL A   1     -25.026   6.479  26.963  0.00  0.00    +0.155 C 
ATOM      6  O   UNL A   1     -25.143   3.966  28.243  0.00  0.00    -0.447 OA
ATOM      7  C   UNL A   1     -27.438   3.091  25.645  0.00  0.00    +0.102 C 
ATOM      8  N   UNL A   1     -28.075   2.089  25.003  0.00  0.00    -0.212 NA
ATOM      9  C   UNL A   1     -27.543   0.849  25.079  0.00  0.00    +0.234 C 
ATOM     10  C   UNL A   1     -26.354   0.576  25.777  0.00  0.00    +0.240 C 
ATOM     11  F   UNL A   1     -25.860  -0.681  25.795  0.00  0.00    -0.227 F 
ATOM     12  C   UNL A   1     -25.334   2.563  29.192  0.00  0.00    +0.243 C 
ATOM     13  C   UNL A   1     -25.342   1.339  28.004  0.00  0.00    +0.067 C 
ENDROOT
BRANCH  13  15
ATOM     14  F   UNL A   1     -20.728   1.002  28.493  0.00  0.00    -0.217 F 
ATOM     15  C   UNL A   1     -24.236   0.547  28.237  0.00  0.00    +0.032 C 
ATOM     16  C   UNL A   1     -23.760  -0.209  29.462  0.00  0.00    +0.082 C 
ATOM     17  C   UNL A   1     -22.797   1.156  27.965  0.00  0.00    +0.095 C 
ATOM     18  N   UNL A   1     -22.484  -0.279  29.668  0.00  0.00    -0.188 NA
ATOM     19  C   UNL A   1     -21.805   0.433  28.633  0.00  0.00    +0.240 C 
BRANCH  17  20
ATOM     20  C   UNL A   1     -22.919   1.543  26.433  0.00  0.00    +0.100 C 
ATOM     21  N   UNL A   1     -22.641   2.432  25.613  0.00  0.00    -0.151 NA
ENDBRANCH  17  20
BRANCH  16  22
ATOM     22  C   UNL A   1     -24.855  -1.012  30.143  0.00  0.00    +0.054 C 
BRANCH  22  23
ATOM     23  C   UNL A   1     -24.973  -2.505  29.788  0.00  0.00    -0.020 C 
ATOM     24  C   UNL A   1     -23.906  -3.173  29.146  0.00  0.00    -0.004 C 
ATOM     25  C   UNL A   1     -23.989  -4.549  28.853  0.00  0.00    -0.000 C 
ATOM     26  C   UNL A   1     -25.137  -5.280  29.205  0.00  0.00    -0.000 C 
ATOM     27  C   UNL A   1     -26.232  -4.611  29.784  0.00  0.00    -0.000 C 
ATOM     28  C   UNL A   1     -26.155  -3.232  30.065  0.00  0.00    -0.004 C 
ENDBRANCH  22  23
BRANCH  22  29
ATOM     29  C   UNL A   1     -25.387  -0.679  31.571  0.00  0.00    +0.078 C 
ATOM     30  C   UNL A   1     -25.189   0.773  32.028  0.00  0.00    +0.019 C 
ATOM     31  C   UNL A   1     -25.336   0.684  33.544  0.00  0.00    +0.020 C 
ATOM     32  C   UNL A   1     -24.829  -0.715  33.905  0.00  0.00    +0.089 C 
ATOM     33  N   UNL A   1     -24.758  -1.481  32.646  0.00  0.00    -0.219 NA
ENDBRANCH  22  29
ENDBRANCH  16  22
ENDBRANCH  13  15
BRANCH   9  34
ATOM     34  O   UNL A   1     -28.193  -0.208  24.477  0.00  0.00    -0.459 OA
BRANCH  34  35
ATOM     35  C   UNL A   1     -29.460   0.005  23.866  0.00  0.00    +0.242 C 
BRANCH  35  36
ATOM     36  C   UNL A   1     -30.065  -1.377  23.573  0.00  0.00    +0.229 C 
ATOM     37  O   UNL A   1     -30.729  -1.878  24.721  0.00  0.00    -0.216 OA
ENDBRANCH  35  36
ENDBRANCH  34  35
ENDBRANCH   9  34
BRANCH  12  38
ATOM     38  N   UNL A   1     -26.518   2.679  30.189  0.00  0.00    -0.174 NA
BRANCH  38  39
ATOM     39  CA  UNL A   1     -27.940   3.060  30.431  0.00  0.00    +0.131 C 
BRANCH  39  43
ATOM     40  F   UNL A   1     -31.961   1.937  26.579  0.00  0.00    -0.204 F 
ATOM     41  C   UNL A   1     -29.871   3.783  28.916  0.00  0.00    -0.005 C 
ATOM     42  C   UNL A   1     -31.726   4.630  27.426  0.00  0.00    +0.033 C 
ATOM     43  C   UNL A   1     -29.027   2.722  29.384  0.00  0.00    -0.004 C 
ATOM     44  C   UNL A   1     -31.054   2.216  27.480  0.00  0.00    +0.136 C 
ATOM     45  C   UNL A   1     -29.343   1.423  28.881  0.00  0.00    -0.001 C 
ATOM     46  C   UNL A   1     -30.264   1.169  27.896  0.00  0.00    +0.029 C 
ATOM     47  C   UNL A   1     -30.872   3.520  27.987  0.00  0.00    +0.005 C 
ENDBRANCH  39  43
BRANCH  39  49
ATOM     48  O   UNL A   1     -27.747   5.469  30.343  0.00  0.00    -0.218 OA
ATOM     49  C   UNL A   1     -27.735   4.502  30.415  0.00  0.00    +0.204 C 
ENDBRANCH  39  49
ENDBRANCH  38  39
ENDBRANCH  12  38
TORSDOF 12
