REMARK  Name = outputs/IAG933/test6/raw/output_8861_IAG933_linker_design_.xyz
REMARK  11 active torsions:
REMARK  status: ('A' for Active; 'I' for Inactive)
REMARK    1  A    between atoms: C_1  and  C_2
REMARK    2  A    between atoms: C_1  and  C_8
REMARK    3  A    between atoms: C_1  and  N_36
REMARK    4  A    between atoms: C_13  and  C_56
REMARK    5  A    between atoms: C_14  and  C_15
REMARK    6  A    between atoms: C_21  and  O_22
REMARK    7  A    between atoms: O_22  and  C_23
REMARK    8  A    between atoms: C_23  and  C_24
REMARK    9  A    between atoms: N_36  and  C_54
REMARK   10  A    between atoms: N_36  and  C_55
REMARK   11  A    between atoms: C_54  and  C_57
REMARK                            x       y       z     vdW  Elec       q    Type
REMARK                         _______ _______ _______ _____ _____    ______ ____
ROOT
ATOM      1  N   UNL A   1     -25.437  -0.123  29.081  0.00  0.00    -0.303 N 
ENDROOT
BRANCH   1   7
ATOM      2  C   UNL A   1     -22.944   0.541  28.447  0.00  0.00    +0.041 C 
ATOM      3  C   UNL A   1     -23.010   2.422  25.387  0.00  0.00    +0.005 C 
ATOM      4  C   UNL A   1     -23.293   1.817  26.734  0.00  0.00    +0.024 C 
ATOM      5  C   UNL A   1     -20.920   1.882  27.810  0.00  0.00    +0.001 C 
ATOM      6  C   UNL A   1     -22.378   1.460  27.669  0.00  0.00    +0.010 C 
ATOM      7  C   UNL A   1     -24.375   0.532  28.265  0.00  0.00    +0.021 C 
ATOM      8  C   UNL A   1     -24.587   1.371  27.157  0.00  0.00    -0.011 C 
BRANCH   8   9
ATOM      9  C   UNL A   1     -25.688   1.614  26.461  0.00  0.00    +0.035 C 
ATOM     10  C   UNL A   1     -26.250   2.920  26.395  0.00  0.00    +0.076 C 
ATOM     11  C   UNL A   1     -27.438   3.091  25.645  0.00  0.00    +0.107 C 
ATOM     12  N   UNL A   1     -28.075   2.089  25.003  0.00  0.00    -0.208 NA
ATOM     13  C   UNL A   1     -27.543   0.849  25.079  0.00  0.00    +0.253 C 
ATOM     14  C   UNL A   1     -26.354   0.576  25.777  0.00  0.00    +0.193 C 
ATOM     15  F   UNL A   1     -25.860  -0.681  25.795  0.00  0.00    -0.199 F 
BRANCH  10  16
ATOM     16  C   UNL A   1     -25.642   4.093  27.123  0.00  0.00    +0.266 C 
ATOM     17  N   UNL A   1     -25.614   5.252  26.449  0.00  0.00    -0.200 NA
ATOM     18  C   UNL A   1     -25.026   6.479  26.963  0.00  0.00    +0.139 C 
ATOM     19  O   UNL A   1     -25.143   3.966  28.243  0.00  0.00    -0.268 OA
ENDBRANCH  10  16
BRANCH  13  20
ATOM     20  O   UNL A   1     -28.193  -0.208  24.477  0.00  0.00    -0.456 OA
BRANCH  20  21
ATOM     21  C   UNL A   1     -29.460   0.005  23.866  0.00  0.00    +0.243 C 
BRANCH  21  22
ATOM     22  C   UNL A   1     -30.065  -1.377  23.573  0.00  0.00    +0.229 C 
ATOM     23  O   UNL A   1     -30.729  -1.878  24.721  0.00  0.00    -0.216 OA
ENDBRANCH  21  22
ENDBRANCH  20  21
ENDBRANCH  13  20
ENDBRANCH   8   9
ENDBRANCH   1   7
BRANCH   1  24
ATOM     24  C   UNL A   1     -24.855  -1.012  30.143  0.00  0.00    +0.111 C 
BRANCH  24  25
ATOM     25  C   UNL A   1     -24.973  -2.505  29.788  0.00  0.00    -0.003 C 
ATOM     26  C   UNL A   1     -23.906  -3.173  29.146  0.00  0.00    -0.003 C 
ATOM     27  C   UNL A   1     -23.989  -4.549  28.853  0.00  0.00    -0.000 C 
ATOM     28  C   UNL A   1     -25.137  -5.280  29.205  0.00  0.00    -0.000 C 
ATOM     29  C   UNL A   1     -26.232  -4.611  29.784  0.00  0.00    -0.000 C 
ATOM     30  C   UNL A   1     -26.155  -3.232  30.065  0.00  0.00    -0.003 C 
ENDBRANCH  24  25
BRANCH  24  31
ATOM     31  C   UNL A   1     -25.387  -0.679  31.571  0.00  0.00    +0.095 C 
ATOM     32  C   UNL A   1     -25.189   0.773  32.028  0.00  0.00    +0.021 C 
ATOM     33  C   UNL A   1     -25.336   0.684  33.544  0.00  0.00    +0.020 C 
ATOM     34  C   UNL A   1     -24.829  -0.715  33.905  0.00  0.00    +0.089 C 
ATOM     35  N   UNL A   1     -24.758  -1.481  32.646  0.00  0.00    -0.217 NA
ENDBRANCH  24  31
ENDBRANCH   1  24
BRANCH   1  36
ATOM     36  C   UNL A   1     -26.953   0.521  28.824  0.00  0.00    +0.134 C 
BRANCH  36  57
ATOM     37  C   UNL A   1     -28.066   4.125  32.785  0.00  0.00    +0.216 C 
ATOM     38  N   UNL A   1     -28.425   0.589  30.617  0.00  0.00    -0.248 NA
ATOM     39  C   UNL A   1     -25.253   5.429  31.302  0.00  0.00    +0.155 C 
ATOM     40  C   UNL A   1     -27.739   2.868  30.606  0.00  0.00    +0.113 C 
ATOM     41  C   UNL A   1     -30.766   6.531  33.744  0.00  0.00    +0.003 C 
ATOM     42  C   UNL A   1     -28.815   5.458  32.827  0.00  0.00    +0.023 C 
ATOM     43  C   UNL A   1     -29.806   5.527  33.811  0.00  0.00    -0.000 C 
ATOM     44  N   UNL A   1     -28.399   3.090  31.760  0.00  0.00    -0.277 N 
ATOM     45  O   UNL A   1     -26.958   4.377  33.439  0.00  0.00    -0.334 OA
ATOM     46  C   UNL A   1     -23.476   4.642  32.915  0.00  0.00    +0.005 C 
ATOM     47  C   UNL A   1     -25.832   3.576  33.057  0.00  0.00    +0.147 C 
ATOM     48  O   UNL A   1     -25.010   6.598  32.048  0.00  0.00    -0.223 OA
ATOM     49  C   UNL A   1     -29.538   7.580  31.886  0.00  0.00    +0.192 C 
ATOM     50  C   UNL A   1     -28.621   6.492  31.855  0.00  0.00    +0.017 C 
ATOM     51  C   UNL A   1     -24.725   4.191  32.131  0.00  0.00    +0.060 C 
ATOM     52  C   UNL A   1     -27.180   4.088  30.090  0.00  0.00    +0.029 C 
ATOM     53  C   UNL A   1     -29.141   0.891  31.674  0.00  0.00    +0.114 C 
ATOM     54  O   UNL A   1     -29.359   8.640  31.078  0.00  0.00    -0.287 OA
ATOM     55  C   UNL A   1     -27.503   6.375  30.912  0.00  0.00    +0.032 C 
ATOM     56  C   UNL A   1     -29.232   2.167  32.114  0.00  0.00    +0.084 C 
ATOM     57  C   UNL A   1     -27.703   1.313  30.033  0.00  0.00    +0.075 C 
ATOM     58  C   UNL A   1     -26.644   5.233  30.700  0.00  0.00    +0.037 C 
ATOM     59  C   UNL A   1     -30.676   7.524  32.746  0.00  0.00    +0.042 C 
ENDBRANCH  36  57
ENDBRANCH   1  36
TORSDOF 11
