REMARK  Name = outputs/IAG933/test6/raw/output_8867_IAG933_linker_design_.xyz
REMARK  12 active torsions:
REMARK  status: ('A' for Active; 'I' for Inactive)
REMARK    1  A    between atoms: C_1  and  C_2
REMARK    2  A    between atoms: C_1  and  C_8
REMARK    3  A    between atoms: C_1  and  C_43
REMARK    4  A    between atoms: C_13  and  C_44
REMARK    5  A    between atoms: C_14  and  C_15
REMARK    6  A    between atoms: C_21  and  O_22
REMARK    7  A    between atoms: O_22  and  C_23
REMARK    8  A    between atoms: C_23  and  C_24
REMARK    9  A    between atoms: C_29  and  C_39
REMARK   10  A    between atoms: C_29  and  C_40
REMARK   11  A    between atoms: N_37  and  C_43
REMARK   12  A    between atoms: C_39  and  C_43
REMARK                            x       y       z     vdW  Elec       q    Type
REMARK                         _______ _______ _______ _____ _____    ______ ____
ROOT
ATOM      1  C   UNL A   1     -25.400  -0.132  29.032  0.00  0.00    +0.063 C 
ENDROOT
BRANCH   1   5
ATOM      2  C   UNL A   1     -22.108   1.353  27.803  0.00  0.00    +0.035 C 
ATOM      3 CL   UNL A   1     -22.716   2.075  25.203  0.00  0.00    -0.113 Cl
ATOM      4  C   UNL A   1     -22.981   1.072  26.608  0.00  0.00    +0.100 C 
ATOM      5  N   UNL A   1     -24.351   0.829  28.590  0.00  0.00    -0.270 NA
ATOM      6  C   UNL A   1     -24.532   1.634  27.352  0.00  0.00    +0.098 C 
ATOM      7  C   UNL A   1     -22.925   0.801  29.009  0.00  0.00    +0.074 C 
BRANCH   6   8
ATOM      8  C   UNL A   1     -25.688   1.614  26.461  0.00  0.00    +0.032 C 
ATOM      9  C   UNL A   1     -26.250   2.920  26.395  0.00  0.00    +0.074 C 
ATOM     10  C   UNL A   1     -27.438   3.091  25.645  0.00  0.00    +0.106 C 
ATOM     11  N   UNL A   1     -28.075   2.089  25.003  0.00  0.00    -0.208 NA
ATOM     12  C   UNL A   1     -27.543   0.849  25.079  0.00  0.00    +0.253 C 
ATOM     13  C   UNL A   1     -26.354   0.576  25.777  0.00  0.00    +0.190 C 
ATOM     14  F   UNL A   1     -25.860  -0.681  25.795  0.00  0.00    -0.200 F 
BRANCH   9  15
ATOM     15  C   UNL A   1     -25.642   4.093  27.123  0.00  0.00    +0.266 C 
ATOM     16  N   UNL A   1     -25.614   5.252  26.449  0.00  0.00    -0.200 NA
ATOM     17  C   UNL A   1     -25.026   6.479  26.963  0.00  0.00    +0.139 C 
ATOM     18  O   UNL A   1     -25.143   3.966  28.243  0.00  0.00    -0.268 OA
ENDBRANCH   9  15
BRANCH  12  19
ATOM     19  O   UNL A   1     -28.193  -0.208  24.477  0.00  0.00    -0.456 OA
BRANCH  19  20
ATOM     20  C   UNL A   1     -29.460   0.005  23.866  0.00  0.00    +0.243 C 
BRANCH  20  21
ATOM     21  C   UNL A   1     -30.065  -1.377  23.573  0.00  0.00    +0.229 C 
ATOM     22  O   UNL A   1     -30.729  -1.878  24.721  0.00  0.00    -0.216 OA
ENDBRANCH  20  21
ENDBRANCH  19  20
ENDBRANCH  12  19
ENDBRANCH   6   8
ENDBRANCH   1   5
BRANCH   1  23
ATOM     23  C   UNL A   1     -24.855  -1.012  30.143  0.00  0.00    +0.053 C 
BRANCH  23  24
ATOM     24  C   UNL A   1     -24.973  -2.505  29.788  0.00  0.00    -0.020 C 
ATOM     25  C   UNL A   1     -23.906  -3.173  29.146  0.00  0.00    -0.004 C 
ATOM     26  C   UNL A   1     -23.989  -4.549  28.853  0.00  0.00    -0.000 C 
ATOM     27  C   UNL A   1     -25.137  -5.280  29.205  0.00  0.00    -0.000 C 
ATOM     28  C   UNL A   1     -26.232  -4.611  29.784  0.00  0.00    -0.000 C 
ATOM     29  C   UNL A   1     -26.155  -3.232  30.065  0.00  0.00    -0.004 C 
ENDBRANCH  23  24
BRANCH  23  30
ATOM     30  C   UNL A   1     -25.387  -0.679  31.571  0.00  0.00    +0.078 C 
ATOM     31  C   UNL A   1     -25.189   0.773  32.028  0.00  0.00    +0.019 C 
ATOM     32  C   UNL A   1     -25.336   0.684  33.544  0.00  0.00    +0.020 C 
ATOM     33  C   UNL A   1     -24.829  -0.715  33.905  0.00  0.00    +0.089 C 
ATOM     34  N   UNL A   1     -24.758  -1.481  32.646  0.00  0.00    -0.219 NA
ENDBRANCH  23  30
ENDBRANCH   1  23
BRANCH   1  35
ATOM     35  C   UNL A   1     -26.792  -0.480  28.391  0.00  0.00    +0.016 C 
BRANCH  35  36
ATOM     36  C   UNL A   1     -28.139  -0.744  29.064  0.00  0.00    +0.003 C 
BRANCH  36  43
ATOM     37  C   UNL A   1     -28.953   1.305  29.337  0.00  0.00    +0.087 C 
ATOM     38  C   UNL A   1     -28.831   2.761  28.905  0.00  0.00    +0.053 C 
ATOM     39  N   UNL A   1     -30.134   1.255  30.145  0.00  0.00    -0.167 NA
ATOM     40  O   UNL A   1     -29.951   2.319  30.944  0.00  0.00    -0.282 OA
ATOM     41  C   UNL A   1     -31.477   1.244  29.585  0.00  0.00    +0.101 C 
ATOM     42  C   UNL A   1     -31.576   0.342  28.280  0.00  0.00    +0.020 C 
ATOM     43  C   UNL A   1     -29.145   0.167  28.372  0.00  0.00    +0.017 C 
ATOM     44  C   UNL A   1     -30.400  -0.665  28.251  0.00  0.00    +0.003 C 
ATOM     45  C   UNL A   1     -29.499   3.402  30.102  0.00  0.00    +0.168 C 
ENDBRANCH  36  43
ENDBRANCH  35  36
ENDBRANCH   1  35
TORSDOF 12
