REMARK  Name = outputs/IAG933/test6/raw/output_8868_IAG933_linker_design_.xyz
REMARK  13 active torsions:
REMARK  status: ('A' for Active; 'I' for Inactive)
REMARK    1  A    between atoms: C_1  and  C_2
REMARK    2  A    between atoms: C_1  and  C_8
REMARK    3  A    between atoms: C_1  and  O_33
REMARK    4  A    between atoms: C_13  and  C_31
REMARK    5  A    between atoms: C_14  and  C_15
REMARK    6  A    between atoms: C_21  and  O_22
REMARK    7  A    between atoms: O_22  and  C_23
REMARK    8  A    between atoms: C_23  and  C_24
REMARK    9  A    between atoms: C_28  and  N_30
REMARK   10  A    between atoms: C_28  and  C_31
REMARK   11  A    between atoms: C_28  and  O_33
REMARK   12  A    between atoms: C_29  and  N_30
REMARK   13  A    between atoms: C_29  and  C_32
REMARK                            x       y       z     vdW  Elec       q    Type
REMARK                         _______ _______ _______ _____ _____    ______ ____
ROOT
ATOM      1  C   UNL A   1     -24.325   0.700  28.340  0.00  0.00    +0.254 C 
ENDROOT
BRANCH   1   2
ATOM      2  C   UNL A   1     -24.363   1.291  27.020  0.00  0.00    +0.220 C 
ATOM      3  O   UNL A   1     -23.381   1.474  26.277  0.00  0.00    -0.287 OA
BRANCH   2   4
ATOM      4  C   UNL A   1     -25.688   1.614  26.461  0.00  0.00    +0.077 C 
ATOM      5  C   UNL A   1     -26.250   2.920  26.395  0.00  0.00    +0.079 C 
ATOM      6  C   UNL A   1     -27.438   3.091  25.645  0.00  0.00    +0.107 C 
ATOM      7  N   UNL A   1     -28.075   2.089  25.003  0.00  0.00    -0.208 NA
ATOM      8  C   UNL A   1     -27.543   0.849  25.079  0.00  0.00    +0.253 C 
ATOM      9  C   UNL A   1     -26.354   0.576  25.777  0.00  0.00    +0.196 C 
ATOM     10  F   UNL A   1     -25.860  -0.681  25.795  0.00  0.00    -0.199 F 
BRANCH   5  11
ATOM     11  C   UNL A   1     -25.642   4.093  27.123  0.00  0.00    +0.267 C 
ATOM     12  N   UNL A   1     -25.614   5.252  26.449  0.00  0.00    -0.200 NA
ATOM     13  C   UNL A   1     -25.026   6.479  26.963  0.00  0.00    +0.139 C 
ATOM     14  O   UNL A   1     -25.143   3.966  28.243  0.00  0.00    -0.268 OA
ENDBRANCH   5  11
BRANCH   8  15
ATOM     15  O   UNL A   1     -28.193  -0.208  24.477  0.00  0.00    -0.456 OA
BRANCH  15  16
ATOM     16  C   UNL A   1     -29.460   0.005  23.866  0.00  0.00    +0.243 C 
BRANCH  16  17
ATOM     17  C   UNL A   1     -30.065  -1.377  23.573  0.00  0.00    +0.229 C 
ATOM     18  O   UNL A   1     -30.729  -1.878  24.721  0.00  0.00    -0.216 OA
ENDBRANCH  16  17
ENDBRANCH  15  16
ENDBRANCH   8  15
ENDBRANCH   2   4
ENDBRANCH   1   2
BRANCH   1  19
ATOM     19  N   UNL A   1     -23.223   0.815  29.088  0.00  0.00    -0.176 NA
BRANCH  19  20
ATOM     20  C   UNL A   1     -22.443   1.895  28.582  0.00  0.00    +0.170 C 
BRANCH  20  21
ATOM     21  C   UNL A   1     -21.080   1.519  28.041  0.00  0.00    +0.236 C 
ATOM     22  N   UNL A   1     -20.282   0.820  28.655  0.00  0.00    -0.119 NA
ATOM     23  F   UNL A   1     -20.855   2.056  26.848  0.00  0.00    -0.185 F 
ENDBRANCH  20  21
ENDBRANCH  19  20
ENDBRANCH   1  19
BRANCH   1  24
ATOM     24  O   UNL A   1     -25.295  -0.102  29.109  0.00  0.00    -0.330 OA
BRANCH  24  25
ATOM     25  C   UNL A   1     -24.855  -1.012  30.143  0.00  0.00    +0.155 C 
BRANCH  25  26
ATOM     26  C   UNL A   1     -24.973  -2.505  29.788  0.00  0.00    +0.006 C 
ATOM     27  C   UNL A   1     -23.906  -3.173  29.146  0.00  0.00    -0.002 C 
ATOM     28  C   UNL A   1     -23.989  -4.549  28.853  0.00  0.00    -0.000 C 
ATOM     29  C   UNL A   1     -25.137  -5.280  29.205  0.00  0.00    -0.000 C 
ATOM     30  C   UNL A   1     -26.232  -4.611  29.784  0.00  0.00    -0.000 C 
ATOM     31  C   UNL A   1     -26.155  -3.232  30.065  0.00  0.00    -0.002 C 
ENDBRANCH  25  26
BRANCH  25  32
ATOM     32  C   UNL A   1     -25.387  -0.679  31.571  0.00  0.00    +0.104 C 
ATOM     33  C   UNL A   1     -25.189   0.773  32.028  0.00  0.00    +0.022 C 
ATOM     34  C   UNL A   1     -25.336   0.684  33.544  0.00  0.00    +0.020 C 
ATOM     35  C   UNL A   1     -24.829  -0.715  33.905  0.00  0.00    +0.089 C 
ATOM     36  N   UNL A   1     -24.758  -1.481  32.646  0.00  0.00    -0.217 NA
ENDBRANCH  25  32
ENDBRANCH  24  25
ENDBRANCH   1  24
TORSDOF 13
