MODEL 886
MODEL 1
REMARK VINA RESULT:    -8.423      0.000      0.000
REMARK INTER + INTRA:         -13.860
REMARK INTER:                 -11.870
REMARK INTRA:                  -1.990
REMARK UNBOUND:                -1.990
REMARK  Name = No_886-gen_results/8p0m/2024-11-27-11-27-31/
REMARK  7 active torsions:
REMARK  status: ('A' for Active; 'I' for Inactive)
REMARK    1  A    between atoms: C_1  and  C_2
REMARK    2  A    between atoms: C_1  and  C_8
REMARK    3  A    between atoms: C_3  and  C_17
REMARK    4  A    between atoms: C_5  and  C_14
REMARK    5  A    between atoms: C_21  and  C_23
REMARK    6  A    between atoms: C_26  and  C_30
REMARK    7  A    between atoms: N_31  and  C_33
REMARK                            x       y       z     vdW  Elec       q    Type
REMARK                         _______ _______ _______ _____ _____    ______ ____
ROOT
ATOM      1  C   UNL A   1     -24.734   0.753  28.138  0.00  0.00    -0.000 A 
ATOM      2  C   UNL A   1     -23.749   1.032  27.364  0.00  0.00    -0.000 A 
ATOM      3  C   UNL A   1     -23.838   1.182  25.944  0.00  0.00    -0.000 A 
ATOM      4  C   UNL A   1     -25.034   0.914  25.338  0.00  0.00    -0.000 A 
ATOM      5  C   UNL A   1     -26.132   0.554  26.151  0.00  0.00    -0.000 A 
ATOM      6  C   UNL A   1     -26.033   0.420  27.499  0.00  0.00    -0.000 A 
ENDROOT
BRANCH   1   8
ATOM      7  C   UNL A   1     -24.097  -0.754  30.004  0.00  0.00    -0.015 A 
ATOM      8  C   UNL A   1     -24.607   0.449  29.558  0.00  0.00    -0.003 A 
ATOM      9  C   UNL A   1     -25.069   1.537  30.400  0.00  0.00    +0.007 A 
ATOM     10  C   UNL A   1     -25.016   1.381  31.802  0.00  0.00    +0.084 A 
ATOM     11  C   UNL A   1     -24.474   0.135  32.281  0.00  0.00    +0.144 A 
ATOM     12  C   UNL A   1     -24.007  -0.868  31.464  0.00  0.00    +0.026 A 
ATOM     13  F   UNL A   1     -24.462   0.038  33.614  0.00  0.00    -0.204 F 
BRANCH  10  14
ATOM     14  C   UNL A   1     -25.389   2.417  32.718  0.00  0.00    +0.286 C 
ATOM     15  N   UNL A   1     -26.073   2.459  33.584  0.00  0.00    -0.084 NA
ATOM     16  O   UNL A   1     -24.557   3.506  32.537  0.00  0.00    -0.267 OA
ENDBRANCH  10  14
BRANCH   7  17
ATOM     17  C   UNL A   1     -23.662  -1.611  29.270  0.00  0.00    +0.053 C 
BRANCH  17  18
ATOM     18  C   UNL A   1     -24.458  -2.875  29.207  0.00  0.00    -0.018 A 
ATOM     19  C   UNL A   1     -25.864  -2.865  29.646  0.00  0.00    -0.004 A 
ATOM     20  C   UNL A   1     -26.533  -3.939  29.818  0.00  0.00    -0.000 A 
ATOM     21  C   UNL A   1     -25.958  -5.193  29.351  0.00  0.00    -0.000 A 
ATOM     22  C   UNL A   1     -24.697  -5.232  28.859  0.00  0.00    -0.000 A 
ATOM     23  C   UNL A   1     -23.911  -4.156  28.723  0.00  0.00    -0.004 A 
ENDBRANCH  17  18
ENDBRANCH   7  17
ENDBRANCH   1   8
BRANCH   5  24
ATOM     24  C   UNL A   1     -27.425   0.302  25.436  0.00  0.00    +0.000 A 
ATOM     25  C   UNL A   1     -27.427  -0.011  24.140  0.00  0.00    +0.000 A 
ATOM     26  C   UNL A   1     -28.661  -0.152  23.385  0.00  0.00    +0.004 A 
ATOM     27  C   UNL A   1     -29.829  -0.000  24.134  0.00  0.00    +0.044 A 
ATOM     28  C   UNL A   1     -28.631   0.499  26.044  0.00  0.00    +0.000 A 
ATOM     29  C   UNL A   1     -29.813   0.360  25.416  0.00  0.00    +0.004 A 
BRANCH  27  30
ATOM     30  C   UNL A   1     -31.144  -0.171  23.379  0.00  0.00    +0.214 C 
ATOM     31  N   UNL A   1     -31.739   0.595  22.954  0.00  0.00    -0.151 NA
ATOM     32  F   UNL A   1     -31.560  -1.411  23.245  0.00  0.00    -0.186 F 
BRANCH  31  33
ATOM     33  C   UNL A   1     -32.571   0.896  22.374  0.00  0.00    +0.248 C 
ATOM     34  C   UNL A   1     -32.660   1.526  21.027  0.00  0.00    +0.097 C 
ATOM     35  O   UNL A   1     -33.810   0.413  22.669  0.00  0.00    -0.273 OA
ENDBRANCH  31  33
ENDBRANCH  27  30
ENDBRANCH   5  24
TORSDOF 7
ENDMDL
ENDMDL
