REMARK  Name = outputs/IAG933/test6/raw/output_8874_IAG933_linker_design_.xyz
REMARK  11 active torsions:
REMARK  status: ('A' for Active; 'I' for Inactive)
REMARK    1  A    between atoms: C_1  and  C_2
REMARK    2  A    between atoms: C_1  and  C_8
REMARK    3  A    between atoms: C_1  and  O_35
REMARK    4  A    between atoms: C_21  and  O_22
REMARK    5  A    between atoms: O_22  and  C_23
REMARK    6  A    between atoms: C_23  and  C_24
REMARK    7  A    between atoms: C_32  and  C_33
REMARK    8  A    between atoms: C_32  and  C_39
REMARK    9  A    between atoms: C_34  and  C_43
REMARK   10  A    between atoms: O_35  and  C_44
REMARK   11  A    between atoms: S_36  and  C_39
REMARK                            x       y       z     vdW  Elec       q    Type
REMARK                         _______ _______ _______ _____ _____    ______ ____
ROOT
ATOM      1  C   UNL A   1     -25.688   1.614  26.461  0.00  0.00    +0.110 C 
ATOM      2  C   UNL A   1     -26.250   2.920  26.395  0.00  0.00    +0.058 C 
ATOM      3  C   UNL A   1     -25.642   4.093  27.123  0.00  0.00    +0.220 C 
ATOM      4  N   UNL A   1     -25.614   5.252  26.449  0.00  0.00    -0.236 NA
ATOM      5  C   UNL A   1     -25.026   6.479  26.963  0.00  0.00    +0.155 C 
ATOM      6  O   UNL A   1     -25.143   3.966  28.243  0.00  0.00    -0.437 OA
ATOM      7  C   UNL A   1     -27.438   3.091  25.645  0.00  0.00    +0.103 C 
ATOM      8  N   UNL A   1     -28.075   2.089  25.003  0.00  0.00    -0.212 NA
ATOM      9  C   UNL A   1     -27.543   0.849  25.079  0.00  0.00    +0.234 C 
ATOM     10  C   UNL A   1     -26.354   0.576  25.777  0.00  0.00    +0.245 C 
ATOM     11  F   UNL A   1     -25.860  -0.681  25.795  0.00  0.00    -0.227 F 
ATOM     12  N   UNL A   1     -23.495   1.595  25.766  0.00  0.00    -0.220 NA
ATOM     13  O   UNL A   1     -25.022   2.196  29.887  0.00  0.00    -0.292 OA
ATOM     14  C   UNL A   1     -24.042   1.205  27.984  0.00  0.00    +0.049 A 
ATOM     15  F   UNL A   1     -21.402   1.994  25.027  0.00  0.00    -0.181 F 
ATOM     16  C   UNL A   1     -25.012   3.467  29.461  0.00  0.00    +0.292 C 
ATOM     17  F   UNL A   1     -20.483   1.854  27.685  0.00  0.00    -0.200 F 
ATOM     18  C   UNL A   1     -21.729   1.535  27.298  0.00  0.00    +0.184 A 
ATOM     19  C   UNL A   1     -24.407   1.476  26.743  0.00  0.00    +0.069 A 
ATOM     20  C   UNL A   1     -22.673   0.969  28.259  0.00  0.00    +0.044 A 
ATOM     21  C   UNL A   1     -25.176   1.147  28.913  0.00  0.00    +0.264 C 
ATOM     22  C   UNL A   1     -22.283   1.703  26.048  0.00  0.00    +0.249 A 
ENDROOT
BRANCH  20  23
ATOM     23  C   UNL A   1     -22.131   0.124  29.249  0.00  0.00    +0.211 C 
ATOM     24  O   UNL A   1     -20.960  -0.493  28.930  0.00  0.00    -0.215 OA
ENDBRANCH  20  23
BRANCH   9  25
ATOM     25  O   UNL A   1     -28.193  -0.208  24.477  0.00  0.00    -0.459 OA
BRANCH  25  26
ATOM     26  C   UNL A   1     -29.460   0.005  23.866  0.00  0.00    +0.242 C 
BRANCH  26  27
ATOM     27  C   UNL A   1     -30.065  -1.377  23.573  0.00  0.00    +0.229 C 
ATOM     28  O   UNL A   1     -30.729  -1.878  24.721  0.00  0.00    -0.216 OA
ENDBRANCH  26  27
ENDBRANCH  25  26
ENDBRANCH   9  25
BRANCH  16  29
ATOM     29  C   UNL A   1     -25.090   4.405  30.587  0.00  0.00    +0.088 C 
BRANCH  29  30
ATOM     30  C   UNL A   1     -26.424   5.061  30.413  0.00  0.00    +0.064 C 
BRANCH  30  31
ATOM     31  S   UNL A   1     -26.514   6.723  29.867  0.00  0.00    -0.139 S 
ATOM     32  C   UNL A   1     -25.065   7.546  30.525  0.00  0.00    +0.069 C 
ENDBRANCH  30  31
ENDBRANCH  29  30
ENDBRANCH  16  29
BRANCH  21  33
ATOM     33  O   UNL A   1     -25.385  -0.275  29.080  0.00  0.00    -0.324 OA
BRANCH  33  34
ATOM     34  C   UNL A   1     -24.855  -1.012  30.143  0.00  0.00    +0.156 C 
BRANCH  34  35
ATOM     35  C   UNL A   1     -24.973  -2.505  29.788  0.00  0.00    +0.006 C 
ATOM     36  C   UNL A   1     -23.906  -3.173  29.146  0.00  0.00    -0.002 C 
ATOM     37  C   UNL A   1     -23.989  -4.549  28.853  0.00  0.00    -0.000 C 
ATOM     38  C   UNL A   1     -25.137  -5.280  29.205  0.00  0.00    -0.000 C 
ATOM     39  C   UNL A   1     -26.232  -4.611  29.784  0.00  0.00    -0.000 C 
ATOM     40  C   UNL A   1     -26.155  -3.232  30.065  0.00  0.00    -0.002 C 
ENDBRANCH  34  35
BRANCH  34  41
ATOM     41  C   UNL A   1     -25.387  -0.679  31.571  0.00  0.00    +0.104 C 
ATOM     42  C   UNL A   1     -25.189   0.773  32.028  0.00  0.00    +0.022 C 
ATOM     43  C   UNL A   1     -25.336   0.684  33.544  0.00  0.00    +0.020 C 
ATOM     44  C   UNL A   1     -24.829  -0.715  33.905  0.00  0.00    +0.089 C 
ATOM     45  N   UNL A   1     -24.758  -1.481  32.646  0.00  0.00    -0.217 NA
ENDBRANCH  34  41
ENDBRANCH  33  34
ENDBRANCH  21  33
TORSDOF 11
