MODEL 887
MODEL 1
REMARK VINA RESULT:    -4.476      0.000      0.000
REMARK INTER + INTRA:          -5.186
REMARK INTER:                  -4.999
REMARK INTRA:                  -0.187
REMARK UNBOUND:                -0.187
REMARK  Name = No_887-gen_results/8p0m/2024-11-27-11-27-31/
REMARK  2 active torsions:
REMARK  status: ('A' for Active; 'I' for Inactive)
REMARK    1  A    between atoms: C_3  and  C_4
REMARK    2  A    between atoms: C_5  and  C_6
REMARK                            x       y       z     vdW  Elec       q    Type
REMARK                         _______ _______ _______ _____ _____    ______ ____
ROOT
ATOM      1  C   UNL A   1     -24.554  -3.214  28.724  0.00  0.00    +0.002 C 
ATOM      2  C   UNL A   1     -23.594  -2.436  28.979  0.00  0.00    -0.000 C 
ENDROOT
BRANCH   1   5
ATOM      3  F   UNL A   1     -25.821  -5.238  29.630  0.00  0.00    -0.202 F 
ATOM      4  C   UNL A   1     -24.882  -5.389  29.117  0.00  0.00    +0.167 C 
ATOM      5  C   UNL A   1     -24.252  -4.733  28.700  0.00  0.00    +0.032 C 
ENDBRANCH   1   5
BRANCH   2   6
ATOM      6  C   UNL A   1     -23.880  -0.989  28.849  0.00  0.00    -0.005 C 
ATOM      7  C   UNL A   1     -22.857  -0.098  28.789  0.00  0.00    -0.026 C 
ATOM      8  C   UNL A   1     -21.573  -0.431  29.018  0.00  0.00    +0.031 C 
ENDBRANCH   2   6
TORSDOF 2
ENDMDL
ENDMDL
