REMARK  Name = outputs/IAG933/test6/raw/output_8885_IAG933_linker_design_.xyz
REMARK  10 active torsions:
REMARK  status: ('A' for Active; 'I' for Inactive)
REMARK    1  A    between atoms: C_1  and  C_2
REMARK    2  A    between atoms: C_1  and  C_8
REMARK    3  A    between atoms: C_1  and  C_41
REMARK    4  A    between atoms: C_13  and  C_40
REMARK    5  A    between atoms: C_14  and  C_15
REMARK    6  A    between atoms: C_21  and  O_22
REMARK    7  A    between atoms: O_22  and  C_23
REMARK    8  A    between atoms: C_23  and  C_24
REMARK    9  A    between atoms: C_31  and  C_41
REMARK   10  A    between atoms: C_35  and  C_41
REMARK                            x       y       z     vdW  Elec       q    Type
REMARK                         _______ _______ _______ _____ _____    ______ ____
ROOT
ATOM      1  C   UNL A   1     -21.961   1.958  26.710  0.00  0.00    -0.021 C 
ATOM      2  C   UNL A   1     -24.309   0.596  28.290  0.00  0.00    -0.018 C 
ATOM      3  C   UNL A   1     -21.793   0.542  28.718  0.00  0.00    -0.022 C 
ATOM      4  C   UNL A   1     -21.275   1.290  27.688  0.00  0.00    +0.052 C 
ATOM      5  C   UNL A   1     -23.099   0.255  28.912  0.00  0.00    -0.008 C 
ATOM      6  C   UNL A   1     -24.372   1.373  27.116  0.00  0.00    -0.002 C 
ATOM      7  C   UNL A   1     -23.297   1.975  26.435  0.00  0.00    -0.004 C 
ENDROOT
BRANCH   6   8
ATOM      8  C   UNL A   1     -25.688   1.614  26.461  0.00  0.00    +0.038 C 
ATOM      9  C   UNL A   1     -26.250   2.920  26.395  0.00  0.00    +0.076 C 
ATOM     10  C   UNL A   1     -27.438   3.091  25.645  0.00  0.00    +0.107 C 
ATOM     11  N   UNL A   1     -28.075   2.089  25.003  0.00  0.00    -0.208 NA
ATOM     12  C   UNL A   1     -27.543   0.849  25.079  0.00  0.00    +0.253 C 
ATOM     13  C   UNL A   1     -26.354   0.576  25.777  0.00  0.00    +0.193 C 
ATOM     14  F   UNL A   1     -25.860  -0.681  25.795  0.00  0.00    -0.199 F 
BRANCH   9  15
ATOM     15  C   UNL A   1     -25.642   4.093  27.123  0.00  0.00    +0.266 C 
ATOM     16  N   UNL A   1     -25.614   5.252  26.449  0.00  0.00    -0.200 NA
ATOM     17  C   UNL A   1     -25.026   6.479  26.963  0.00  0.00    +0.139 C 
ATOM     18  O   UNL A   1     -25.143   3.966  28.243  0.00  0.00    -0.268 OA
ENDBRANCH   9  15
BRANCH  12  19
ATOM     19  O   UNL A   1     -28.193  -0.208  24.477  0.00  0.00    -0.456 OA
BRANCH  19  20
ATOM     20  C   UNL A   1     -29.460   0.005  23.866  0.00  0.00    +0.243 C 
BRANCH  20  21
ATOM     21  C   UNL A   1     -30.065  -1.377  23.573  0.00  0.00    +0.229 C 
ATOM     22  O   UNL A   1     -30.729  -1.878  24.721  0.00  0.00    -0.216 OA
ENDBRANCH  20  21
ENDBRANCH  19  20
ENDBRANCH  12  19
ENDBRANCH   6   8
BRANCH   2  23
ATOM     23  C   UNL A   1     -25.349   0.080  29.203  0.00  0.00    +0.050 C 
BRANCH  23  28
ATOM     24  C   UNL A   1     -29.078   0.425  28.920  0.00  0.00    +0.001 C 
ATOM     25  C   UNL A   1     -26.922   2.002  29.678  0.00  0.00    +0.007 C 
ATOM     26  C   UNL A   1     -29.246   1.661  29.527  0.00  0.00    +0.011 C 
ATOM     27  C   UNL A   1     -27.785  -0.060  28.685  0.00  0.00    -0.004 C 
ATOM     28  C   UNL A   1     -26.704   0.706  29.160  0.00  0.00    -0.017 C 
ATOM     29 CL   UNL A   1     -28.381   3.970  30.589  0.00  0.00    -0.082 Cl
ATOM     30  C   UNL A   1     -28.177   2.456  29.898  0.00  0.00    +0.057 C 
ENDBRANCH  23  28
BRANCH  23  31
ATOM     31  C   UNL A   1     -24.855  -1.012  30.143  0.00  0.00    +0.046 C 
BRANCH  31  32
ATOM     32  C   UNL A   1     -24.973  -2.505  29.788  0.00  0.00    -0.021 C 
ATOM     33  C   UNL A   1     -23.906  -3.173  29.146  0.00  0.00    -0.004 C 
ATOM     34  C   UNL A   1     -23.989  -4.549  28.853  0.00  0.00    -0.000 C 
ATOM     35  C   UNL A   1     -25.137  -5.280  29.205  0.00  0.00    -0.000 C 
ATOM     36  C   UNL A   1     -26.232  -4.611  29.784  0.00  0.00    -0.000 C 
ATOM     37  C   UNL A   1     -26.155  -3.232  30.065  0.00  0.00    -0.004 C 
ENDBRANCH  31  32
BRANCH  31  38
ATOM     38  C   UNL A   1     -25.387  -0.679  31.571  0.00  0.00    +0.077 C 
ATOM     39  C   UNL A   1     -25.189   0.773  32.028  0.00  0.00    +0.019 C 
ATOM     40  C   UNL A   1     -25.336   0.684  33.544  0.00  0.00    +0.020 C 
ATOM     41  C   UNL A   1     -24.829  -0.715  33.905  0.00  0.00    +0.089 C 
ATOM     42  N   UNL A   1     -24.758  -1.481  32.646  0.00  0.00    -0.219 NA
ENDBRANCH  31  38
ENDBRANCH  23  31
ENDBRANCH   2  23
TORSDOF 10
