REMARK  Name = outputs/IAG933/test6/raw/output_8888_IAG933_linker_design_.xyz
REMARK  10 active torsions:
REMARK  status: ('A' for Active; 'I' for Inactive)
REMARK    1  A    between atoms: C_1  and  C_2
REMARK    2  A    between atoms: C_1  and  C_8
REMARK    3  A    between atoms: C_1  and  N_47
REMARK    4  A    between atoms: C_13  and  N_38
REMARK    5  A    between atoms: C_14  and  C_15
REMARK    6  A    between atoms: C_21  and  O_22
REMARK    7  A    between atoms: O_22  and  C_23
REMARK    8  A    between atoms: C_23  and  C_24
REMARK    9  A    between atoms: C_24  and  O_25
REMARK   10  A    between atoms: O_25  and  C_43
REMARK                            x       y       z     vdW  Elec       q    Type
REMARK                         _______ _______ _______ _____ _____    ______ ____
ROOT
ATOM      1  C   UNL A   1     -25.688   1.614  26.461  0.00  0.00    +0.090 C 
ATOM      2  C   UNL A   1     -26.250   2.920  26.395  0.00  0.00    +0.090 C 
ATOM      3  C   UNL A   1     -27.438   3.091  25.645  0.00  0.00    +0.108 C 
ATOM      4  N   UNL A   1     -28.075   2.089  25.003  0.00  0.00    -0.208 NA
ATOM      5  C   UNL A   1     -27.543   0.849  25.079  0.00  0.00    +0.255 C 
ATOM      6  C   UNL A   1     -26.354   0.576  25.777  0.00  0.00    +0.206 C 
ATOM      7  F   UNL A   1     -25.860  -0.681  25.795  0.00  0.00    -0.198 F 
ENDROOT
BRANCH   1  11
ATOM      8  C   UNL A   1     -23.639   1.634  26.166  0.00  0.00    +0.310 C 
ATOM      9  C   UNL A   1     -24.802   0.626  28.512  0.00  0.00    +0.173 C 
ATOM     10  N   UNL A   1     -21.921   0.921  28.658  0.00  0.00    -0.193 NA
ATOM     11  N   UNL A   1     -24.480   1.336  27.384  0.00  0.00    -0.254 N 
ATOM     12  C   UNL A   1     -22.557  -0.013  29.558  0.00  0.00    +0.208 C 
ATOM     13  F   UNL A   1     -20.504   1.795  27.474  0.00  0.00    -0.143 F 
ATOM     14  C   UNL A   1     -21.650   1.330  27.428  0.00  0.00    +0.377 C 
ATOM     15  N   UNL A   1     -24.044  -0.022  29.369  0.00  0.00    -0.231 NA
ATOM     16  O   UNL A   1     -22.363   2.054  26.486  0.00  0.00    -0.418 OA
BRANCH  15  17
ATOM     17  C   UNL A   1     -24.855  -1.012  30.143  0.00  0.00    +0.099 C 
BRANCH  17  18
ATOM     18  C   UNL A   1     -24.973  -2.505  29.788  0.00  0.00    -0.006 C 
ATOM     19  C   UNL A   1     -23.906  -3.173  29.146  0.00  0.00    -0.003 C 
ATOM     20  C   UNL A   1     -23.989  -4.549  28.853  0.00  0.00    -0.000 C 
ATOM     21  C   UNL A   1     -25.137  -5.280  29.205  0.00  0.00    -0.000 C 
ATOM     22  C   UNL A   1     -26.232  -4.611  29.784  0.00  0.00    -0.000 C 
ATOM     23  C   UNL A   1     -26.155  -3.232  30.065  0.00  0.00    -0.003 C 
ENDBRANCH  17  18
BRANCH  17  24
ATOM     24  C   UNL A   1     -25.387  -0.679  31.571  0.00  0.00    +0.092 C 
ATOM     25  C   UNL A   1     -25.189   0.773  32.028  0.00  0.00    +0.021 C 
ATOM     26  C   UNL A   1     -25.336   0.684  33.544  0.00  0.00    +0.020 C 
ATOM     27  C   UNL A   1     -24.829  -0.715  33.905  0.00  0.00    +0.089 C 
ATOM     28  N   UNL A   1     -24.758  -1.481  32.646  0.00  0.00    -0.218 NA
ENDBRANCH  17  24
ENDBRANCH  15  17
ENDBRANCH   1  11
BRANCH   2  29
ATOM     29  C   UNL A   1     -25.642   4.093  27.123  0.00  0.00    +0.268 C 
ATOM     30  N   UNL A   1     -25.614   5.252  26.449  0.00  0.00    -0.200 NA
ATOM     31  C   UNL A   1     -25.026   6.479  26.963  0.00  0.00    +0.139 C 
ATOM     32  O   UNL A   1     -25.143   3.966  28.243  0.00  0.00    -0.268 OA
ENDBRANCH   2  29
BRANCH   5  33
ATOM     33  O   UNL A   1     -28.193  -0.208  24.477  0.00  0.00    -0.456 OA
BRANCH  33  34
ATOM     34  C   UNL A   1     -29.460   0.005  23.866  0.00  0.00    +0.239 C 
BRANCH  34  35
ATOM     35  C   UNL A   1     -30.065  -1.377  23.573  0.00  0.00    +0.190 C 
BRANCH  35  36
ATOM     36  O   UNL A   1     -30.729  -1.878  24.721  0.00  0.00    -0.341 OA
BRANCH  36  46
ATOM     37  N   UNL A   1     -34.273  -1.768  26.927  0.00  0.00    -0.172 NA
ATOM     38  C   UNL A   1     -34.361  -2.554  28.210  0.00  0.00    +0.261 C 
ATOM     39  C   UNL A   1     -33.021  -0.723  29.429  0.00  0.00    +0.176 C 
ATOM     40  C   UNL A   1     -32.974  -1.909  26.127  0.00  0.00    +0.273 C 
ATOM     41  C   UNL A   1     -31.513  -0.945  29.642  0.00  0.00    +0.177 C 
ATOM     42  C   UNL A   1     -31.959   0.568  25.910  0.00  0.00    +0.184 C 
ATOM     43  O   UNL A   1     -31.659   1.230  27.193  0.00  0.00    -0.324 OA
ATOM     44  O   UNL A   1     -32.409  -3.027  26.175  0.00  0.00    -0.271 OA
ATOM     45  O   UNL A   1     -33.868  -1.919  29.407  0.00  0.00    -0.331 OA
ATOM     46  C   UNL A   1     -31.822  -0.944  25.291  0.00  0.00    +0.222 C 
ATOM     47  O   UNL A   1     -30.744  -0.732  28.451  0.00  0.00    -0.324 OA
ATOM     48  C   UNL A   1     -30.673   0.660  28.083  0.00  0.00    +0.294 C 
ENDBRANCH  36  46
ENDBRANCH  35  36
ENDBRANCH  34  35
ENDBRANCH  33  34
ENDBRANCH   5  33
TORSDOF 10
