REMARK  Name = outputs/IAG933/test6/raw/output_8889_IAG933_linker_design_.xyz
REMARK  12 active torsions:
REMARK  status: ('A' for Active; 'I' for Inactive)
REMARK    1  A    between atoms: C_1  and  C_2
REMARK    2  A    between atoms: C_1  and  C_8
REMARK    3  A    between atoms: C_1  and  N_31
REMARK    4  A    between atoms: C_13  and  C_33
REMARK    5  A    between atoms: C_14  and  C_15
REMARK    6  A    between atoms: C_21  and  O_22
REMARK    7  A    between atoms: O_22  and  C_23
REMARK    8  A    between atoms: C_23  and  C_24
REMARK    9  A    between atoms: C_28  and  N_31
REMARK   10  A    between atoms: C_29  and  N_31
REMARK   11  A    between atoms: C_29  and  C_34
REMARK   12  A    between atoms: C_34  and  N_38
REMARK                            x       y       z     vdW  Elec       q    Type
REMARK                         _______ _______ _______ _____ _____    ______ ____
ROOT
ATOM      1  C   UNL A   1     -24.534   0.119  28.103  0.00  0.00    +0.078 C 
ATOM      2  C   UNL A   1     -24.400   1.310  27.144  0.00  0.00    +0.139 C 
ATOM      3  O   UNL A   1     -23.215   2.727  25.585  0.00  0.00    -0.250 OA
ATOM      4  C   UNL A   1     -23.204   2.002  26.624  0.00  0.00    +0.322 C 
ATOM      5  O   UNL A   1     -21.989   1.822  27.177  0.00  0.00    -0.452 OA
ATOM      6  C   UNL A   1     -22.263   1.129  28.380  0.00  0.00    +0.170 C 
ATOM      7  C   UNL A   1     -22.384   0.246  29.675  0.00  0.00    +0.049 C 
ATOM      8  C   UNL A   1     -23.065  -0.279  28.299  0.00  0.00    +0.059 C 
ENDROOT
BRANCH   2   9
ATOM      9  C   UNL A   1     -25.688   1.614  26.461  0.00  0.00    +0.028 C 
ATOM     10  C   UNL A   1     -26.250   2.920  26.395  0.00  0.00    +0.073 C 
ATOM     11  C   UNL A   1     -27.438   3.091  25.645  0.00  0.00    +0.106 C 
ATOM     12  N   UNL A   1     -28.075   2.089  25.003  0.00  0.00    -0.208 NA
ATOM     13  C   UNL A   1     -27.543   0.849  25.079  0.00  0.00    +0.253 C 
ATOM     14  C   UNL A   1     -26.354   0.576  25.777  0.00  0.00    +0.190 C 
ATOM     15  F   UNL A   1     -25.860  -0.681  25.795  0.00  0.00    -0.200 F 
BRANCH  10  16
ATOM     16  C   UNL A   1     -25.642   4.093  27.123  0.00  0.00    +0.266 C 
ATOM     17  N   UNL A   1     -25.614   5.252  26.449  0.00  0.00    -0.200 NA
ATOM     18  C   UNL A   1     -25.026   6.479  26.963  0.00  0.00    +0.139 C 
ATOM     19  O   UNL A   1     -25.143   3.966  28.243  0.00  0.00    -0.268 OA
ENDBRANCH  10  16
BRANCH  13  20
ATOM     20  O   UNL A   1     -28.193  -0.208  24.477  0.00  0.00    -0.456 OA
BRANCH  20  21
ATOM     21  C   UNL A   1     -29.460   0.005  23.866  0.00  0.00    +0.243 C 
BRANCH  21  22
ATOM     22  C   UNL A   1     -30.065  -1.377  23.573  0.00  0.00    +0.229 C 
ATOM     23  O   UNL A   1     -30.729  -1.878  24.721  0.00  0.00    -0.216 OA
ENDBRANCH  21  22
ENDBRANCH  20  21
ENDBRANCH  13  20
ENDBRANCH   2   9
BRANCH   1  24
ATOM     24  N   UNL A   1     -25.234   0.281  29.327  0.00  0.00    -0.244 NA
BRANCH  24  25
ATOM     25  C   UNL A   1     -26.544   0.822  29.183  0.00  0.00    +0.229 C 
ATOM     26  O   UNL A   1     -27.379  -0.238  28.632  0.00  0.00    -0.203 OA
BRANCH  25  27
ATOM     27  C   UNL A   1     -27.555   1.440  30.193  0.00  0.00    +0.123 C 
BRANCH  27  29
ATOM     28  C   UNL A   1     -27.777   3.810  30.393  0.00  0.00    +0.072 C 
ATOM     29  N   UNL A   1     -28.286   2.624  29.665  0.00  0.00    -0.269 NA
ATOM     30  C   UNL A   1     -28.869   4.821  30.657  0.00  0.00    +0.017 C 
ATOM     31  C   UNL A   1     -29.930   4.807  29.563  0.00  0.00    +0.003 C 
ATOM     32  C   UNL A   1     -29.704   2.244  29.507  0.00  0.00    +0.072 C 
ATOM     33  C   UNL A   1     -30.628   3.450  29.536  0.00  0.00    +0.017 C 
ENDBRANCH  27  29
ENDBRANCH  25  27
ENDBRANCH  24  25
BRANCH  24  34
ATOM     34  C   UNL A   1     -24.855  -1.012  30.143  0.00  0.00    +0.098 C 
BRANCH  34  35
ATOM     35  C   UNL A   1     -24.973  -2.505  29.788  0.00  0.00    -0.006 C 
ATOM     36  C   UNL A   1     -23.906  -3.173  29.146  0.00  0.00    -0.003 C 
ATOM     37  C   UNL A   1     -23.989  -4.549  28.853  0.00  0.00    -0.000 C 
ATOM     38  C   UNL A   1     -25.137  -5.280  29.205  0.00  0.00    -0.000 C 
ATOM     39  C   UNL A   1     -26.232  -4.611  29.784  0.00  0.00    -0.000 C 
ATOM     40  C   UNL A   1     -26.155  -3.232  30.065  0.00  0.00    -0.003 C 
ENDBRANCH  34  35
BRANCH  34  41
ATOM     41  C   UNL A   1     -25.387  -0.679  31.571  0.00  0.00    +0.092 C 
ATOM     42  C   UNL A   1     -25.189   0.773  32.028  0.00  0.00    +0.021 C 
ATOM     43  C   UNL A   1     -25.336   0.684  33.544  0.00  0.00    +0.020 C 
ATOM     44  C   UNL A   1     -24.829  -0.715  33.905  0.00  0.00    +0.089 C 
ATOM     45  N   UNL A   1     -24.758  -1.481  32.646  0.00  0.00    -0.218 NA
ENDBRANCH  34  41
ENDBRANCH  24  34
ENDBRANCH   1  24
TORSDOF 12
