REMARK  Name = outputs/IAG933/test6/raw/output_889_IAG933_linker_design_.xyz
REMARK  13 active torsions:
REMARK  status: ('A' for Active; 'I' for Inactive)
REMARK    1  A    between atoms: C_1  and  C_2
REMARK    2  A    between atoms: C_1  and  C_8
REMARK    3  A    between atoms: C_1  and  C_34
REMARK    4  A    between atoms: C_13  and  C_39
REMARK    5  A    between atoms: C_14  and  C_15
REMARK    6  A    between atoms: C_21  and  O_22
REMARK    7  A    between atoms: O_22  and  C_23
REMARK    8  A    between atoms: C_23  and  C_24
REMARK    9  A    between atoms: C_30  and  C_37
REMARK   10  A    between atoms: C_30  and  N_40
REMARK   11  A    between atoms: N_31  and  C_42
REMARK   12  A    between atoms: C_37  and  C_38
REMARK   13  A    between atoms: C_38  and  C_42
REMARK                            x       y       z     vdW  Elec       q    Type
REMARK                         _______ _______ _______ _____ _____    ______ ____
ROOT
ATOM      1  C   UNL A   1     -24.395  -0.235  27.783  0.00  0.00    +0.025 C 
ATOM      2  C   UNL A   1     -23.077   1.676  26.360  0.00  0.00    +0.006 C 
ATOM      3  C   UNL A   1     -24.397  -0.079  29.271  0.00  0.00    +0.080 C 
ATOM      4  N   UNL A   1     -23.331   1.115  29.355  0.00  0.00    -0.293 N 
ATOM      5  C   UNL A   1     -24.437   1.059  26.932  0.00  0.00    +0.027 C 
ATOM      6  N   UNL A   1     -24.445   2.821  30.487  0.00  0.00    -0.254 NA
ATOM      7  C   UNL A   1     -22.084   1.636  28.606  0.00  0.00    +0.092 C 
ATOM      8  C   UNL A   1     -23.535   1.925  30.533  0.00  0.00    +0.159 C 
ATOM      9  C   UNL A   1     -21.837   1.292  27.208  0.00  0.00    +0.022 C 
ENDROOT
BRANCH   5  10
ATOM     10  C   UNL A   1     -25.688   1.614  26.461  0.00  0.00    +0.016 C 
ATOM     11  C   UNL A   1     -26.250   2.920  26.395  0.00  0.00    +0.073 C 
ATOM     12  C   UNL A   1     -27.438   3.091  25.645  0.00  0.00    +0.106 C 
ATOM     13  N   UNL A   1     -28.075   2.089  25.003  0.00  0.00    -0.208 NA
ATOM     14  C   UNL A   1     -27.543   0.849  25.079  0.00  0.00    +0.253 C 
ATOM     15  C   UNL A   1     -26.354   0.576  25.777  0.00  0.00    +0.189 C 
ATOM     16  F   UNL A   1     -25.860  -0.681  25.795  0.00  0.00    -0.200 F 
BRANCH  11  17
ATOM     17  C   UNL A   1     -25.642   4.093  27.123  0.00  0.00    +0.266 C 
ATOM     18  N   UNL A   1     -25.614   5.252  26.449  0.00  0.00    -0.200 NA
ATOM     19  C   UNL A   1     -25.026   6.479  26.963  0.00  0.00    +0.139 C 
ATOM     20  O   UNL A   1     -25.143   3.966  28.243  0.00  0.00    -0.268 OA
ENDBRANCH  11  17
BRANCH  14  21
ATOM     21  O   UNL A   1     -28.193  -0.208  24.477  0.00  0.00    -0.456 OA
BRANCH  21  22
ATOM     22  C   UNL A   1     -29.460   0.005  23.866  0.00  0.00    +0.243 C 
BRANCH  22  23
ATOM     23  C   UNL A   1     -30.065  -1.377  23.573  0.00  0.00    +0.229 C 
ATOM     24  O   UNL A   1     -30.729  -1.878  24.721  0.00  0.00    -0.216 OA
ENDBRANCH  22  23
ENDBRANCH  21  22
ENDBRANCH  14  21
ENDBRANCH   5  10
BRANCH   3  25
ATOM     25  C   UNL A   1     -24.855  -1.012  30.143  0.00  0.00    +0.057 C 
BRANCH  25  26
ATOM     26  C   UNL A   1     -24.973  -2.505  29.788  0.00  0.00    -0.019 C 
ATOM     27  C   UNL A   1     -23.906  -3.173  29.146  0.00  0.00    -0.004 C 
ATOM     28  C   UNL A   1     -23.989  -4.549  28.853  0.00  0.00    -0.000 C 
ATOM     29  C   UNL A   1     -25.137  -5.280  29.205  0.00  0.00    -0.000 C 
ATOM     30  C   UNL A   1     -26.232  -4.611  29.784  0.00  0.00    -0.000 C 
ATOM     31  C   UNL A   1     -26.155  -3.232  30.065  0.00  0.00    -0.004 C 
ENDBRANCH  25  26
BRANCH  25  32
ATOM     32  C   UNL A   1     -25.387  -0.679  31.571  0.00  0.00    +0.078 C 
ATOM     33  C   UNL A   1     -25.189   0.773  32.028  0.00  0.00    +0.019 C 
ATOM     34  C   UNL A   1     -25.336   0.684  33.544  0.00  0.00    +0.020 C 
ATOM     35  C   UNL A   1     -24.829  -0.715  33.905  0.00  0.00    +0.089 C 
ATOM     36  N   UNL A   1     -24.758  -1.481  32.646  0.00  0.00    -0.219 NA
ENDBRANCH  25  32
ENDBRANCH   3  25
BRANCH   6  37
ATOM     37  C   UNL A   1     -24.678   3.797  31.563  0.00  0.00    +0.127 C 
BRANCH  37  38
ATOM     38  C   UNL A   1     -25.387   5.015  30.967  0.00  0.00    +0.028 C 
BRANCH  38  39
ATOM     39  C   UNL A   1     -25.198   6.489  31.150  0.00  0.00    +0.019 C 
BRANCH  39  40
ATOM     40  C   UNL A   1     -25.382   7.147  32.528  0.00  0.00    +0.074 C 
BRANCH  40  42
ATOM     41  C   UNL A   1     -23.355   5.985  33.276  0.00  0.00    +0.220 C 
ATOM     42  N   UNL A   1     -24.185   7.125  33.400  0.00  0.00    -0.245 NA
ATOM     43  C   UNL A   1     -22.183   7.660  32.330  0.00  0.00    +0.161 C 
ATOM     44  O   UNL A   1     -22.355   6.209  32.298  0.00  0.00    -0.336 OA
ATOM     45  C   UNL A   1     -23.363   8.326  33.132  0.00  0.00    +0.106 C 
ENDBRANCH  40  42
ENDBRANCH  39  40
ENDBRANCH  38  39
ENDBRANCH  37  38
ENDBRANCH   6  37
TORSDOF 13
