REMARK  Name = outputs/IAG933/test6/raw/output_8893_IAG933_linker_design_.xyz
REMARK  13 active torsions:
REMARK  status: ('A' for Active; 'I' for Inactive)
REMARK    1  A    between atoms: C_1  and  C_2
REMARK    2  A    between atoms: C_1  and  C_8
REMARK    3  A    between atoms: C_1  and  C_34
REMARK    4  A    between atoms: C_13  and  C_32
REMARK    5  A    between atoms: C_14  and  C_15
REMARK    6  A    between atoms: C_21  and  O_22
REMARK    7  A    between atoms: O_22  and  C_23
REMARK    8  A    between atoms: C_23  and  C_24
REMARK    9  A    between atoms: O_28  and  C_30
REMARK   10  A    between atoms: O_28  and  C_41
REMARK   11  A    between atoms: C_31  and  C_34
REMARK   12  A    between atoms: C_34  and  N_36
REMARK   13  A    between atoms: O_35  and  C_41
REMARK                            x       y       z     vdW  Elec       q    Type
REMARK                         _______ _______ _______ _____ _____    ______ ____
ROOT
ATOM      1  C   UNL A   1     -22.021   1.760  27.173  0.00  0.00    +0.015 C 
ATOM      2  C   UNL A   1     -24.375   1.273  27.151  0.00  0.00    +0.138 C 
ATOM      3  C   UNL A   1     -21.879   1.019  28.340  0.00  0.00    +0.056 C 
ATOM      4  N   UNL A   1     -24.281   0.537  28.375  0.00  0.00    -0.268 N 
ATOM      5  C   UNL A   1     -23.180   1.653  26.486  0.00  0.00    +0.205 C 
ATOM      6  F   UNL A   1     -23.032   1.749  25.104  0.00  0.00    -0.230 F 
ATOM      7  O   UNL A   1     -22.660  -0.272  29.983  0.00  0.00    -0.270 OA
ATOM      8  C   UNL A   1     -22.997   0.390  28.940  0.00  0.00    +0.249 C 
ENDROOT
BRANCH   2   9
ATOM      9  C   UNL A   1     -25.688   1.614  26.461  0.00  0.00    +0.037 C 
ATOM     10  C   UNL A   1     -26.250   2.920  26.395  0.00  0.00    +0.074 C 
ATOM     11  C   UNL A   1     -27.438   3.091  25.645  0.00  0.00    +0.106 C 
ATOM     12  N   UNL A   1     -28.075   2.089  25.003  0.00  0.00    -0.208 NA
ATOM     13  C   UNL A   1     -27.543   0.849  25.079  0.00  0.00    +0.253 C 
ATOM     14  C   UNL A   1     -26.354   0.576  25.777  0.00  0.00    +0.191 C 
ATOM     15  F   UNL A   1     -25.860  -0.681  25.795  0.00  0.00    -0.200 F 
BRANCH  10  16
ATOM     16  C   UNL A   1     -25.642   4.093  27.123  0.00  0.00    +0.266 C 
ATOM     17  N   UNL A   1     -25.614   5.252  26.449  0.00  0.00    -0.200 NA
ATOM     18  C   UNL A   1     -25.026   6.479  26.963  0.00  0.00    +0.139 C 
ATOM     19  O   UNL A   1     -25.143   3.966  28.243  0.00  0.00    -0.268 OA
ENDBRANCH  10  16
BRANCH  13  20
ATOM     20  O   UNL A   1     -28.193  -0.208  24.477  0.00  0.00    -0.456 OA
BRANCH  20  21
ATOM     21  C   UNL A   1     -29.460   0.005  23.866  0.00  0.00    +0.243 C 
BRANCH  21  22
ATOM     22  C   UNL A   1     -30.065  -1.377  23.573  0.00  0.00    +0.229 C 
ATOM     23  O   UNL A   1     -30.729  -1.878  24.721  0.00  0.00    -0.216 OA
ENDBRANCH  21  22
ENDBRANCH  20  21
ENDBRANCH  13  20
ENDBRANCH   2   9
BRANCH   4  24
ATOM     24  C   UNL A   1     -25.492  -0.129  29.057  0.00  0.00    +0.106 C 
BRANCH  24  26
ATOM     25  C   UNL A   1     -27.612   1.336  29.212  0.00  0.00    +0.117 C 
ATOM     26  C   UNL A   1     -26.879   0.140  28.738  0.00  0.00    +0.026 C 
ATOM     27  C   UNL A   1     -29.077   1.355  28.916  0.00  0.00    +0.072 C 
BRANCH  25  28
ATOM     28  O   UNL A   1     -27.078   2.307  30.000  0.00  0.00    -0.453 OA
BRANCH  28  29
ATOM     29  C   UNL A   1     -27.462   3.580  30.404  0.00  0.00    +0.361 C 
BRANCH  29  30
ATOM     30  O   UNL A   1     -28.802   3.779  30.597  0.00  0.00    -0.313 OA
ATOM     31  C   UNL A   1     -29.314   4.949  29.943  0.00  0.00    +0.178 C 
ENDBRANCH  29  30
ENDBRANCH  28  29
ENDBRANCH  25  28
ENDBRANCH  24  26
BRANCH  24  32
ATOM     32  C   UNL A   1     -24.855  -1.012  30.143  0.00  0.00    +0.061 C 
BRANCH  32  33
ATOM     33  C   UNL A   1     -24.973  -2.505  29.788  0.00  0.00    -0.019 C 
ATOM     34  C   UNL A   1     -23.906  -3.173  29.146  0.00  0.00    -0.004 C 
ATOM     35  C   UNL A   1     -23.989  -4.549  28.853  0.00  0.00    -0.000 C 
ATOM     36  C   UNL A   1     -25.137  -5.280  29.205  0.00  0.00    -0.000 C 
ATOM     37  C   UNL A   1     -26.232  -4.611  29.784  0.00  0.00    -0.000 C 
ATOM     38  C   UNL A   1     -26.155  -3.232  30.065  0.00  0.00    -0.004 C 
ENDBRANCH  32  33
BRANCH  32  39
ATOM     39  C   UNL A   1     -25.387  -0.679  31.571  0.00  0.00    +0.079 C 
ATOM     40  C   UNL A   1     -25.189   0.773  32.028  0.00  0.00    +0.019 C 
ATOM     41  C   UNL A   1     -25.336   0.684  33.544  0.00  0.00    +0.020 C 
ATOM     42  C   UNL A   1     -24.829  -0.715  33.905  0.00  0.00    +0.089 C 
ATOM     43  N   UNL A   1     -24.758  -1.481  32.646  0.00  0.00    -0.219 NA
ENDBRANCH  32  39
ENDBRANCH  24  32
ENDBRANCH   4  24
TORSDOF 13
