REMARK  Name = outputs/IAG933/test6/raw/output_8896_IAG933_linker_design_.xyz
REMARK  12 active torsions:
REMARK  status: ('A' for Active; 'I' for Inactive)
REMARK    1  A    between atoms: C_1  and  C_2
REMARK    2  A    between atoms: C_1  and  C_8
REMARK    3  A    between atoms: C_1  and  C_46
REMARK    4  A    between atoms: C_13  and  C_45
REMARK    5  A    between atoms: C_14  and  C_15
REMARK    6  A    between atoms: C_21  and  O_22
REMARK    7  A    between atoms: O_22  and  C_23
REMARK    8  A    between atoms: C_23  and  C_24
REMARK    9  A    between atoms: C_30  and  N_41
REMARK   10  A    between atoms: C_30  and  C_48
REMARK   11  A    between atoms: C_33  and  C_46
REMARK   12  A    between atoms: C_38  and  C_46
REMARK                            x       y       z     vdW  Elec       q    Type
REMARK                         _______ _______ _______ _____ _____    ______ ____
ROOT
ATOM      1  C   UNL A   1     -25.297  -0.122  29.069  0.00  0.00    +0.044 C 
ENDROOT
BRANCH   1   6
ATOM      2  N   UNL A   1     -27.697  -0.562  28.786  0.00  0.00    -0.217 NA
ATOM      3  C   UNL A   1     -28.503   1.856  30.108  0.00  0.00    +0.143 C 
ATOM      4  C   UNL A   1     -31.230   2.026  30.590  0.00  0.00    +0.074 C 
ATOM      5  O   UNL A   1     -28.709   3.203  29.660  0.00  0.00    -0.224 OA
ATOM      6  C   UNL A   1     -26.717   0.312  29.048  0.00  0.00    +0.080 C 
ATOM      7  C   UNL A   1     -29.521   0.700  29.417  0.00  0.00    +0.105 C 
ATOM      8  N   UNL A   1     -30.653   1.570  29.292  0.00  0.00    -0.245 NA
ATOM      9  C   UNL A   1     -26.988   1.585  29.809  0.00  0.00    +0.050 C 
ATOM     10  C   UNL A   1     -28.957  -0.169  28.193  0.00  0.00    +0.107 C 
ATOM     11  C   UNL A   1     -30.365   1.447  31.793  0.00  0.00    +0.020 C 
ATOM     12  C   UNL A   1     -28.839   1.700  31.590  0.00  0.00    +0.033 C 
BRANCH   8  13
ATOM     13  C   UNL A   1     -31.131   1.679  27.992  0.00  0.00    +0.232 C 
ATOM     14  O   UNL A   1     -30.970   0.813  26.886  0.00  0.00    -0.203 OA
BRANCH  13  15
ATOM     15  C   UNL A   1     -30.826   3.051  27.369  0.00  0.00    +0.159 C 
ATOM     16  N   UNL A   1     -31.727   3.245  26.222  0.00  0.00    -0.127 NA
ENDBRANCH  13  15
ENDBRANCH   8  13
ENDBRANCH   1   6
BRANCH   1  19
ATOM     17  C   UNL A   1     -21.850   1.090  28.114  0.00  0.00    -0.000 C 
ATOM     18  C   UNL A   1     -22.037   1.841  26.956  0.00  0.00    -0.000 C 
ATOM     19  C   UNL A   1     -24.228   0.566  28.243  0.00  0.00    -0.021 C 
ATOM     20  C   UNL A   1     -22.928   0.460  28.748  0.00  0.00    -0.004 C 
ATOM     21  C   UNL A   1     -23.295   1.934  26.366  0.00  0.00    -0.000 C 
ATOM     22  C   UNL A   1     -24.345   1.356  27.023  0.00  0.00    -0.001 C 
BRANCH  22  23
ATOM     23  C   UNL A   1     -25.688   1.614  26.461  0.00  0.00    +0.038 C 
ATOM     24  C   UNL A   1     -26.250   2.920  26.395  0.00  0.00    +0.076 C 
ATOM     25  C   UNL A   1     -27.438   3.091  25.645  0.00  0.00    +0.107 C 
ATOM     26  N   UNL A   1     -28.075   2.089  25.003  0.00  0.00    -0.208 NA
ATOM     27  C   UNL A   1     -27.543   0.849  25.079  0.00  0.00    +0.253 C 
ATOM     28  C   UNL A   1     -26.354   0.576  25.777  0.00  0.00    +0.193 C 
ATOM     29  F   UNL A   1     -25.860  -0.681  25.795  0.00  0.00    -0.199 F 
BRANCH  24  30
ATOM     30  C   UNL A   1     -25.642   4.093  27.123  0.00  0.00    +0.266 C 
ATOM     31  N   UNL A   1     -25.614   5.252  26.449  0.00  0.00    -0.200 NA
ATOM     32  C   UNL A   1     -25.026   6.479  26.963  0.00  0.00    +0.139 C 
ATOM     33  O   UNL A   1     -25.143   3.966  28.243  0.00  0.00    -0.268 OA
ENDBRANCH  24  30
BRANCH  27  34
ATOM     34  O   UNL A   1     -28.193  -0.208  24.477  0.00  0.00    -0.456 OA
BRANCH  34  35
ATOM     35  C   UNL A   1     -29.460   0.005  23.866  0.00  0.00    +0.243 C 
BRANCH  35  36
ATOM     36  C   UNL A   1     -30.065  -1.377  23.573  0.00  0.00    +0.229 C 
ATOM     37  O   UNL A   1     -30.729  -1.878  24.721  0.00  0.00    -0.216 OA
ENDBRANCH  35  36
ENDBRANCH  34  35
ENDBRANCH  27  34
ENDBRANCH  22  23
ENDBRANCH   1  19
BRANCH   1  38
ATOM     38  C   UNL A   1     -24.855  -1.012  30.143  0.00  0.00    +0.044 C 
BRANCH  38  39
ATOM     39  C   UNL A   1     -24.973  -2.505  29.788  0.00  0.00    -0.021 C 
ATOM     40  C   UNL A   1     -23.906  -3.173  29.146  0.00  0.00    -0.004 C 
ATOM     41  C   UNL A   1     -23.989  -4.549  28.853  0.00  0.00    -0.000 C 
ATOM     42  C   UNL A   1     -25.137  -5.280  29.205  0.00  0.00    -0.000 C 
ATOM     43  C   UNL A   1     -26.232  -4.611  29.784  0.00  0.00    -0.000 C 
ATOM     44  C   UNL A   1     -26.155  -3.232  30.065  0.00  0.00    -0.004 C 
ENDBRANCH  38  39
BRANCH  38  45
ATOM     45  C   UNL A   1     -25.387  -0.679  31.571  0.00  0.00    +0.077 C 
ATOM     46  C   UNL A   1     -25.189   0.773  32.028  0.00  0.00    +0.019 C 
ATOM     47  C   UNL A   1     -25.336   0.684  33.544  0.00  0.00    +0.020 C 
ATOM     48  C   UNL A   1     -24.829  -0.715  33.905  0.00  0.00    +0.089 C 
ATOM     49  N   UNL A   1     -24.758  -1.481  32.646  0.00  0.00    -0.219 NA
ENDBRANCH  38  45
ENDBRANCH   1  38
TORSDOF 12
