REMARK  Name = outputs/IAG933/test6/raw/output_8897_IAG933_linker_design_.xyz
REMARK  12 active torsions:
REMARK  status: ('A' for Active; 'I' for Inactive)
REMARK    1  A    between atoms: C_1  and  C_2
REMARK    2  A    between atoms: C_1  and  C_8
REMARK    3  A    between atoms: C_9  and  C_43
REMARK    4  A    between atoms: C_13  and  C_30
REMARK    5  A    between atoms: C_14  and  C_15
REMARK    6  A    between atoms: C_21  and  O_22
REMARK    7  A    between atoms: O_22  and  C_23
REMARK    8  A    between atoms: C_23  and  C_24
REMARK    9  A    between atoms: O_29  and  N_31
REMARK   10  A    between atoms: O_29  and  C_41
REMARK   11  A    between atoms: N_31  and  C_43
REMARK   12  A    between atoms: C_42  and  C_43
REMARK                            x       y       z     vdW  Elec       q    Type
REMARK                         _______ _______ _______ _____ _____    ______ ____
ROOT
ATOM      1  C   UNL A   1     -22.282   1.962  25.438  0.00  0.00    +0.302 C 
ATOM      2  C   UNL A   1     -24.246   1.570  26.430  0.00  0.00    +0.148 C 
ATOM      3  C   UNL A   1     -20.498   0.037  27.913  0.00  0.00    +0.211 C 
ATOM      4  O   UNL A   1     -21.642  -1.390  29.349  0.00  0.00    -0.206 OA
ATOM      5  C   UNL A   1     -23.274   1.575  28.549  0.00  0.00    +0.036 C 
ATOM      6  C   UNL A   1     -22.015   1.601  26.679  0.00  0.00    +0.040 C 
ATOM      7  O   UNL A   1     -19.963  -1.129  27.380  0.00  0.00    -0.288 OA
ATOM      8  C   UNL A   1     -20.728   1.214  27.024  0.00  0.00    +0.041 C 
ATOM      9  C   UNL A   1     -23.291   1.468  27.321  0.00  0.00    +0.009 C 
ATOM     10  C   UNL A   1     -22.575   0.789  29.153  0.00  0.00    +0.182 C 
ATOM     11  O   UNL A   1     -23.536   1.786  25.103  0.00  0.00    -0.321 OA
ATOM     12  F   UNL A   1     -21.318   2.338  24.617  0.00  0.00    -0.199 F 
ATOM     13  C   UNL A   1     -21.601  -0.153  28.894  0.00  0.00    +0.271 C 
ENDROOT
BRANCH   2  14
ATOM     14  C   UNL A   1     -25.688   1.614  26.461  0.00  0.00    +0.102 C 
ATOM     15  C   UNL A   1     -26.250   2.920  26.395  0.00  0.00    +0.058 C 
ATOM     16  C   UNL A   1     -27.438   3.091  25.645  0.00  0.00    +0.102 C 
ATOM     17  N   UNL A   1     -28.075   2.089  25.003  0.00  0.00    -0.212 NA
ATOM     18  C   UNL A   1     -27.543   0.849  25.079  0.00  0.00    +0.234 C 
ATOM     19  C   UNL A   1     -26.354   0.576  25.777  0.00  0.00    +0.243 C 
ATOM     20  F   UNL A   1     -25.860  -0.681  25.795  0.00  0.00    -0.227 F 
BRANCH  15  21
ATOM     21  C   UNL A   1     -25.642   4.093  27.123  0.00  0.00    +0.263 C 
ATOM     22  N   UNL A   1     -25.614   5.252  26.449  0.00  0.00    -0.200 NA
ATOM     23  C   UNL A   1     -25.026   6.479  26.963  0.00  0.00    +0.139 C 
ATOM     24  O   UNL A   1     -25.143   3.966  28.243  0.00  0.00    -0.269 OA
ENDBRANCH  15  21
BRANCH  18  25
ATOM     25  O   UNL A   1     -28.193  -0.208  24.477  0.00  0.00    -0.459 OA
BRANCH  25  26
ATOM     26  C   UNL A   1     -29.460   0.005  23.866  0.00  0.00    +0.242 C 
BRANCH  26  27
ATOM     27  C   UNL A   1     -30.065  -1.377  23.573  0.00  0.00    +0.229 C 
ATOM     28  O   UNL A   1     -30.729  -1.878  24.721  0.00  0.00    -0.216 OA
ENDBRANCH  26  27
ENDBRANCH  25  26
ENDBRANCH  18  25
ENDBRANCH   2  14
BRANCH  10  29
ATOM     29  O   UNL A   1     -23.290   1.241  30.231  0.00  0.00    -0.386 OA
BRANCH  29  30
ATOM     30  N   UNL A   1     -24.318   2.257  30.310  0.00  0.00    -0.027 NA
BRANCH  30  31
ATOM     31  C   UNL A   1     -25.347   2.077  31.267  0.00  0.00    +0.147 C 
BRANCH  31  33
ATOM     32  C   UNL A   1     -25.387  -0.679  31.571  0.00  0.00    +0.079 C 
ATOM     33  C   UNL A   1     -25.189   0.773  32.028  0.00  0.00    +0.040 C 
ATOM     34  C   UNL A   1     -25.336   0.684  33.544  0.00  0.00    +0.022 C 
ATOM     35  C   UNL A   1     -24.829  -0.715  33.905  0.00  0.00    +0.089 C 
ATOM     36  N   UNL A   1     -24.758  -1.481  32.646  0.00  0.00    -0.219 NA
BRANCH  32  37
ATOM     37  C   UNL A   1     -24.855  -1.012  30.143  0.00  0.00    +0.044 C 
BRANCH  37  38
ATOM     38  C   UNL A   1     -24.973  -2.505  29.788  0.00  0.00    -0.021 C 
ATOM     39  C   UNL A   1     -23.906  -3.173  29.146  0.00  0.00    -0.004 C 
ATOM     40  C   UNL A   1     -23.989  -4.549  28.853  0.00  0.00    -0.000 C 
ATOM     41  C   UNL A   1     -25.137  -5.280  29.205  0.00  0.00    -0.000 C 
ATOM     42  C   UNL A   1     -26.232  -4.611  29.784  0.00  0.00    -0.000 C 
ATOM     43  C   UNL A   1     -26.155  -3.232  30.065  0.00  0.00    -0.004 C 
ENDBRANCH  37  38
ENDBRANCH  32  37
ENDBRANCH  31  33
BRANCH  31  46
ATOM     44  C   UNL A   1     -26.736   4.044  32.555  0.00  0.00    +0.037 C 
ATOM     45  O   UNL A   1     -24.405   3.624  32.856  0.00  0.00    -0.222 OA
ATOM     46  C   UNL A   1     -25.489   3.239  32.242  0.00  0.00    +0.172 C 
ENDBRANCH  31  46
ENDBRANCH  30  31
ENDBRANCH  29  30
ENDBRANCH  10  29
TORSDOF 12
