REMARK  Name = outputs/IAG933/test6/raw/output_8899_IAG933_linker_design_.xyz
REMARK  10 active torsions:
REMARK  status: ('A' for Active; 'I' for Inactive)
REMARK    1  A    between atoms: C_1  and  C_2
REMARK    2  A    between atoms: C_1  and  C_8
REMARK    3  A    between atoms: C_1  and  N_29
REMARK    4  A    between atoms: C_13  and  N_41
REMARK    5  A    between atoms: C_14  and  C_15
REMARK    6  A    between atoms: C_21  and  O_22
REMARK    7  A    between atoms: O_22  and  C_23
REMARK    8  A    between atoms: C_23  and  C_24
REMARK    9  A    between atoms: N_29  and  C_32
REMARK   10  A    between atoms: N_43  and  C_44
REMARK                            x       y       z     vdW  Elec       q    Type
REMARK                         _______ _______ _______ _____ _____    ______ ____
ROOT
ATOM      1  N   UNL A   1     -25.366   0.006  29.179  0.00  0.00    -0.244 N 
ATOM      2  C   UNL A   1     -26.687   0.384  29.168  0.00  0.00    +0.329 C 
ATOM      3  O   UNL A   1     -26.957   1.589  29.366  0.00  0.00    -0.250 OA
ATOM      4  N   UNL A   1     -27.698  -0.582  29.088  0.00  0.00    -0.162 NA
ENDROOT
BRANCH   4  11
ATOM      5  C   UNL A   1     -29.788  -0.155  30.492  0.00  0.00    +0.051 C 
ATOM      6  C   UNL A   1     -29.966  -0.848  28.195  0.00  0.00    +0.018 C 
ATOM      7  N   UNL A   1     -33.208  -1.667  29.960  0.00  0.00    -0.128 NA
ATOM      8  C   UNL A   1     -31.095  -0.657  30.811  0.00  0.00    +0.026 C 
ATOM      9  C   UNL A   1     -31.317  -1.190  28.458  0.00  0.00    +0.019 C 
ATOM     10  C   UNL A   1     -31.879  -1.165  29.762  0.00  0.00    +0.090 C 
ATOM     11  C   UNL A   1     -29.111  -0.482  29.261  0.00  0.00    +0.081 C 
ATOM     12 BR   UNL A   1     -28.964   1.077  31.709  0.00  0.00    -0.048 Br
ENDBRANCH   4  11
BRANCH   1  15
ATOM     13  C   UNL A   1     -21.976   0.954  28.580  0.00  0.00    +0.005 C 
ATOM     14  C   UNL A   1     -23.300   1.919  26.552  0.00  0.00    +0.092 C 
ATOM     15  C   UNL A   1     -24.284   0.550  28.305  0.00  0.00    +0.154 C 
ATOM     16  C   UNL A   1     -22.000   1.837  27.329  0.00  0.00    +0.022 C 
ATOM     17  C   UNL A   1     -23.074  -0.127  28.429  0.00  0.00    +0.041 C 
ATOM     18  N   UNL A   1     -24.479   1.539  27.293  0.00  0.00    -0.291 N 
BRANCH  18  19
ATOM     19  C   UNL A   1     -25.688   1.614  26.461  0.00  0.00    +0.087 C 
ATOM     20  C   UNL A   1     -26.250   2.920  26.395  0.00  0.00    +0.090 C 
ATOM     21  C   UNL A   1     -27.438   3.091  25.645  0.00  0.00    +0.108 C 
ATOM     22  N   UNL A   1     -28.075   2.089  25.003  0.00  0.00    -0.208 NA
ATOM     23  C   UNL A   1     -27.543   0.849  25.079  0.00  0.00    +0.255 C 
ATOM     24  C   UNL A   1     -26.354   0.576  25.777  0.00  0.00    +0.206 C 
ATOM     25  F   UNL A   1     -25.860  -0.681  25.795  0.00  0.00    -0.198 F 
BRANCH  20  26
ATOM     26  C   UNL A   1     -25.642   4.093  27.123  0.00  0.00    +0.268 C 
ATOM     27  N   UNL A   1     -25.614   5.252  26.449  0.00  0.00    -0.200 NA
ATOM     28  C   UNL A   1     -25.026   6.479  26.963  0.00  0.00    +0.139 C 
ATOM     29  O   UNL A   1     -25.143   3.966  28.243  0.00  0.00    -0.268 OA
ENDBRANCH  20  26
BRANCH  23  30
ATOM     30  O   UNL A   1     -28.193  -0.208  24.477  0.00  0.00    -0.456 OA
BRANCH  30  31
ATOM     31  C   UNL A   1     -29.460   0.005  23.866  0.00  0.00    +0.243 C 
BRANCH  31  32
ATOM     32  C   UNL A   1     -30.065  -1.377  23.573  0.00  0.00    +0.229 C 
ATOM     33  O   UNL A   1     -30.729  -1.878  24.721  0.00  0.00    -0.216 OA
ENDBRANCH  31  32
ENDBRANCH  30  31
ENDBRANCH  23  30
ENDBRANCH  18  19
ENDBRANCH   1  15
BRANCH   1  34
ATOM     34  C   UNL A   1     -24.855  -1.012  30.143  0.00  0.00    +0.117 C 
BRANCH  34  35
ATOM     35  C   UNL A   1     -24.973  -2.505  29.788  0.00  0.00    -0.003 C 
ATOM     36  C   UNL A   1     -23.906  -3.173  29.146  0.00  0.00    -0.003 C 
ATOM     37  C   UNL A   1     -23.989  -4.549  28.853  0.00  0.00    -0.000 C 
ATOM     38  C   UNL A   1     -25.137  -5.280  29.205  0.00  0.00    -0.000 C 
ATOM     39  C   UNL A   1     -26.232  -4.611  29.784  0.00  0.00    -0.000 C 
ATOM     40  C   UNL A   1     -26.155  -3.232  30.065  0.00  0.00    -0.003 C 
ENDBRANCH  34  35
BRANCH  34  41
ATOM     41  C   UNL A   1     -25.387  -0.679  31.571  0.00  0.00    +0.095 C 
ATOM     42  C   UNL A   1     -25.189   0.773  32.028  0.00  0.00    +0.021 C 
ATOM     43  C   UNL A   1     -25.336   0.684  33.544  0.00  0.00    +0.020 C 
ATOM     44  C   UNL A   1     -24.829  -0.715  33.905  0.00  0.00    +0.089 C 
ATOM     45  N   UNL A   1     -24.758  -1.481  32.646  0.00  0.00    -0.217 NA
ENDBRANCH  34  41
ENDBRANCH   1  34
TORSDOF 10
