MODEL 889
MODEL 1
REMARK VINA RESULT:    -5.188      0.000      0.000
REMARK INTER + INTRA:          -5.574
REMARK INTER:                  -5.491
REMARK INTRA:                  -0.083
REMARK UNBOUND:                -0.083
REMARK  Name = No_889-gen_results/8p0m/2024-11-27-11-27-31/
REMARK  1 active torsions:
REMARK  status: ('A' for Active; 'I' for Inactive)
REMARK    1  A    between atoms: C_2  and  C_7
REMARK                            x       y       z     vdW  Elec       q    Type
REMARK                         _______ _______ _______ _____ _____    ______ ____
ROOT
ATOM      1  C   UNL A   1     -23.833  -3.373  28.614  0.00  0.00    +0.004 A 
ATOM      2  C   UNL A   1     -24.513  -2.703  29.059  0.00  0.00    +0.054 A 
ATOM      3  C   UNL A   1     -24.207  -4.836  28.707  0.00  0.00    +0.000 A 
ATOM      4  C   UNL A   1     -25.465  -5.196  29.233  0.00  0.00    +0.000 A 
ATOM      5  C   UNL A   1     -25.877  -2.809  29.626  0.00  0.00    +0.004 A 
ATOM      6  C   UNL A   1     -26.258  -4.140  29.722  0.00  0.00    +0.000 A 
ENDROOT
BRANCH   2   7
ATOM      7  C   UNL A   1     -24.149  -1.142  28.963  0.00  0.00    +0.249 C 
ATOM      8  O   UNL A   1     -24.613  -0.617  28.099  0.00  0.00    -0.270 OA
ATOM      9  N   UNL A   1     -23.693  -0.479  30.147  0.00  0.00    -0.273 N 
ATOM     10  C   UNL A   1     -23.270  -0.983  31.336  0.00  0.00    +0.115 C 
ATOM     11  C   UNL A   1     -23.479   0.976  29.924  0.00  0.00    +0.115 C 
ENDBRANCH   2   7
TORSDOF 1
ENDMDL
ENDMDL
