REMARK  Name = No_890-gen_results/8p0m/2024-11-27-11-27-31/
REMARK  4 active torsions:
REMARK  status: ('A' for Active; 'I' for Inactive)
REMARK    1  A    between atoms: C_2  and  C_8
REMARK    2  A    between atoms: C_6  and  O_7
REMARK    3  A    between atoms: O_7  and  C_22
REMARK    4  A    between atoms: C_9  and  C_16
REMARK                            x       y       z     vdW  Elec       q    Type
REMARK                         _______ _______ _______ _____ _____    ______ ____
ROOT
ATOM      1  C   UNL A   1     -25.660  -0.371  29.304  0.00  0.00    +0.023 C 
ATOM      2  C   UNL A   1     -25.110   0.591  29.997  0.00  0.00    +0.026 C 
ATOM      3  C   UNL A   1     -23.908   1.224  29.734  0.00  0.00    +0.005 C 
ATOM      4  C   UNL A   1     -23.072   0.761  28.693  0.00  0.00    +0.000 C 
ATOM      5  C   UNL A   1     -21.874   1.395  28.359  0.00  0.00    +0.000 C 
ATOM      6  C   UNL A   1     -24.526  -0.732  28.285  0.00  0.00    +0.004 C 
ATOM      7  C   UNL A   1     -23.507  -0.333  27.978  0.00  0.00    +0.000 C 
ATOM      8  C   UNL A   1     -25.746  -1.571  30.302  0.00  0.00    +0.005 C 
ENDROOT
BRANCH   1  10
ATOM      9  C   UNL A   1     -28.016  -0.814  28.878  0.00  0.00    -0.001 A 
ATOM     10  C   UNL A   1     -27.064  -0.119  28.608  0.00  0.00    -0.022 A 
ATOM     11  C   UNL A   1     -27.001   0.691  27.491  0.00  0.00    -0.001 A 
ATOM     12  C   UNL A   1     -28.142   0.828  26.799  0.00  0.00    +0.037 A 
ATOM     13  C   UNL A   1     -29.290  -0.487  28.366  0.00  0.00    +0.037 A 
ATOM     14  C   UNL A   1     -29.276   0.261  27.245  0.00  0.00    +0.145 A 
BRANCH  14  15
ATOM     15  O   UNL A   1     -30.429   0.481  26.548  0.00  0.00    -0.451 OA
BRANCH  15  16
ATOM     16  C   UNL A   1     -31.514   0.890  27.107  0.00  0.00    +0.175 C 
ATOM     17  C   UNL A   1     -32.504   0.359  26.936  0.00  0.00    +0.015 C 
ATOM     18  C   UNL A   1     -33.788   0.671  27.558  0.00  0.00    +0.034 C 
ENDBRANCH  15  16
ENDBRANCH  14  15
ENDBRANCH   1  10
BRANCH   2  19
ATOM     19  C   UNL A   1     -25.908   1.229  31.163  0.00  0.00    -0.022 A 
ATOM     20  C   UNL A   1     -25.864   0.626  32.310  0.00  0.00    -0.004 A 
ATOM     21  C   UNL A   1     -26.190   2.640  31.055  0.00  0.00    -0.004 A 
ATOM     22  C   UNL A   1     -27.043   3.179  31.991  0.00  0.00    -0.000 A 
ATOM     23  C   UNL A   1     -26.616   1.258  33.422  0.00  0.00    -0.000 A 
ATOM     24  C   UNL A   1     -27.093   2.566  33.274  0.00  0.00    -0.000 A 
ENDBRANCH   2  19
TORSDOF 4
