REMARK  Name = outputs/IAG933/test6/raw/output_8909_IAG933_linker_design_.xyz
REMARK  11 active torsions:
REMARK  status: ('A' for Active; 'I' for Inactive)
REMARK    1  A    between atoms: C_1  and  C_2
REMARK    2  A    between atoms: C_1  and  C_8
REMARK    3  A    between atoms: C_1  and  N_33
REMARK    4  A    between atoms: C_21  and  O_22
REMARK    5  A    between atoms: O_22  and  C_23
REMARK    6  A    between atoms: C_23  and  C_24
REMARK    7  A    between atoms: C_28  and  C_35
REMARK    8  A    between atoms: C_31  and  N_33
REMARK    9  A    between atoms: C_32  and  C_42
REMARK   10  A    between atoms: C_34  and  C_36
REMARK   11  A    between atoms: C_34  and  C_40
REMARK                            x       y       z     vdW  Elec       q    Type
REMARK                         _______ _______ _______ _____ _____    ______ ____
ROOT
ATOM      1  C   UNL A   1     -25.688   1.614  26.461  0.00  0.00    +0.035 C 
ATOM      2  C   UNL A   1     -26.250   2.920  26.395  0.00  0.00    +0.074 C 
ATOM      3  C   UNL A   1     -25.642   4.093  27.123  0.00  0.00    +0.229 C 
ATOM      4  N   UNL A   1     -25.614   5.252  26.449  0.00  0.00    -0.235 NA
ATOM      5  C   UNL A   1     -25.026   6.479  26.963  0.00  0.00    +0.155 C 
ATOM      6  O   UNL A   1     -25.143   3.966  28.243  0.00  0.00    -0.416 OA
ATOM      7  C   UNL A   1     -27.438   3.091  25.645  0.00  0.00    +0.107 C 
ATOM      8  N   UNL A   1     -28.075   2.089  25.003  0.00  0.00    -0.208 NA
ATOM      9  C   UNL A   1     -27.543   0.849  25.079  0.00  0.00    +0.253 C 
ATOM     10  C   UNL A   1     -26.354   0.576  25.777  0.00  0.00    +0.193 C 
ATOM     11  F   UNL A   1     -25.860  -0.681  25.795  0.00  0.00    -0.199 F 
ATOM     12  C   UNL A   1     -25.508   0.961  28.800  0.00  0.00    +0.200 C 
ATOM     13  C   UNL A   1     -25.915   3.051  29.345  0.00  0.00    +0.264 C 
ATOM     14  C   UNL A   1     -24.349   1.542  27.061  0.00  0.00    -0.004 C 
ATOM     15  N   UNL A   1     -26.370   1.740  29.198  0.00  0.00    -0.214 NA
ATOM     16  C   UNL A   1     -24.293   1.240  28.293  0.00  0.00    +0.024 C 
ENDROOT
BRANCH  13  17
ATOM     17  C   UNL A   1     -25.635   3.635  30.607  0.00  0.00    +0.226 C 
ATOM     18  O   UNL A   1     -24.732   3.587  31.431  0.00  0.00    -0.286 OA
ATOM     19  C   UNL A   1     -26.829   4.419  30.942  0.00  0.00    +0.082 C 
ENDBRANCH  13  17
BRANCH  16  20
ATOM     20  C   UNL A   1     -22.968   1.229  28.953  0.00  0.00    +0.207 C 
ATOM     21  O   UNL A   1     -22.479   0.249  28.955  0.00  0.00    -0.215 OA
ENDBRANCH  16  20
BRANCH  14  22
ATOM     22  C   UNL A   1     -23.152   1.661  26.259  0.00  0.00    +0.137 C 
ATOM     23 CL   UNL A   1     -23.029   2.977  25.156  0.00  0.00    -0.107 Cl
BRANCH  22  25
ATOM     24  F   UNL A   1     -21.182   1.870  27.497  0.00  0.00    -0.233 F 
ATOM     25  C   UNL A   1     -21.816   1.262  26.620  0.00  0.00    +0.214 C 
ENDBRANCH  22  25
ENDBRANCH  14  22
BRANCH   9  26
ATOM     26  O   UNL A   1     -28.193  -0.208  24.477  0.00  0.00    -0.456 OA
BRANCH  26  27
ATOM     27  C   UNL A   1     -29.460   0.005  23.866  0.00  0.00    +0.243 C 
BRANCH  27  28
ATOM     28  C   UNL A   1     -30.065  -1.377  23.573  0.00  0.00    +0.229 C 
ATOM     29  O   UNL A   1     -30.729  -1.878  24.721  0.00  0.00    -0.216 OA
ENDBRANCH  27  28
ENDBRANCH  26  27
ENDBRANCH   9  26
BRANCH  12  30
ATOM     30  N   UNL A   1     -25.595  -0.377  29.140  0.00  0.00    -0.188 NA
BRANCH  30  31
ATOM     31  C   UNL A   1     -24.855  -1.012  30.143  0.00  0.00    +0.113 C 
BRANCH  31  32
ATOM     32  C   UNL A   1     -24.973  -2.505  29.788  0.00  0.00    -0.005 C 
ATOM     33  C   UNL A   1     -23.906  -3.173  29.146  0.00  0.00    -0.003 C 
ATOM     34  C   UNL A   1     -23.989  -4.549  28.853  0.00  0.00    -0.000 C 
ATOM     35  C   UNL A   1     -25.137  -5.280  29.205  0.00  0.00    -0.000 C 
ATOM     36  C   UNL A   1     -26.232  -4.611  29.784  0.00  0.00    -0.000 C 
ATOM     37  C   UNL A   1     -26.155  -3.232  30.065  0.00  0.00    -0.003 C 
ENDBRANCH  31  32
BRANCH  31  38
ATOM     38  C   UNL A   1     -25.387  -0.679  31.571  0.00  0.00    +0.093 C 
ATOM     39  C   UNL A   1     -25.189   0.773  32.028  0.00  0.00    +0.021 C 
ATOM     40  C   UNL A   1     -25.336   0.684  33.544  0.00  0.00    +0.020 C 
ATOM     41  C   UNL A   1     -24.829  -0.715  33.905  0.00  0.00    +0.089 C 
ATOM     42  N   UNL A   1     -24.758  -1.481  32.646  0.00  0.00    -0.218 NA
ENDBRANCH  31  38
ENDBRANCH  30  31
ENDBRANCH  12  30
TORSDOF 11
