MODEL 890
MODEL 1
REMARK VINA RESULT:    -8.014      0.000      0.000
REMARK INTER + INTRA:         -11.099
REMARK INTER:                  -9.888
REMARK INTRA:                  -1.211
REMARK UNBOUND:                -1.211
REMARK  Name = No_890-gen_results/8p0m/2024-11-27-11-27-31/
REMARK  4 active torsions:
REMARK  status: ('A' for Active; 'I' for Inactive)
REMARK    1  A    between atoms: C_2  and  C_8
REMARK    2  A    between atoms: C_6  and  O_7
REMARK    3  A    between atoms: O_7  and  C_22
REMARK    4  A    between atoms: C_9  and  C_16
REMARK                            x       y       z     vdW  Elec       q    Type
REMARK                         _______ _______ _______ _____ _____    ______ ____
ROOT
ATOM      1  C   UNL A   1     -24.272  -0.203  28.991  0.00  0.00    +0.023 C 
ATOM      2  C   UNL A   1     -24.661  -1.076  29.883  0.00  0.00    +0.026 C 
ATOM      3  C   UNL A   1     -25.047  -0.818  31.187  0.00  0.00    +0.005 C 
ATOM      4  C   UNL A   1     -24.924   0.484  31.722  0.00  0.00    +0.000 C 
ATOM      5  C   UNL A   1     -25.343   0.803  33.014  0.00  0.00    +0.000 C 
ATOM      6  C   UNL A   1     -24.158   1.108  29.842  0.00  0.00    +0.004 C 
ATOM      7  C   UNL A   1     -24.404   1.456  30.895  0.00  0.00    +0.000 C 
ATOM      8  C   UNL A   1     -22.807  -0.626  28.645  0.00  0.00    +0.005 C 
ENDROOT
BRANCH   1  10
ATOM      9  C   UNL A   1     -24.582   0.125  26.599  0.00  0.00    -0.001 A 
ATOM     10  C   UNL A   1     -25.129  -0.013  27.668  0.00  0.00    -0.022 A 
ATOM     11  C   UNL A   1     -26.454   0.302  27.897  0.00  0.00    -0.001 A 
ATOM     12  C   UNL A   1     -27.184   0.595  26.810  0.00  0.00    +0.037 A 
ATOM     13  C   UNL A   1     -25.352   0.144  25.416  0.00  0.00    +0.037 A 
ATOM     14  C   UNL A   1     -26.642   0.496  25.584  0.00  0.00    +0.145 A 
BRANCH  14  15
ATOM     15  O   UNL A   1     -27.438   0.738  24.502  0.00  0.00    -0.451 OA
BRANCH  15  16
ATOM     16  C   UNL A   1     -28.597   0.197  24.355  0.00  0.00    +0.175 C 
ATOM     17  C   UNL A   1     -28.730  -0.767  23.768  0.00  0.00    +0.015 C 
ATOM     18  C   UNL A   1     -29.967  -1.521  23.584  0.00  0.00    +0.034 C 
ENDBRANCH  15  16
ENDBRANCH  14  15
ENDBRANCH   1  10
BRANCH   2  19
ATOM     19  C   UNL A   1     -24.870  -2.550  29.451  0.00  0.00    -0.022 A 
ATOM     20  C   UNL A   1     -23.840  -3.179  28.975  0.00  0.00    -0.004 A 
ATOM     21  C   UNL A   1     -25.974  -3.250  30.061  0.00  0.00    -0.004 A 
ATOM     22  C   UNL A   1     -26.276  -4.496  29.560  0.00  0.00    -0.000 A 
ATOM     23  C   UNL A   1     -24.049  -4.595  28.584  0.00  0.00    -0.000 A 
ATOM     24  C   UNL A   1     -25.219  -5.254  28.984  0.00  0.00    -0.000 A 
ENDBRANCH   2  19
TORSDOF 4
ENDMDL
ENDMDL
