REMARK  Name = outputs/IAG933/test6/raw/output_8911_IAG933_linker_design_.xyz
REMARK  7 active torsions:
REMARK  status: ('A' for Active; 'I' for Inactive)
REMARK    1  A    between atoms: C_1  and  C_2
REMARK    2  A    between atoms: C_13  and  C_32
REMARK    3  A    between atoms: C_14  and  C_15
REMARK    4  A    between atoms: C_21  and  O_22
REMARK    5  A    between atoms: O_22  and  C_23
REMARK    6  A    between atoms: C_23  and  C_24
REMARK    7  A    between atoms: C_28  and  C_34
REMARK                            x       y       z     vdW  Elec       q    Type
REMARK                         _______ _______ _______ _____ _____    ______ ____
ROOT
ATOM      1  O   UNL A   1     -20.613   1.792  28.171  0.00  0.00    -0.271 OA
ATOM      2  C   UNL A   1     -23.334   1.510  26.076  0.00  0.00    +0.289 C 
ATOM      3  C   UNL A   1     -24.410   1.456  26.944  0.00  0.00    +0.134 C 
ATOM      4  C   UNL A   1     -21.822   1.645  27.852  0.00  0.00    +0.272 C 
ATOM      5  C   UNL A   1     -22.965   1.359  28.808  0.00  0.00    +0.200 C 
ATOM      6  N   UNL A   1     -22.107   1.729  26.516  0.00  0.00    -0.138 NA
ATOM      7  O   UNL A   1     -23.402   1.200  24.838  0.00  0.00    -0.266 OA
ATOM      8  N   UNL A   1     -24.172   1.434  28.230  0.00  0.00    -0.257 NA
ENDROOT
BRANCH   5  15
ATOM      9  C   UNL A   1     -24.855  -1.012  30.143  0.00  0.00    +0.111 C 
ATOM     10  C   UNL A   1     -25.387  -0.679  31.571  0.00  0.00    +0.095 C 
ATOM     11  C   UNL A   1     -25.189   0.773  32.028  0.00  0.00    +0.051 C 
ATOM     12  C   UNL A   1     -25.336   0.684  33.544  0.00  0.00    +0.023 C 
ATOM     13  C   UNL A   1     -24.829  -0.715  33.905  0.00  0.00    +0.089 C 
ATOM     14  N   UNL A   1     -24.758  -1.481  32.646  0.00  0.00    -0.218 NA
ATOM     15  C   UNL A   1     -23.224   0.734  30.235  0.00  0.00    +0.135 C 
ATOM     16  O   UNL A   1     -24.315   2.575  31.161  0.00  0.00    -0.222 OA
ATOM     17  C   UNL A   1     -24.372   1.271  31.148  0.00  0.00    +0.172 C 
ATOM     18  N   UNL A   1     -23.534  -0.643  29.896  0.00  0.00    -0.210 NA
BRANCH   9  19
ATOM     19  C   UNL A   1     -24.973  -2.505  29.788  0.00  0.00    -0.005 C 
ATOM     20  C   UNL A   1     -23.906  -3.173  29.146  0.00  0.00    -0.003 C 
ATOM     21  C   UNL A   1     -23.989  -4.549  28.853  0.00  0.00    -0.000 C 
ATOM     22  C   UNL A   1     -25.137  -5.280  29.205  0.00  0.00    -0.000 C 
ATOM     23  C   UNL A   1     -26.232  -4.611  29.784  0.00  0.00    -0.000 C 
ATOM     24  C   UNL A   1     -26.155  -3.232  30.065  0.00  0.00    -0.003 C 
ENDBRANCH   9  19
ENDBRANCH   5  15
BRANCH   3  25
ATOM     25  C   UNL A   1     -25.688   1.614  26.461  0.00  0.00    +0.060 C 
ATOM     26  C   UNL A   1     -26.250   2.920  26.395  0.00  0.00    +0.078 C 
ATOM     27  C   UNL A   1     -27.438   3.091  25.645  0.00  0.00    +0.107 C 
ATOM     28  N   UNL A   1     -28.075   2.089  25.003  0.00  0.00    -0.208 NA
ATOM     29  C   UNL A   1     -27.543   0.849  25.079  0.00  0.00    +0.253 C 
ATOM     30  C   UNL A   1     -26.354   0.576  25.777  0.00  0.00    +0.195 C 
ATOM     31  F   UNL A   1     -25.860  -0.681  25.795  0.00  0.00    -0.199 F 
BRANCH  26  32
ATOM     32  C   UNL A   1     -25.642   4.093  27.123  0.00  0.00    +0.267 C 
ATOM     33  N   UNL A   1     -25.614   5.252  26.449  0.00  0.00    -0.200 NA
ATOM     34  C   UNL A   1     -25.026   6.479  26.963  0.00  0.00    +0.139 C 
ATOM     35  O   UNL A   1     -25.143   3.966  28.243  0.00  0.00    -0.268 OA
ENDBRANCH  26  32
BRANCH  29  36
ATOM     36  O   UNL A   1     -28.193  -0.208  24.477  0.00  0.00    -0.456 OA
BRANCH  36  37
ATOM     37  C   UNL A   1     -29.460   0.005  23.866  0.00  0.00    +0.243 C 
BRANCH  37  38
ATOM     38  C   UNL A   1     -30.065  -1.377  23.573  0.00  0.00    +0.229 C 
ATOM     39  O   UNL A   1     -30.729  -1.878  24.721  0.00  0.00    -0.216 OA
ENDBRANCH  37  38
ENDBRANCH  36  37
ENDBRANCH  29  36
ENDBRANCH   3  25
TORSDOF 7
