REMARK  Name = outputs/IAG933/test6/raw/output_8915_IAG933_linker_design_.xyz
REMARK  12 active torsions:
REMARK  status: ('A' for Active; 'I' for Inactive)
REMARK    1  A    between atoms: C_1  and  C_2
REMARK    2  A    between atoms: C_1  and  C_8
REMARK    3  A    between atoms: C_1  and  N_36
REMARK    4  A    between atoms: C_13  and  C_37
REMARK    5  A    between atoms: C_14  and  C_15
REMARK    6  A    between atoms: C_21  and  O_22
REMARK    7  A    between atoms: O_22  and  C_23
REMARK    8  A    between atoms: C_23  and  C_24
REMARK    9  A    between atoms: C_29  and  N_36
REMARK   10  A    between atoms: N_31  and  C_45
REMARK   11  A    between atoms: C_32  and  N_36
REMARK   12  A    between atoms: C_32  and  C_41
REMARK                            x       y       z     vdW  Elec       q    Type
REMARK                         _______ _______ _______ _____ _____    ______ ____
ROOT
ATOM      1  C   UNL A   1     -23.266   0.554  28.824  0.00  0.00    +0.252 C 
ATOM      2  F   UNL A   1     -22.140   0.407  29.452  0.00  0.00    -0.214 F 
ENDROOT
BRANCH   1   8
ATOM      3  C   UNL A   1     -22.063   1.693  26.991  0.00  0.00    +0.287 C 
ATOM      4  F   UNL A   1     -20.909   1.748  27.689  0.00  0.00    -0.163 F 
ATOM      5  C   UNL A   1     -23.487   1.955  25.383  0.00  0.00    +0.178 C 
ATOM      6  C   UNL A   1     -24.201   1.589  26.454  0.00  0.00    +0.028 C 
ATOM      7  O   UNL A   1     -22.130   2.024  25.696  0.00  0.00    -0.426 OA
ATOM      8  C   UNL A   1     -23.258   1.292  27.515  0.00  0.00    +0.089 C 
BRANCH   6   9
ATOM      9  C   UNL A   1     -25.688   1.614  26.461  0.00  0.00    +0.095 C 
ATOM     10  C   UNL A   1     -26.250   2.920  26.395  0.00  0.00    +0.059 C 
ATOM     11  C   UNL A   1     -27.438   3.091  25.645  0.00  0.00    +0.102 C 
ATOM     12  N   UNL A   1     -28.075   2.089  25.003  0.00  0.00    -0.212 NA
ATOM     13  C   UNL A   1     -27.543   0.849  25.079  0.00  0.00    +0.234 C 
ATOM     14  C   UNL A   1     -26.354   0.576  25.777  0.00  0.00    +0.244 C 
ATOM     15  F   UNL A   1     -25.860  -0.681  25.795  0.00  0.00    -0.227 F 
BRANCH  10  16
ATOM     16  C   UNL A   1     -25.642   4.093  27.123  0.00  0.00    +0.263 C 
ATOM     17  N   UNL A   1     -25.614   5.252  26.449  0.00  0.00    -0.200 NA
ATOM     18  C   UNL A   1     -25.026   6.479  26.963  0.00  0.00    +0.139 C 
ATOM     19  O   UNL A   1     -25.143   3.966  28.243  0.00  0.00    -0.269 OA
ENDBRANCH  10  16
BRANCH  13  20
ATOM     20  O   UNL A   1     -28.193  -0.208  24.477  0.00  0.00    -0.459 OA
BRANCH  20  21
ATOM     21  C   UNL A   1     -29.460   0.005  23.866  0.00  0.00    +0.242 C 
BRANCH  21  22
ATOM     22  C   UNL A   1     -30.065  -1.377  23.573  0.00  0.00    +0.229 C 
ATOM     23  O   UNL A   1     -30.729  -1.878  24.721  0.00  0.00    -0.216 OA
ENDBRANCH  21  22
ENDBRANCH  20  21
ENDBRANCH  13  20
ENDBRANCH   6   9
ENDBRANCH   1   8
BRANCH   1  24
ATOM     24  N   UNL A   1     -24.361   0.127  29.360  0.00  0.00    -0.216 NA
BRANCH  24  25
ATOM     25  C   UNL A   1     -25.582   0.663  28.705  0.00  0.00    +0.222 C 
ATOM     26  N   UNL A   1     -26.631   1.277  29.012  0.00  0.00    -0.236 N 
ATOM     27  O   UNL A   1     -27.276  -0.734  28.445  0.00  0.00    -0.271 OA
ATOM     28  C   UNL A   1     -26.578   0.247  28.676  0.00  0.00    +0.265 C 
BRANCH  26  34
ATOM     29  C   UNL A   1     -30.142   3.227  30.526  0.00  0.00    +0.000 C 
ATOM     30  C   UNL A   1     -28.972   1.257  29.726  0.00  0.00    +0.015 C 
ATOM     31  C   UNL A   1     -30.131   1.856  30.272  0.00  0.00    +0.001 C 
ATOM     32  C   UNL A   1     -27.836   3.340  29.803  0.00  0.00    +0.015 C 
ATOM     33  C   UNL A   1     -28.989   3.957  30.284  0.00  0.00    +0.001 C 
ATOM     34  C   UNL A   1     -27.767   1.982  29.503  0.00  0.00    +0.056 C 
ENDBRANCH  26  34
ENDBRANCH  24  25
BRANCH  24  35
ATOM     35  C   UNL A   1     -24.855  -1.012  30.143  0.00  0.00    +0.100 C 
BRANCH  35  36
ATOM     36  C   UNL A   1     -24.973  -2.505  29.788  0.00  0.00    -0.006 C 
ATOM     37  C   UNL A   1     -23.906  -3.173  29.146  0.00  0.00    -0.003 C 
ATOM     38  C   UNL A   1     -23.989  -4.549  28.853  0.00  0.00    -0.000 C 
ATOM     39  C   UNL A   1     -25.137  -5.280  29.205  0.00  0.00    -0.000 C 
ATOM     40  C   UNL A   1     -26.232  -4.611  29.784  0.00  0.00    -0.000 C 
ATOM     41  C   UNL A   1     -26.155  -3.232  30.065  0.00  0.00    -0.003 C 
ENDBRANCH  35  36
BRANCH  35  42
ATOM     42  C   UNL A   1     -25.387  -0.679  31.571  0.00  0.00    +0.092 C 
ATOM     43  C   UNL A   1     -25.189   0.773  32.028  0.00  0.00    +0.021 C 
ATOM     44  C   UNL A   1     -25.336   0.684  33.544  0.00  0.00    +0.020 C 
ATOM     45  C   UNL A   1     -24.829  -0.715  33.905  0.00  0.00    +0.089 C 
ATOM     46  N   UNL A   1     -24.758  -1.481  32.646  0.00  0.00    -0.218 NA
ENDBRANCH  35  42
ENDBRANCH  24  35
ENDBRANCH   1  24
TORSDOF 12
