REMARK  Name = outputs/IAG933/test6/raw/output_8917_IAG933_linker_design_.xyz
REMARK  13 active torsions:
REMARK  status: ('A' for Active; 'I' for Inactive)
REMARK    1  A    between atoms: C_1  and  C_2
REMARK    2  A    between atoms: C_1  and  C_8
REMARK    3  A    between atoms: C_1  and  C_44
REMARK    4  A    between atoms: C_13  and  N_41
REMARK    5  A    between atoms: C_14  and  C_15
REMARK    6  A    between atoms: C_21  and  O_22
REMARK    7  A    between atoms: O_22  and  C_23
REMARK    8  A    between atoms: C_23  and  C_24
REMARK    9  A    between atoms: C_31  and  C_33
REMARK   10  A    between atoms: C_33  and  C_36
REMARK   11  A    between atoms: C_34  and  C_36
REMARK   12  A    between atoms: C_34  and  N_43
REMARK   13  A    between atoms: C_34  and  C_44
REMARK                            x       y       z     vdW  Elec       q    Type
REMARK                         _______ _______ _______ _____ _____    ______ ____
ROOT
ATOM      1  N   UNL A   1     -22.531  -0.040  29.762  0.00  0.00    -0.114 NA
ATOM      2  C   UNL A   1     -23.378   0.839  29.106  0.00  0.00    +0.140 C 
ENDROOT
BRANCH   2   6
ATOM      3  O   UNL A   1     -23.289   2.209  25.975  0.00  0.00    -0.250 OA
ATOM      4  C   UNL A   1     -23.631   1.527  26.942  0.00  0.00    +0.329 C 
ATOM      5  N   UNL A   1     -24.740   1.243  27.268  0.00  0.00    -0.160 NA
ATOM      6  N   UNL A   1     -22.702   1.407  27.958  0.00  0.00    -0.249 N 
ATOM      7  C   UNL A   1     -21.238   1.595  27.476  0.00  0.00    +0.118 C 
BRANCH   5   8
ATOM      8  C   UNL A   1     -25.688   1.614  26.461  0.00  0.00    +0.113 C 
ATOM      9  C   UNL A   1     -26.250   2.920  26.395  0.00  0.00    +0.092 C 
ATOM     10  C   UNL A   1     -27.438   3.091  25.645  0.00  0.00    +0.108 C 
ATOM     11  N   UNL A   1     -28.075   2.089  25.003  0.00  0.00    -0.208 NA
ATOM     12  C   UNL A   1     -27.543   0.849  25.079  0.00  0.00    +0.255 C 
ATOM     13  C   UNL A   1     -26.354   0.576  25.777  0.00  0.00    +0.208 C 
ATOM     14  F   UNL A   1     -25.860  -0.681  25.795  0.00  0.00    -0.198 F 
BRANCH   9  15
ATOM     15  C   UNL A   1     -25.642   4.093  27.123  0.00  0.00    +0.268 C 
ATOM     16  N   UNL A   1     -25.614   5.252  26.449  0.00  0.00    -0.200 NA
ATOM     17  C   UNL A   1     -25.026   6.479  26.963  0.00  0.00    +0.139 C 
ATOM     18  O   UNL A   1     -25.143   3.966  28.243  0.00  0.00    -0.268 OA
ENDBRANCH   9  15
BRANCH  12  19
ATOM     19  O   UNL A   1     -28.193  -0.208  24.477  0.00  0.00    -0.456 OA
BRANCH  19  20
ATOM     20  C   UNL A   1     -29.460   0.005  23.866  0.00  0.00    +0.243 C 
BRANCH  20  21
ATOM     21  C   UNL A   1     -30.065  -1.377  23.573  0.00  0.00    +0.229 C 
ATOM     22  O   UNL A   1     -30.729  -1.878  24.721  0.00  0.00    -0.216 OA
ENDBRANCH  20  21
ENDBRANCH  19  20
ENDBRANCH  12  19
ENDBRANCH   5   8
ENDBRANCH   2   6
BRANCH   2  23
ATOM     23  C   UNL A   1     -23.660   1.928  30.138  0.00  0.00    +0.041 C 
BRANCH  23  24
ATOM     24  C   UNL A   1     -23.928   2.970  31.012  0.00  0.00    +0.025 C 
BRANCH  24  28
ATOM     25  C   UNL A   1     -25.139   4.272  32.811  0.00  0.00    -0.032 C 
ATOM     26  C   UNL A   1     -27.453   3.144  32.208  0.00  0.00    +0.037 C 
ATOM     27  C   UNL A   1     -27.436   4.347  32.883  0.00  0.00    +0.166 C 
ATOM     28  C   UNL A   1     -25.191   3.412  31.692  0.00  0.00    -0.048 C 
ATOM     29  C   UNL A   1     -28.397   1.976  32.599  0.00  0.00    +0.003 C 
ATOM     30  C   UNL A   1     -26.479   3.019  31.279  0.00  0.00    +0.024 C 
ATOM     31  C   UNL A   1     -26.275   4.798  33.397  0.00  0.00    +0.061 C 
ATOM     32  F   UNL A   1     -28.562   5.019  32.795  0.00  0.00    -0.237 F 
ENDBRANCH  24  28
ENDBRANCH  23  24
ENDBRANCH   2  23
BRANCH   2  33
ATOM     33  C   UNL A   1     -24.608   0.013  28.917  0.00  0.00    +0.042 C 
BRANCH  33  34
ATOM     34  C   UNL A   1     -24.855  -1.012  30.143  0.00  0.00    +0.041 C 
BRANCH  34  35
ATOM     35  C   UNL A   1     -24.973  -2.505  29.788  0.00  0.00    -0.021 C 
ATOM     36  C   UNL A   1     -23.906  -3.173  29.146  0.00  0.00    -0.004 C 
ATOM     37  C   UNL A   1     -23.989  -4.549  28.853  0.00  0.00    -0.000 C 
ATOM     38  C   UNL A   1     -25.137  -5.280  29.205  0.00  0.00    -0.000 C 
ATOM     39  C   UNL A   1     -26.232  -4.611  29.784  0.00  0.00    -0.000 C 
ATOM     40  C   UNL A   1     -26.155  -3.232  30.065  0.00  0.00    -0.004 C 
ENDBRANCH  34  35
BRANCH  34  41
ATOM     41  C   UNL A   1     -25.387  -0.679  31.571  0.00  0.00    +0.077 C 
ATOM     42  C   UNL A   1     -25.189   0.773  32.028  0.00  0.00    +0.019 C 
ATOM     43  C   UNL A   1     -25.336   0.684  33.544  0.00  0.00    +0.020 C 
ATOM     44  C   UNL A   1     -24.829  -0.715  33.905  0.00  0.00    +0.089 C 
ATOM     45  N   UNL A   1     -24.758  -1.481  32.646  0.00  0.00    -0.219 NA
ENDBRANCH  34  41
ENDBRANCH  33  34
ENDBRANCH   2  33
TORSDOF 13
