REMARK  Name = outputs/IAG933/test6/raw/output_8918_IAG933_linker_design_.xyz
REMARK  11 active torsions:
REMARK  status: ('A' for Active; 'I' for Inactive)
REMARK    1  A    between atoms: C_1  and  C_2
REMARK    2  A    between atoms: C_1  and  C_8
REMARK    3  A    between atoms: C_1  and  C_43
REMARK    4  A    between atoms: C_13  and  C_41
REMARK    5  A    between atoms: C_14  and  C_15
REMARK    6  A    between atoms: C_21  and  O_22
REMARK    7  A    between atoms: O_22  and  C_23
REMARK    8  A    between atoms: C_23  and  C_24
REMARK    9  A    between atoms: C_31  and  C_41
REMARK   10  A    between atoms: C_31  and  C_43
REMARK   11  A    between atoms: C_36  and  C_41
REMARK                            x       y       z     vdW  Elec       q    Type
REMARK                         _______ _______ _______ _____ _____    ______ ____
ROOT
ATOM      1  C   UNL A   1     -24.717   1.421  27.384  0.00  0.00    +0.048 C 
ENDROOT
BRANCH   1   8
ATOM      2  C   UNL A   1     -21.314   1.045  28.067  0.00  0.00    +0.193 C 
ATOM      3  C   UNL A   1     -20.782   0.286  29.119  0.00  0.00    +0.141 C 
ATOM      4  C   UNL A   1     -19.839  -0.347  28.223  0.00  0.00    +0.018 C 
ATOM      5  O   UNL A   1     -23.195   2.531  24.881  0.00  0.00    -0.245 OA
ATOM      6  O   UNL A   1     -22.117  -0.600  30.787  0.00  0.00    -0.273 OA
ATOM      7  C   UNL A   1     -22.640   2.062  26.042  0.00  0.00    +0.370 C 
ATOM      8  C   UNL A   1     -23.436   1.422  27.014  0.00  0.00    +0.148 C 
ATOM      9  C   UNL A   1     -21.983  -0.398  29.623  0.00  0.00    +0.252 C 
ATOM     10  O   UNL A   1     -21.399   2.230  26.190  0.00  0.00    -0.248 OA
ATOM     11  O   UNL A   1     -20.844   2.085  27.397  0.00  0.00    -0.287 OA
ATOM     12  C   UNL A   1     -22.733   0.731  27.926  0.00  0.00    +0.097 C 
ATOM     13  N   UNL A   1     -23.084  -0.264  28.731  0.00  0.00    -0.180 NA
ENDBRANCH   1   8
BRANCH   1  14
ATOM     14  C   UNL A   1     -25.688   1.614  26.461  0.00  0.00    +0.017 C 
ATOM     15  C   UNL A   1     -26.250   2.920  26.395  0.00  0.00    +0.073 C 
ATOM     16  C   UNL A   1     -27.438   3.091  25.645  0.00  0.00    +0.106 C 
ATOM     17  N   UNL A   1     -28.075   2.089  25.003  0.00  0.00    -0.208 NA
ATOM     18  C   UNL A   1     -27.543   0.849  25.079  0.00  0.00    +0.253 C 
ATOM     19  C   UNL A   1     -26.354   0.576  25.777  0.00  0.00    +0.189 C 
ATOM     20  F   UNL A   1     -25.860  -0.681  25.795  0.00  0.00    -0.200 F 
BRANCH  15  21
ATOM     21  C   UNL A   1     -25.642   4.093  27.123  0.00  0.00    +0.266 C 
ATOM     22  N   UNL A   1     -25.614   5.252  26.449  0.00  0.00    -0.200 NA
ATOM     23  C   UNL A   1     -25.026   6.479  26.963  0.00  0.00    +0.139 C 
ATOM     24  O   UNL A   1     -25.143   3.966  28.243  0.00  0.00    -0.268 OA
ENDBRANCH  15  21
BRANCH  18  25
ATOM     25  O   UNL A   1     -28.193  -0.208  24.477  0.00  0.00    -0.456 OA
BRANCH  25  26
ATOM     26  C   UNL A   1     -29.460   0.005  23.866  0.00  0.00    +0.243 C 
BRANCH  26  27
ATOM     27  C   UNL A   1     -30.065  -1.377  23.573  0.00  0.00    +0.229 C 
ATOM     28  O   UNL A   1     -30.729  -1.878  24.721  0.00  0.00    -0.216 OA
ENDBRANCH  26  27
ENDBRANCH  25  26
ENDBRANCH  18  25
ENDBRANCH   1  14
BRANCH   1  29
ATOM     29  C   UNL A   1     -25.140   1.138  28.812  0.00  0.00    +0.063 C 
ATOM     30  C   UNL A   1     -25.996   2.096  29.504  0.00  0.00    +0.008 C 
BRANCH  29  32
ATOM     31  O   UNL A   1     -26.402  -0.651  28.358  0.00  0.00    -0.296 OA
ATOM     32  C   UNL A   1     -25.462  -0.095  28.962  0.00  0.00    +0.156 C 
BRANCH  32  33
ATOM     33  C   UNL A   1     -24.855  -1.012  30.143  0.00  0.00    +0.096 C 
BRANCH  33  34
ATOM     34  C   UNL A   1     -24.973  -2.505  29.788  0.00  0.00    -0.014 C 
ATOM     35  C   UNL A   1     -23.906  -3.173  29.146  0.00  0.00    -0.004 C 
ATOM     36  C   UNL A   1     -23.989  -4.549  28.853  0.00  0.00    -0.000 C 
ATOM     37  C   UNL A   1     -25.137  -5.280  29.205  0.00  0.00    -0.000 C 
ATOM     38  C   UNL A   1     -26.232  -4.611  29.784  0.00  0.00    -0.000 C 
ATOM     39  C   UNL A   1     -26.155  -3.232  30.065  0.00  0.00    -0.004 C 
ENDBRANCH  33  34
BRANCH  33  40
ATOM     40  C   UNL A   1     -25.387  -0.679  31.571  0.00  0.00    +0.084 C 
ATOM     41  C   UNL A   1     -25.189   0.773  32.028  0.00  0.00    +0.020 C 
ATOM     42  C   UNL A   1     -25.336   0.684  33.544  0.00  0.00    +0.020 C 
ATOM     43  C   UNL A   1     -24.829  -0.715  33.905  0.00  0.00    +0.089 C 
ATOM     44  N   UNL A   1     -24.758  -1.481  32.646  0.00  0.00    -0.219 NA
ENDBRANCH  33  40
ENDBRANCH  32  33
ENDBRANCH  29  32
ENDBRANCH   1  29
TORSDOF 11
