MODEL 891
MODEL 1
REMARK VINA RESULT:    -6.012      0.000      0.000
REMARK INTER + INTRA:          -7.665
REMARK INTER:                  -7.066
REMARK INTRA:                  -0.598
REMARK UNBOUND:                -0.598
REMARK  Name = No_891-gen_results/8p0m/2024-11-27-11-27-31/
REMARK  3 active torsions:
REMARK  status: ('A' for Active; 'I' for Inactive)
REMARK    1  A    between atoms: C_3  and  C_10
REMARK    2  A    between atoms: C_5  and  C_7
REMARK    3  A    between atoms: C_11  and  C_12
REMARK                            x       y       z     vdW  Elec       q    Type
REMARK                         _______ _______ _______ _____ _____    ______ ____
ROOT
ATOM      1  C   UNL A   1     -21.610   0.701  28.324  0.00  0.00    -0.000 A 
ATOM      2  C   UNL A   1     -22.192  -0.110  29.006  0.00  0.00    -0.000 A 
ATOM      3  C   UNL A   1     -23.531  -0.441  28.882  0.00  0.00    -0.000 A 
ATOM      4  C   UNL A   1     -24.267   0.209  27.847  0.00  0.00    -0.003 A 
ATOM      5  C   UNL A   1     -23.562   0.982  27.006  0.00  0.00    -0.005 A 
ATOM      6  C   UNL A   1     -22.290   1.203  27.174  0.00  0.00    -0.003 A 
ENDROOT
BRANCH   5   7
ATOM      7  C   UNL A   1     -24.359   1.613  25.924  0.00  0.00    +0.114 C 
ATOM      8  N   UNL A   1     -25.075   2.615  26.099  0.00  0.00    -0.128 NA
ATOM      9  C   UNL A   1     -25.147   0.569  25.164  0.00  0.00    +0.025 C 
ENDBRANCH   5   7
BRANCH   3  10
ATOM     10  C   UNL A   1     -24.266  -1.309  29.896  0.00  0.00    -0.000 C 
ATOM     11  C   UNL A   1     -24.344  -2.634  29.654  0.00  0.00    -0.000 C 
BRANCH  11  12
ATOM     12  C   UNL A   1     -23.783  -3.441  28.789  0.00  0.00    -0.005 C 
ATOM     13  C   UNL A   1     -24.221  -4.760  28.469  0.00  0.00    -0.026 C 
ATOM     14  C   UNL A   1     -24.976  -5.328  29.203  0.00  0.00    +0.031 C 
ENDBRANCH  11  12
ENDBRANCH   3  10
TORSDOF 3
ENDMDL
ENDMDL
