REMARK  Name = outputs/IAG933/test6/raw/output_8920_IAG933_linker_design_.xyz
REMARK  12 active torsions:
REMARK  status: ('A' for Active; 'I' for Inactive)
REMARK    1  A    between atoms: C_1  and  C_2
REMARK    2  A    between atoms: C_1  and  C_8
REMARK    3  A    between atoms: C_1  and  N_28
REMARK    4  A    between atoms: C_13  and  C_38
REMARK    5  A    between atoms: C_14  and  C_15
REMARK    6  A    between atoms: C_21  and  O_22
REMARK    7  A    between atoms: O_22  and  C_23
REMARK    8  A    between atoms: C_23  and  C_24
REMARK    9  A    between atoms: N_28  and  C_29
REMARK   10  A    between atoms: N_28  and  C_43
REMARK   11  A    between atoms: C_33  and  C_35
REMARK   12  A    between atoms: C_35  and  C_44
REMARK                            x       y       z     vdW  Elec       q    Type
REMARK                         _______ _______ _______ _____ _____    ______ ____
ROOT
ATOM      1  N   UNL A   1     -25.149  -0.107  29.075  0.00  0.00    -0.260 N 
ENDROOT
BRANCH   1   2
ATOM      2  C   UNL A   1     -24.229   0.680  28.325  0.00  0.00    +0.134 C 
ATOM      3  C   UNL A   1     -22.065   1.977  26.887  0.00  0.00    +0.169 C 
ATOM      4  C   UNL A   1     -23.101   1.298  29.083  0.00  0.00    -0.005 C 
ATOM      5  C   UNL A   1     -24.343   1.467  27.092  0.00  0.00    +0.163 C 
ATOM      6  O   UNL A   1     -23.266   2.055  26.224  0.00  0.00    -0.345 OA
ATOM      7  C   UNL A   1     -22.008   1.790  28.272  0.00  0.00    +0.003 C 
BRANCH   5   8
ATOM      8  C   UNL A   1     -25.688   1.614  26.461  0.00  0.00    +0.045 C 
ATOM      9  C   UNL A   1     -26.250   2.920  26.395  0.00  0.00    +0.075 C 
ATOM     10  C   UNL A   1     -27.438   3.091  25.645  0.00  0.00    +0.106 C 
ATOM     11  N   UNL A   1     -28.075   2.089  25.003  0.00  0.00    -0.208 NA
ATOM     12  C   UNL A   1     -27.543   0.849  25.079  0.00  0.00    +0.253 C 
ATOM     13  C   UNL A   1     -26.354   0.576  25.777  0.00  0.00    +0.191 C 
ATOM     14  F   UNL A   1     -25.860  -0.681  25.795  0.00  0.00    -0.200 F 
BRANCH   9  15
ATOM     15  C   UNL A   1     -25.642   4.093  27.123  0.00  0.00    +0.266 C 
ATOM     16  N   UNL A   1     -25.614   5.252  26.449  0.00  0.00    -0.200 NA
ATOM     17  C   UNL A   1     -25.026   6.479  26.963  0.00  0.00    +0.139 C 
ATOM     18  O   UNL A   1     -25.143   3.966  28.243  0.00  0.00    -0.268 OA
ENDBRANCH   9  15
BRANCH  12  19
ATOM     19  O   UNL A   1     -28.193  -0.208  24.477  0.00  0.00    -0.456 OA
BRANCH  19  20
ATOM     20  C   UNL A   1     -29.460   0.005  23.866  0.00  0.00    +0.243 C 
BRANCH  20  21
ATOM     21  C   UNL A   1     -30.065  -1.377  23.573  0.00  0.00    +0.229 C 
ATOM     22  O   UNL A   1     -30.729  -1.878  24.721  0.00  0.00    -0.216 OA
ENDBRANCH  20  21
ENDBRANCH  19  20
ENDBRANCH  12  19
ENDBRANCH   5   8
ENDBRANCH   1   2
BRANCH   1  23
ATOM     23  C   UNL A   1     -26.652  -0.218  28.977  0.00  0.00    +0.001 C 
ATOM     24  C   UNL A   1     -27.798  -0.673  29.004  0.00  0.00    -0.067 C 
BRANCH  24  25
ATOM     25  C   UNL A   1     -28.991  -1.247  29.034  0.00  0.00    +0.104 C 
BRANCH  25  28
ATOM     26  C   UNL A   1     -31.186  -1.851  28.691  0.00  0.00    +0.003 C 
ATOM     27  C   UNL A   1     -32.459  -1.500  29.070  0.00  0.00    +0.034 C 
ATOM     28  C   UNL A   1     -30.270  -0.831  28.612  0.00  0.00    -0.009 C 
ATOM     29  C   UNL A   1     -32.062   0.812  28.456  0.00  0.00    +0.000 C 
ATOM     30  C   UNL A   1     -30.695   0.493  28.327  0.00  0.00    -0.003 C 
ATOM     31  C   UNL A   1     -32.935  -0.201  28.870  0.00  0.00    +0.007 C 
ATOM     32 BR   UNL A   1     -33.550  -2.831  29.790  0.00  0.00    -0.049 Br
ENDBRANCH  25  28
ENDBRANCH  24  25
ENDBRANCH   1  23
BRANCH   1  33
ATOM     33  C   UNL A   1     -24.855  -1.012  30.143  0.00  0.00    +0.119 C 
BRANCH  33  34
ATOM     34  C   UNL A   1     -24.973  -2.505  29.788  0.00  0.00    -0.002 C 
ATOM     35  C   UNL A   1     -23.906  -3.173  29.146  0.00  0.00    -0.003 C 
ATOM     36  C   UNL A   1     -23.989  -4.549  28.853  0.00  0.00    -0.000 C 
ATOM     37  C   UNL A   1     -25.137  -5.280  29.205  0.00  0.00    -0.000 C 
ATOM     38  C   UNL A   1     -26.232  -4.611  29.784  0.00  0.00    -0.000 C 
ATOM     39  C   UNL A   1     -26.155  -3.232  30.065  0.00  0.00    -0.003 C 
ENDBRANCH  33  34
BRANCH  33  40
ATOM     40  C   UNL A   1     -25.387  -0.679  31.571  0.00  0.00    +0.096 C 
ATOM     41  C   UNL A   1     -25.189   0.773  32.028  0.00  0.00    +0.021 C 
ATOM     42  C   UNL A   1     -25.336   0.684  33.544  0.00  0.00    +0.020 C 
ATOM     43  C   UNL A   1     -24.829  -0.715  33.905  0.00  0.00    +0.089 C 
ATOM     44  N   UNL A   1     -24.758  -1.481  32.646  0.00  0.00    -0.217 NA
ENDBRANCH  33  40
ENDBRANCH   1  33
TORSDOF 12
