REMARK  Name = outputs/IAG933/test6/raw/output_8923_IAG933_linker_design_.xyz
REMARK  8 active torsions:
REMARK  status: ('A' for Active; 'I' for Inactive)
REMARK    1  A    between atoms: C_1  and  C_2
REMARK    2  A    between atoms: C_1  and  C_8
REMARK    3  A    between atoms: C_1  and  N_35
REMARK    4  A    between atoms: C_13  and  C_28
REMARK    5  A    between atoms: C_14  and  C_15
REMARK    6  A    between atoms: C_21  and  O_22
REMARK    7  A    between atoms: O_22  and  C_23
REMARK    8  A    between atoms: C_23  and  C_24
REMARK                            x       y       z     vdW  Elec       q    Type
REMARK                         _______ _______ _______ _____ _____    ______ ____
ROOT
ATOM      1  C   UNL A   1     -24.352   1.317  27.105  0.00  0.00    +0.131 C 
ATOM      2  N   UNL A   1     -21.926  -0.611  30.249  0.00  0.00    +0.220 NA
ATOM      3  C   UNL A   1     -26.569   0.308  28.799  0.00  0.00    +0.542 C 
ATOM      4  O   UNL A   1     -27.307  -0.585  28.291  0.00  0.00    -0.198 OA
ATOM      5  O   UNL A   1     -21.517   1.231  26.974  0.00  0.00    -0.439 OA
ATOM      6  C   UNL A   1     -22.898   1.508  26.486  0.00  0.00    +0.210 C 
ATOM      7  O   UNL A   1     -26.971   1.459  29.039  0.00  0.00    -0.198 OA
ATOM      8  N   UNL A   1     -25.245   0.012  29.133  0.00  0.00    -0.100 N 
ATOM      9  C   UNL A   1     -24.287   0.682  28.426  0.00  0.00    +0.341 C 
ATOM     10  C   UNL A   1     -21.950   0.176  29.260  0.00  0.00    +0.449 C 
ATOM     11  N   UNL A   1     -23.066   1.023  29.107  0.00  0.00    +0.011 NA
ATOM     12 CL   UNL A   1     -22.753   2.358  24.999  0.00  0.00    -0.042 Cl
ATOM     13  C   UNL A   1     -21.117   0.519  28.160  0.00  0.00    +0.214 C 
ATOM     14  C   UNL A   1     -19.944  -0.197  28.063  0.00  0.00    +0.081 C 
ENDROOT
BRANCH   1  15
ATOM     15  C   UNL A   1     -25.688   1.614  26.461  0.00  0.00    +0.049 C 
ATOM     16  C   UNL A   1     -26.250   2.920  26.395  0.00  0.00    +0.077 C 
ATOM     17  C   UNL A   1     -27.438   3.091  25.645  0.00  0.00    +0.107 C 
ATOM     18  N   UNL A   1     -28.075   2.089  25.003  0.00  0.00    -0.208 NA
ATOM     19  C   UNL A   1     -27.543   0.849  25.079  0.00  0.00    +0.253 C 
ATOM     20  C   UNL A   1     -26.354   0.576  25.777  0.00  0.00    +0.193 C 
ATOM     21  F   UNL A   1     -25.860  -0.681  25.795  0.00  0.00    -0.199 F 
BRANCH  16  22
ATOM     22  C   UNL A   1     -25.642   4.093  27.123  0.00  0.00    +0.266 C 
ATOM     23  N   UNL A   1     -25.614   5.252  26.449  0.00  0.00    -0.200 NA
ATOM     24  C   UNL A   1     -25.026   6.479  26.963  0.00  0.00    +0.139 C 
ATOM     25  O   UNL A   1     -25.143   3.966  28.243  0.00  0.00    -0.268 OA
ENDBRANCH  16  22
BRANCH  19  26
ATOM     26  O   UNL A   1     -28.193  -0.208  24.477  0.00  0.00    -0.456 OA
BRANCH  26  27
ATOM     27  C   UNL A   1     -29.460   0.005  23.866  0.00  0.00    +0.243 C 
BRANCH  27  28
ATOM     28  C   UNL A   1     -30.065  -1.377  23.573  0.00  0.00    +0.229 C 
ATOM     29  O   UNL A   1     -30.729  -1.878  24.721  0.00  0.00    -0.216 OA
ENDBRANCH  27  28
ENDBRANCH  26  27
ENDBRANCH  19  26
ENDBRANCH   1  15
BRANCH   8  30
ATOM     30  C   UNL A   1     -24.855  -1.012  30.143  0.00  0.00    +0.209 C 
BRANCH  30  31
ATOM     31  C   UNL A   1     -24.973  -2.505  29.788  0.00  0.00    +0.022 C 
ATOM     32  C   UNL A   1     -23.906  -3.173  29.146  0.00  0.00    -0.000 C 
ATOM     33  C   UNL A   1     -23.989  -4.549  28.853  0.00  0.00    -0.000 C 
ATOM     34  C   UNL A   1     -25.137  -5.280  29.205  0.00  0.00    -0.000 C 
ATOM     35  C   UNL A   1     -26.232  -4.611  29.784  0.00  0.00    -0.000 C 
ATOM     36  C   UNL A   1     -26.155  -3.232  30.065  0.00  0.00    -0.000 C 
ENDBRANCH  30  31
BRANCH  30  37
ATOM     37  C   UNL A   1     -25.387  -0.679  31.571  0.00  0.00    +0.120 C 
ATOM     38  C   UNL A   1     -25.189   0.773  32.028  0.00  0.00    +0.023 C 
ATOM     39  C   UNL A   1     -25.336   0.684  33.544  0.00  0.00    +0.020 C 
ATOM     40  C   UNL A   1     -24.829  -0.715  33.905  0.00  0.00    +0.089 C 
ATOM     41  N   UNL A   1     -24.758  -1.481  32.646  0.00  0.00    -0.215 NA
ENDBRANCH  30  37
ENDBRANCH   8  30
TORSDOF 8
