REMARK  Name = outputs/IAG933/test6/raw/output_8927_IAG933_linker_design_.xyz
REMARK  12 active torsions:
REMARK  status: ('A' for Active; 'I' for Inactive)
REMARK    1  A    between atoms: C_1  and  C_2
REMARK    2  A    between atoms: C_1  and  C_8
REMARK    3  A    between atoms: C_1  and  C_33
REMARK    4  A    between atoms: C_13  and  N_37
REMARK    5  A    between atoms: C_14  and  C_15
REMARK    6  A    between atoms: C_21  and  O_22
REMARK    7  A    between atoms: O_22  and  C_23
REMARK    8  A    between atoms: C_23  and  C_24
REMARK    9  A    between atoms: N_28  and  C_33
REMARK   10  A    between atoms: O_30  and  C_36
REMARK   11  A    between atoms: C_33  and  C_42
REMARK   12  A    between atoms: C_35  and  C_36
REMARK                            x       y       z     vdW  Elec       q    Type
REMARK                         _______ _______ _______ _____ _____    ______ ____
ROOT
ATOM      1  N   UNL A   1     -22.232  -0.059  29.426  0.00  0.00    -0.123 NA
ATOM      2  O   UNL A   1     -21.050   1.887  27.440  0.00  0.00    -0.283 OA
ATOM      3  C   UNL A   1     -22.991   0.595  28.471  0.00  0.00    +0.144 A 
ATOM      4  N   UNL A   1     -24.499   1.285  27.108  0.00  0.00    -0.293 N 
ATOM      5 CL   UNL A   1     -22.992   2.468  25.143  0.00  0.00    -0.059 Cl
ATOM      6  C   UNL A   1     -23.339   1.718  26.632  0.00  0.00    +0.163 A 
ATOM      7  C   UNL A   1     -22.285   1.444  27.503  0.00  0.00    +0.240 A 
ATOM      8  C   UNL A   1     -24.325   0.542  28.261  0.00  0.00    +0.085 A 
ENDROOT
BRANCH   4   9
ATOM      9  C   UNL A   1     -25.688   1.614  26.461  0.00  0.00    +0.103 C 
ATOM     10  C   UNL A   1     -26.250   2.920  26.395  0.00  0.00    +0.093 C 
ATOM     11  C   UNL A   1     -27.438   3.091  25.645  0.00  0.00    +0.108 C 
ATOM     12  N   UNL A   1     -28.075   2.089  25.003  0.00  0.00    -0.208 NA
ATOM     13  C   UNL A   1     -27.543   0.849  25.079  0.00  0.00    +0.255 C 
ATOM     14  C   UNL A   1     -26.354   0.576  25.777  0.00  0.00    +0.209 C 
ATOM     15  F   UNL A   1     -25.860  -0.681  25.795  0.00  0.00    -0.198 F 
BRANCH  10  16
ATOM     16  C   UNL A   1     -25.642   4.093  27.123  0.00  0.00    +0.268 C 
ATOM     17  N   UNL A   1     -25.614   5.252  26.449  0.00  0.00    -0.200 NA
ATOM     18  C   UNL A   1     -25.026   6.479  26.963  0.00  0.00    +0.139 C 
ATOM     19  O   UNL A   1     -25.143   3.966  28.243  0.00  0.00    -0.268 OA
ENDBRANCH  10  16
BRANCH  13  20
ATOM     20  O   UNL A   1     -28.193  -0.208  24.477  0.00  0.00    -0.456 OA
BRANCH  20  21
ATOM     21  C   UNL A   1     -29.460   0.005  23.866  0.00  0.00    +0.243 C 
BRANCH  21  22
ATOM     22  C   UNL A   1     -30.065  -1.377  23.573  0.00  0.00    +0.229 C 
ATOM     23  O   UNL A   1     -30.729  -1.878  24.721  0.00  0.00    -0.216 OA
ENDBRANCH  21  22
ENDBRANCH  20  21
ENDBRANCH  13  20
ENDBRANCH   4   9
BRANCH   8  24
ATOM     24  C   UNL A   1     -25.302  -0.110  29.015  0.00  0.00    +0.148 C 
BRANCH  24  25
ATOM     25  N   UNL A   1     -26.620   0.114  28.767  0.00  0.00    -0.260 NA
ATOM     26  C   UNL A   1     -27.398   0.671  29.654  0.00  0.00    +0.153 C 
BRANCH  26  27
ATOM     27  C   UNL A   1     -28.660   1.358  29.949  0.00  0.00    +0.263 C 
ATOM     28  N   UNL A   1     -29.395   1.613  28.916  0.00  0.00    -0.106 NA
BRANCH  27  30
ATOM     29  C   UNL A   1     -30.353   2.213  31.579  0.00  0.00    +0.254 C 
ATOM     30  O   UNL A   1     -29.027   1.730  31.183  0.00  0.00    -0.454 OA
ENDBRANCH  27  30
ENDBRANCH  26  27
ENDBRANCH  24  25
BRANCH  24  31
ATOM     31  C   UNL A   1     -24.855  -1.012  30.143  0.00  0.00    +0.066 C 
BRANCH  31  32
ATOM     32  C   UNL A   1     -24.973  -2.505  29.788  0.00  0.00    -0.019 C 
ATOM     33  C   UNL A   1     -23.906  -3.173  29.146  0.00  0.00    -0.004 C 
ATOM     34  C   UNL A   1     -23.989  -4.549  28.853  0.00  0.00    -0.000 C 
ATOM     35  C   UNL A   1     -25.137  -5.280  29.205  0.00  0.00    -0.000 C 
ATOM     36  C   UNL A   1     -26.232  -4.611  29.784  0.00  0.00    -0.000 C 
ATOM     37  C   UNL A   1     -26.155  -3.232  30.065  0.00  0.00    -0.004 C 
ENDBRANCH  31  32
BRANCH  31  38
ATOM     38  C   UNL A   1     -25.387  -0.679  31.571  0.00  0.00    +0.079 C 
ATOM     39  C   UNL A   1     -25.189   0.773  32.028  0.00  0.00    +0.019 C 
ATOM     40  C   UNL A   1     -25.336   0.684  33.544  0.00  0.00    +0.020 C 
ATOM     41  C   UNL A   1     -24.829  -0.715  33.905  0.00  0.00    +0.089 C 
ATOM     42  N   UNL A   1     -24.758  -1.481  32.646  0.00  0.00    -0.219 NA
ENDBRANCH  31  38
ENDBRANCH  24  31
ENDBRANCH   8  24
TORSDOF 12
