MODEL 892
MODEL 1
REMARK VINA RESULT:    -5.962      0.000      0.000
REMARK INTER + INTRA:          -6.404
REMARK INTER:                  -6.311
REMARK INTRA:                  -0.093
REMARK UNBOUND:                -0.093
REMARK  Name = No_892-gen_results/8p0m/2024-11-27-11-27-31/
REMARK  1 active torsions:
REMARK  status: ('A' for Active; 'I' for Inactive)
REMARK    1  A    between atoms: C_3  and  C_12
REMARK                            x       y       z     vdW  Elec       q    Type
REMARK                         _______ _______ _______ _____ _____    ______ ____
ROOT
ATOM      1  C   UNL A   1     -23.771  -3.311  28.842  0.00  0.00    +0.000 A 
ATOM      2  C   UNL A   1     -24.629  -2.601  29.315  0.00  0.00    +0.006 A 
ATOM      3  C   UNL A   1     -24.497  -1.244  29.554  0.00  0.00    +0.081 A 
ATOM      4  C   UNL A   1     -25.472  -0.390  30.190  0.00  0.00    +0.018 A 
ATOM      5  C   UNL A   1     -26.695  -0.961  30.617  0.00  0.00    +0.058 A 
ATOM      6  C   UNL A   1     -26.895  -2.349  30.398  0.00  0.00    +0.011 A 
ATOM      7  C   UNL A   1     -25.902  -3.076  29.816  0.00  0.00    +0.001 A 
ATOM      8  C   UNL A   1     -24.082  -4.739  28.513  0.00  0.00    +0.000 A 
ATOM      9  C   UNL A   1     -25.241  -5.330  29.096  0.00  0.00    +0.000 A 
ATOM     10  C   UNL A   1     -26.183  -4.523  29.647  0.00  0.00    +0.000 A 
ATOM     11 CL   UNL A   1     -27.912   0.018  31.333  0.00  0.00    -0.082 Cl
ENDROOT
BRANCH   3  12
ATOM     12  C   UNL A   1     -23.226  -0.518  29.247  0.00  0.00    +0.388 C 
ATOM     13  O   UNL A   1     -22.970  -0.001  28.221  0.00  0.00    -0.241 OA
ATOM     14  O   UNL A   1     -22.420  -0.411  30.232  0.00  0.00    -0.241 OA
ENDBRANCH   3  12
TORSDOF 1
ENDMDL
ENDMDL
