REMARK  Name = No_893-gen_results/8p0m/2024-11-27-11-27-31/
REMARK  6 active torsions:
REMARK  status: ('A' for Active; 'I' for Inactive)
REMARK    1  A    between atoms: C_3  and  C_7
REMARK    2  A    between atoms: C_7  and  C_8
REMARK    3  A    between atoms: C_10  and  C_11
REMARK    4  A    between atoms: C_11  and  C_15
REMARK    5  A    between atoms: C_15  and  C_16
REMARK    6  A    between atoms: C_16  and  C_17
REMARK                            x       y       z     vdW  Elec       q    Type
REMARK                         _______ _______ _______ _____ _____    ______ ____
ROOT
ATOM      1  C   UNL A   1     -26.466   1.408  26.565  0.00  0.00    -0.018 A 
ATOM      2  C   UNL A   1     -25.242   1.067  26.070  0.00  0.00    -0.008 A 
ATOM      3  C   UNL A   1     -24.116   1.394  26.479  0.00  0.00    -0.022 A 
ATOM      4  C   UNL A   1     -24.169   2.571  27.577  0.00  0.00    -0.004 A 
ATOM      5  C   UNL A   1     -25.369   3.144  27.902  0.00  0.00    -0.001 A 
ATOM      6  C   UNL A   1     -26.585   2.476  27.588  0.00  0.00    -0.004 A 
ENDROOT
BRANCH   1   7
ATOM      7  C   UNL A   1     -27.460   0.380  26.709  0.00  0.00    +0.053 C 
BRANCH   7  10
ATOM      8  C   UNL A   1     -28.016  -0.814  28.878  0.00  0.00    -0.004 A 
ATOM      9  C   UNL A   1     -28.469  -0.785  29.829  0.00  0.00    -0.000 A 
ATOM     10  C   UNL A   1     -28.196   0.348  28.055  0.00  0.00    -0.018 A 
ATOM     11  C   UNL A   1     -29.019   1.350  28.378  0.00  0.00    -0.004 A 
ATOM     12  C   UNL A   1     -29.411   0.180  30.378  0.00  0.00    -0.000 A 
ATOM     13  C   UNL A   1     -29.606   1.250  29.619  0.00  0.00    -0.000 A 
ENDBRANCH   7  10
ENDBRANCH   1   7
BRANCH   3  14
ATOM     14  C   UNL A   1     -22.802   0.968  26.231  0.00  0.00    +0.027 C 
BRANCH  14  15
ATOM     15  C   UNL A   1     -21.857   1.062  27.369  0.00  0.00    +0.009 C 
BRANCH  15  16
ATOM     16  C   UNL A   1     -21.825   0.291  28.538  0.00  0.00    +0.027 C 
BRANCH  16  17
ATOM     17  C   UNL A   1     -22.950   0.174  29.347  0.00  0.00    -0.022 A 
ATOM     18  C   UNL A   1     -23.161   0.816  30.218  0.00  0.00    -0.004 A 
ATOM     19  C   UNL A   1     -24.358   0.678  31.180  0.00  0.00    -0.000 A 
ATOM     20  C   UNL A   1     -25.044  -0.482  30.946  0.00  0.00    -0.000 A 
ATOM     21  C   UNL A   1     -24.759  -1.342  29.937  0.00  0.00    -0.000 A 
ATOM     22  C   UNL A   1     -23.631  -1.086  29.136  0.00  0.00    -0.004 A 
ENDBRANCH  16  17
ENDBRANCH  15  16
ENDBRANCH  14  15
ENDBRANCH   3  14
TORSDOF 6
