REMARK  Name = outputs/IAG933/test6/raw/output_8933_IAG933_linker_design_.xyz
REMARK  11 active torsions:
REMARK  status: ('A' for Active; 'I' for Inactive)
REMARK    1  A    between atoms: C_1  and  C_2
REMARK    2  A    between atoms: C_1  and  C_8
REMARK    3  A    between atoms: C_1  and  C_30
REMARK    4  A    between atoms: C_13  and  N_37
REMARK    5  A    between atoms: C_14  and  C_15
REMARK    6  A    between atoms: C_21  and  O_22
REMARK    7  A    between atoms: O_22  and  C_23
REMARK    8  A    between atoms: C_23  and  C_24
REMARK    9  A    between atoms: C_28  and  C_42
REMARK   10  A    between atoms: C_30  and  N_39
REMARK   11  A    between atoms: C_38  and  N_39
REMARK                            x       y       z     vdW  Elec       q    Type
REMARK                         _______ _______ _______ _____ _____    ______ ____
ROOT
ATOM      1  O   UNL A   1     -22.979   2.453  25.881  0.00  0.00    -0.269 OA
ATOM      2  C   UNL A   1     -25.556  -0.280  29.078  0.00  0.00    +0.068 C 
ATOM      3  O   UNL A   1     -22.552  -0.308  29.653  0.00  0.00    -0.285 OA
ATOM      4  N   UNL A   1     -24.644   1.239  27.195  0.00  0.00    -0.227 N 
ATOM      5  C   UNL A   1     -23.374   1.605  26.854  0.00  0.00    +0.261 C 
ATOM      6  C   UNL A   1     -22.506   1.113  27.766  0.00  0.00    +0.115 C 
ATOM      7  C   UNL A   1     -23.251   0.408  28.621  0.00  0.00    +0.216 C 
ATOM      8  C   UNL A   1     -24.676   0.460  28.312  0.00  0.00    +0.109 C 
ENDROOT
BRANCH   4   9
ATOM      9  C   UNL A   1     -25.688   1.614  26.461  0.00  0.00    +0.097 C 
ATOM     10  C   UNL A   1     -26.250   2.920  26.395  0.00  0.00    +0.091 C 
ATOM     11  C   UNL A   1     -27.438   3.091  25.645  0.00  0.00    +0.108 C 
ATOM     12  N   UNL A   1     -28.075   2.089  25.003  0.00  0.00    -0.208 NA
ATOM     13  C   UNL A   1     -27.543   0.849  25.079  0.00  0.00    +0.255 C 
ATOM     14  C   UNL A   1     -26.354   0.576  25.777  0.00  0.00    +0.207 C 
ATOM     15  F   UNL A   1     -25.860  -0.681  25.795  0.00  0.00    -0.198 F 
BRANCH  10  16
ATOM     16  C   UNL A   1     -25.642   4.093  27.123  0.00  0.00    +0.268 C 
ATOM     17  N   UNL A   1     -25.614   5.252  26.449  0.00  0.00    -0.200 NA
ATOM     18  C   UNL A   1     -25.026   6.479  26.963  0.00  0.00    +0.139 C 
ATOM     19  O   UNL A   1     -25.143   3.966  28.243  0.00  0.00    -0.268 OA
ENDBRANCH  10  16
BRANCH  13  20
ATOM     20  O   UNL A   1     -28.193  -0.208  24.477  0.00  0.00    -0.456 OA
BRANCH  20  21
ATOM     21  C   UNL A   1     -29.460   0.005  23.866  0.00  0.00    +0.243 C 
BRANCH  21  22
ATOM     22  C   UNL A   1     -30.065  -1.377  23.573  0.00  0.00    +0.229 C 
ATOM     23  O   UNL A   1     -30.729  -1.878  24.721  0.00  0.00    -0.216 OA
ENDBRANCH  21  22
ENDBRANCH  20  21
ENDBRANCH  13  20
ENDBRANCH   4   9
BRANCH   6  24
ATOM     24  C   UNL A   1     -21.102   1.340  27.746  0.00  0.00    +0.130 C 
ATOM     25  N   UNL A   1     -20.325   0.464  28.160  0.00  0.00    -0.146 NA
ENDBRANCH   6  24
BRANCH   2  26
ATOM     26  C   UNL A   1     -24.855  -1.012  30.143  0.00  0.00    +0.077 C 
BRANCH  26  27
ATOM     27  C   UNL A   1     -24.973  -2.505  29.788  0.00  0.00    -0.016 C 
ATOM     28  C   UNL A   1     -23.906  -3.173  29.146  0.00  0.00    -0.004 C 
ATOM     29  C   UNL A   1     -23.989  -4.549  28.853  0.00  0.00    -0.000 C 
ATOM     30  C   UNL A   1     -25.137  -5.280  29.205  0.00  0.00    -0.000 C 
ATOM     31  C   UNL A   1     -26.232  -4.611  29.784  0.00  0.00    -0.000 C 
ATOM     32  C   UNL A   1     -26.155  -3.232  30.065  0.00  0.00    -0.004 C 
ENDBRANCH  26  27
BRANCH  26  33
ATOM     33  C   UNL A   1     -25.387  -0.679  31.571  0.00  0.00    +0.082 C 
ATOM     34  C   UNL A   1     -25.189   0.773  32.028  0.00  0.00    +0.020 C 
ATOM     35  C   UNL A   1     -25.336   0.684  33.544  0.00  0.00    +0.020 C 
ATOM     36  C   UNL A   1     -24.829  -0.715  33.905  0.00  0.00    +0.089 C 
ATOM     37  N   UNL A   1     -24.758  -1.481  32.646  0.00  0.00    -0.219 NA
ENDBRANCH  26  33
ENDBRANCH   2  26
BRANCH   2  38
ATOM     38  N   UNL A   1     -26.942  -0.538  28.940  0.00  0.00    -0.213 NA
BRANCH  38  44
ATOM     39  O   UNL A   1     -29.236  -0.338  28.917  0.00  0.00    -0.336 OA
ATOM     40  C   UNL A   1     -29.838  -1.181  31.100  0.00  0.00    +0.032 C 
ATOM     41  C   UNL A   1     -30.142  -1.241  29.585  0.00  0.00    +0.144 C 
ATOM     42  C   UNL A   1     -29.461   0.229  31.570  0.00  0.00    +0.007 C 
ATOM     43  C   UNL A   1     -28.207   0.726  30.817  0.00  0.00    +0.052 C 
ATOM     44  C   UNL A   1     -28.099  -0.052  29.514  0.00  0.00    +0.208 C 
ENDBRANCH  38  44
ENDBRANCH   2  38
TORSDOF 11
