MODEL 893
MODEL 1
REMARK VINA RESULT:    -8.230      0.000      0.000
REMARK INTER + INTRA:         -12.218
REMARK INTER:                 -11.116
REMARK INTRA:                  -1.102
REMARK UNBOUND:                -1.102
REMARK  Name = No_893-gen_results/8p0m/2024-11-27-11-27-31/
REMARK  6 active torsions:
REMARK  status: ('A' for Active; 'I' for Inactive)
REMARK    1  A    between atoms: C_3  and  C_7
REMARK    2  A    between atoms: C_7  and  C_8
REMARK    3  A    between atoms: C_10  and  C_11
REMARK    4  A    between atoms: C_11  and  C_15
REMARK    5  A    between atoms: C_15  and  C_16
REMARK    6  A    between atoms: C_16  and  C_17
REMARK                            x       y       z     vdW  Elec       q    Type
REMARK                         _______ _______ _______ _____ _____    ______ ____
ROOT
ATOM      1  C   UNL A   1     -23.942  -0.337  28.393  0.00  0.00    -0.018 A 
ATOM      2  C   UNL A   1     -24.672  -0.430  27.245  0.00  0.00    -0.008 A 
ATOM      3  C   UNL A   1     -24.625   0.285  26.231  0.00  0.00    -0.022 A 
ATOM      4  C   UNL A   1     -23.758   1.624  26.451  0.00  0.00    -0.004 A 
ATOM      5  C   UNL A   1     -23.233   1.899  27.685  0.00  0.00    -0.001 A 
ATOM      6  C   UNL A   1     -23.111   0.864  28.653  0.00  0.00    -0.004 A 
ENDROOT
BRANCH   1   7
ATOM      7  C   UNL A   1     -23.381  -1.538  28.950  0.00  0.00    +0.053 C 
BRANCH   7  10
ATOM      8  C   UNL A   1     -25.557  -2.400  29.931  0.00  0.00    -0.004 A 
ATOM      9  C   UNL A   1     -26.256  -3.184  30.015  0.00  0.00    -0.000 A 
ATOM     10  C   UNL A   1     -24.368  -2.690  29.180  0.00  0.00    -0.018 A 
ATOM     11  C   UNL A   1     -24.061  -3.916  28.745  0.00  0.00    -0.004 A 
ATOM     12  C   UNL A   1     -26.127  -4.586  29.642  0.00  0.00    -0.000 A 
ATOM     13  C   UNL A   1     -25.023  -4.875  28.966  0.00  0.00    -0.000 A 
ENDBRANCH   7  10
ENDBRANCH   1   7
BRANCH   3  14
ATOM     14  C   UNL A   1     -25.129   0.197  24.924  0.00  0.00    +0.027 C 
BRANCH  14  15
ATOM     15  C   UNL A   1     -26.604   0.120  24.795  0.00  0.00    +0.009 C 
BRANCH  15  16
ATOM     16  C   UNL A   1     -27.444   0.876  23.966  0.00  0.00    +0.027 C 
BRANCH  16  17
ATOM     17  C   UNL A   1     -28.727   0.436  23.659  0.00  0.00    -0.022 A 
ATOM     18  C   UNL A   1     -29.601   1.097  23.539  0.00  0.00    -0.004 A 
ATOM     19  C   UNL A   1     -31.050   0.647  23.266  0.00  0.00    -0.000 A 
ATOM     20  C   UNL A   1     -31.174  -0.710  23.388  0.00  0.00    -0.000 A 
ATOM     21  C   UNL A   1     -30.134  -1.548  23.622  0.00  0.00    -0.000 A 
ATOM     22  C   UNL A   1     -28.862  -0.993  23.853  0.00  0.00    -0.004 A 
ENDBRANCH  16  17
ENDBRANCH  15  16
ENDBRANCH  14  15
ENDBRANCH   3  14
TORSDOF 6
ENDMDL
ENDMDL
