REMARK  Name = outputs/IAG933/test6/raw/output_8940_IAG933_linker_design_.xyz
REMARK  15 active torsions:
REMARK  status: ('A' for Active; 'I' for Inactive)
REMARK    1  A    between atoms: C_1  and  C_2
REMARK    2  A    between atoms: C_1  and  C_8
REMARK    3  A    between atoms: C_1  and  C_31
REMARK    4  A    between atoms: C_13  and  N_28
REMARK    5  A    between atoms: C_14  and  C_15
REMARK    6  A    between atoms: C_21  and  O_22
REMARK    7  A    between atoms: O_22  and  C_23
REMARK    8  A    between atoms: C_23  and  C_24
REMARK    9  A    between atoms: C_29  and  C_32
REMARK   10  A    between atoms: C_29  and  O_33
REMARK   11  A    between atoms: C_30  and  C_31
REMARK   12  A    between atoms: C_31  and  N_40
REMARK   13  A    between atoms: O_33  and  C_35
REMARK   14  A    between atoms: C_35  and  C_38
REMARK   15  A    between atoms: C_35  and  O_41
REMARK                            x       y       z     vdW  Elec       q    Type
REMARK                         _______ _______ _______ _____ _____    ______ ____
ROOT
ATOM      1  N   UNL A   1     -24.560   1.292  27.262  0.00  0.00    -0.299 N 
ATOM      2  C   UNL A   1     -24.196   0.870  28.267  0.00  0.00    +0.116 C 
ATOM      3  C   UNL A   1     -23.476   1.075  27.469  0.00  0.00    +0.152 C 
ENDROOT
BRANCH   1   4
ATOM      4  C   UNL A   1     -25.688   1.614  26.461  0.00  0.00    +0.086 C 
ATOM      5  C   UNL A   1     -26.250   2.920  26.395  0.00  0.00    +0.090 C 
ATOM      6  C   UNL A   1     -27.438   3.091  25.645  0.00  0.00    +0.108 C 
ATOM      7  N   UNL A   1     -28.075   2.089  25.003  0.00  0.00    -0.208 NA
ATOM      8  C   UNL A   1     -27.543   0.849  25.079  0.00  0.00    +0.255 C 
ATOM      9  C   UNL A   1     -26.354   0.576  25.777  0.00  0.00    +0.206 C 
ATOM     10  F   UNL A   1     -25.860  -0.681  25.795  0.00  0.00    -0.198 F 
BRANCH   5  11
ATOM     11  C   UNL A   1     -25.642   4.093  27.123  0.00  0.00    +0.268 C 
ATOM     12  N   UNL A   1     -25.614   5.252  26.449  0.00  0.00    -0.200 NA
ATOM     13  C   UNL A   1     -25.026   6.479  26.963  0.00  0.00    +0.139 C 
ATOM     14  O   UNL A   1     -25.143   3.966  28.243  0.00  0.00    -0.268 OA
ENDBRANCH   5  11
BRANCH   8  15
ATOM     15  O   UNL A   1     -28.193  -0.208  24.477  0.00  0.00    -0.456 OA
BRANCH  15  16
ATOM     16  C   UNL A   1     -29.460   0.005  23.866  0.00  0.00    +0.243 C 
BRANCH  16  17
ATOM     17  C   UNL A   1     -30.065  -1.377  23.573  0.00  0.00    +0.229 C 
ATOM     18  O   UNL A   1     -30.729  -1.878  24.721  0.00  0.00    -0.216 OA
ENDBRANCH  16  17
ENDBRANCH  15  16
ENDBRANCH   8  15
ENDBRANCH   1   4
BRANCH   2  19
ATOM     19  C   UNL A   1     -25.066   0.180  29.146  0.00  0.00    +0.120 C 
BRANCH  19  23
ATOM     20  O   UNL A   1     -27.799  -0.196  28.847  0.00  0.00    -0.273 OA
ATOM     21  C   UNL A   1     -28.324   2.080  29.224  0.00  0.00    +0.096 C 
ATOM     22  C   UNL A   1     -27.367   0.870  29.153  0.00  0.00    +0.242 C 
ATOM     23  N   UNL A   1     -26.090   1.065  29.527  0.00  0.00    -0.205 NA
ENDBRANCH  19  23
BRANCH  19  24
ATOM     24  C   UNL A   1     -24.855  -1.012  30.143  0.00  0.00    +0.060 C 
BRANCH  24  25
ATOM     25  C   UNL A   1     -24.973  -2.505  29.788  0.00  0.00    -0.019 C 
ATOM     26  C   UNL A   1     -23.906  -3.173  29.146  0.00  0.00    -0.004 C 
ATOM     27  C   UNL A   1     -23.989  -4.549  28.853  0.00  0.00    -0.000 C 
ATOM     28  C   UNL A   1     -25.137  -5.280  29.205  0.00  0.00    -0.000 C 
ATOM     29  C   UNL A   1     -26.232  -4.611  29.784  0.00  0.00    -0.000 C 
ATOM     30  C   UNL A   1     -26.155  -3.232  30.065  0.00  0.00    -0.004 C 
ENDBRANCH  24  25
BRANCH  24  31
ATOM     31  C   UNL A   1     -25.387  -0.679  31.571  0.00  0.00    +0.079 C 
ATOM     32  C   UNL A   1     -25.189   0.773  32.028  0.00  0.00    +0.019 C 
ATOM     33  C   UNL A   1     -25.336   0.684  33.544  0.00  0.00    +0.020 C 
ATOM     34  C   UNL A   1     -24.829  -0.715  33.905  0.00  0.00    +0.089 C 
ATOM     35  N   UNL A   1     -24.758  -1.481  32.646  0.00  0.00    -0.219 NA
ENDBRANCH  24  31
ENDBRANCH  19  24
ENDBRANCH   2  19
BRANCH   3  36
ATOM     36  C   UNL A   1     -22.188   1.429  26.931  0.00  0.00    +0.292 C 
BRANCH  36  37
ATOM     37  O   UNL A   1     -22.274   2.007  25.638  0.00  0.00    -0.159 OA
ATOM     38  O   UNL A   1     -23.076   1.337  24.749  0.00  0.00    -0.032 OA
ENDBRANCH  36  37
BRANCH  36  39
ATOM     39  O   UNL A   1     -20.945   1.233  27.298  0.00  0.00    -0.319 OA
BRANCH  39  40
ATOM     40  C   UNL A   1     -20.447   0.403  28.234  0.00  0.00    +0.217 C 
BRANCH  40  41
ATOM     41  C   UNL A   1     -21.496  -0.243  28.924  0.00  0.00    +0.240 C 
ATOM     42  O   UNL A   1     -22.716  -0.287  29.259  0.00  0.00    -0.285 OA
ENDBRANCH  40  41
ENDBRANCH  39  40
ENDBRANCH  36  39
ENDBRANCH   3  36
TORSDOF 15
