REMARK  Name = outputs/IAG933/test6/raw/output_8946_IAG933_linker_design_.xyz
REMARK  12 active torsions:
REMARK  status: ('A' for Active; 'I' for Inactive)
REMARK    1  A    between atoms: C_1  and  C_2
REMARK    2  A    between atoms: C_1  and  C_8
REMARK    3  A    between atoms: C_9  and  N_35
REMARK    4  A    between atoms: C_13  and  C_28
REMARK    5  A    between atoms: C_14  and  C_15
REMARK    6  A    between atoms: C_21  and  O_22
REMARK    7  A    between atoms: O_22  and  C_23
REMARK    8  A    between atoms: C_23  and  C_24
REMARK    9  A    between atoms: N_35  and  C_39
REMARK   10  A    between atoms: N_36  and  C_43
REMARK   11  A    between atoms: C_39  and  C_41
REMARK   12  A    between atoms: C_45  and  C_46
REMARK                            x       y       z     vdW  Elec       q    Type
REMARK                         _______ _______ _______ _____ _____    ______ ____
ROOT
ATOM      1  C   UNL A   1     -25.410   3.149  31.433  0.00  0.00    +0.326 C 
ATOM      2  N   UNL A   1     -24.979   1.869  30.985  0.00  0.00    -0.257 N 
ATOM      3  N   UNL A   1     -26.736   3.810  31.604  0.00  0.00    -0.159 NA
ATOM      4  O   UNL A   1     -24.529   3.733  31.520  0.00  0.00    -0.251 OA
ENDROOT
BRANCH   3   7
ATOM      5  N   UNL A   1     -25.744   6.339  33.813  0.00  0.00    -0.161 NA
ATOM      6  C   UNL A   1     -24.798   6.072  34.806  0.00  0.00    +0.121 C 
ATOM      7  C   UNL A   1     -26.807   5.206  32.136  0.00  0.00    +0.235 C 
ATOM      8  C   UNL A   1     -26.072   6.348  31.589  0.00  0.00    +0.075 C 
ATOM      9  C   UNL A   1     -25.631   7.162  32.709  0.00  0.00    +0.121 C 
ATOM     10  O   UNL A   1     -26.569   5.270  33.537  0.00  0.00    -0.263 OA
BRANCH   9  12
ATOM     11  O   UNL A   1     -23.862   7.904  31.206  0.00  0.00    -0.219 OA
ATOM     12  C   UNL A   1     -24.497   8.180  32.509  0.00  0.00    +0.200 C 
ENDBRANCH   9  12
ENDBRANCH   3   7
BRANCH   2  14
ATOM     13  C   UNL A   1     -25.387  -0.679  31.571  0.00  0.00    +0.095 C 
ATOM     14  C   UNL A   1     -25.189   0.773  32.028  0.00  0.00    +0.095 C 
ATOM     15  C   UNL A   1     -25.336   0.684  33.544  0.00  0.00    +0.040 C 
ATOM     16  C   UNL A   1     -24.829  -0.715  33.905  0.00  0.00    +0.090 C 
ATOM     17  N   UNL A   1     -24.758  -1.481  32.646  0.00  0.00    -0.217 NA
BRANCH  13  18
ATOM     18  C   UNL A   1     -24.855  -1.012  30.143  0.00  0.00    +0.045 C 
BRANCH  18  19
ATOM     19  C   UNL A   1     -24.973  -2.505  29.788  0.00  0.00    -0.021 C 
ATOM     20  C   UNL A   1     -23.906  -3.173  29.146  0.00  0.00    -0.004 C 
ATOM     21  C   UNL A   1     -23.989  -4.549  28.853  0.00  0.00    -0.000 C 
ATOM     22  C   UNL A   1     -25.137  -5.280  29.205  0.00  0.00    -0.000 C 
ATOM     23  C   UNL A   1     -26.232  -4.611  29.784  0.00  0.00    -0.000 C 
ATOM     24  C   UNL A   1     -26.155  -3.232  30.065  0.00  0.00    -0.004 C 
ENDBRANCH  18  19
ENDBRANCH  13  18
ENDBRANCH   2  14
BRANCH   2  25
ATOM     25  C   UNL A   1     -23.537   1.677  30.529  0.00  0.00    +0.141 C 
BRANCH  25  31
ATOM     26  C   UNL A   1     -24.334   1.458  27.068  0.00  0.00    +0.080 C 
ATOM     27  C   UNL A   1     -21.899   1.655  27.126  0.00  0.00    -0.002 C 
ATOM     28  C   UNL A   1     -23.110   1.809  26.451  0.00  0.00    -0.004 C 
ATOM     29  N   UNL A   1     -24.313   1.130  28.272  0.00  0.00    -0.248 NA
ATOM     30  C   UNL A   1     -23.100   2.413  25.044  0.00  0.00    +0.033 C 
ATOM     31  C   UNL A   1     -23.242   1.382  29.078  0.00  0.00    +0.079 C 
ATOM     32  C   UNL A   1     -21.947   1.434  28.519  0.00  0.00    +0.016 C 
BRANCH  26  33
ATOM     33  C   UNL A   1     -25.688   1.614  26.461  0.00  0.00    +0.055 C 
ATOM     34  C   UNL A   1     -26.250   2.920  26.395  0.00  0.00    +0.078 C 
ATOM     35  C   UNL A   1     -27.438   3.091  25.645  0.00  0.00    +0.107 C 
ATOM     36  N   UNL A   1     -28.075   2.089  25.003  0.00  0.00    -0.208 NA
ATOM     37  C   UNL A   1     -27.543   0.849  25.079  0.00  0.00    +0.253 C 
ATOM     38  C   UNL A   1     -26.354   0.576  25.777  0.00  0.00    +0.195 C 
ATOM     39  F   UNL A   1     -25.860  -0.681  25.795  0.00  0.00    -0.199 F 
BRANCH  34  40
ATOM     40  C   UNL A   1     -25.642   4.093  27.123  0.00  0.00    +0.267 C 
ATOM     41  N   UNL A   1     -25.614   5.252  26.449  0.00  0.00    -0.200 NA
ATOM     42  C   UNL A   1     -25.026   6.479  26.963  0.00  0.00    +0.139 C 
ATOM     43  O   UNL A   1     -25.143   3.966  28.243  0.00  0.00    -0.268 OA
ENDBRANCH  34  40
BRANCH  37  44
ATOM     44  O   UNL A   1     -28.193  -0.208  24.477  0.00  0.00    -0.456 OA
BRANCH  44  45
ATOM     45  C   UNL A   1     -29.460   0.005  23.866  0.00  0.00    +0.243 C 
BRANCH  45  46
ATOM     46  C   UNL A   1     -30.065  -1.377  23.573  0.00  0.00    +0.229 C 
ATOM     47  O   UNL A   1     -30.729  -1.878  24.721  0.00  0.00    -0.216 OA
ENDBRANCH  45  46
ENDBRANCH  44  45
ENDBRANCH  37  44
ENDBRANCH  26  33
ENDBRANCH  25  31
ENDBRANCH   2  25
TORSDOF 12
