MODEL 894
MODEL 1
REMARK VINA RESULT:    -7.959      0.000      0.000
REMARK INTER + INTRA:          -9.208
REMARK INTER:                  -8.890
REMARK INTRA:                  -0.318
REMARK UNBOUND:                -0.318
REMARK  Name = No_894-gen_results/8p0m/2024-11-27-11-27-31/
REMARK  2 active torsions:
REMARK  status: ('A' for Active; 'I' for Inactive)
REMARK    1  A    between atoms: C_10  and  C_11
REMARK    2  A    between atoms: C_11  and  N_13
REMARK                            x       y       z     vdW  Elec       q    Type
REMARK                         _______ _______ _______ _____ _____    ______ ____
ROOT
ATOM      1  C   UNL A   1     -26.833  -3.659  30.094  0.00  0.00    -0.000 A 
ATOM      2  C   UNL A   1     -26.421  -4.502  29.614  0.00  0.00    -0.000 A 
ATOM      3  C   UNL A   1     -26.003  -2.531  30.272  0.00  0.00    -0.000 A 
ATOM      4  C   UNL A   1     -26.457  -1.229  30.828  0.00  0.00    -0.000 A 
ATOM      5  C   UNL A   1     -25.072  -4.752  29.077  0.00  0.00    -0.000 A 
ATOM      6  C   UNL A   1     -24.193  -3.678  29.221  0.00  0.00    -0.000 A 
ATOM      7  C   UNL A   1     -24.644  -2.524  29.778  0.00  0.00    -0.000 A 
ATOM      8  C   UNL A   1     -25.453  -0.270  31.161  0.00  0.00    -0.000 A 
ATOM      9  C   UNL A   1     -24.209  -0.287  30.611  0.00  0.00    -0.001 A 
ATOM     10  C   UNL A   1     -23.738  -1.487  30.043  0.00  0.00    +0.023 A 
ENDROOT
BRANCH  10  11
ATOM     11  C   UNL A   1     -22.787  -1.111  29.044  0.00  0.00    +0.236 C 
ATOM     12  O   UNL A   1     -21.551  -1.238  29.025  0.00  0.00    -0.200 OA
BRANCH  11  13
ATOM     13  N   UNL A   1     -23.263  -0.019  28.186  0.00  0.00    -0.245 NA
ATOM     14  C   UNL A   1     -22.472   1.232  27.958  0.00  0.00    +0.075 C 
ATOM     15  C   UNL A   1     -24.369  -0.207  27.285  0.00  0.00    +0.075 C 
ATOM     16  C   UNL A   1     -24.469   0.628  26.253  0.00  0.00    +0.016 C 
ATOM     17  C   UNL A   1     -22.613   2.016  26.896  0.00  0.00    +0.018 C 
ATOM     18  C   UNL A   1     -23.726   1.826  26.082  0.00  0.00    +0.003 C 
ATOM     19  C   UNL A   1     -25.589   0.405  25.283  0.00  0.00    +0.001 C 
ENDBRANCH  11  13
ENDBRANCH  10  11
TORSDOF 2
ENDMDL
ENDMDL
