REMARK  Name = outputs/IAG933/test6/raw/output_8953_IAG933_linker_design_.xyz
REMARK  13 active torsions:
REMARK  status: ('A' for Active; 'I' for Inactive)
REMARK    1  A    between atoms: C_1  and  C_2
REMARK    2  A    between atoms: C_1  and  C_8
REMARK    3  A    between atoms: C_1  and  N_41
REMARK    4  A    between atoms: C_13  and  C_31
REMARK    5  A    between atoms: C_14  and  C_15
REMARK    6  A    between atoms: C_21  and  O_22
REMARK    7  A    between atoms: O_22  and  C_23
REMARK    8  A    between atoms: C_23  and  C_24
REMARK    9  A    between atoms: C_30  and  N_41
REMARK   10  A    between atoms: C_36  and  C_37
REMARK   11  A    between atoms: C_36  and  N_41
REMARK   12  A    between atoms: C_37  and  C_44
REMARK   13  A    between atoms: N_43  and  C_44
REMARK                            x       y       z     vdW  Elec       q    Type
REMARK                         _______ _______ _______ _____ _____    ______ ____
ROOT
ATOM      1  C   UNL A   1     -21.934   1.375  27.022  0.00  0.00    +0.183 C 
ATOM      2  C   UNL A   1     -24.596   0.432  28.273  0.00  0.00    +0.030 C 
ATOM      3  C   UNL A   1     -24.509   1.245  27.074  0.00  0.00    +0.025 C 
ATOM      4  C   UNL A   1     -22.237  -0.040  29.056  0.00  0.00    +0.212 C 
ATOM      5  C   UNL A   1     -23.203   1.672  26.514  0.00  0.00    +0.096 C 
ATOM      6  O   UNL A   1     -21.453   0.640  28.164  0.00  0.00    -0.471 OA
ATOM      7  C   UNL A   1     -23.248   0.159  28.686  0.00  0.00    +0.088 C 
ATOM      8 CL   UNL A   1     -23.046   2.579  24.941  0.00  0.00    -0.079 Cl
ENDROOT
BRANCH   3   9
ATOM      9  C   UNL A   1     -25.688   1.614  26.461  0.00  0.00    +0.040 C 
ATOM     10  C   UNL A   1     -26.250   2.920  26.395  0.00  0.00    +0.077 C 
ATOM     11  C   UNL A   1     -27.438   3.091  25.645  0.00  0.00    +0.107 C 
ATOM     12  N   UNL A   1     -28.075   2.089  25.003  0.00  0.00    -0.208 NA
ATOM     13  C   UNL A   1     -27.543   0.849  25.079  0.00  0.00    +0.253 C 
ATOM     14  C   UNL A   1     -26.354   0.576  25.777  0.00  0.00    +0.193 C 
ATOM     15  F   UNL A   1     -25.860  -0.681  25.795  0.00  0.00    -0.199 F 
BRANCH  10  16
ATOM     16  C   UNL A   1     -25.642   4.093  27.123  0.00  0.00    +0.266 C 
ATOM     17  N   UNL A   1     -25.614   5.252  26.449  0.00  0.00    -0.200 NA
ATOM     18  C   UNL A   1     -25.026   6.479  26.963  0.00  0.00    +0.139 C 
ATOM     19  O   UNL A   1     -25.143   3.966  28.243  0.00  0.00    -0.268 OA
ENDBRANCH  10  16
BRANCH  13  20
ATOM     20  O   UNL A   1     -28.193  -0.208  24.477  0.00  0.00    -0.456 OA
BRANCH  20  21
ATOM     21  C   UNL A   1     -29.460   0.005  23.866  0.00  0.00    +0.243 C 
BRANCH  21  22
ATOM     22  C   UNL A   1     -30.065  -1.377  23.573  0.00  0.00    +0.229 C 
ATOM     23  O   UNL A   1     -30.729  -1.878  24.721  0.00  0.00    -0.216 OA
ENDBRANCH  21  22
ENDBRANCH  20  21
ENDBRANCH  13  20
ENDBRANCH   3   9
BRANCH   2  24
ATOM     24  N   UNL A   1     -25.527  -0.166  29.013  0.00  0.00    -0.307 N 
BRANCH  24  25
ATOM     25  C   UNL A   1     -24.855  -1.012  30.143  0.00  0.00    +0.111 C 
BRANCH  25  26
ATOM     26  C   UNL A   1     -24.973  -2.505  29.788  0.00  0.00    -0.003 C 
ATOM     27  C   UNL A   1     -23.906  -3.173  29.146  0.00  0.00    -0.003 C 
ATOM     28  C   UNL A   1     -23.989  -4.549  28.853  0.00  0.00    -0.000 C 
ATOM     29  C   UNL A   1     -25.137  -5.280  29.205  0.00  0.00    -0.000 C 
ATOM     30  C   UNL A   1     -26.232  -4.611  29.784  0.00  0.00    -0.000 C 
ATOM     31  C   UNL A   1     -26.155  -3.232  30.065  0.00  0.00    -0.003 C 
ENDBRANCH  25  26
BRANCH  25  32
ATOM     32  C   UNL A   1     -25.387  -0.679  31.571  0.00  0.00    +0.095 C 
ATOM     33  C   UNL A   1     -25.189   0.773  32.028  0.00  0.00    +0.021 C 
ATOM     34  C   UNL A   1     -25.336   0.684  33.544  0.00  0.00    +0.020 C 
ATOM     35  C   UNL A   1     -24.829  -0.715  33.905  0.00  0.00    +0.089 C 
ATOM     36  N   UNL A   1     -24.758  -1.481  32.646  0.00  0.00    -0.217 NA
ENDBRANCH  25  32
ENDBRANCH  24  25
BRANCH  24  37
ATOM     37  C   UNL A   1     -26.964  -0.174  28.789  0.00  0.00    +0.092 C 
BRANCH  37  38
ATOM     38  C   UNL A   1     -28.155  -0.168  29.794  0.00  0.00    +0.039 C 
BRANCH  38  39
ATOM     39  C   UNL A   1     -28.301   1.290  30.316  0.00  0.00    +0.074 C 
BRANCH  39  45
ATOM     40  C   UNL A   1     -28.132   3.243  32.929  0.00  0.00    +0.017 C 
ATOM     41  C   UNL A   1     -29.302   2.626  32.123  0.00  0.00    +0.058 C 
ATOM     42  C   UNL A   1     -30.894   0.664  32.463  0.00  0.00    +0.019 C 
ATOM     43  C   UNL A   1     -30.770   2.203  32.583  0.00  0.00    +0.017 C 
ATOM     44  C   UNL A   1     -29.449   0.134  32.340  0.00  0.00    +0.072 C 
ATOM     45  N   UNL A   1     -28.715   1.264  31.717  0.00  0.00    -0.274 NA
ENDBRANCH  39  45
ENDBRANCH  38  39
ENDBRANCH  37  38
ENDBRANCH  24  37
ENDBRANCH   2  24
TORSDOF 13
