REMARK  Name = outputs/IAG933/test6/raw/output_8958_IAG933_linker_design_.xyz
REMARK  13 active torsions:
REMARK  status: ('A' for Active; 'I' for Inactive)
REMARK    1  A    between atoms: C_1  and  C_2
REMARK    2  A    between atoms: C_1  and  C_8
REMARK    3  A    between atoms: C_9  and  C_40
REMARK    4  A    between atoms: C_14  and  C_15
REMARK    5  A    between atoms: C_15  and  O_18
REMARK    6  A    between atoms: O_18  and  C_35
REMARK    7  A    between atoms: C_21  and  O_22
REMARK    8  A    between atoms: O_22  and  C_23
REMARK    9  A    between atoms: C_23  and  C_24
REMARK   10  A    between atoms: C_35  and  C_39
REMARK   11  A    between atoms: C_36  and  O_38
REMARK   12  A    between atoms: O_38  and  C_39
REMARK   13  A    between atoms: C_39  and  C_40
REMARK                            x       y       z     vdW  Elec       q    Type
REMARK                         _______ _______ _______ _____ _____    ______ ____
ROOT
ATOM      1  C   UNL A   1     -25.015   2.372  30.160  0.00  0.00    +0.310 C 
ENDROOT
BRANCH   1   4
ATOM      2  N   UNL A   1     -26.470   2.892  32.096  0.00  0.00    -0.094 NA
ATOM      3  F   UNL A   1     -24.211   3.129  32.136  0.00  0.00    -0.216 F 
ATOM      4  C   UNL A   1     -25.253   2.318  31.666  0.00  0.00    +0.256 C 
BRANCH   4   6
ATOM      5  C   UNL A   1     -25.387  -0.679  31.571  0.00  0.00    +0.081 C 
ATOM      6  C   UNL A   1     -25.189   0.773  32.028  0.00  0.00    +0.069 C 
ATOM      7  C   UNL A   1     -25.336   0.684  33.544  0.00  0.00    +0.025 C 
ATOM      8  C   UNL A   1     -24.829  -0.715  33.905  0.00  0.00    +0.089 C 
ATOM      9  N   UNL A   1     -24.758  -1.481  32.646  0.00  0.00    -0.219 NA
BRANCH   5  10
ATOM     10  C   UNL A   1     -24.855  -1.012  30.143  0.00  0.00    +0.044 C 
BRANCH  10  11
ATOM     11  C   UNL A   1     -24.973  -2.505  29.788  0.00  0.00    -0.021 C 
ATOM     12  C   UNL A   1     -23.906  -3.173  29.146  0.00  0.00    -0.004 C 
ATOM     13  C   UNL A   1     -23.989  -4.549  28.853  0.00  0.00    -0.000 C 
ATOM     14  C   UNL A   1     -25.137  -5.280  29.205  0.00  0.00    -0.000 C 
ATOM     15  C   UNL A   1     -26.232  -4.611  29.784  0.00  0.00    -0.000 C 
ATOM     16  C   UNL A   1     -26.155  -3.232  30.065  0.00  0.00    -0.004 C 
ENDBRANCH  10  11
ENDBRANCH   5  10
ENDBRANCH   4   6
ENDBRANCH   1   4
BRANCH   1  18
ATOM     17  O   UNL A   1     -25.814   4.713  30.188  0.00  0.00    -0.245 OA
ATOM     18  C   UNL A   1     -25.393   3.766  29.520  0.00  0.00    +0.368 C 
BRANCH  18  19
ATOM     19  O   UNL A   1     -25.143   3.966  28.243  0.00  0.00    -0.404 OA
BRANCH  19  20
ATOM     20  C   UNL A   1     -25.642   4.093  27.123  0.00  0.00    +0.230 C 
ATOM     21  N   UNL A   1     -25.614   5.252  26.449  0.00  0.00    -0.235 NA
ATOM     22  C   UNL A   1     -25.026   6.479  26.963  0.00  0.00    +0.155 C 
BRANCH  20  24
ATOM     23  C   UNL A   1     -25.688   1.614  26.461  0.00  0.00    +0.041 C 
ATOM     24  C   UNL A   1     -26.250   2.920  26.395  0.00  0.00    +0.075 C 
ATOM     25  C   UNL A   1     -27.438   3.091  25.645  0.00  0.00    +0.107 C 
ATOM     26  N   UNL A   1     -28.075   2.089  25.003  0.00  0.00    -0.208 NA
ATOM     27  C   UNL A   1     -27.543   0.849  25.079  0.00  0.00    +0.253 C 
ATOM     28  C   UNL A   1     -26.354   0.576  25.777  0.00  0.00    +0.193 C 
ATOM     29  F   UNL A   1     -25.860  -0.681  25.795  0.00  0.00    -0.199 F 
BRANCH  27  30
ATOM     30  O   UNL A   1     -28.193  -0.208  24.477  0.00  0.00    -0.456 OA
BRANCH  30  31
ATOM     31  C   UNL A   1     -29.460   0.005  23.866  0.00  0.00    +0.243 C 
BRANCH  31  32
ATOM     32  C   UNL A   1     -30.065  -1.377  23.573  0.00  0.00    +0.229 C 
ATOM     33  O   UNL A   1     -30.729  -1.878  24.721  0.00  0.00    -0.216 OA
ENDBRANCH  31  32
ENDBRANCH  30  31
ENDBRANCH  27  30
ENDBRANCH  20  24
ENDBRANCH  19  20
ENDBRANCH  18  19
ENDBRANCH   1  18
BRANCH   1  34
ATOM     34  O   UNL A   1     -23.659   1.761  30.067  0.00  0.00    -0.464 OA
BRANCH  34  39
ATOM     35  C   UNL A   1     -21.755   0.900  28.921  0.00  0.00    +0.037 C 
ATOM     36  C   UNL A   1     -23.305   2.156  27.582  0.00  0.00    +0.037 C 
ATOM     37  C   UNL A   1     -21.163   1.612  26.661  0.00  0.00    +0.000 C 
ATOM     38  C   UNL A   1     -20.861   0.972  27.860  0.00  0.00    +0.003 C 
ATOM     39  C   UNL A   1     -22.924   1.586  28.807  0.00  0.00    +0.139 C 
ATOM     40  C   UNL A   1     -22.419   2.178  26.507  0.00  0.00    +0.003 C 
ENDBRANCH  34  39
ENDBRANCH   1  34
TORSDOF 13
