MODEL 895
MODEL 1
REMARK VINA RESULT:    -4.876      0.000      0.000
REMARK INTER + INTRA:          -5.507
REMARK INTER:                  -5.446
REMARK INTRA:                  -0.061
REMARK UNBOUND:                -0.061
REMARK  Name = No_895-gen_results/8p0m/2024-11-27-11-27-31/
REMARK  2 active torsions:
REMARK  status: ('A' for Active; 'I' for Inactive)
REMARK    1  A    between atoms: C_3  and  C_7
REMARK    2  A    between atoms: C_7  and  C_8
REMARK                            x       y       z     vdW  Elec       q    Type
REMARK                         _______ _______ _______ _____ _____    ______ ____
ROOT
ATOM      1  C   UNL A   1     -24.575  -4.990  28.932  0.00  0.00    -0.000 A 
ATOM      2  C   UNL A   1     -23.968  -3.972  28.691  0.00  0.00    -0.004 A 
ATOM      3  C   UNL A   1     -24.441  -2.699  29.005  0.00  0.00    -0.016 A 
ATOM      4  C   UNL A   1     -25.756  -2.562  29.600  0.00  0.00    -0.004 A 
ATOM      5  C   UNL A   1     -26.429  -3.759  29.843  0.00  0.00    -0.000 A 
ATOM      6  C   UNL A   1     -25.910  -4.922  29.503  0.00  0.00    -0.000 A 
ENDROOT
BRANCH   3   7
ATOM      7  C   UNL A   1     -23.753  -1.394  28.746  0.00  0.00    +0.075 C 
BRANCH   7   8
ATOM      8  C   UNL A   1     -22.753  -0.946  29.492  0.00  0.00    +0.100 C 
ATOM      9  N   UNL A   1     -21.491  -1.036  28.969  0.00  0.00    -0.151 NA
ENDBRANCH   7   8
ENDBRANCH   3   7
TORSDOF 2
ENDMDL
ENDMDL
