MODEL 896
MODEL 1
REMARK VINA RESULT:    -6.400      0.000      0.000
REMARK INTER + INTRA:         -12.305
REMARK INTER:                 -10.142
REMARK INTRA:                  -2.163
REMARK UNBOUND:                -2.163
REMARK  Name = No_896-gen_results/8p0m/2024-11-27-11-27-31/
REMARK  10 active torsions:
REMARK  status: ('A' for Active; 'I' for Inactive)
REMARK    1  A    between atoms: C_1  and  N_8
REMARK    2  A    between atoms: C_4  and  C_33
REMARK    3  A    between atoms: C_5  and  C_9
REMARK    4  A    between atoms: C_12  and  C_13
REMARK    5  A    between atoms: C_12  and  C_17
REMARK    6  A    between atoms: N_14  and  C_16
REMARK    7  A    between atoms: C_17  and  N_20
REMARK    8  A    between atoms: C_23  and  C_25
REMARK    9  A    between atoms: C_28  and  C_29
REMARK   10  A    between atoms: C_29  and  C_30
REMARK                            x       y       z     vdW  Elec       q    Type
REMARK                         _______ _______ _______ _____ _____    ______ ____
ROOT
ATOM      1  N   UNL A   1     -27.862 -17.183   7.936  0.00  0.00    -0.235 NA
ATOM      2  C   UNL A   1     -27.003 -17.672   7.664  0.00  0.00    +0.192 C 
ENDROOT
BRANCH   1   3
ATOM      3  C   UNL A   1     -28.696 -16.095   7.770  0.00  0.00    +0.091 C 
ATOM      4  C   UNL A   1     -29.003 -15.414   8.720  0.00  0.00    -0.025 C 
ATOM      5  C   UNL A   1     -29.153 -15.790   9.958  0.00  0.00    +0.035 C 
ATOM      6  C   UNL A   1     -29.526 -14.920  11.101  0.00  0.00    +0.119 C 
ATOM      7  C   UNL A   1     -29.688 -13.535  10.814  0.00  0.00    +0.126 C 
ATOM      8  C   UNL A   1     -29.472 -13.125   9.523  0.00  0.00    +0.017 C 
ATOM      9  C   UNL A   1     -29.117 -13.950   8.511  0.00  0.00    +0.024 C 
BRANCH   7  10
ATOM     10  C   UNL A   1     -30.076 -12.606  11.835  0.00  0.00    +0.390 C 
ATOM     11  N   UNL A   1     -29.581 -12.058  12.667  0.00  0.00    +0.192 NA
ATOM     12  N   UNL A   1     -31.562 -12.406  11.883  0.00  0.00    -0.027 NA
ATOM     13  C   UNL A   1     -32.505 -13.104  11.273  0.00  0.00    +0.306 C 
ENDBRANCH   7  10
BRANCH   6  14
ATOM     14  C   UNL A   1     -29.674 -15.395  12.477  0.00  0.00    +0.365 C 
ATOM     15  O   UNL A   1     -30.750 -15.790  12.822  0.00  0.00    -0.246 OA
ATOM     16  O   UNL A   1     -28.560 -15.783  13.140  0.00  0.00    -0.246 OA
ENDBRANCH   6  14
ENDBRANCH   1   3
BRANCH   2  17
ATOM     17  C   UNL A   1     -26.106 -17.030   6.648  0.00  0.00    +0.291 C 
ATOM     18  N   UNL A   1     -25.346 -16.261   7.127  0.00  0.00    -0.173 NA
ATOM     19  O   UNL A   1     -26.156 -17.361   5.417  0.00  0.00    -0.266 OA
BRANCH  18  20
ATOM     20  C   UNL A   1     -24.298 -15.600   6.325  0.00  0.00    +0.081 A 
ATOM     21  C   UNL A   1     -23.342 -16.033   5.946  0.00  0.00    +0.017 A 
ATOM     22  C   UNL A   1     -24.709 -14.179   6.088  0.00  0.00    +0.057 A 
ATOM     23  C   UNL A   1     -22.505 -15.471   5.402  0.00  0.00    +0.001 A 
ATOM     24  C   UNL A   1     -22.580 -14.045   5.083  0.00  0.00    +0.001 A 
ATOM     25  C   UNL A   1     -23.668 -13.498   5.453  0.00  0.00    +0.009 A 
BRANCH  22  26
ATOM     26  C   UNL A   1     -25.899 -13.537   6.570  0.00  0.00    -0.063 C 
ATOM     27  C   UNL A   1     -26.131 -12.465   6.789  0.00  0.00    -0.076 C 
BRANCH  27  28
ATOM     28  C   UNL A   1     -26.771 -11.482   7.066  0.00  0.00    +0.165 C 
BRANCH  28  29
ATOM     29  C   UNL A   1     -27.709 -10.626   7.389  0.00  0.00    +0.274 C 
ATOM     30  O   UNL A   1     -27.646 -10.022   8.375  0.00  0.00    -0.271 OA
ATOM     31  N   UNL A   1     -28.945 -10.746   6.693  0.00  0.00    -0.087 NA
ENDBRANCH  28  29
ENDBRANCH  27  28
ENDBRANCH  22  26
ENDBRANCH  18  20
ENDBRANCH   2  17
BRANCH   2  32
ATOM     32  C   UNL A   1     -26.369 -18.927   8.239  0.00  0.00    +0.291 C 
ATOM     33  O   UNL A   1     -25.852 -18.814   9.171  0.00  0.00    -0.266 OA
BRANCH  32  34
ATOM     34  N   UNL A   1     -26.542 -20.087   7.576  0.00  0.00    -0.171 NA
ATOM     35  C   UNL A   1     -27.704 -20.544   7.381  0.00  0.00    +0.107 C 
ENDBRANCH  32  34
ENDBRANCH   2  32
TORSDOF 10
ENDMDL
ENDMDL
