REMARK  Name = outputs/IAG933/test6/raw/output_8970_IAG933_linker_design_.xyz
REMARK  13 active torsions:
REMARK  status: ('A' for Active; 'I' for Inactive)
REMARK    1  A    between atoms: C_1  and  C_2
REMARK    2  A    between atoms: C_1  and  C_8
REMARK    3  A    between atoms: C_1  and  N_45
REMARK    4  A    between atoms: C_13  and  C_30
REMARK    5  A    between atoms: C_14  and  C_15
REMARK    6  A    between atoms: C_21  and  O_22
REMARK    7  A    between atoms: O_22  and  C_23
REMARK    8  A    between atoms: C_23  and  C_24
REMARK    9  A    between atoms: C_28  and  N_42
REMARK   10  A    between atoms: C_33  and  C_40
REMARK   11  A    between atoms: C_37  and  C_38
REMARK   12  A    between atoms: C_37  and  C_40
REMARK   13  A    between atoms: C_38  and  N_42
REMARK                            x       y       z     vdW  Elec       q    Type
REMARK                         _______ _______ _______ _____ _____    ______ ____
ROOT
ATOM      1  C   UNL A   1     -22.329   1.060  28.636  0.00  0.00    +0.017 C 
ATOM      2  C   UNL A   1     -24.613   1.302  27.149  0.00  0.00    +0.040 C 
ATOM      3  C   UNL A   1     -24.958   1.195  28.768  0.00  0.00    +0.069 C 
ATOM      4  C   UNL A   1     -23.241   1.762  26.427  0.00  0.00    +0.006 C 
ATOM      5  C   UNL A   1     -22.128   1.813  27.446  0.00  0.00    +0.002 C 
ATOM      6  C   UNL A   1     -22.876  -0.115  28.964  0.00  0.00    +0.072 C 
ATOM      7  N   UNL A   1     -24.295  -0.065  29.157  0.00  0.00    -0.270 NA
ENDROOT
BRANCH   2   8
ATOM      8  C   UNL A   1     -25.688   1.614  26.461  0.00  0.00    +0.017 C 
ATOM      9  C   UNL A   1     -26.250   2.920  26.395  0.00  0.00    +0.073 C 
ATOM     10  C   UNL A   1     -27.438   3.091  25.645  0.00  0.00    +0.106 C 
ATOM     11  N   UNL A   1     -28.075   2.089  25.003  0.00  0.00    -0.208 NA
ATOM     12  C   UNL A   1     -27.543   0.849  25.079  0.00  0.00    +0.253 C 
ATOM     13  C   UNL A   1     -26.354   0.576  25.777  0.00  0.00    +0.189 C 
ATOM     14  F   UNL A   1     -25.860  -0.681  25.795  0.00  0.00    -0.200 F 
BRANCH   9  15
ATOM     15  C   UNL A   1     -25.642   4.093  27.123  0.00  0.00    +0.266 C 
ATOM     16  N   UNL A   1     -25.614   5.252  26.449  0.00  0.00    -0.200 NA
ATOM     17  C   UNL A   1     -25.026   6.479  26.963  0.00  0.00    +0.139 C 
ATOM     18  O   UNL A   1     -25.143   3.966  28.243  0.00  0.00    -0.268 OA
ENDBRANCH   9  15
BRANCH  12  19
ATOM     19  O   UNL A   1     -28.193  -0.208  24.477  0.00  0.00    -0.456 OA
BRANCH  19  20
ATOM     20  C   UNL A   1     -29.460   0.005  23.866  0.00  0.00    +0.243 C 
BRANCH  20  21
ATOM     21  C   UNL A   1     -30.065  -1.377  23.573  0.00  0.00    +0.229 C 
ATOM     22  O   UNL A   1     -30.729  -1.878  24.721  0.00  0.00    -0.216 OA
ENDBRANCH  20  21
ENDBRANCH  19  20
ENDBRANCH  12  19
ENDBRANCH   2   8
BRANCH   7  23
ATOM     23  C   UNL A   1     -24.855  -1.012  30.143  0.00  0.00    +0.096 C 
BRANCH  23  24
ATOM     24  C   UNL A   1     -24.973  -2.505  29.788  0.00  0.00    -0.006 C 
ATOM     25  C   UNL A   1     -23.906  -3.173  29.146  0.00  0.00    -0.003 C 
ATOM     26  C   UNL A   1     -23.989  -4.549  28.853  0.00  0.00    -0.000 C 
ATOM     27  C   UNL A   1     -25.137  -5.280  29.205  0.00  0.00    -0.000 C 
ATOM     28  C   UNL A   1     -26.232  -4.611  29.784  0.00  0.00    -0.000 C 
ATOM     29  C   UNL A   1     -26.155  -3.232  30.065  0.00  0.00    -0.003 C 
ENDBRANCH  23  24
BRANCH  23  30
ATOM     30  C   UNL A   1     -25.387  -0.679  31.571  0.00  0.00    +0.092 C 
ATOM     31  C   UNL A   1     -25.189   0.773  32.028  0.00  0.00    +0.021 C 
ATOM     32  C   UNL A   1     -25.336   0.684  33.544  0.00  0.00    +0.020 C 
ATOM     33  C   UNL A   1     -24.829  -0.715  33.905  0.00  0.00    +0.089 C 
ATOM     34  N   UNL A   1     -24.758  -1.481  32.646  0.00  0.00    -0.218 NA
ENDBRANCH  23  30
ENDBRANCH   7  23
BRANCH   3  35
ATOM     35  C   UNL A   1     -26.146   1.695  29.633  0.00  0.00    +0.085 C 
BRANCH  35  37
ATOM     36  O   UNL A   1     -27.881  -0.108  29.071  0.00  0.00    -0.292 OA
ATOM     37  C   UNL A   1     -27.482   0.870  29.579  0.00  0.00    +0.195 C 
BRANCH  37  38
ATOM     38  C   UNL A   1     -28.926   1.200  30.828  0.00  0.00    +0.237 C 
ATOM     39  O   UNL A   1     -29.225   2.489  30.274  0.00  0.00    -0.200 OA
ATOM     40  C   UNL A   1     -30.293   0.731  31.085  0.00  0.00    +0.059 C 
BRANCH  38  41
ATOM     41  N   UNL A   1     -28.319   0.934  32.008  0.00  0.00    -0.188 NA
BRANCH  41  42
ATOM     42  C   UNL A   1     -28.522   1.774  33.050  0.00  0.00    +0.076 C 
ATOM     43  C   UNL A   1     -27.671   2.438  35.112  0.00  0.00    +0.002 C 
ATOM     44  C   UNL A   1     -28.484   1.323  34.469  0.00  0.00    +0.018 C 
ATOM     45  C   UNL A   1     -27.732   3.696  34.280  0.00  0.00    +0.002 C 
ATOM     46  C   UNL A   1     -28.227   3.216  32.916  0.00  0.00    +0.018 C 
ENDBRANCH  41  42
ENDBRANCH  38  41
ENDBRANCH  37  38
ENDBRANCH  35  37
ENDBRANCH   3  35
TORSDOF 13
