REMARK  Name = outputs/IAG933/test6/raw/output_8976_IAG933_linker_design_.xyz
REMARK  10 active torsions:
REMARK  status: ('A' for Active; 'I' for Inactive)
REMARK    1  A    between atoms: C_1  and  C_2
REMARK    2  A    between atoms: C_13  and  C_44
REMARK    3  A    between atoms: C_14  and  C_15
REMARK    4  A    between atoms: C_21  and  O_22
REMARK    5  A    between atoms: O_22  and  C_23
REMARK    6  A    between atoms: C_23  and  C_24
REMARK    7  A    between atoms: C_30  and  O_36
REMARK    8  A    between atoms: C_32  and  N_41
REMARK    9  A    between atoms: C_32  and  C_43
REMARK   10  A    between atoms: N_34  and  O_36
REMARK                            x       y       z     vdW  Elec       q    Type
REMARK                         _______ _______ _______ _____ _____    ______ ____
ROOT
ATOM      1  C   UNL A   1     -22.345   0.560  29.385  0.00  0.00    +0.133 C 
ENDROOT
BRANCH   1   9
ATOM      2  C   UNL A   1     -24.855  -1.012  30.143  0.00  0.00    +0.043 C 
ATOM      3  C   UNL A   1     -25.387  -0.679  31.571  0.00  0.00    +0.079 C 
ATOM      4  C   UNL A   1     -25.189   0.773  32.028  0.00  0.00    +0.047 C 
ATOM      5  C   UNL A   1     -25.336   0.684  33.544  0.00  0.00    +0.023 C 
ATOM      6  C   UNL A   1     -24.829  -0.715  33.905  0.00  0.00    +0.089 C 
ATOM      7  N   UNL A   1     -24.758  -1.481  32.646  0.00  0.00    -0.219 NA
ATOM      8  C   UNL A   1     -24.120   1.391  31.032  0.00  0.00    +0.141 C 
ATOM      9  C   UNL A   1     -23.733   0.107  30.085  0.00  0.00    +0.059 C 
BRANCH   2  10
ATOM     10  C   UNL A   1     -24.973  -2.505  29.788  0.00  0.00    -0.021 C 
ATOM     11  C   UNL A   1     -23.906  -3.173  29.146  0.00  0.00    -0.004 C 
ATOM     12  C   UNL A   1     -23.989  -4.549  28.853  0.00  0.00    -0.000 C 
ATOM     13  C   UNL A   1     -25.137  -5.280  29.205  0.00  0.00    -0.000 C 
ATOM     14  C   UNL A   1     -26.232  -4.611  29.784  0.00  0.00    -0.000 C 
ATOM     15  C   UNL A   1     -26.155  -3.232  30.065  0.00  0.00    -0.004 C 
ENDBRANCH   2  10
BRANCH   8  16
ATOM     16  O   UNL A   1     -24.184   3.012  31.567  0.00  0.00    -0.282 OA
BRANCH  16  19
ATOM     17  C   UNL A   1     -27.024   4.384  33.347  0.00  0.00    +0.162 C 
ATOM     18  C   UNL A   1     -26.492   3.440  31.249  0.00  0.00    +0.245 C 
ATOM     19  N   UNL A   1     -25.438   3.148  32.191  0.00  0.00    -0.136 NA
ATOM     20  O   UNL A   1     -27.408   4.213  31.971  0.00  0.00    -0.334 OA
ATOM     21  C   UNL A   1     -25.531   4.207  33.188  0.00  0.00    +0.116 C 
ATOM     22  C   UNL A   1     -24.932   5.484  32.613  0.00  0.00    +0.023 C 
ENDBRANCH  16  19
ENDBRANCH   8  16
ENDBRANCH   1   9
BRANCH   1  27
ATOM     23  C   UNL A   1     -22.194   1.754  27.282  0.00  0.00    +0.260 A 
ATOM     24  O   UNL A   1     -22.996   2.549  25.184  0.00  0.00    -0.281 OA
ATOM     25  F   UNL A   1     -20.830   1.750  27.426  0.00  0.00    -0.180 F 
ATOM     26  N   UNL A   1     -24.126   1.042  28.049  0.00  0.00    -0.168 NA
ATOM     27  N   UNL A   1     -22.850   1.190  28.329  0.00  0.00    -0.224 N 
ATOM     28  C   UNL A   1     -23.176   2.025  26.342  0.00  0.00    +0.256 A 
ATOM     29  C   UNL A   1     -24.420   1.535  26.914  0.00  0.00    +0.128 A 
BRANCH  29  30
ATOM     30  C   UNL A   1     -25.688   1.614  26.461  0.00  0.00    +0.115 C 
ATOM     31  C   UNL A   1     -26.250   2.920  26.395  0.00  0.00    +0.061 C 
ATOM     32  C   UNL A   1     -27.438   3.091  25.645  0.00  0.00    +0.102 C 
ATOM     33  N   UNL A   1     -28.075   2.089  25.003  0.00  0.00    -0.212 NA
ATOM     34  C   UNL A   1     -27.543   0.849  25.079  0.00  0.00    +0.234 C 
ATOM     35  C   UNL A   1     -26.354   0.576  25.777  0.00  0.00    +0.246 C 
ATOM     36  F   UNL A   1     -25.860  -0.681  25.795  0.00  0.00    -0.227 F 
BRANCH  31  37
ATOM     37  C   UNL A   1     -25.642   4.093  27.123  0.00  0.00    +0.263 C 
ATOM     38  N   UNL A   1     -25.614   5.252  26.449  0.00  0.00    -0.200 NA
ATOM     39  C   UNL A   1     -25.026   6.479  26.963  0.00  0.00    +0.139 C 
ATOM     40  O   UNL A   1     -25.143   3.966  28.243  0.00  0.00    -0.269 OA
ENDBRANCH  31  37
BRANCH  34  41
ATOM     41  O   UNL A   1     -28.193  -0.208  24.477  0.00  0.00    -0.459 OA
BRANCH  41  42
ATOM     42  C   UNL A   1     -29.460   0.005  23.866  0.00  0.00    +0.242 C 
BRANCH  42  43
ATOM     43  C   UNL A   1     -30.065  -1.377  23.573  0.00  0.00    +0.229 C 
ATOM     44  O   UNL A   1     -30.729  -1.878  24.721  0.00  0.00    -0.216 OA
ENDBRANCH  42  43
ENDBRANCH  41  42
ENDBRANCH  34  41
ENDBRANCH  29  30
ENDBRANCH   1  27
TORSDOF 10
