MODEL 897
MODEL 1
REMARK VINA RESULT:    -6.080      0.000      0.000
REMARK INTER + INTRA:          -7.891
REMARK INTER:                  -7.502
REMARK INTRA:                  -0.389
REMARK UNBOUND:                -0.389
REMARK  Name = No_897-gen_results/8p0m/2024-11-27-11-27-31/
REMARK  4 active torsions:
REMARK  status: ('A' for Active; 'I' for Inactive)
REMARK    1  A    between atoms: C_1  and  C_2
REMARK    2  A    between atoms: C_1  and  N_8
REMARK    3  A    between atoms: C_5  and  C_9
REMARK    4  A    between atoms: N_8  and  C_13
REMARK                            x       y       z     vdW  Elec       q    Type
REMARK                         _______ _______ _______ _____ _____    ______ ____
ROOT
ATOM      1  C   UNL A   1     -23.277  -0.267  28.572  0.00  0.00    -0.001 A 
ATOM      2  C   UNL A   1     -22.306   0.637  28.173  0.00  0.00    -0.003 A 
ATOM      3  C   UNL A   1     -22.505   1.782  27.318  0.00  0.00    +0.004 A 
ATOM      4  C   UNL A   1     -23.804   2.033  26.814  0.00  0.00    +0.071 A 
ATOM      5  C   UNL A   1     -24.845   1.141  27.182  0.00  0.00    +0.004 A 
ATOM      6  C   UNL A   1     -24.563   0.105  28.018  0.00  0.00    -0.003 A 
ENDROOT
BRANCH   4   7
ATOM      7  C   UNL A   1     -24.090   3.148  25.944  0.00  0.00    +0.419 C 
ATOM      8  F   UNL A   1     -25.157   3.042  25.402  0.00  0.00    -0.166 F 
ATOM      9  F   UNL A   1     -23.124   3.401  25.069  0.00  0.00    -0.166 F 
ATOM     10  F   UNL A   1     -24.157   4.307  26.710  0.00  0.00    -0.166 F 
ENDBRANCH   4   7
BRANCH   1  11
ATOM     11  C   UNL A   1     -23.102  -1.181  29.345  0.00  0.00    +0.139 C 
BRANCH  11  12
ATOM     12  N   UNL A   1     -23.250  -2.419  28.853  0.00  0.00    -0.232 NA
BRANCH  12  13
ATOM     13  C   UNL A   1     -24.160  -3.315  29.288  0.00  0.00    +0.076 C 
ATOM     14  C   UNL A   1     -24.080  -4.280  28.730  0.00  0.00    -0.008 C 
ATOM     15  C   UNL A   1     -24.992  -5.415  28.969  0.00  0.00    +0.032 C 
ENDBRANCH  12  13
ENDBRANCH  11  12
ENDBRANCH   1  11
TORSDOF 4
ENDMDL
ENDMDL
