REMARK  Name = outputs/IAG933/test6/raw/output_898_IAG933_linker_design_.xyz
REMARK  9 active torsions:
REMARK  status: ('A' for Active; 'I' for Inactive)
REMARK    1  A    between atoms: C_1  and  C_2
REMARK    2  A    between atoms: C_13  and  C_41
REMARK    3  A    between atoms: C_14  and  C_15
REMARK    4  A    between atoms: C_21  and  O_22
REMARK    5  A    between atoms: O_22  and  C_23
REMARK    6  A    between atoms: C_23  and  C_24
REMARK    7  A    between atoms: C_30  and  C_38
REMARK    8  A    between atoms: C_38  and  O_42
REMARK    9  A    between atoms: O_42  and  C_43
REMARK                            x       y       z     vdW  Elec       q    Type
REMARK                         _______ _______ _______ _____ _____    ______ ____
ROOT
ATOM      1  C   UNL A   1     -24.855  -1.012  30.143  0.00  0.00    +0.081 C 
ATOM      2  C   UNL A   1     -25.387  -0.679  31.571  0.00  0.00    +0.082 C 
ATOM      3  C   UNL A   1     -25.189   0.773  32.028  0.00  0.00    +0.043 C 
ATOM      4  C   UNL A   1     -25.336   0.684  33.544  0.00  0.00    +0.022 C 
ATOM      5  C   UNL A   1     -24.829  -0.715  33.905  0.00  0.00    +0.089 C 
ATOM      6  N   UNL A   1     -24.758  -1.481  32.646  0.00  0.00    -0.219 NA
ATOM      7  N   UNL A   1     -24.760   1.248  29.433  0.00  0.00    -0.240 NA
ATOM      8  C   UNL A   1     -25.308   1.758  30.815  0.00  0.00    +0.161 C 
ATOM      9  O   UNL A   1     -24.990  -0.182  27.705  0.00  0.00    -0.338 OA
ATOM     10  C   UNL A   1     -23.619   1.527  27.231  0.00  0.00    +0.096 C 
ATOM     11  C   UNL A   1     -23.225   1.286  29.583  0.00  0.00    +0.108 C 
ATOM     12  C   UNL A   1     -22.728   1.250  28.157  0.00  0.00    +0.173 C 
ATOM     13  O   UNL A   1     -21.483   2.074  26.200  0.00  0.00    -0.220 OA
ATOM     14  C   UNL A   1     -22.858   2.356  26.082  0.00  0.00    +0.187 C 
ATOM     15  C   UNL A   1     -25.016  -0.034  29.015  0.00  0.00    +0.182 C 
ATOM     16  O   UNL A   1     -21.485   1.491  27.520  0.00  0.00    -0.221 OA
ATOM     17  C   UNL A   1     -24.735   1.123  27.040  0.00  0.00    +0.146 C 
ENDROOT
BRANCH  17  18
ATOM     18  C   UNL A   1     -25.688   1.614  26.461  0.00  0.00    +0.043 C 
ATOM     19  C   UNL A   1     -26.250   2.920  26.395  0.00  0.00    +0.075 C 
ATOM     20  C   UNL A   1     -27.438   3.091  25.645  0.00  0.00    +0.106 C 
ATOM     21  N   UNL A   1     -28.075   2.089  25.003  0.00  0.00    -0.208 NA
ATOM     22  C   UNL A   1     -27.543   0.849  25.079  0.00  0.00    +0.253 C 
ATOM     23  C   UNL A   1     -26.354   0.576  25.777  0.00  0.00    +0.191 C 
ATOM     24  F   UNL A   1     -25.860  -0.681  25.795  0.00  0.00    -0.200 F 
BRANCH  19  25
ATOM     25  C   UNL A   1     -25.642   4.093  27.123  0.00  0.00    +0.266 C 
ATOM     26  N   UNL A   1     -25.614   5.252  26.449  0.00  0.00    -0.200 NA
ATOM     27  C   UNL A   1     -25.026   6.479  26.963  0.00  0.00    +0.139 C 
ATOM     28  O   UNL A   1     -25.143   3.966  28.243  0.00  0.00    -0.268 OA
ENDBRANCH  19  25
BRANCH  22  29
ATOM     29  O   UNL A   1     -28.193  -0.208  24.477  0.00  0.00    -0.456 OA
BRANCH  29  30
ATOM     30  C   UNL A   1     -29.460   0.005  23.866  0.00  0.00    +0.243 C 
BRANCH  30  31
ATOM     31  C   UNL A   1     -30.065  -1.377  23.573  0.00  0.00    +0.229 C 
ATOM     32  O   UNL A   1     -30.729  -1.878  24.721  0.00  0.00    -0.216 OA
ENDBRANCH  30  31
ENDBRANCH  29  30
ENDBRANCH  22  29
ENDBRANCH  17  18
BRANCH   1  33
ATOM     33  C   UNL A   1     -24.973  -2.505  29.788  0.00  0.00    -0.017 C 
ATOM     34  C   UNL A   1     -23.906  -3.173  29.146  0.00  0.00    -0.004 C 
ATOM     35  C   UNL A   1     -23.989  -4.549  28.853  0.00  0.00    -0.000 C 
ATOM     36  C   UNL A   1     -25.137  -5.280  29.205  0.00  0.00    -0.000 C 
ATOM     37  C   UNL A   1     -26.232  -4.611  29.784  0.00  0.00    -0.000 C 
ATOM     38  C   UNL A   1     -26.155  -3.232  30.065  0.00  0.00    -0.004 C 
ENDBRANCH   1  33
BRANCH   8  40
ATOM     39  O   UNL A   1     -26.576   3.444  31.975  0.00  0.00    -0.249 OA
ATOM     40  C   UNL A   1     -25.483   3.102  31.653  0.00  0.00    +0.332 C 
BRANCH  40  41
ATOM     41  O   UNL A   1     -24.325   3.858  31.902  0.00  0.00    -0.448 OA
BRANCH  41  43
ATOM     42  C   UNL A   1     -24.959   5.763  33.564  0.00  0.00    +0.051 C 
ATOM     43  C   UNL A   1     -24.179   4.891  32.587  0.00  0.00    +0.209 C 
ENDBRANCH  41  43
ENDBRANCH  40  41
ENDBRANCH   8  40
TORSDOF 9
