REMARK  Name = outputs/IAG933/test6/raw/output_8982_IAG933_linker_design_.xyz
REMARK  13 active torsions:
REMARK  status: ('A' for Active; 'I' for Inactive)
REMARK    1  A    between atoms: C_1  and  C_2
REMARK    2  A    between atoms: C_1  and  C_8
REMARK    3  A    between atoms: C_1  and  C_46
REMARK    4  A    between atoms: C_13  and  C_41
REMARK    5  A    between atoms: C_14  and  C_15
REMARK    6  A    between atoms: N_16  and  C_17
REMARK    7  A    between atoms: C_17  and  C_32
REMARK    8  A    between atoms: C_21  and  O_22
REMARK    9  A    between atoms: O_22  and  C_23
REMARK   10  A    between atoms: C_23  and  C_24
REMARK   11  A    between atoms: O_29  and  C_32
REMARK   12  A    between atoms: O_29  and  C_37
REMARK   13  A    between atoms: N_34  and  C_37
REMARK                            x       y       z     vdW  Elec       q    Type
REMARK                         _______ _______ _______ _____ _____    ______ ____
ROOT
ATOM      1  C   UNL A   1     -25.688   1.614  26.461  0.00  0.00    +0.096 C 
ATOM      2  C   UNL A   1     -26.250   2.920  26.395  0.00  0.00    +0.057 C 
ATOM      3  C   UNL A   1     -27.438   3.091  25.645  0.00  0.00    +0.102 C 
ATOM      4  N   UNL A   1     -28.075   2.089  25.003  0.00  0.00    -0.212 NA
ATOM      5  C   UNL A   1     -27.543   0.849  25.079  0.00  0.00    +0.234 C 
ATOM      6  C   UNL A   1     -26.354   0.576  25.777  0.00  0.00    +0.242 C 
ATOM      7  F   UNL A   1     -25.860  -0.681  25.795  0.00  0.00    -0.227 F 
ENDROOT
BRANCH   1  15
ATOM      8  O   UNL A   1     -23.599   0.963  29.288  0.00  0.00    -0.381 OA
ATOM      9  C   UNL A   1     -20.846   1.700  26.861  0.00  0.00    +0.235 C 
ATOM     10  C   UNL A   1     -21.354   1.292  28.084  0.00  0.00    +0.060 C 
ATOM     11  C   UNL A   1     -23.556   1.407  27.114  0.00  0.00    +0.073 C 
ATOM     12  C   UNL A   1     -23.019   1.987  25.973  0.00  0.00    +0.173 C 
ATOM     13  N   UNL A   1     -24.834   0.778  28.621  0.00  0.00    -0.119 N 
ATOM     14  O   UNL A   1     -26.706  -0.255  28.877  0.00  0.00    -0.272 OA
ATOM     15  C   UNL A   1     -24.874   1.264  27.505  0.00  0.00    +0.150 C 
ATOM     16  C   UNL A   1     -22.735   1.239  28.206  0.00  0.00    +0.171 C 
ATOM     17  O   UNL A   1     -21.674   2.115  25.886  0.00  0.00    -0.468 OA
ATOM     18  C   UNL A   1     -25.598  -0.121  29.158  0.00  0.00    +0.262 C 
BRANCH  18  19
ATOM     19  C   UNL A   1     -24.855  -1.012  30.143  0.00  0.00    +0.118 C 
BRANCH  19  20
ATOM     20  C   UNL A   1     -24.973  -2.505  29.788  0.00  0.00    -0.012 C 
ATOM     21  C   UNL A   1     -23.906  -3.173  29.146  0.00  0.00    -0.004 C 
ATOM     22  C   UNL A   1     -23.989  -4.549  28.853  0.00  0.00    -0.000 C 
ATOM     23  C   UNL A   1     -25.137  -5.280  29.205  0.00  0.00    -0.000 C 
ATOM     24  C   UNL A   1     -26.232  -4.611  29.784  0.00  0.00    -0.000 C 
ATOM     25  C   UNL A   1     -26.155  -3.232  30.065  0.00  0.00    -0.004 C 
ENDBRANCH  19  20
BRANCH  19  26
ATOM     26  C   UNL A   1     -25.387  -0.679  31.571  0.00  0.00    +0.086 C 
ATOM     27  C   UNL A   1     -25.189   0.773  32.028  0.00  0.00    +0.020 C 
ATOM     28  C   UNL A   1     -25.336   0.684  33.544  0.00  0.00    +0.020 C 
ATOM     29  C   UNL A   1     -24.829  -0.715  33.905  0.00  0.00    +0.089 C 
ATOM     30  N   UNL A   1     -24.758  -1.481  32.646  0.00  0.00    -0.219 NA
ENDBRANCH  19  26
ENDBRANCH  18  19
ENDBRANCH   1  15
BRANCH   2  31
ATOM     31  C   UNL A   1     -25.642   4.093  27.123  0.00  0.00    +0.263 C 
ATOM     32  N   UNL A   1     -25.614   5.252  26.449  0.00  0.00    -0.199 NA
ATOM     33  O   UNL A   1     -25.143   3.966  28.243  0.00  0.00    -0.269 OA
BRANCH  32  34
ATOM     34  C   UNL A   1     -25.026   6.479  26.963  0.00  0.00    +0.147 C 
BRANCH  34  35
ATOM     35  C   UNL A   1     -25.472   7.133  28.258  0.00  0.00    +0.167 C 
BRANCH  35  36
ATOM     36  O   UNL A   1     -24.448   8.080  28.612  0.00  0.00    -0.335 OA
BRANCH  36  37
ATOM     37  C   UNL A   1     -24.095   8.442  29.917  0.00  0.00    +0.220 C 
BRANCH  37  39
ATOM     38  C   UNL A   1     -21.844   9.168  31.048  0.00  0.00    +0.074 C 
ATOM     39  N   UNL A   1     -22.807   9.082  29.950  0.00  0.00    -0.248 NA
ATOM     40  C   UNL A   1     -20.787   9.875  28.957  0.00  0.00    +0.019 C 
ATOM     41  C   UNL A   1     -20.491   9.333  30.354  0.00  0.00    +0.019 C 
ATOM     42  C   UNL A   1     -22.277   9.657  28.720  0.00  0.00    +0.074 C 
ENDBRANCH  37  39
ENDBRANCH  36  37
ENDBRANCH  35  36
ENDBRANCH  34  35
ENDBRANCH  32  34
ENDBRANCH   2  31
BRANCH   5  43
ATOM     43  O   UNL A   1     -28.193  -0.208  24.477  0.00  0.00    -0.459 OA
BRANCH  43  44
ATOM     44  C   UNL A   1     -29.460   0.005  23.866  0.00  0.00    +0.242 C 
BRANCH  44  45
ATOM     45  C   UNL A   1     -30.065  -1.377  23.573  0.00  0.00    +0.229 C 
ATOM     46  O   UNL A   1     -30.729  -1.878  24.721  0.00  0.00    -0.216 OA
ENDBRANCH  44  45
ENDBRANCH  43  44
ENDBRANCH   5  43
TORSDOF 13
