REMARK  Name = outputs/IAG933/test6/raw/output_8985_IAG933_linker_design_.xyz
REMARK  17 active torsions:
REMARK  status: ('A' for Active; 'I' for Inactive)
REMARK    1  A    between atoms: C_1  and  C_2
REMARK    2  A    between atoms: C_1  and  C_8
REMARK    3  A    between atoms: C_1  and  N_45
REMARK    4  A    between atoms: C_14  and  C_15
REMARK    5  A    between atoms: C_15  and  O_18
REMARK    6  A    between atoms: O_18  and  C_32
REMARK    7  A    between atoms: C_21  and  O_22
REMARK    8  A    between atoms: O_22  and  C_23
REMARK    9  A    between atoms: C_23  and  C_24
REMARK   10  A    between atoms: CA_29  and  C_36
REMARK   11  A    between atoms: CA_29  and  C_42
REMARK   12  A    between atoms: CA_29  and  N_45
REMARK   13  A    between atoms: C_30  and  C_32
REMARK   14  A    between atoms: C_30  and  C_42
REMARK   15  A    between atoms: C_32  and  C_37
REMARK   16  A    between atoms: C_33  and  C_34
REMARK   17  A    between atoms: C_33  and  N_43
REMARK                            x       y       z     vdW  Elec       q    Type
REMARK                         _______ _______ _______ _____ _____    ______ ____
ROOT
ATOM      1  C   UNL A   1     -25.349   3.665  29.410  0.00  0.00    +0.180 C 
ENDROOT
BRANCH   1   5
ATOM      2  C   UNL A   1     -27.878   5.958  30.485  0.00  0.00    +0.060 C 
ATOM      3  O   UNL A   1     -27.819   2.617  29.277  0.00  0.00    -0.274 OA
ATOM      4  C   UNL A   1     -26.597   5.678  30.576  0.00  0.00    -0.017 C 
ATOM      5  C   UNL A   1     -26.400   4.435  30.056  0.00  0.00    +0.136 C 
ATOM      6  C   UNL A   1     -25.549   6.643  31.257  0.00  0.00    +0.028 C 
ATOM      7  N   UNL A   1     -28.405   4.826  30.019  0.00  0.00    -0.255 N 
ATOM      8  C   UNL A   1     -27.627   3.833  29.803  0.00  0.00    +0.236 C 
BRANCH   7   9
ATOM      9  C   UNL A   1     -29.823   4.641  29.564  0.00  0.00    +0.134 C 
BRANCH   9  10
ATOM     10  C   UNL A   1     -29.897   4.775  28.077  0.00  0.00    +0.204 C 
ATOM     11  O   UNL A   1     -28.866   5.372  27.299  0.00  0.00    -0.218 OA
ENDBRANCH   9  10
ENDBRANCH   7   9
ENDBRANCH   1   5
BRANCH   1  12
ATOM     12  O   UNL A   1     -25.143   3.966  28.243  0.00  0.00    -0.463 OA
BRANCH  12  13
ATOM     13  C   UNL A   1     -25.642   4.093  27.123  0.00  0.00    +0.222 C 
ATOM     14  N   UNL A   1     -25.614   5.252  26.449  0.00  0.00    -0.236 NA
ATOM     15  C   UNL A   1     -25.026   6.479  26.963  0.00  0.00    +0.155 C 
BRANCH  13  17
ATOM     16  C   UNL A   1     -25.688   1.614  26.461  0.00  0.00    +0.041 C 
ATOM     17  C   UNL A   1     -26.250   2.920  26.395  0.00  0.00    +0.074 C 
ATOM     18  C   UNL A   1     -27.438   3.091  25.645  0.00  0.00    +0.107 C 
ATOM     19  N   UNL A   1     -28.075   2.089  25.003  0.00  0.00    -0.208 NA
ATOM     20  C   UNL A   1     -27.543   0.849  25.079  0.00  0.00    +0.253 C 
ATOM     21  C   UNL A   1     -26.354   0.576  25.777  0.00  0.00    +0.193 C 
ATOM     22  F   UNL A   1     -25.860  -0.681  25.795  0.00  0.00    -0.199 F 
BRANCH  20  23
ATOM     23  O   UNL A   1     -28.193  -0.208  24.477  0.00  0.00    -0.456 OA
BRANCH  23  24
ATOM     24  C   UNL A   1     -29.460   0.005  23.866  0.00  0.00    +0.243 C 
BRANCH  24  25
ATOM     25  C   UNL A   1     -30.065  -1.377  23.573  0.00  0.00    +0.229 C 
ATOM     26  O   UNL A   1     -30.729  -1.878  24.721  0.00  0.00    -0.216 OA
ENDBRANCH  24  25
ENDBRANCH  23  24
ENDBRANCH  20  23
ENDBRANCH  13  17
ENDBRANCH  12  13
ENDBRANCH   1  12
BRANCH   1  27
ATOM     27  C   UNL A   1     -24.761   2.398  29.956  0.00  0.00    +0.046 C 
BRANCH  27  28
ATOM     28  C   UNL A   1     -24.447   1.548  29.211  0.00  0.00    +0.033 C 
BRANCH  28  29
ATOM     29  CA  UNL A   1     -23.003   0.921  29.174  0.00  0.00    +0.176 C 
BRANCH  29  30
ATOM     30  C   UNL A   1     -22.120   1.336  27.882  0.00  0.00    +0.380 C 
ATOM     31  O   UNL A   1     -22.714   1.946  26.991  0.00  0.00    -0.244 OA
ATOM     32  OXT UNL A   1     -20.956   1.087  27.867  0.00  0.00    -0.244 OA
ENDBRANCH  29  30
BRANCH  29  33
ATOM     33  N   UNL A   1     -23.453  -0.424  29.771  0.00  0.00    -0.204 NA
BRANCH  33  34
ATOM     34  C   UNL A   1     -24.855  -1.012  30.143  0.00  0.00    +0.111 C 
BRANCH  34  35
ATOM     35  C   UNL A   1     -24.973  -2.505  29.788  0.00  0.00    -0.005 C 
ATOM     36  C   UNL A   1     -23.906  -3.173  29.146  0.00  0.00    -0.003 C 
ATOM     37  C   UNL A   1     -23.989  -4.549  28.853  0.00  0.00    -0.000 C 
ATOM     38  C   UNL A   1     -25.137  -5.280  29.205  0.00  0.00    -0.000 C 
ATOM     39  C   UNL A   1     -26.232  -4.611  29.784  0.00  0.00    -0.000 C 
ATOM     40  C   UNL A   1     -26.155  -3.232  30.065  0.00  0.00    -0.003 C 
ENDBRANCH  34  35
BRANCH  34  41
ATOM     41  C   UNL A   1     -25.387  -0.679  31.571  0.00  0.00    +0.093 C 
ATOM     42  C   UNL A   1     -25.189   0.773  32.028  0.00  0.00    +0.021 C 
ATOM     43  C   UNL A   1     -25.336   0.684  33.544  0.00  0.00    +0.020 C 
ATOM     44  C   UNL A   1     -24.829  -0.715  33.905  0.00  0.00    +0.089 C 
ATOM     45  N   UNL A   1     -24.758  -1.481  32.646  0.00  0.00    -0.218 NA
ENDBRANCH  34  41
ENDBRANCH  33  34
ENDBRANCH  29  33
ENDBRANCH  28  29
ENDBRANCH  27  28
ENDBRANCH   1  27
TORSDOF 17
