REMARK  Name = outputs/IAG933/test6/raw/output_8987_IAG933_linker_design_.xyz
REMARK  14 active torsions:
REMARK  status: ('A' for Active; 'I' for Inactive)
REMARK    1  A    between atoms: C_1  and  C_2
REMARK    2  A    between atoms: C_1  and  C_8
REMARK    3  A    between atoms: C_1  and  N_35
REMARK    4  A    between atoms: C_13  and  C_48
REMARK    5  A    between atoms: C_14  and  C_15
REMARK    6  A    between atoms: C_15  and  O_18
REMARK    7  A    between atoms: O_18  and  C_31
REMARK    8  A    between atoms: C_21  and  O_22
REMARK    9  A    between atoms: O_22  and  C_23
REMARK   10  A    between atoms: C_23  and  C_24
REMARK   11  A    between atoms: C_32  and  C_39
REMARK   12  A    between atoms: C_33  and  N_35
REMARK   13  A    between atoms: C_34  and  N_37
REMARK   14  A    between atoms: N_37  and  C_49
REMARK                            x       y       z     vdW  Elec       q    Type
REMARK                         _______ _______ _______ _____ _____    ______ ____
ROOT
ATOM      1  C   UNL A   1     -25.688   1.614  26.461  0.00  0.00    +0.040 C 
ATOM      2  C   UNL A   1     -26.250   2.920  26.395  0.00  0.00    +0.075 C 
ATOM      3  C   UNL A   1     -27.438   3.091  25.645  0.00  0.00    +0.107 C 
ATOM      4  N   UNL A   1     -28.075   2.089  25.003  0.00  0.00    -0.208 NA
ATOM      5  C   UNL A   1     -27.543   0.849  25.079  0.00  0.00    +0.253 C 
ATOM      6  C   UNL A   1     -26.354   0.576  25.777  0.00  0.00    +0.193 C 
ATOM      7  F   UNL A   1     -25.860  -0.681  25.795  0.00  0.00    -0.199 F 
ENDROOT
BRANCH   1  14
ATOM      8  C   UNL A   1     -21.624   1.235  27.757  0.00  0.00    +0.043 C 
ATOM      9  C   UNL A   1     -23.943   0.651  28.238  0.00  0.00    +0.104 C 
ATOM     10  C   UNL A   1     -21.956   1.912  26.569  0.00  0.00    +0.003 C 
ATOM     11  C   UNL A   1     -22.600   0.600  28.535  0.00  0.00    +0.210 C 
ATOM     12  O   UNL A   1     -22.269  -0.116  29.634  0.00  0.00    -0.285 OA
ATOM     13  C   UNL A   1     -23.287   2.024  26.172  0.00  0.00    +0.002 C 
ATOM     14  C   UNL A   1     -24.323   1.410  26.978  0.00  0.00    +0.021 C 
BRANCH   9  15
ATOM     15  N   UNL A   1     -24.862  -0.012  29.068  0.00  0.00    -0.230 NA
BRANCH  15  16
ATOM     16  C   UNL A   1     -24.855  -1.012  30.143  0.00  0.00    +0.131 C 
BRANCH  16  17
ATOM     17  C   UNL A   1     -24.973  -2.505  29.788  0.00  0.00    -0.001 C 
ATOM     18  C   UNL A   1     -23.906  -3.173  29.146  0.00  0.00    -0.003 C 
ATOM     19  C   UNL A   1     -23.989  -4.549  28.853  0.00  0.00    -0.000 C 
ATOM     20  C   UNL A   1     -25.137  -5.280  29.205  0.00  0.00    -0.000 C 
ATOM     21  C   UNL A   1     -26.232  -4.611  29.784  0.00  0.00    -0.000 C 
ATOM     22  C   UNL A   1     -26.155  -3.232  30.065  0.00  0.00    -0.003 C 
ENDBRANCH  16  17
BRANCH  16  23
ATOM     23  C   UNL A   1     -25.387  -0.679  31.571  0.00  0.00    +0.097 C 
ATOM     24  C   UNL A   1     -25.189   0.773  32.028  0.00  0.00    +0.021 C 
ATOM     25  C   UNL A   1     -25.336   0.684  33.544  0.00  0.00    +0.020 C 
ATOM     26  C   UNL A   1     -24.829  -0.715  33.905  0.00  0.00    +0.089 C 
ATOM     27  N   UNL A   1     -24.758  -1.481  32.646  0.00  0.00    -0.217 NA
ENDBRANCH  16  23
ENDBRANCH  15  16
ENDBRANCH   9  15
ENDBRANCH   1  14
BRANCH   2  28
ATOM     28  C   UNL A   1     -25.642   4.093  27.123  0.00  0.00    +0.227 C 
ATOM     29  N   UNL A   1     -25.614   5.252  26.449  0.00  0.00    -0.235 NA
ATOM     30  C   UNL A   1     -25.026   6.479  26.963  0.00  0.00    +0.155 C 
BRANCH  28  31
ATOM     31  O   UNL A   1     -25.143   3.966  28.243  0.00  0.00    -0.436 OA
BRANCH  31  32
ATOM     32  C   UNL A   1     -26.362   4.076  29.584  0.00  0.00    +0.166 C 
ATOM     33  C   UNL A   1     -27.715   3.696  29.601  0.00  0.00    +0.179 C 
ATOM     34  C   UNL A   1     -25.703   4.492  30.564  0.00  0.00    +0.132 C 
ATOM     35  C   UNL A   1     -28.163   3.527  30.867  0.00  0.00    +0.247 C 
ATOM     36  N   UNL A   1     -27.589   4.120  31.896  0.00  0.00    -0.031 NA
ATOM     37  C   UNL A   1     -26.269   4.509  31.769  0.00  0.00    +0.366 C 
BRANCH  33  39
ATOM     38  N   UNL A   1     -29.414   4.412  28.197  0.00  0.00    +0.205 NA
ATOM     39  C   UNL A   1     -28.747   3.437  28.648  0.00  0.00    +0.483 C 
ATOM     40  N   UNL A   1     -28.977   2.144  28.347  0.00  0.00    +0.205 NA
ENDBRANCH  33  39
BRANCH  37  41
ATOM     41  N   UNL A   1     -25.438   4.951  32.629  0.00  0.00    -0.063 N 
ATOM     42  O   UNL A   1     -24.233   4.734  31.972  0.00  0.00    +0.019 OA
BRANCH  41  44
ATOM     43  C   UNL A   1     -24.593   6.619  34.139  0.00  0.00    +0.056 C 
ATOM     44  C   UNL A   1     -25.789   5.693  33.816  0.00  0.00    +0.206 C 
ATOM     45  C   UNL A   1     -27.309   6.027  34.039  0.00  0.00    +0.056 C 
ENDBRANCH  41  44
ENDBRANCH  37  41
ENDBRANCH  31  32
ENDBRANCH  28  31
ENDBRANCH   2  28
BRANCH   5  46
ATOM     46  O   UNL A   1     -28.193  -0.208  24.477  0.00  0.00    -0.456 OA
BRANCH  46  47
ATOM     47  C   UNL A   1     -29.460   0.005  23.866  0.00  0.00    +0.243 C 
BRANCH  47  48
ATOM     48  C   UNL A   1     -30.065  -1.377  23.573  0.00  0.00    +0.229 C 
ATOM     49  O   UNL A   1     -30.729  -1.878  24.721  0.00  0.00    -0.216 OA
ENDBRANCH  47  48
ENDBRANCH  46  47
ENDBRANCH   5  46
TORSDOF 14
