MODEL 898
MODEL 1
REMARK VINA RESULT:    -6.844      0.000      0.000
REMARK INTER + INTRA:          -9.196
REMARK INTER:                  -8.845
REMARK INTRA:                  -0.351
REMARK UNBOUND:                -0.351
REMARK  Name = No_898-gen_results/8p0m/2024-11-27-11-27-31/
REMARK  5 active torsions:
REMARK  status: ('A' for Active; 'I' for Inactive)
REMARK    1  A    between atoms: C_3  and  C_4
REMARK    2  A    between atoms: C_6  and  C_13
REMARK    3  A    between atoms: N_15  and  C_17
REMARK    4  A    between atoms: C_17  and  C_18
REMARK    5  A    between atoms: C_17  and  C_22
REMARK                            x       y       z     vdW  Elec       q    Type
REMARK                         _______ _______ _______ _____ _____    ______ ____
ROOT
ATOM      1  C   UNL A   1     -29.930 -12.881  11.902  0.00  0.00    +0.249 C 
ATOM      2  O   UNL A   1     -29.835 -12.916  13.109  0.00  0.00    -0.270 OA
ATOM      3  N   UNL A   1     -29.997 -14.007  11.188  0.00  0.00    -0.265 N 
ATOM      4  C   UNL A   1     -29.927 -15.305  11.861  0.00  0.00    +0.116 C 
ENDROOT
BRANCH   1   8
ATOM      5  C   UNL A   1     -31.264 -10.789  11.121  0.00  0.00    +0.004 A 
ATOM      6  C   UNL A   1     -31.277  -9.696  10.603  0.00  0.00    +0.000 A 
ATOM      7  C   UNL A   1     -30.174  -9.219   9.904  0.00  0.00    +0.000 A 
ATOM      8  C   UNL A   1     -30.013 -11.561  11.183  0.00  0.00    +0.054 A 
ATOM      9  C   UNL A   1     -28.903 -11.216  10.470  0.00  0.00    +0.004 A 
ATOM     10  C   UNL A   1     -28.943  -9.992   9.781  0.00  0.00    +0.000 A 
BRANCH   7  11
ATOM     11  C   UNL A   1     -30.063  -7.892   9.234  0.00  0.00    +0.000 A 
ATOM     12  C   UNL A   1     -30.400  -6.627   9.829  0.00  0.00    +0.000 A 
ATOM     13  C   UNL A   1     -30.230  -5.493   9.088  0.00  0.00    +0.000 A 
ATOM     14  C   UNL A   1     -29.534  -5.352   7.931  0.00  0.00    +0.000 A 
ATOM     15  C   UNL A   1     -29.359  -7.770   7.966  0.00  0.00    +0.000 A 
ATOM     16  C   UNL A   1     -29.125  -6.534   7.365  0.00  0.00    +0.000 A 
ENDBRANCH   7  11
ENDBRANCH   1   8
BRANCH   3  17
ATOM     17  C   UNL A   1     -30.220 -14.033   9.763  0.00  0.00    +0.194 C 
BRANCH  17  18
ATOM     18  C   UNL A   1     -29.081 -14.848   9.052  0.00  0.00    +0.004 A 
ATOM     19  C   UNL A   1     -28.307 -14.050   8.195  0.00  0.00    -0.002 A 
ATOM     20  C   UNL A   1     -27.268 -14.861   7.548  0.00  0.00    -0.000 A 
ATOM     21  C   UNL A   1     -27.275 -16.134   7.835  0.00  0.00    -0.000 A 
ATOM     22  C   UNL A   1     -28.086 -16.869   8.633  0.00  0.00    -0.000 A 
ATOM     23  C   UNL A   1     -29.044 -16.164   9.226  0.00  0.00    -0.002 A 
ENDBRANCH  17  18
BRANCH  17  24
ATOM     24  C   UNL A   1     -31.546 -14.529   9.422  0.00  0.00    +0.418 C 
ATOM     25  F   UNL A   1     -32.346 -13.787   9.772  0.00  0.00    -0.168 F 
ATOM     26  F   UNL A   1     -31.578 -14.586   8.034  0.00  0.00    -0.168 F 
ATOM     27  F   UNL A   1     -31.793 -15.774   9.949  0.00  0.00    -0.168 F 
ENDBRANCH  17  24
ENDBRANCH   3  17
TORSDOF 5
ENDMDL
ENDMDL
