REMARK  Name = outputs/IAG933/test6/raw/output_8993_IAG933_linker_design_.xyz
REMARK  16 active torsions:
REMARK  status: ('A' for Active; 'I' for Inactive)
REMARK    1  A    between atoms: C_1  and  C_2
REMARK    2  A    between atoms: C_1  and  C_8
REMARK    3  A    between atoms: C_1  and  C_31
REMARK    4  A    between atoms: C_13  and  C_40
REMARK    5  A    between atoms: C_14  and  C_15
REMARK    6  A    between atoms: C_21  and  O_22
REMARK    7  A    between atoms: O_22  and  C_23
REMARK    8  A    between atoms: C_23  and  C_24
REMARK    9  A    between atoms: C_28  and  C_37
REMARK   10  A    between atoms: C_29  and  C_30
REMARK   11  A    between atoms: C_29  and  C_31
REMARK   12  A    between atoms: C_29  and  N_39
REMARK   13  A    between atoms: C_36  and  O_44
REMARK   14  A    between atoms: C_37  and  O_44
REMARK   15  A    between atoms: N_39  and  C_41
REMARK   16  A    between atoms: C_41  and  C_42
REMARK                            x       y       z     vdW  Elec       q    Type
REMARK                         _______ _______ _______ _____ _____    ______ ____
ROOT
ATOM      1  C   UNL A   1     -23.693   1.350  27.558  0.00  0.00    +0.029 C 
ATOM      2  F   UNL A   1     -20.294   2.276  27.413  0.00  0.00    -0.180 F 
ATOM      3  O   UNL A   1     -21.921   1.921  25.495  0.00  0.00    -0.441 OA
ATOM      4  C   UNL A   1     -22.250   1.344  27.788  0.00  0.00    +0.188 C 
ATOM      5  C   UNL A   1     -21.512   1.774  26.968  0.00  0.00    +0.385 C 
ATOM      6  C   UNL A   1     -24.222   1.585  26.372  0.00  0.00    +0.022 C 
ATOM      7  C   UNL A   1     -23.278   1.833  25.230  0.00  0.00    +0.172 C 
ENDROOT
BRANCH   6   8
ATOM      8  C   UNL A   1     -25.688   1.614  26.461  0.00  0.00    +0.095 C 
ATOM      9  C   UNL A   1     -26.250   2.920  26.395  0.00  0.00    +0.059 C 
ATOM     10  C   UNL A   1     -27.438   3.091  25.645  0.00  0.00    +0.102 C 
ATOM     11  N   UNL A   1     -28.075   2.089  25.003  0.00  0.00    -0.212 NA
ATOM     12  C   UNL A   1     -27.543   0.849  25.079  0.00  0.00    +0.234 C 
ATOM     13  C   UNL A   1     -26.354   0.576  25.777  0.00  0.00    +0.244 C 
ATOM     14  F   UNL A   1     -25.860  -0.681  25.795  0.00  0.00    -0.227 F 
BRANCH   9  15
ATOM     15  C   UNL A   1     -25.642   4.093  27.123  0.00  0.00    +0.263 C 
ATOM     16  N   UNL A   1     -25.614   5.252  26.449  0.00  0.00    -0.200 NA
ATOM     17  C   UNL A   1     -25.026   6.479  26.963  0.00  0.00    +0.139 C 
ATOM     18  O   UNL A   1     -25.143   3.966  28.243  0.00  0.00    -0.269 OA
ENDBRANCH   9  15
BRANCH  12  19
ATOM     19  O   UNL A   1     -28.193  -0.208  24.477  0.00  0.00    -0.459 OA
BRANCH  19  20
ATOM     20  C   UNL A   1     -29.460   0.005  23.866  0.00  0.00    +0.242 C 
BRANCH  20  21
ATOM     21  C   UNL A   1     -30.065  -1.377  23.573  0.00  0.00    +0.229 C 
ATOM     22  O   UNL A   1     -30.729  -1.878  24.721  0.00  0.00    -0.216 OA
ENDBRANCH  20  21
ENDBRANCH  19  20
ENDBRANCH  12  19
ENDBRANCH   6   8
BRANCH   1  23
ATOM     23  C   UNL A   1     -24.524   1.286  28.790  0.00  0.00    +0.098 C 
BRANCH  23  24
ATOM     24  C   UNL A   1     -25.210   0.018  29.124  0.00  0.00    +0.028 C 
BRANCH  24  25
ATOM     25  C   UNL A   1     -24.855  -1.012  30.143  0.00  0.00    +0.040 C 
BRANCH  25  26
ATOM     26  C   UNL A   1     -24.973  -2.505  29.788  0.00  0.00    -0.021 C 
ATOM     27  C   UNL A   1     -23.906  -3.173  29.146  0.00  0.00    -0.004 C 
ATOM     28  C   UNL A   1     -23.989  -4.549  28.853  0.00  0.00    -0.000 C 
ATOM     29  C   UNL A   1     -25.137  -5.280  29.205  0.00  0.00    -0.000 C 
ATOM     30  C   UNL A   1     -26.232  -4.611  29.784  0.00  0.00    -0.000 C 
ATOM     31  C   UNL A   1     -26.155  -3.232  30.065  0.00  0.00    -0.004 C 
ENDBRANCH  25  26
BRANCH  25  32
ATOM     32  C   UNL A   1     -25.387  -0.679  31.571  0.00  0.00    +0.077 C 
ATOM     33  C   UNL A   1     -25.189   0.773  32.028  0.00  0.00    +0.019 C 
ATOM     34  C   UNL A   1     -25.336   0.684  33.544  0.00  0.00    +0.020 C 
ATOM     35  C   UNL A   1     -24.829  -0.715  33.905  0.00  0.00    +0.089 C 
ATOM     36  N   UNL A   1     -24.758  -1.481  32.646  0.00  0.00    -0.219 NA
ENDBRANCH  25  32
ENDBRANCH  24  25
ENDBRANCH  23  24
BRANCH  23  37
ATOM     37  N   UNL A   1     -24.506   2.398  29.769  0.00  0.00    -0.212 NA
BRANCH  37  38
ATOM     38  C   UNL A   1     -24.974   3.416  30.719  0.00  0.00    +0.124 C 
BRANCH  38  40
ATOM     39  O   UNL A   1     -27.179   2.546  30.405  0.00  0.00    -0.219 OA
ATOM     40  C   UNL A   1     -26.396   3.679  30.788  0.00  0.00    +0.201 C 
ENDBRANCH  38  40
ENDBRANCH  37  38
ENDBRANCH  23  37
ENDBRANCH   1  23
BRANCH   4  41
ATOM     41  O   UNL A   1     -22.009   1.033  29.155  0.00  0.00    -0.473 OA
BRANCH  41  42
ATOM     42  C   UNL A   1     -21.913  -0.321  29.756  0.00  0.00    +0.205 C 
BRANCH  42  43
ATOM     43  C   UNL A   1     -20.896  -0.063  29.185  0.00  0.00    +0.047 C 
ATOM     44  C   UNL A   1     -20.206  -0.387  27.931  0.00  0.00    +0.004 C 
ENDBRANCH  42  43
ENDBRANCH  41  42
ENDBRANCH   4  41
TORSDOF 16
