REMARK  Name = outputs/IAG933/test6/raw/output_8994_IAG933_linker_design_.xyz
REMARK  10 active torsions:
REMARK  status: ('A' for Active; 'I' for Inactive)
REMARK    1  A    between atoms: C_1  and  C_2
REMARK    2  A    between atoms: C_1  and  C_8
REMARK    3  A    between atoms: C_1  and  C_42
REMARK    4  A    between atoms: C_13  and  C_29
REMARK    5  A    between atoms: C_14  and  C_15
REMARK    6  A    between atoms: C_21  and  O_22
REMARK    7  A    between atoms: O_22  and  C_23
REMARK    8  A    between atoms: C_23  and  C_24
REMARK    9  A    between atoms: N_34  and  C_42
REMARK   10  A    between atoms: N_34  and  C_43
REMARK                            x       y       z     vdW  Elec       q    Type
REMARK                         _______ _______ _______ _____ _____    ______ ____
ROOT
ATOM      1  C   UNL A   1     -24.301   1.412  27.043  0.00  0.00    +0.097 C 
ATOM      2  C   UNL A   1     -22.719   0.316  28.532  0.00  0.00    +0.089 C 
ATOM      3  C   UNL A   1     -21.941   1.244  27.718  0.00  0.00    +0.105 C 
ATOM      4  N   UNL A   1     -22.244  -0.337  29.530  0.00  0.00    -0.152 NA
ATOM      5  C   UNL A   1     -24.214   0.540  28.243  0.00  0.00    +0.019 C 
ATOM      6  S   UNL A   1     -22.830   1.908  26.465  0.00  0.00    -0.126 S 
ATOM      7  C   UNL A   1     -25.311  -0.116  28.976  0.00  0.00    +0.047 C 
ENDROOT
BRANCH   1   8
ATOM      8  C   UNL A   1     -25.688   1.614  26.461  0.00  0.00    +0.030 C 
ATOM      9  C   UNL A   1     -26.250   2.920  26.395  0.00  0.00    +0.074 C 
ATOM     10  C   UNL A   1     -27.438   3.091  25.645  0.00  0.00    +0.106 C 
ATOM     11  N   UNL A   1     -28.075   2.089  25.003  0.00  0.00    -0.208 NA
ATOM     12  C   UNL A   1     -27.543   0.849  25.079  0.00  0.00    +0.253 C 
ATOM     13  C   UNL A   1     -26.354   0.576  25.777  0.00  0.00    +0.190 C 
ATOM     14  F   UNL A   1     -25.860  -0.681  25.795  0.00  0.00    -0.200 F 
BRANCH   9  15
ATOM     15  C   UNL A   1     -25.642   4.093  27.123  0.00  0.00    +0.266 C 
ATOM     16  N   UNL A   1     -25.614   5.252  26.449  0.00  0.00    -0.200 NA
ATOM     17  C   UNL A   1     -25.026   6.479  26.963  0.00  0.00    +0.139 C 
ATOM     18  O   UNL A   1     -25.143   3.966  28.243  0.00  0.00    -0.268 OA
ENDBRANCH   9  15
BRANCH  12  19
ATOM     19  O   UNL A   1     -28.193  -0.208  24.477  0.00  0.00    -0.456 OA
BRANCH  19  20
ATOM     20  C   UNL A   1     -29.460   0.005  23.866  0.00  0.00    +0.243 C 
BRANCH  20  21
ATOM     21  C   UNL A   1     -30.065  -1.377  23.573  0.00  0.00    +0.229 C 
ATOM     22  O   UNL A   1     -30.729  -1.878  24.721  0.00  0.00    -0.216 OA
ENDBRANCH  20  21
ENDBRANCH  19  20
ENDBRANCH  12  19
ENDBRANCH   1   8
BRANCH   7  23
ATOM     23  C   UNL A   1     -24.855  -1.012  30.143  0.00  0.00    +0.075 C 
BRANCH  23  24
ATOM     24  C   UNL A   1     -24.973  -2.505  29.788  0.00  0.00    -0.016 C 
ATOM     25  C   UNL A   1     -23.906  -3.173  29.146  0.00  0.00    -0.004 C 
ATOM     26  C   UNL A   1     -23.989  -4.549  28.853  0.00  0.00    -0.000 C 
ATOM     27  C   UNL A   1     -25.137  -5.280  29.205  0.00  0.00    -0.000 C 
ATOM     28  C   UNL A   1     -26.232  -4.611  29.784  0.00  0.00    -0.000 C 
ATOM     29  C   UNL A   1     -26.155  -3.232  30.065  0.00  0.00    -0.004 C 
ENDBRANCH  23  24
BRANCH  23  30
ATOM     30  C   UNL A   1     -25.387  -0.679  31.571  0.00  0.00    +0.082 C 
ATOM     31  C   UNL A   1     -25.189   0.773  32.028  0.00  0.00    +0.020 C 
ATOM     32  C   UNL A   1     -25.336   0.684  33.544  0.00  0.00    +0.020 C 
ATOM     33  C   UNL A   1     -24.829  -0.715  33.905  0.00  0.00    +0.089 C 
ATOM     34  N   UNL A   1     -24.758  -1.481  32.646  0.00  0.00    -0.219 NA
ENDBRANCH  23  30
ENDBRANCH   7  23
BRANCH   7  35
ATOM     35  N   UNL A   1     -26.728  -0.215  29.087  0.00  0.00    -0.230 NA
BRANCH  35  43
ATOM     36  C   UNL A   1     -30.873   0.512  28.714  0.00  0.00    +0.051 C 
ATOM     37  C   UNL A   1     -28.844   1.021  29.806  0.00  0.00    +0.269 C 
ATOM     38  C   UNL A   1     -30.281  -0.521  27.988  0.00  0.00    +0.010 C 
ATOM     39  N   UNL A   1     -30.170   1.292  29.605  0.00  0.00    -0.182 NA
ATOM     40  C   UNL A   1     -32.376   0.706  28.585  0.00  0.00    +0.049 C 
ATOM     41  O   UNL A   1     -28.184   1.679  30.757  0.00  0.00    -0.271 OA
ATOM     42  C   UNL A   1     -28.951  -0.834  28.200  0.00  0.00    +0.005 C 
ATOM     43  C   UNL A   1     -28.174   0.011  29.045  0.00  0.00    +0.192 C 
ENDBRANCH  35  43
ENDBRANCH   7  35
TORSDOF 10
