MODEL 899
MODEL 1
REMARK VINA RESULT:    -7.112      0.000      0.000
REMARK INTER + INTRA:         -13.437
REMARK INTER:                 -10.439
REMARK INTRA:                  -2.998
REMARK UNBOUND:                -2.998
REMARK  Name = No_899-gen_results/8p0m/2024-11-27-11-27-31/
REMARK  8 active torsions:
REMARK  status: ('A' for Active; 'I' for Inactive)
REMARK    1  A    between atoms: C_2  and  N_7
REMARK    2  A    between atoms: C_9  and  C_15
REMARK    3  A    between atoms: C_12  and  O_14
REMARK    4  A    between atoms: O_14  and  C_18
REMARK    5  A    between atoms: C_15  and  O_17
REMARK    6  A    between atoms: O_17  and  C_28
REMARK    7  A    between atoms: C_23  and  C_24
REMARK    8  A    between atoms: C_32  and  C_34
REMARK                            x       y       z     vdW  Elec       q    Type
REMARK                         _______ _______ _______ _____ _____    ______ ____
ROOT
ATOM      1  N   UNL A   1     -27.282   0.783  24.818  0.00  0.00    -0.307 N 
ATOM      2  C   UNL A   1     -27.181   1.856  25.491  0.00  0.00    +0.105 C 
ATOM      3  C   UNL A   1     -25.958   1.978  26.325  0.00  0.00    +0.159 C 
ATOM      4  C   UNL A   1     -26.116   0.057  24.465  0.00  0.00    +0.095 C 
ATOM      5  C   UNL A   1     -24.940   0.254  25.186  0.00  0.00    +0.066 C 
ATOM      6  C   UNL A   1     -24.841   1.292  26.020  0.00  0.00    +0.180 C 
ENDROOT
BRANCH   1   8
ATOM      7  C   UNL A   1     -29.450   0.746  25.116  0.00  0.00    +0.026 A 
ATOM      8  C   UNL A   1     -28.677   0.251  24.598  0.00  0.00    +0.049 A 
ATOM      9  C   UNL A   1     -30.840   0.194  24.891  0.00  0.00    +0.059 A 
ATOM     10  C   UNL A   1     -31.000  -0.994  24.148  0.00  0.00    +0.011 A 
ATOM     11  C   UNL A   1     -28.570  -0.997  23.810  0.00  0.00    +0.015 A 
ATOM     12  C   UNL A   1     -29.828  -1.537  23.587  0.00  0.00    +0.002 A 
ATOM     13 CL   UNL A   1     -32.256   0.916  25.529  0.00  0.00    -0.082 Cl
ENDBRANCH   1   8
BRANCH   3  14
ATOM     14  C   UNL A   1     -25.933   3.160  27.252  0.00  0.00    +0.326 C 
ATOM     15  O   UNL A   1     -25.176   4.033  27.139  0.00  0.00    -0.249 OA
BRANCH  14  16
ATOM     16  O   UNL A   1     -26.776   2.943  28.295  0.00  0.00    -0.424 OA
BRANCH  16  17
ATOM     17  C   UNL A   1     -26.262   2.301  29.376  0.00  0.00    +0.148 A 
ATOM     18  C   UNL A   1     -25.424   2.747  29.794  0.00  0.00    +0.038 A 
ATOM     19  C   UNL A   1     -24.602   1.959  30.672  0.00  0.00    +0.003 A 
ATOM     20  C   UNL A   1     -25.113   0.847  31.343  0.00  0.00    -0.004 A 
ATOM     21  C   UNL A   1     -26.410   0.397  30.823  0.00  0.00    -0.019 A 
ATOM     22  C   UNL A   1     -26.918   1.099  29.803  0.00  0.00    +0.033 A 
BRANCH  21  23
ATOM     23  C   UNL A   1     -26.960  -0.877  31.357  0.00  0.00    +0.026 C 
ATOM     24  C   UNL A   1     -27.879  -1.591  30.665  0.00  0.00    +0.005 C 
ENDBRANCH  21  23
ENDBRANCH  16  17
ENDBRANCH  14  16
ENDBRANCH   3  14
BRANCH   6  25
ATOM     25  O   UNL A   1     -23.699   1.547  26.627  0.00  0.00    -0.478 OA
BRANCH  25  26
ATOM     26  C   UNL A   1     -23.272   0.805  27.524  0.00  0.00    +0.138 A 
ATOM     27  C   UNL A   1     -22.149   0.934  27.959  0.00  0.00    +0.037 A 
ATOM     28  C   UNL A   1     -21.545   0.065  29.000  0.00  0.00    +0.003 A 
ATOM     29  C   UNL A   1     -22.321  -1.080  29.286  0.00  0.00    +0.004 A 
ATOM     30  C   UNL A   1     -24.063  -0.347  27.832  0.00  0.00    +0.041 A 
ATOM     31  C   UNL A   1     -23.576  -1.238  28.739  0.00  0.00    +0.074 A 
BRANCH  31  32
ATOM     32  C   UNL A   1     -24.379  -2.425  29.109  0.00  0.00    +0.419 C 
ATOM     33  F   UNL A   1     -24.684  -2.711  30.264  0.00  0.00    -0.166 F 
ATOM     34  F   UNL A   1     -23.758  -3.550  28.520  0.00  0.00    -0.166 F 
ATOM     35  F   UNL A   1     -25.569  -2.326  28.424  0.00  0.00    -0.166 F 
ENDBRANCH  31  32
ENDBRANCH  25  26
ENDBRANCH   6  25
TORSDOF 8
ENDMDL
ENDMDL
