MODEL 89
MODEL 1
REMARK VINA RESULT:    -6.991      0.000      0.000
REMARK INTER + INTRA:          -8.973
REMARK INTER:                  -8.218
REMARK INTRA:                  -0.756
REMARK UNBOUND:                -0.756
REMARK  Name = No_89-gen_results/8p0m/2024-11-27-11-27-31/
REMARK  3 active torsions:
REMARK  status: ('A' for Active; 'I' for Inactive)
REMARK    1  A    between atoms: C_3  and  C_4
REMARK    2  A    between atoms: C_10  and  C_13
REMARK    3  A    between atoms: N_15  and  C_16
REMARK                            x       y       z     vdW  Elec       q    Type
REMARK                         _______ _______ _______ _____ _____    ______ ____
ROOT
ATOM      1  C   UNL A   1     -27.881   1.958  24.233  0.00  0.00    +0.005 A 
ATOM      2  C   UNL A   1     -28.914   2.238  23.670  0.00  0.00    +0.000 A 
ATOM      3  C   UNL A   1     -29.852   1.290  23.263  0.00  0.00    +0.000 A 
ATOM      4  C   UNL A   1     -27.446   0.566  24.346  0.00  0.00    +0.055 A 
ATOM      5  C   UNL A   1     -28.322  -0.474  24.085  0.00  0.00    +0.005 A 
ATOM      6  C   UNL A   1     -29.556  -0.144  23.477  0.00  0.00    +0.000 A 
ENDROOT
BRANCH   3   7
ATOM      7  C   UNL A   1     -31.127   1.540  22.563  0.00  0.00    +0.000 A 
ATOM      8  C   UNL A   1     -32.088   0.486  22.628  0.00  0.00    +0.000 A 
ATOM      9  C   UNL A   1     -33.302   0.635  21.957  0.00  0.00    +0.000 A 
ATOM     10  C   UNL A   1     -33.475   1.743  21.117  0.00  0.00    +0.000 A 
ATOM     11  C   UNL A   1     -32.544   2.751  21.034  0.00  0.00    +0.000 A 
ATOM     12  C   UNL A   1     -31.333   2.613  21.746  0.00  0.00    +0.000 A 
ENDBRANCH   3   7
BRANCH   4  13
ATOM     13  C   UNL A   1     -26.160   0.204  24.981  0.00  0.00    +0.269 C 
ATOM     14  O   UNL A   1     -25.513  -0.733  24.569  0.00  0.00    -0.268 OA
ATOM     15  N   UNL A   1     -25.695   0.961  25.965  0.00  0.00    -0.175 NA
BRANCH  15  16
ATOM     16  C   UNL A   1     -24.719   0.895  26.651  0.00  0.00    +0.074 A 
ATOM     17  C   UNL A   1     -24.274   0.459  27.484  0.00  0.00    +0.017 A 
ATOM     18  C   UNL A   1     -22.960   0.578  28.171  0.00  0.00    +0.001 A 
ATOM     19  C   UNL A   1     -22.111   1.470  27.522  0.00  0.00    +0.000 A 
ATOM     20  C   UNL A   1     -22.476   2.119  26.376  0.00  0.00    +0.001 A 
ATOM     21  C   UNL A   1     -23.701   1.981  25.924  0.00  0.00    +0.017 A 
ENDBRANCH  15  16
ENDBRANCH   4  13
TORSDOF 3
ENDMDL
ENDMDL
