REMARK  Name = outputs/IAG933/test6/raw/output_9_IAG933_linker_design_.xyz
REMARK  16 active torsions:
REMARK  status: ('A' for Active; 'I' for Inactive)
REMARK    1  A    between atoms: C_1  and  C_2
REMARK    2  A    between atoms: C_1  and  C_8
REMARK    3  A    between atoms: C_9  and  N_33
REMARK    4  A    between atoms: C_13  and  C_40
REMARK    5  A    between atoms: C_14  and  C_15
REMARK    6  A    between atoms: C_15  and  O_18
REMARK    7  A    between atoms: O_18  and  C_47
REMARK    8  A    between atoms: C_21  and  O_22
REMARK    9  A    between atoms: O_22  and  C_23
REMARK   10  A    between atoms: C_23  and  C_24
REMARK   11  A    between atoms: O_29  and  C_43
REMARK   12  A    between atoms: C_32  and  C_39
REMARK   13  A    between atoms: C_35  and  C_40
REMARK   14  A    between atoms: C_42  and  C_47
REMARK   15  A    between atoms: C_43  and  C_51
REMARK   16  A    between atoms: C_48  and  C_51
REMARK                            x       y       z     vdW  Elec       q    Type
REMARK                         _______ _______ _______ _____ _____    ______ ____
ROOT
ATOM      1  O   UNL A   1     -25.205   5.363  33.599  0.00  0.00    -0.248 OA
ATOM      2  C   UNL A   1     -27.083   3.631  30.954  0.00  0.00    +0.204 C 
ATOM      3  C   UNL A   1     -29.325   4.556  29.630  0.00  0.00    +0.032 C 
ATOM      4  N   UNL A   1     -25.499   2.219  31.628  0.00  0.00    -0.259 NA
ATOM      5  C   UNL A   1     -28.527   3.520  30.362  0.00  0.00    -0.001 C 
ATOM      6  C   UNL A   1     -26.941   1.438  29.949  0.00  0.00    +0.023 C 
ATOM      7  C   UNL A   1     -28.374   1.141  30.247  0.00  0.00    +0.006 C 
ATOM      8  O   UNL A   1     -26.732   4.486  32.100  0.00  0.00    -0.446 OA
ATOM      9  C   UNL A   1     -26.316   2.733  30.573  0.00  0.00    +0.127 C 
ATOM     10  C   UNL A   1     -29.140   2.261  30.357  0.00  0.00    +0.026 C 
ATOM     11  C   UNL A   1     -25.498   4.307  32.883  0.00  0.00    +0.334 C 
ATOM     12  C   UNL A   1     -24.575   3.244  32.286  0.00  0.00    +0.183 C 
ENDROOT
BRANCH   4  14
ATOM     13  C   UNL A   1     -25.387  -0.679  31.571  0.00  0.00    +0.092 C 
ATOM     14  C   UNL A   1     -25.189   0.773  32.028  0.00  0.00    +0.076 C 
ATOM     15  C   UNL A   1     -25.336   0.684  33.544  0.00  0.00    +0.036 C 
ATOM     16  C   UNL A   1     -24.829  -0.715  33.905  0.00  0.00    +0.090 C 
ATOM     17  N   UNL A   1     -24.758  -1.481  32.646  0.00  0.00    -0.218 NA
BRANCH  13  18
ATOM     18  C   UNL A   1     -24.855  -1.012  30.143  0.00  0.00    +0.045 C 
BRANCH  18  19
ATOM     19  C   UNL A   1     -24.973  -2.505  29.788  0.00  0.00    -0.021 C 
ATOM     20  C   UNL A   1     -23.906  -3.173  29.146  0.00  0.00    -0.004 C 
ATOM     21  C   UNL A   1     -23.989  -4.549  28.853  0.00  0.00    -0.000 C 
ATOM     22  C   UNL A   1     -25.137  -5.280  29.205  0.00  0.00    -0.000 C 
ATOM     23  C   UNL A   1     -26.232  -4.611  29.784  0.00  0.00    -0.000 C 
ATOM     24  C   UNL A   1     -26.155  -3.232  30.065  0.00  0.00    -0.004 C 
ENDBRANCH  18  19
ENDBRANCH  13  18
ENDBRANCH   4  14
BRANCH   3  26
ATOM     25  C   UNL A   1     -30.591   4.178  27.459  0.00  0.00    +0.077 C 
ATOM     26  C   UNL A   1     -30.474   4.757  28.888  0.00  0.00    +0.173 C 
ATOM     27  O   UNL A   1     -31.447   5.409  29.230  0.00  0.00    -0.291 OA
ENDBRANCH   3  26
BRANCH   9  28
ATOM     28  C   UNL A   1     -25.767   3.696  29.448  0.00  0.00    +0.225 C 
BRANCH  28  29
ATOM     29  O   UNL A   1     -25.143   3.966  28.243  0.00  0.00    -0.459 OA
BRANCH  29  30
ATOM     30  C   UNL A   1     -25.642   4.093  27.123  0.00  0.00    +0.222 C 
ATOM     31  N   UNL A   1     -25.614   5.252  26.449  0.00  0.00    -0.236 NA
ATOM     32  C   UNL A   1     -25.026   6.479  26.963  0.00  0.00    +0.155 C 
BRANCH  30  34
ATOM     33  C   UNL A   1     -25.688   1.614  26.461  0.00  0.00    +0.021 C 
ATOM     34  C   UNL A   1     -26.250   2.920  26.395  0.00  0.00    +0.071 C 
ATOM     35  C   UNL A   1     -27.438   3.091  25.645  0.00  0.00    +0.106 C 
ATOM     36  N   UNL A   1     -28.075   2.089  25.003  0.00  0.00    -0.208 NA
ATOM     37  C   UNL A   1     -27.543   0.849  25.079  0.00  0.00    +0.253 C 
ATOM     38  C   UNL A   1     -26.354   0.576  25.777  0.00  0.00    +0.190 C 
ATOM     39  F   UNL A   1     -25.860  -0.681  25.795  0.00  0.00    -0.200 F 
BRANCH  37  40
ATOM     40  O   UNL A   1     -28.193  -0.208  24.477  0.00  0.00    -0.456 OA
BRANCH  40  41
ATOM     41  C   UNL A   1     -29.460   0.005  23.866  0.00  0.00    +0.243 C 
BRANCH  41  42
ATOM     42  C   UNL A   1     -30.065  -1.377  23.573  0.00  0.00    +0.229 C 
ATOM     43  O   UNL A   1     -30.729  -1.878  24.721  0.00  0.00    -0.216 OA
ENDBRANCH  41  42
ENDBRANCH  40  41
ENDBRANCH  37  40
BRANCH  33  44
ATOM     44  C   UNL A   1     -24.352   1.658  27.046  0.00  0.00    +0.067 C 
BRANCH  44  45
ATOM     45  C   UNL A   1     -23.102   1.886  26.312  0.00  0.00    +0.036 C 
ATOM     46 CL   UNL A   1     -23.124   2.300  24.709  0.00  0.00    -0.087 Cl
ATOM     47  C   UNL A   1     -21.869   1.830  27.061  0.00  0.00    -0.016 C 
BRANCH  47  48
ATOM     48  C   UNL A   1     -21.699   1.528  28.458  0.00  0.00    +0.059 C 
BRANCH  48  49
ATOM     49  C   UNL A   1     -23.007   1.582  29.168  0.00  0.00    +0.147 C 
BRANCH  49  50
ATOM     50  O   UNL A   1     -23.624   1.877  29.494  0.00  0.00    -0.351 OA
ATOM     51  C   UNL A   1     -24.099   1.647  28.578  0.00  0.00    +0.174 C 
ENDBRANCH  49  50
ENDBRANCH  48  49
ENDBRANCH  47  48
ENDBRANCH  44  45
ENDBRANCH  33  44
ENDBRANCH  30  34
ENDBRANCH  29  30
ENDBRANCH  28  29
ENDBRANCH   9  28
TORSDOF 16
