REMARK  Name = outputs/IAG933/test6/raw/output_90_IAG933_linker_design_.xyz
REMARK  11 active torsions:
REMARK  status: ('A' for Active; 'I' for Inactive)
REMARK    1  A    between atoms: C_1  and  C_2
REMARK    2  A    between atoms: C_1  and  C_8
REMARK    3  A    between atoms: C_1  and  C_35
REMARK    4  A    between atoms: C_13  and  C_42
REMARK    5  A    between atoms: C_14  and  C_15
REMARK    6  A    between atoms: C_21  and  O_22
REMARK    7  A    between atoms: O_22  and  C_23
REMARK    8  A    between atoms: C_23  and  C_24
REMARK    9  A    between atoms: C_29  and  C_36
REMARK   10  A    between atoms: O_31  and  C_41
REMARK   11  A    between atoms: C_36  and  C_41
REMARK                            x       y       z     vdW  Elec       q    Type
REMARK                         _______ _______ _______ _____ _____    ______ ____
ROOT
ATOM      1  C   UNL A   1     -23.072   0.197  29.029  0.00  0.00    +0.025 C 
ATOM      2  C   UNL A   1     -26.869   0.713  29.136  0.00  0.00    +0.241 C 
ATOM      3  O   UNL A   1     -27.499  -0.660  29.001  0.00  0.00    -0.274 OA
ATOM      4  C   UNL A   1     -23.505   1.577  27.136  0.00  0.00    +0.095 C 
ATOM      5 CL   UNL A   1     -22.919   2.464  25.684  0.00  0.00    -0.079 Cl
ATOM      6  C   UNL A   1     -24.440  -0.030  29.260  0.00  0.00    +0.109 C 
ATOM      7  F   UNL A   1     -21.305   1.321  27.904  0.00  0.00    -0.203 F 
ATOM      8  N   UNL A   1     -25.355   0.681  28.502  0.00  0.00    -0.258 N 
ATOM      9  C   UNL A   1     -22.581   1.048  28.012  0.00  0.00    +0.149 C 
ATOM     10  C   UNL A   1     -24.858   1.274  27.367  0.00  0.00    +0.051 C 
ENDROOT
BRANCH  10  11
ATOM     11  C   UNL A   1     -25.688   1.614  26.461  0.00  0.00    +0.107 C 
ATOM     12  C   UNL A   1     -26.250   2.920  26.395  0.00  0.00    +0.060 C 
ATOM     13  C   UNL A   1     -27.438   3.091  25.645  0.00  0.00    +0.102 C 
ATOM     14  N   UNL A   1     -28.075   2.089  25.003  0.00  0.00    -0.212 NA
ATOM     15  C   UNL A   1     -27.543   0.849  25.079  0.00  0.00    +0.234 C 
ATOM     16  C   UNL A   1     -26.354   0.576  25.777  0.00  0.00    +0.245 C 
ATOM     17  F   UNL A   1     -25.860  -0.681  25.795  0.00  0.00    -0.227 F 
BRANCH  12  18
ATOM     18  C   UNL A   1     -25.642   4.093  27.123  0.00  0.00    +0.263 C 
ATOM     19  N   UNL A   1     -25.614   5.252  26.449  0.00  0.00    -0.200 NA
ATOM     20  C   UNL A   1     -25.026   6.479  26.963  0.00  0.00    +0.139 C 
ATOM     21  O   UNL A   1     -25.143   3.966  28.243  0.00  0.00    -0.269 OA
ENDBRANCH  12  18
BRANCH  15  22
ATOM     22  O   UNL A   1     -28.193  -0.208  24.477  0.00  0.00    -0.459 OA
BRANCH  22  23
ATOM     23  C   UNL A   1     -29.460   0.005  23.866  0.00  0.00    +0.242 C 
BRANCH  23  24
ATOM     24  C   UNL A   1     -30.065  -1.377  23.573  0.00  0.00    +0.229 C 
ATOM     25  O   UNL A   1     -30.729  -1.878  24.721  0.00  0.00    -0.216 OA
ENDBRANCH  23  24
ENDBRANCH  22  23
ENDBRANCH  15  22
ENDBRANCH  10  11
BRANCH   6  26
ATOM     26  C   UNL A   1     -24.855  -1.012  30.143  0.00  0.00    +0.061 C 
BRANCH  26  27
ATOM     27  C   UNL A   1     -24.973  -2.505  29.788  0.00  0.00    -0.019 C 
ATOM     28  C   UNL A   1     -23.906  -3.173  29.146  0.00  0.00    -0.004 C 
ATOM     29  C   UNL A   1     -23.989  -4.549  28.853  0.00  0.00    -0.000 C 
ATOM     30  C   UNL A   1     -25.137  -5.280  29.205  0.00  0.00    -0.000 C 
ATOM     31  C   UNL A   1     -26.232  -4.611  29.784  0.00  0.00    -0.000 C 
ATOM     32  C   UNL A   1     -26.155  -3.232  30.065  0.00  0.00    -0.004 C 
ENDBRANCH  26  27
BRANCH  26  33
ATOM     33  C   UNL A   1     -25.387  -0.679  31.571  0.00  0.00    +0.079 C 
ATOM     34  C   UNL A   1     -25.189   0.773  32.028  0.00  0.00    +0.019 C 
ATOM     35  C   UNL A   1     -25.336   0.684  33.544  0.00  0.00    +0.020 C 
ATOM     36  C   UNL A   1     -24.829  -0.715  33.905  0.00  0.00    +0.089 C 
ATOM     37  N   UNL A   1     -24.758  -1.481  32.646  0.00  0.00    -0.219 NA
ENDBRANCH  26  33
ENDBRANCH   6  26
BRANCH   2  38
ATOM     38  C   UNL A   1     -28.255   1.518  29.815  0.00  0.00    +0.195 C 
BRANCH  38  40
ATOM     39  O   UNL A   1     -29.243   3.048  31.233  0.00  0.00    -0.249 OA
ATOM     40  C   UNL A   1     -28.250   2.769  30.491  0.00  0.00    +0.327 C 
BRANCH  40  41
ATOM     41  O   UNL A   1     -27.336   3.572  30.314  0.00  0.00    -0.444 OA
ATOM     42  C   UNL A   1     -27.033   4.725  30.946  0.00  0.00    +0.256 C 
ENDBRANCH  40  41
ENDBRANCH  38  40
ENDBRANCH   2  38
TORSDOF 11
