REMARK  Name = No_900-gen_results/8p0m/2024-11-27-11-27-31/
REMARK  2 active torsions:
REMARK  status: ('A' for Active; 'I' for Inactive)
REMARK    1  A    between atoms: C_2  and  C_14
REMARK    2  A    between atoms: C_5  and  C_8
REMARK                            x       y       z     vdW  Elec       q    Type
REMARK                         _______ _______ _______ _____ _____    ______ ____
ROOT
ATOM      1  C   UNL A   1     -28.016  -0.814  28.878  0.00  0.00    +0.017 C 
ATOM      2  C   UNL A   1     -27.064  -0.119  28.608  0.00  0.00    +0.045 C 
ATOM      3  C   UNL A   1     -25.792  -0.430  29.076  0.00  0.00    -0.022 C 
ATOM      4  C   UNL A   1     -25.270  -0.049  30.012  0.00  0.00    -0.005 C 
ATOM      5  C   UNL A   1     -28.519  -0.630  30.092  0.00  0.00    +0.045 C 
ATOM      6  C   UNL A   1     -27.646  -0.565  31.356  0.00  0.00    -0.022 C 
ATOM      7  C   UNL A   1     -26.255  -0.209  31.400  0.00  0.00    -0.005 C 
ENDROOT
BRANCH   5   8
ATOM      8  C   UNL A   1     -29.854  -1.086  30.516  0.00  0.00    -0.018 A 
ATOM      9  C   UNL A   1     -30.149  -2.281  30.791  0.00  0.00    -0.004 A 
ATOM     10  C   UNL A   1     -31.489  -2.785  31.000  0.00  0.00    -0.000 A 
ATOM     11  C   UNL A   1     -32.499  -1.838  30.851  0.00  0.00    -0.000 A 
ATOM     12  C   UNL A   1     -30.788  -0.029  30.767  0.00  0.00    -0.004 A 
ATOM     13  C   UNL A   1     -32.153  -0.459  30.794  0.00  0.00    -0.000 A 
ENDBRANCH   5   8
BRANCH   2  14
ATOM     14  C   UNL A   1     -27.053   0.773  27.390  0.00  0.00    -0.018 A 
ATOM     15  C   UNL A   1     -26.582   2.033  27.532  0.00  0.00    -0.004 A 
ATOM     16  C   UNL A   1     -27.593   0.367  26.180  0.00  0.00    -0.004 A 
ATOM     17  C   UNL A   1     -27.628   1.048  25.053  0.00  0.00    -0.000 A 
ATOM     18  C   UNL A   1     -26.580   2.917  26.425  0.00  0.00    -0.000 A 
ATOM     19  C   UNL A   1     -27.099   2.436  25.153  0.00  0.00    -0.000 A 
ENDBRANCH   2  14
TORSDOF 2
