REMARK  Name = outputs/IAG933/test6/raw/output_9007_IAG933_linker_design_.xyz
REMARK  14 active torsions:
REMARK  status: ('A' for Active; 'I' for Inactive)
REMARK    1  A    between atoms: C_1  and  C_2
REMARK    2  A    between atoms: C_1  and  C_8
REMARK    3  A    between atoms: C_1  and  N_38
REMARK    4  A    between atoms: C_13  and  N_39
REMARK    5  A    between atoms: C_14  and  C_15
REMARK    6  A    between atoms: C_21  and  O_22
REMARK    7  A    between atoms: O_22  and  C_23
REMARK    8  A    between atoms: C_23  and  C_24
REMARK    9  A    between atoms: C_29  and  C_36
REMARK   10  A    between atoms: C_30  and  N_38
REMARK   11  A    between atoms: C_30  and  N_39
REMARK   12  A    between atoms: C_30  and  C_42
REMARK   13  A    between atoms: C_31  and  C_42
REMARK   14  A    between atoms: C_31  and  N_43
REMARK                            x       y       z     vdW  Elec       q    Type
REMARK                         _______ _______ _______ _____ _____    ______ ____
ROOT
ATOM      1  C   UNL A   1     -25.635   1.019  28.872  0.00  0.00    +0.152 C 
ENDROOT
BRANCH   1   4
ATOM      2  C   UNL A   1     -23.434   1.430  27.211  0.00  0.00    +0.267 C 
ATOM      3  O   UNL A   1     -23.093   1.966  26.059  0.00  0.00    -0.268 OA
ATOM      4  N   UNL A   1     -24.864   1.363  27.593  0.00  0.00    -0.257 N 
BRANCH   4   5
ATOM      5  C   UNL A   1     -25.688   1.614  26.461  0.00  0.00    +0.147 C 
ATOM      6  C   UNL A   1     -26.250   2.920  26.395  0.00  0.00    +0.073 C 
ATOM      7  C   UNL A   1     -27.438   3.091  25.645  0.00  0.00    +0.104 C 
ATOM      8  N   UNL A   1     -28.075   2.089  25.003  0.00  0.00    -0.212 NA
ATOM      9  C   UNL A   1     -27.543   0.849  25.079  0.00  0.00    +0.236 C 
ATOM     10  C   UNL A   1     -26.354   0.576  25.777  0.00  0.00    +0.258 C 
ATOM     11  F   UNL A   1     -25.860  -0.681  25.795  0.00  0.00    -0.225 F 
BRANCH   6  12
ATOM     12  C   UNL A   1     -25.642   4.093  27.123  0.00  0.00    +0.264 C 
ATOM     13  N   UNL A   1     -25.614   5.252  26.449  0.00  0.00    -0.200 NA
ATOM     14  C   UNL A   1     -25.026   6.479  26.963  0.00  0.00    +0.139 C 
ATOM     15  O   UNL A   1     -25.143   3.966  28.243  0.00  0.00    -0.269 OA
ENDBRANCH   6  12
BRANCH   9  16
ATOM     16  O   UNL A   1     -28.193  -0.208  24.477  0.00  0.00    -0.459 OA
BRANCH  16  17
ATOM     17  C   UNL A   1     -29.460   0.005  23.866  0.00  0.00    +0.242 C 
BRANCH  17  18
ATOM     18  C   UNL A   1     -30.065  -1.377  23.573  0.00  0.00    +0.229 C 
ATOM     19  O   UNL A   1     -30.729  -1.878  24.721  0.00  0.00    -0.216 OA
ENDBRANCH  17  18
ENDBRANCH  16  17
ENDBRANCH   9  16
ENDBRANCH   4   5
BRANCH   2  22
ATOM     20  C   UNL A   1     -21.166   1.557  27.777  0.00  0.00    +0.024 C 
ATOM     21  N   UNL A   1     -22.384   0.018  29.055  0.00  0.00    -0.123 NA
ATOM     22  C   UNL A   1     -22.321   0.943  28.003  0.00  0.00    +0.142 C 
ENDBRANCH   2  22
ENDBRANCH   1   4
BRANCH   1  23
ATOM     23  N   UNL A   1     -25.776  -0.296  29.132  0.00  0.00    -0.196 NA
BRANCH  23  24
ATOM     24  C   UNL A   1     -24.855  -1.012  30.143  0.00  0.00    +0.113 C 
BRANCH  24  25
ATOM     25  C   UNL A   1     -24.973  -2.505  29.788  0.00  0.00    -0.005 C 
ATOM     26  C   UNL A   1     -23.906  -3.173  29.146  0.00  0.00    -0.003 C 
ATOM     27  C   UNL A   1     -23.989  -4.549  28.853  0.00  0.00    -0.000 C 
ATOM     28  C   UNL A   1     -25.137  -5.280  29.205  0.00  0.00    -0.000 C 
ATOM     29  C   UNL A   1     -26.232  -4.611  29.784  0.00  0.00    -0.000 C 
ATOM     30  C   UNL A   1     -26.155  -3.232  30.065  0.00  0.00    -0.003 C 
ENDBRANCH  24  25
BRANCH  24  31
ATOM     31  C   UNL A   1     -25.387  -0.679  31.571  0.00  0.00    +0.093 C 
ATOM     32  C   UNL A   1     -25.189   0.773  32.028  0.00  0.00    +0.021 C 
ATOM     33  C   UNL A   1     -25.336   0.684  33.544  0.00  0.00    +0.020 C 
ATOM     34  C   UNL A   1     -24.829  -0.715  33.905  0.00  0.00    +0.089 C 
ATOM     35  N   UNL A   1     -24.758  -1.481  32.646  0.00  0.00    -0.218 NA
ENDBRANCH  24  31
ENDBRANCH  23  24
ENDBRANCH   1  23
BRANCH   1  36
ATOM     36  C   UNL A   1     -26.584   1.935  29.446  0.00  0.00    +0.056 C 
BRANCH  36  37
ATOM     37  C   UNL A   1     -26.776   3.085  30.419  0.00  0.00    +0.080 C 
BRANCH  37  43
ATOM     38  O   UNL A   1     -29.075   3.855  33.143  0.00  0.00    -0.337 OA
ATOM     39  C   UNL A   1     -28.975   2.138  31.151  0.00  0.00    +0.217 C 
ATOM     40  O   UNL A   1     -28.712   1.156  32.085  0.00  0.00    -0.205 OA
ATOM     41  C   UNL A   1     -27.796   3.604  32.519  0.00  0.00    +0.222 C 
ATOM     42  C   UNL A   1     -30.268   3.240  32.803  0.00  0.00    +0.148 C 
ATOM     43  N   UNL A   1     -28.075   3.122  31.152  0.00  0.00    -0.223 NA
ATOM     44  C   UNL A   1     -30.355   2.737  31.396  0.00  0.00    +0.082 C 
ENDBRANCH  37  43
ENDBRANCH  36  37
ENDBRANCH   1  36
TORSDOF 14
