MODEL 901
MODEL 1
REMARK VINA RESULT:    -6.611      0.000      0.000
REMARK INTER + INTRA:         -13.368
REMARK INTER:                  -9.702
REMARK INTRA:                  -3.666
REMARK UNBOUND:                -3.666
REMARK  Name = No_901-gen_results/8p0m/2024-11-27-11-27-31/
REMARK  8 active torsions:
REMARK  status: ('A' for Active; 'I' for Inactive)
REMARK    1  A    between atoms: C_1  and  C_20
REMARK    2  A    between atoms: C_10  and  N_12
REMARK    3  A    between atoms: N_12  and  C_14
REMARK    4  A    between atoms: C_17  and  C_23
REMARK    5  A    between atoms: C_19  and  C_29
REMARK    6  A    between atoms: C_20  and  O_22
REMARK    7  A    between atoms: O_22  and  C_32
REMARK    8  A    between atoms: C_32  and  C_33
REMARK                            x       y       z     vdW  Elec       q    Type
REMARK                         _______ _______ _______ _____ _____    ______ ____
ROOT
ATOM      1  C   UNL A   1      -5.197  -0.484  10.359  0.00  0.00    +0.091 A 
ATOM      2  C   UNL A   1      -4.251  -1.118   9.953  0.00  0.00    +0.008 A 
ATOM      3  C   UNL A   1      -2.966  -0.970  10.438  0.00  0.00    +0.000 A 
ATOM      4  C   UNL A   1      -2.756  -0.048  11.501  0.00  0.00    +0.006 A 
ATOM      5  C   UNL A   1      -3.869   0.509  12.034  0.00  0.00    +0.069 A 
ATOM      6  C   UNL A   1      -5.066   0.278  11.530  0.00  0.00    +0.079 A 
ATOM      7  C   UNL A   1      -3.634   1.441  13.156  0.00  0.00    +0.253 C 
ATOM      8  N   UNL A   1      -4.592   2.035  13.581  0.00  0.00    -0.241 N 
ATOM      9  O   UNL A   1      -2.585   1.365  13.830  0.00  0.00    -0.270 OA
ATOM     10  C   UNL A   1      -5.863   2.180  13.000  0.00  0.00    +0.270 C 
ATOM     11  N   UNL A   1      -6.125   1.116  12.014  0.00  0.00    -0.199 NA
ATOM     12  C   UNL A   1      -4.299   3.076  14.678  0.00  0.00    +0.118 C 
ENDROOT
BRANCH   1  13
ATOM     13  C   UNL A   1      -6.609  -0.739   9.856  0.00  0.00    +0.343 C 
ATOM     14  O   UNL A   1      -7.130  -1.759  10.212  0.00  0.00    -0.245 OA
BRANCH  13  15
ATOM     15  O   UNL A   1      -7.015  -0.064   8.803  0.00  0.00    -0.431 OA
BRANCH  15  16
ATOM     16  C   UNL A   1      -7.918   0.999   9.068  0.00  0.00    +0.284 C 
BRANCH  16  17
ATOM     17  C   UNL A   1      -7.394   2.224   8.539  0.00  0.00    -0.044 C 
ATOM     18  C   UNL A   1      -8.447   2.842   7.949  0.00  0.00    -0.086 C 
ATOM     19  C   UNL A   1      -9.646   2.280   8.118  0.00  0.00    +0.090 C 
ENDBRANCH  16  17
ENDBRANCH  15  16
ENDBRANCH  13  15
ENDBRANCH   1  13
BRANCH  10  20
ATOM     20  N   UNL A   1      -6.865   2.839  13.440  0.00  0.00    -0.200 NA
BRANCH  20  21
ATOM     21  C   UNL A   1      -7.554   3.584  12.870  0.00  0.00    +0.066 A 
ATOM     22  C   UNL A   1      -7.095   4.790  12.450  0.00  0.00    +0.016 A 
ATOM     23  C   UNL A   1      -7.448   5.240  11.221  0.00  0.00    +0.001 A 
ATOM     24  C   UNL A   1      -8.678   5.121  10.824  0.00  0.00    -0.000 A 
ATOM     25  C   UNL A   1      -9.431   3.998  11.319  0.00  0.00    -0.002 A 
ATOM     26  C   UNL A   1      -8.782   3.232  12.225  0.00  0.00    +0.007 A 
BRANCH  24  27
ATOM     27  C   UNL A   1      -9.293   5.899   9.686  0.00  0.00    -0.000 A 
ATOM     28  C   UNL A   1      -8.812   6.416   8.895  0.00  0.00    -0.000 A 
ATOM     29  C   UNL A   1      -9.458   7.047   7.700  0.00  0.00    -0.000 A 
ATOM     30  C   UNL A   1     -10.835   6.850   7.563  0.00  0.00    +0.000 A 
ATOM     31  C   UNL A   1     -11.493   6.129   8.513  0.00  0.00    -0.000 A 
ATOM     32  C   UNL A   1     -10.812   5.548   9.559  0.00  0.00    -0.000 A 
ENDBRANCH  24  27
BRANCH  26  33
ATOM     33  C   UNL A   1      -9.553   2.084  12.791  0.00  0.00    +0.103 C 
ATOM     34 CL   UNL A   1      -9.366   0.701  12.277  0.00  0.00    -0.110 Cl
ATOM     35  C   UNL A   1     -10.903   2.642  13.174  0.00  0.00    +0.022 C 
ENDBRANCH  26  33
ENDBRANCH  20  21
ENDBRANCH  10  20
TORSDOF 8
ENDMDL
ENDMDL
