REMARK  Name = outputs/IAG933/test6/raw/output_9020_IAG933_linker_design_.xyz
REMARK  13 active torsions:
REMARK  status: ('A' for Active; 'I' for Inactive)
REMARK    1  A    between atoms: C_1  and  C_2
REMARK    2  A    between atoms: C_1  and  C_8
REMARK    3  A    between atoms: C_9  and  C_43
REMARK    4  A    between atoms: C_13  and  N_34
REMARK    5  A    between atoms: C_14  and  C_15
REMARK    6  A    between atoms: C_21  and  O_22
REMARK    7  A    between atoms: O_22  and  C_23
REMARK    8  A    between atoms: C_23  and  C_24
REMARK    9  A    between atoms: C_30  and  N_34
REMARK   10  A    between atoms: N_32  and  C_43
REMARK   11  A    between atoms: C_33  and  C_37
REMARK   12  A    between atoms: C_33  and  C_42
REMARK   13  A    between atoms: C_35  and  C_43
REMARK                            x       y       z     vdW  Elec       q    Type
REMARK                         _______ _______ _______ _____ _____    ______ ____
ROOT
ATOM      1  C   UNL A   1     -26.117   1.732  31.126  0.00  0.00    +0.125 C 
ENDROOT
BRANCH   1   4
ATOM      2  O   UNL A   1     -24.742   3.360  32.454  0.00  0.00    -0.347 OA
ATOM      3  C   UNL A   1     -25.545   5.433  33.524  0.00  0.00    +0.181 C 
ATOM      4  C   UNL A   1     -25.766   3.149  31.445  0.00  0.00    +0.136 C 
ATOM      5  O   UNL A   1     -25.477   6.332  34.394  0.00  0.00    -0.293 OA
ATOM      6  C   UNL A   1     -26.873   4.128  31.733  0.00  0.00    +0.039 C 
ATOM      7  C   UNL A   1     -26.844   4.883  32.957  0.00  0.00    +0.075 C 
ATOM      8  C   UNL A   1     -24.336   4.551  33.102  0.00  0.00    +0.206 C 
BRANCH   7   9
ATOM      9  C   UNL A   1     -28.112   4.923  33.779  0.00  0.00    +0.141 C 
BRANCH   9  10
ATOM     10  C   UNL A   1     -29.014   5.894  33.550  0.00  0.00    +0.454 C 
ATOM     11  N   UNL A   1     -29.846   6.310  34.511  0.00  0.00    +0.199 NA
ATOM     12  N   UNL A   1     -28.982   6.518  32.308  0.00  0.00    +0.199 NA
ENDBRANCH   9  10
ENDBRANCH   7   9
ENDBRANCH   1   4
BRANCH   1  14
ATOM     13  C   UNL A   1     -25.387  -0.679  31.571  0.00  0.00    +0.079 C 
ATOM     14  C   UNL A   1     -25.189   0.773  32.028  0.00  0.00    +0.040 C 
ATOM     15  C   UNL A   1     -25.336   0.684  33.544  0.00  0.00    +0.022 C 
ATOM     16  C   UNL A   1     -24.829  -0.715  33.905  0.00  0.00    +0.089 C 
ATOM     17  N   UNL A   1     -24.758  -1.481  32.646  0.00  0.00    -0.219 NA
BRANCH  13  18
ATOM     18  C   UNL A   1     -24.855  -1.012  30.143  0.00  0.00    +0.044 C 
BRANCH  18  19
ATOM     19  C   UNL A   1     -24.973  -2.505  29.788  0.00  0.00    -0.021 C 
ATOM     20  C   UNL A   1     -23.906  -3.173  29.146  0.00  0.00    -0.004 C 
ATOM     21  C   UNL A   1     -23.989  -4.549  28.853  0.00  0.00    -0.000 C 
ATOM     22  C   UNL A   1     -25.137  -5.280  29.205  0.00  0.00    -0.000 C 
ATOM     23  C   UNL A   1     -26.232  -4.611  29.784  0.00  0.00    -0.000 C 
ATOM     24  C   UNL A   1     -26.155  -3.232  30.065  0.00  0.00    -0.004 C 
ENDBRANCH  18  19
ENDBRANCH  13  18
ENDBRANCH   1  14
BRANCH   1  26
ATOM     25  O   UNL A   1     -23.735   1.661  29.702  0.00  0.00    -0.251 OA
ATOM     26  N   UNL A   1     -25.973   1.595  29.652  0.00  0.00    -0.188 NA
ATOM     27  N   UNL A   1     -24.650   1.411  27.476  0.00  0.00    -0.259 N 
ATOM     28  C   UNL A   1     -24.768   1.542  29.001  0.00  0.00    +0.324 C 
BRANCH  27  29
ATOM     29  C   UNL A   1     -25.688   1.614  26.461  0.00  0.00    +0.147 C 
ATOM     30  C   UNL A   1     -26.250   2.920  26.395  0.00  0.00    +0.073 C 
ATOM     31  C   UNL A   1     -27.438   3.091  25.645  0.00  0.00    +0.104 C 
ATOM     32  N   UNL A   1     -28.075   2.089  25.003  0.00  0.00    -0.212 NA
ATOM     33  C   UNL A   1     -27.543   0.849  25.079  0.00  0.00    +0.236 C 
ATOM     34  C   UNL A   1     -26.354   0.576  25.777  0.00  0.00    +0.258 C 
ATOM     35  F   UNL A   1     -25.860  -0.681  25.795  0.00  0.00    -0.225 F 
BRANCH  30  36
ATOM     36  C   UNL A   1     -25.642   4.093  27.123  0.00  0.00    +0.264 C 
ATOM     37  N   UNL A   1     -25.614   5.252  26.449  0.00  0.00    -0.200 NA
ATOM     38  C   UNL A   1     -25.026   6.479  26.963  0.00  0.00    +0.139 C 
ATOM     39  O   UNL A   1     -25.143   3.966  28.243  0.00  0.00    -0.269 OA
ENDBRANCH  30  36
BRANCH  33  40
ATOM     40  O   UNL A   1     -28.193  -0.208  24.477  0.00  0.00    -0.459 OA
BRANCH  40  41
ATOM     41  C   UNL A   1     -29.460   0.005  23.866  0.00  0.00    +0.242 C 
BRANCH  41  42
ATOM     42  C   UNL A   1     -30.065  -1.377  23.573  0.00  0.00    +0.229 C 
ATOM     43  O   UNL A   1     -30.729  -1.878  24.721  0.00  0.00    -0.216 OA
ENDBRANCH  41  42
ENDBRANCH  40  41
ENDBRANCH  33  40
ENDBRANCH  27  29
BRANCH  27  44
ATOM     44  C   UNL A   1     -23.265   1.354  26.920  0.00  0.00    +0.077 C 
ATOM     45  C   UNL A   1     -23.047   2.024  25.557  0.00  0.00    +0.022 C 
ATOM     46  C   UNL A   1     -21.901   1.378  27.687  0.00  0.00    +0.022 C 
ENDBRANCH  27  44
ENDBRANCH   1  26
TORSDOF 13
