REMARK  Name = outputs/IAG933/test6/raw/output_9024_IAG933_linker_design_.xyz
REMARK  10 active torsions:
REMARK  status: ('A' for Active; 'I' for Inactive)
REMARK    1  A    between atoms: C_1  and  C_2
REMARK    2  A    between atoms: C_1  and  C_8
REMARK    3  A    between atoms: C_9  and  C_45
REMARK    4  A    between atoms: C_13  and  C_37
REMARK    5  A    between atoms: C_14  and  C_15
REMARK    6  A    between atoms: C_21  and  O_22
REMARK    7  A    between atoms: O_22  and  C_23
REMARK    8  A    between atoms: C_23  and  C_24
REMARK    9  A    between atoms: C_42  and  C_45
REMARK   10  A    between atoms: C_46  and  C_48
REMARK                            x       y       z     vdW  Elec       q    Type
REMARK                         _______ _______ _______ _____ _____    ______ ____
ROOT
ATOM      1  C   UNL A   1     -21.458   1.645  27.370  0.00  0.00    -0.000 C 
ATOM      2  C   UNL A   1     -21.944   1.936  26.074  0.00  0.00    -0.004 C 
ATOM      3  C   UNL A   1     -24.267   1.703  26.868  0.00  0.00    +0.059 C 
ATOM      4  C   UNL A   1     -23.738   1.620  28.221  0.00  0.00    +0.016 C 
ATOM      5  C   UNL A   1     -23.331   1.976  25.785  0.00  0.00    -0.021 C 
ATOM      6  C   UNL A   1     -24.444   1.793  29.613  0.00  0.00    -0.105 C 
ATOM      7  C   UNL A   1     -24.934   2.013  31.221  0.00  0.00    +0.069 C 
ATOM      8  C   UNL A   1     -22.343   1.466  28.429  0.00  0.00    +0.004 C 
ENDROOT
BRANCH   3   9
ATOM      9  C   UNL A   1     -25.688   1.614  26.461  0.00  0.00    +0.079 C 
ATOM     10  C   UNL A   1     -26.250   2.920  26.395  0.00  0.00    +0.056 C 
ATOM     11  C   UNL A   1     -27.438   3.091  25.645  0.00  0.00    +0.102 C 
ATOM     12  N   UNL A   1     -28.075   2.089  25.003  0.00  0.00    -0.212 NA
ATOM     13  C   UNL A   1     -27.543   0.849  25.079  0.00  0.00    +0.234 C 
ATOM     14  C   UNL A   1     -26.354   0.576  25.777  0.00  0.00    +0.241 C 
ATOM     15  F   UNL A   1     -25.860  -0.681  25.795  0.00  0.00    -0.227 F 
BRANCH  10  16
ATOM     16  C   UNL A   1     -25.642   4.093  27.123  0.00  0.00    +0.263 C 
ATOM     17  N   UNL A   1     -25.614   5.252  26.449  0.00  0.00    -0.200 NA
ATOM     18  C   UNL A   1     -25.026   6.479  26.963  0.00  0.00    +0.139 C 
ATOM     19  O   UNL A   1     -25.143   3.966  28.243  0.00  0.00    -0.269 OA
ENDBRANCH  10  16
BRANCH  13  20
ATOM     20  O   UNL A   1     -28.193  -0.208  24.477  0.00  0.00    -0.459 OA
BRANCH  20  21
ATOM     21  C   UNL A   1     -29.460   0.005  23.866  0.00  0.00    +0.242 C 
BRANCH  21  22
ATOM     22  C   UNL A   1     -30.065  -1.377  23.573  0.00  0.00    +0.229 C 
ATOM     23  O   UNL A   1     -30.729  -1.878  24.721  0.00  0.00    -0.216 OA
ENDBRANCH  21  22
ENDBRANCH  20  21
ENDBRANCH  13  20
ENDBRANCH   3   9
BRANCH   7  27
ATOM     24  O   UNL A   1     -24.668   3.990  32.602  0.00  0.00    -0.403 OA
ATOM     25  O   UNL A   1     -26.194   5.295  31.306  0.00  0.00    -0.311 OA
ATOM     26  O   UNL A   1     -26.259   5.332  33.332  0.00  0.00    -0.136 OA
ATOM     27  C   UNL A   1     -25.279   3.202  31.617  0.00  0.00    +0.268 C 
ATOM     28  N   UNL A   1     -26.408   3.839  31.072  0.00  0.00    -0.038 NA
ATOM     29  C   UNL A   1     -25.308   5.200  32.489  0.00  0.00    +0.460 C 
BRANCH  29  36
ATOM     30  O   UNL A   1     -23.846   7.596  35.338  0.00  0.00    -0.470 OA
ATOM     31  O   UNL A   1     -22.853   5.807  32.773  0.00  0.00    -0.339 OA
ATOM     32  C   UNL A   1     -21.816   6.370  33.630  0.00  0.00    +0.172 C 
ATOM     33  C   UNL A   1     -21.916   7.924  33.703  0.00  0.00    +0.046 C 
ATOM     34  C   UNL A   1     -24.239   6.368  34.617  0.00  0.00    +0.246 C 
ATOM     35  C   UNL A   1     -22.987   8.515  34.699  0.00  0.00    +0.170 C 
ATOM     36  C   UNL A   1     -24.160   6.280  33.065  0.00  0.00    +0.272 C 
ENDBRANCH  29  36
ENDBRANCH   7  27
BRANCH   7  38
ATOM     37  C   UNL A   1     -25.387  -0.679  31.571  0.00  0.00    +0.082 C 
ATOM     38  C   UNL A   1     -25.189   0.773  32.028  0.00  0.00    +0.052 C 
ATOM     39  C   UNL A   1     -25.336   0.684  33.544  0.00  0.00    +0.025 C 
ATOM     40  C   UNL A   1     -24.829  -0.715  33.905  0.00  0.00    +0.089 C 
ATOM     41  N   UNL A   1     -24.758  -1.481  32.646  0.00  0.00    -0.219 NA
BRANCH  37  42
ATOM     42  C   UNL A   1     -24.855  -1.012  30.143  0.00  0.00    +0.044 C 
BRANCH  42  43
ATOM     43  C   UNL A   1     -24.973  -2.505  29.788  0.00  0.00    -0.021 C 
ATOM     44  C   UNL A   1     -23.906  -3.173  29.146  0.00  0.00    -0.004 C 
ATOM     45  C   UNL A   1     -23.989  -4.549  28.853  0.00  0.00    -0.000 C 
ATOM     46  C   UNL A   1     -25.137  -5.280  29.205  0.00  0.00    -0.000 C 
ATOM     47  C   UNL A   1     -26.232  -4.611  29.784  0.00  0.00    -0.000 C 
ATOM     48  C   UNL A   1     -26.155  -3.232  30.065  0.00  0.00    -0.004 C 
ENDBRANCH  42  43
ENDBRANCH  37  42
ENDBRANCH   7  38
TORSDOF 10
