REMARK  Name = outputs/IAG933/test6/raw/output_9029_IAG933_linker_design_.xyz
REMARK  13 active torsions:
REMARK  status: ('A' for Active; 'I' for Inactive)
REMARK    1  A    between atoms: C_1  and  C_2
REMARK    2  A    between atoms: C_1  and  C_8
REMARK    3  A    between atoms: C_9  and  N_34
REMARK    4  A    between atoms: C_13  and  C_40
REMARK    5  A    between atoms: C_14  and  C_15
REMARK    6  A    between atoms: C_21  and  O_22
REMARK    7  A    between atoms: O_22  and  C_23
REMARK    8  A    between atoms: C_23  and  C_24
REMARK    9  A    between atoms: C_28  and  O_36
REMARK   10  A    between atoms: C_28  and  C_39
REMARK   11  A    between atoms: N_32  and  C_46
REMARK   12  A    between atoms: N_34  and  O_36
REMARK   13  A    between atoms: N_34  and  C_46
REMARK                            x       y       z     vdW  Elec       q    Type
REMARK                         _______ _______ _______ _____ _____    ______ ____
ROOT
ATOM      1  N   UNL A   1     -24.504   1.903  31.323  0.00  0.00    -0.118 NA
ENDROOT
BRANCH   1   3
ATOM      2  C   UNL A   1     -25.387  -0.679  31.571  0.00  0.00    +0.094 C 
ATOM      3  C   UNL A   1     -25.189   0.773  32.028  0.00  0.00    +0.106 C 
ATOM      4  C   UNL A   1     -25.336   0.684  33.544  0.00  0.00    +0.039 C 
ATOM      5  C   UNL A   1     -24.829  -0.715  33.905  0.00  0.00    +0.090 C 
ATOM      6  N   UNL A   1     -24.758  -1.481  32.646  0.00  0.00    -0.218 NA
BRANCH   2   7
ATOM      7  C   UNL A   1     -24.855  -1.012  30.143  0.00  0.00    +0.045 C 
BRANCH   7   8
ATOM      8  C   UNL A   1     -24.973  -2.505  29.788  0.00  0.00    -0.021 C 
ATOM      9  C   UNL A   1     -23.906  -3.173  29.146  0.00  0.00    -0.004 C 
ATOM     10  C   UNL A   1     -23.989  -4.549  28.853  0.00  0.00    -0.000 C 
ATOM     11  C   UNL A   1     -25.137  -5.280  29.205  0.00  0.00    -0.000 C 
ATOM     12  C   UNL A   1     -26.232  -4.611  29.784  0.00  0.00    -0.000 C 
ATOM     13  C   UNL A   1     -26.155  -3.232  30.065  0.00  0.00    -0.004 C 
ENDBRANCH   7   8
ENDBRANCH   2   7
ENDBRANCH   1   3
BRANCH   1  14
ATOM     14  O   UNL A   1     -24.736   3.056  31.736  0.00  0.00    -0.279 OA
BRANCH  14  15
ATOM     15  C   UNL A   1     -26.202   3.196  32.251  0.00  0.00    +0.173 C 
BRANCH  15  19
ATOM     16  C   UNL A   1     -28.911   5.962  33.436  0.00  0.00    +0.421 C 
ATOM     17  O   UNL A   1     -29.157   4.959  32.623  0.00  0.00    -0.433 OA
ATOM     18  C   UNL A   1     -28.230   4.536  31.636  0.00  0.00    +0.215 C 
ATOM     19  C   UNL A   1     -26.834   4.526  32.266  0.00  0.00    +0.108 C 
ATOM     20  O   UNL A   1     -25.000   6.215  32.582  0.00  0.00    -0.221 OA
ATOM     21  O   UNL A   1     -29.688   6.178  34.321  0.00  0.00    -0.225 OA
ATOM     22  C   UNL A   1     -27.148   6.988  31.851  0.00  0.00    +0.152 C 
ATOM     23  C   UNL A   1     -26.119   5.863  31.756  0.00  0.00    +0.180 C 
ATOM     24  N   UNL A   1     -27.791   6.838  33.216  0.00  0.00    -0.166 NA
ENDBRANCH  15  19
ENDBRANCH  14  15
ENDBRANCH   1  14
BRANCH   1  25
ATOM     25  C   UNL A   1     -23.647   2.109  30.527  0.00  0.00    +0.354 C 
BRANCH  25  26
ATOM     26  N   UNL A   1     -23.027   2.109  29.443  0.00  0.00    -0.013 NA
ATOM     27  C   UNL A   1     -23.419   1.917  25.759  0.00  0.00    +0.017 C 
ATOM     28  C   UNL A   1     -22.803   1.637  28.307  0.00  0.00    +0.339 C 
ATOM     29  N   UNL A   1     -23.954   1.116  27.874  0.00  0.00    -0.045 NA
ATOM     30  C   UNL A   1     -22.088   2.018  26.148  0.00  0.00    +0.042 C 
ATOM     31  C   UNL A   1     -24.353   1.521  26.733  0.00  0.00    +0.173 C 
ATOM     32  C   UNL A   1     -21.743   1.890  27.487  0.00  0.00    +0.126 C 
BRANCH  31  33
ATOM     33  C   UNL A   1     -25.688   1.614  26.461  0.00  0.00    +0.136 C 
ATOM     34  C   UNL A   1     -26.250   2.920  26.395  0.00  0.00    +0.063 C 
ATOM     35  C   UNL A   1     -27.438   3.091  25.645  0.00  0.00    +0.103 C 
ATOM     36  N   UNL A   1     -28.075   2.089  25.003  0.00  0.00    -0.212 NA
ATOM     37  C   UNL A   1     -27.543   0.849  25.079  0.00  0.00    +0.235 C 
ATOM     38  C   UNL A   1     -26.354   0.576  25.777  0.00  0.00    +0.248 C 
ATOM     39  F   UNL A   1     -25.860  -0.681  25.795  0.00  0.00    -0.226 F 
BRANCH  34  40
ATOM     40  C   UNL A   1     -25.642   4.093  27.123  0.00  0.00    +0.263 C 
ATOM     41  N   UNL A   1     -25.614   5.252  26.449  0.00  0.00    -0.200 NA
ATOM     42  C   UNL A   1     -25.026   6.479  26.963  0.00  0.00    +0.139 C 
ATOM     43  O   UNL A   1     -25.143   3.966  28.243  0.00  0.00    -0.269 OA
ENDBRANCH  34  40
BRANCH  37  44
ATOM     44  O   UNL A   1     -28.193  -0.208  24.477  0.00  0.00    -0.459 OA
BRANCH  44  45
ATOM     45  C   UNL A   1     -29.460   0.005  23.866  0.00  0.00    +0.242 C 
BRANCH  45  46
ATOM     46  C   UNL A   1     -30.065  -1.377  23.573  0.00  0.00    +0.229 C 
ATOM     47  O   UNL A   1     -30.729  -1.878  24.721  0.00  0.00    -0.216 OA
ENDBRANCH  45  46
ENDBRANCH  44  45
ENDBRANCH  37  44
ENDBRANCH  31  33
ENDBRANCH  25  26
ENDBRANCH   1  25
TORSDOF 13
