REMARK  Name = outputs/IAG933/test6/raw/output_9030_IAG933_linker_design_.xyz
REMARK  15 active torsions:
REMARK  status: ('A' for Active; 'I' for Inactive)
REMARK    1  A    between atoms: C_1  and  C_2
REMARK    2  A    between atoms: C_1  and  C_8
REMARK    3  A    between atoms: C_9  and  C_38
REMARK    4  A    between atoms: C_13  and  N_30
REMARK    5  A    between atoms: C_14  and  C_15
REMARK    6  A    between atoms: C_21  and  O_22
REMARK    7  A    between atoms: O_22  and  C_23
REMARK    8  A    between atoms: C_23  and  C_24
REMARK    9  A    between atoms: N_30  and  C_31
REMARK   10  A    between atoms: C_31  and  C_34
REMARK   11  A    between atoms: C_32  and  C_34
REMARK   12  A    between atoms: C_32  and  O_37
REMARK   13  A    between atoms: C_35  and  O_37
REMARK   14  A    between atoms: C_35  and  C_38
REMARK   15  A    between atoms: N_36  and  C_38
REMARK                            x       y       z     vdW  Elec       q    Type
REMARK                         _______ _______ _______ _____ _____    ______ ____
ROOT
ATOM      1  O   UNL A   1     -25.257   4.086  31.221  0.00  0.00    -0.249 OA
ATOM      2  C   UNL A   1     -25.201   2.970  30.884  0.00  0.00    +0.332 C 
ENDROOT
BRANCH   2   3
ATOM      3  O   UNL A   1     -24.292   2.398  29.862  0.00  0.00    -0.448 OA
BRANCH   3   4
ATOM      4  C   UNL A   1     -23.212   1.444  29.708  0.00  0.00    +0.210 C 
BRANCH   4   5
ATOM      5  C   UNL A   1     -22.513   1.438  28.341  0.00  0.00    +0.069 C 
BRANCH   5   6
ATOM      6  C   UNL A   1     -23.510   1.996  27.290  0.00  0.00    +0.096 C 
ATOM      7  C   UNL A   1     -22.956   2.243  25.897  0.00  0.00    +0.024 C 
BRANCH   6   8
ATOM      8  N   UNL A   1     -24.753   1.222  27.272  0.00  0.00    -0.237 NA
BRANCH   8   9
ATOM      9  C   UNL A   1     -25.688   1.614  26.461  0.00  0.00    +0.103 C 
ATOM     10  C   UNL A   1     -26.250   2.920  26.395  0.00  0.00    +0.091 C 
ATOM     11  C   UNL A   1     -27.438   3.091  25.645  0.00  0.00    +0.108 C 
ATOM     12  N   UNL A   1     -28.075   2.089  25.003  0.00  0.00    -0.208 NA
ATOM     13  C   UNL A   1     -27.543   0.849  25.079  0.00  0.00    +0.255 C 
ATOM     14  C   UNL A   1     -26.354   0.576  25.777  0.00  0.00    +0.208 C 
ATOM     15  F   UNL A   1     -25.860  -0.681  25.795  0.00  0.00    -0.198 F 
BRANCH  10  16
ATOM     16  C   UNL A   1     -25.642   4.093  27.123  0.00  0.00    +0.268 C 
ATOM     17  N   UNL A   1     -25.614   5.252  26.449  0.00  0.00    -0.200 NA
ATOM     18  C   UNL A   1     -25.026   6.479  26.963  0.00  0.00    +0.139 C 
ATOM     19  O   UNL A   1     -25.143   3.966  28.243  0.00  0.00    -0.268 OA
ENDBRANCH  10  16
BRANCH  13  20
ATOM     20  O   UNL A   1     -28.193  -0.208  24.477  0.00  0.00    -0.456 OA
BRANCH  20  21
ATOM     21  C   UNL A   1     -29.460   0.005  23.866  0.00  0.00    +0.243 C 
BRANCH  21  22
ATOM     22  C   UNL A   1     -30.065  -1.377  23.573  0.00  0.00    +0.229 C 
ATOM     23  O   UNL A   1     -30.729  -1.878  24.721  0.00  0.00    -0.216 OA
ENDBRANCH  21  22
ENDBRANCH  20  21
ENDBRANCH  13  20
ENDBRANCH   8   9
ENDBRANCH   6   8
ENDBRANCH   5   6
ENDBRANCH   4   5
ENDBRANCH   3   4
ENDBRANCH   2   3
BRANCH   2  24
ATOM     24  C   UNL A   1     -26.064   1.737  31.408  0.00  0.00    +0.159 C 
BRANCH  24  27
ATOM     25  C   UNL A   1     -28.219   0.742  31.971  0.00  0.00    +0.073 C 
ATOM     26  O   UNL A   1     -30.330   2.414  32.112  0.00  0.00    -0.222 OA
ATOM     27  N   UNL A   1     -27.311   1.913  32.213  0.00  0.00    -0.263 NA
ATOM     28  C   UNL A   1     -28.988   2.036  29.994  0.00  0.00    +0.036 C 
ATOM     29  C   UNL A   1     -28.012   3.229  31.969  0.00  0.00    +0.106 C 
ATOM     30  C   UNL A   1     -28.715   0.593  30.507  0.00  0.00    +0.020 C 
ATOM     31  C   UNL A   1     -29.317   2.898  31.219  0.00  0.00    +0.168 C 
ENDBRANCH  24  27
BRANCH  24  33
ATOM     32  C   UNL A   1     -25.387  -0.679  31.571  0.00  0.00    +0.079 C 
ATOM     33  C   UNL A   1     -25.189   0.773  32.028  0.00  0.00    +0.043 C 
ATOM     34  C   UNL A   1     -25.336   0.684  33.544  0.00  0.00    +0.022 C 
ATOM     35  C   UNL A   1     -24.829  -0.715  33.905  0.00  0.00    +0.089 C 
ATOM     36  N   UNL A   1     -24.758  -1.481  32.646  0.00  0.00    -0.219 NA
BRANCH  32  37
ATOM     37  C   UNL A   1     -24.855  -1.012  30.143  0.00  0.00    +0.044 C 
BRANCH  37  38
ATOM     38  C   UNL A   1     -24.973  -2.505  29.788  0.00  0.00    -0.021 C 
ATOM     39  C   UNL A   1     -23.906  -3.173  29.146  0.00  0.00    -0.004 C 
ATOM     40  C   UNL A   1     -23.989  -4.549  28.853  0.00  0.00    -0.000 C 
ATOM     41  C   UNL A   1     -25.137  -5.280  29.205  0.00  0.00    -0.000 C 
ATOM     42  C   UNL A   1     -26.232  -4.611  29.784  0.00  0.00    -0.000 C 
ATOM     43  C   UNL A   1     -26.155  -3.232  30.065  0.00  0.00    -0.004 C 
ENDBRANCH  37  38
ENDBRANCH  32  37
ENDBRANCH  24  33
ENDBRANCH   2  24
TORSDOF 15
