REMARK  Name = outputs/IAG933/test6/raw/output_9032_IAG933_linker_design_.xyz
REMARK  10 active torsions:
REMARK  status: ('A' for Active; 'I' for Inactive)
REMARK    1  A    between atoms: C_1  and  C_2
REMARK    2  A    between atoms: C_1  and  C_8
REMARK    3  A    between atoms: C_1  and  N_31
REMARK    4  A    between atoms: C_13  and  C_30
REMARK    5  A    between atoms: C_14  and  C_15
REMARK    6  A    between atoms: C_21  and  O_22
REMARK    7  A    between atoms: O_22  and  C_23
REMARK    8  A    between atoms: C_23  and  C_24
REMARK    9  A    between atoms: C_28  and  N_31
REMARK   10  A    between atoms: C_28  and  C_39
REMARK                            x       y       z     vdW  Elec       q    Type
REMARK                         _______ _______ _______ _____ _____    ______ ____
ROOT
ATOM      1  O   UNL A   1     -21.854  -0.430  29.325  0.00  0.00    -0.279 OA
ATOM      2  C   UNL A   1     -24.324   1.458  26.810  0.00  0.00    +0.205 C 
ATOM      3  N   UNL A   1     -25.064   0.094  29.244  0.00  0.00    -0.179 N 
ATOM      4  F   UNL A   1     -23.440   2.530  24.936  0.00  0.00    -0.201 F 
ATOM      5  N   UNL A   1     -24.276   0.791  27.882  0.00  0.00    -0.038 NA
ATOM      6  C   UNL A   1     -21.573   1.134  27.677  0.00  0.00    +0.052 C 
ATOM      7  C   UNL A   1     -23.781   0.449  28.500  0.00  0.00    +0.363 C 
ATOM      8  C   UNL A   1     -22.391   0.395  28.547  0.00  0.00    +0.277 C 
ATOM      9  C   UNL A   1     -23.273   1.969  26.131  0.00  0.00    +0.179 C 
ATOM     10  C   UNL A   1     -21.986   1.919  26.631  0.00  0.00    +0.037 C 
ENDROOT
BRANCH   2  11
ATOM     11  C   UNL A   1     -25.688   1.614  26.461  0.00  0.00    +0.138 C 
ATOM     12  C   UNL A   1     -26.250   2.920  26.395  0.00  0.00    +0.063 C 
ATOM     13  C   UNL A   1     -27.438   3.091  25.645  0.00  0.00    +0.103 C 
ATOM     14  N   UNL A   1     -28.075   2.089  25.003  0.00  0.00    -0.212 NA
ATOM     15  C   UNL A   1     -27.543   0.849  25.079  0.00  0.00    +0.235 C 
ATOM     16  C   UNL A   1     -26.354   0.576  25.777  0.00  0.00    +0.248 C 
ATOM     17  F   UNL A   1     -25.860  -0.681  25.795  0.00  0.00    -0.226 F 
BRANCH  12  18
ATOM     18  C   UNL A   1     -25.642   4.093  27.123  0.00  0.00    +0.263 C 
ATOM     19  N   UNL A   1     -25.614   5.252  26.449  0.00  0.00    -0.200 NA
ATOM     20  C   UNL A   1     -25.026   6.479  26.963  0.00  0.00    +0.139 C 
ATOM     21  O   UNL A   1     -25.143   3.966  28.243  0.00  0.00    -0.269 OA
ENDBRANCH  12  18
BRANCH  15  22
ATOM     22  O   UNL A   1     -28.193  -0.208  24.477  0.00  0.00    -0.459 OA
BRANCH  22  23
ATOM     23  C   UNL A   1     -29.460   0.005  23.866  0.00  0.00    +0.242 C 
BRANCH  23  24
ATOM     24  C   UNL A   1     -30.065  -1.377  23.573  0.00  0.00    +0.229 C 
ATOM     25  O   UNL A   1     -30.729  -1.878  24.721  0.00  0.00    -0.216 OA
ENDBRANCH  23  24
ENDBRANCH  22  23
ENDBRANCH  15  22
ENDBRANCH   2  11
BRANCH   3  26
ATOM     26  C   UNL A   1     -24.855  -1.012  30.143  0.00  0.00    +0.199 C 
BRANCH  26  27
ATOM     27  C   UNL A   1     -24.973  -2.505  29.788  0.00  0.00    +0.021 C 
ATOM     28  C   UNL A   1     -23.906  -3.173  29.146  0.00  0.00    -0.000 C 
ATOM     29  C   UNL A   1     -23.989  -4.549  28.853  0.00  0.00    -0.000 C 
ATOM     30  C   UNL A   1     -25.137  -5.280  29.205  0.00  0.00    -0.000 C 
ATOM     31  C   UNL A   1     -26.232  -4.611  29.784  0.00  0.00    -0.000 C 
ATOM     32  C   UNL A   1     -26.155  -3.232  30.065  0.00  0.00    -0.000 C 
ENDBRANCH  26  27
BRANCH  26  33
ATOM     33  C   UNL A   1     -25.387  -0.679  31.571  0.00  0.00    +0.120 C 
ATOM     34  C   UNL A   1     -25.189   0.773  32.028  0.00  0.00    +0.023 C 
ATOM     35  C   UNL A   1     -25.336   0.684  33.544  0.00  0.00    +0.020 C 
ATOM     36  C   UNL A   1     -24.829  -0.715  33.905  0.00  0.00    +0.089 C 
ATOM     37  N   UNL A   1     -24.758  -1.481  32.646  0.00  0.00    -0.215 NA
ENDBRANCH  26  33
ENDBRANCH   3  26
BRANCH   3  38
ATOM     38  C   UNL A   1     -26.666   0.198  29.046  0.00  0.00    +0.275 C 
BRANCH  38  40
ATOM     39  O   UNL A   1     -28.864  -0.867  28.940  0.00  0.00    -0.284 OA
ATOM     40  C   UNL A   1     -28.076   0.111  29.213  0.00  0.00    +0.259 C 
ENDBRANCH  38  40
ENDBRANCH   3  38
TORSDOF 10
