REMARK  Name = outputs/IAG933/test6/raw/output_9034_IAG933_linker_design_.xyz
REMARK  13 active torsions:
REMARK  status: ('A' for Active; 'I' for Inactive)
REMARK    1  A    between atoms: C_1  and  C_2
REMARK    2  A    between atoms: C_1  and  C_8
REMARK    3  A    between atoms: C_1  and  C_36
REMARK    4  A    between atoms: C_13  and  N_40
REMARK    5  A    between atoms: C_14  and  C_15
REMARK    6  A    between atoms: C_21  and  O_22
REMARK    7  A    between atoms: O_22  and  C_23
REMARK    8  A    between atoms: C_23  and  C_24
REMARK    9  A    between atoms: C_31  and  N_40
REMARK   10  A    between atoms: C_33  and  C_36
REMARK   11  A    between atoms: C_34  and  O_43
REMARK   12  A    between atoms: C_36  and  N_38
REMARK   13  A    between atoms: N_38  and  C_44
REMARK                            x       y       z     vdW  Elec       q    Type
REMARK                         _______ _______ _______ _____ _____    ______ ____
ROOT
ATOM      1  C   UNL A   1     -22.299   0.236  28.813  0.00  0.00    -0.016 C 
ATOM      2  C   UNL A   1     -23.551   1.248  27.153  0.00  0.00    +0.091 C 
ATOM      3  C   UNL A   1     -23.619   0.573  28.265  0.00  0.00    +0.079 C 
ATOM      4  C   UNL A   1     -22.200   1.441  26.847  0.00  0.00    +0.197 C 
ATOM      5  C   UNL A   1     -21.436   0.859  27.902  0.00  0.00    +0.038 C 
ENDROOT
BRANCH   4   7
ATOM      6  O   UNL A   1     -22.884   2.035  24.600  0.00  0.00    +0.028 OA
ATOM      7  O   UNL A   1     -21.887   1.997  25.562  0.00  0.00    -0.302 OA
ENDBRANCH   4   7
BRANCH   3   8
ATOM      8  C   UNL A   1     -24.845   0.136  29.137  0.00  0.00    +0.087 C 
BRANCH   8   9
ATOM      9  C   UNL A   1     -24.855  -1.012  30.143  0.00  0.00    +0.055 C 
BRANCH   9  10
ATOM     10  C   UNL A   1     -24.973  -2.505  29.788  0.00  0.00    -0.020 C 
ATOM     11  C   UNL A   1     -23.906  -3.173  29.146  0.00  0.00    -0.004 C 
ATOM     12  C   UNL A   1     -23.989  -4.549  28.853  0.00  0.00    -0.000 C 
ATOM     13  C   UNL A   1     -25.137  -5.280  29.205  0.00  0.00    -0.000 C 
ATOM     14  C   UNL A   1     -26.232  -4.611  29.784  0.00  0.00    -0.000 C 
ATOM     15  C   UNL A   1     -26.155  -3.232  30.065  0.00  0.00    -0.004 C 
ENDBRANCH   9  10
BRANCH   9  16
ATOM     16  C   UNL A   1     -25.387  -0.679  31.571  0.00  0.00    +0.078 C 
ATOM     17  C   UNL A   1     -25.189   0.773  32.028  0.00  0.00    +0.019 C 
ATOM     18  C   UNL A   1     -25.336   0.684  33.544  0.00  0.00    +0.020 C 
ATOM     19  C   UNL A   1     -24.829  -0.715  33.905  0.00  0.00    +0.089 C 
ATOM     20  N   UNL A   1     -24.758  -1.481  32.646  0.00  0.00    -0.219 NA
ENDBRANCH   9  16
ENDBRANCH   8   9
BRANCH   8  21
ATOM     21  N   UNL A   1     -25.657   1.233  29.483  0.00  0.00    -0.220 NA
BRANCH  21  28
ATOM     22  N   UNL A   1     -29.356   1.597  30.685  0.00  0.00    -0.219 NA
ATOM     23  C   UNL A   1     -27.581   2.652  29.826  0.00  0.00    +0.036 C 
ATOM     24  C   UNL A   1     -29.354   0.395  29.833  0.00  0.00    +0.074 C 
ATOM     25  C   UNL A   1     -30.305   0.648  28.655  0.00  0.00    +0.019 C 
ATOM     26  C   UNL A   1     -29.076   2.826  29.900  0.00  0.00    +0.090 C 
ATOM     27  C   UNL A   1     -27.936   0.080  29.296  0.00  0.00    +0.035 C 
ATOM     28  C   UNL A   1     -27.051   1.358  29.139  0.00  0.00    +0.076 C 
ENDBRANCH  21  28
ENDBRANCH   8  21
ENDBRANCH   3   8
BRANCH   2  29
ATOM     29  N   UNL A   1     -24.449   1.260  27.048  0.00  0.00    -0.211 NA
BRANCH  29  30
ATOM     30  C   UNL A   1     -25.688   1.614  26.461  0.00  0.00    +0.108 C 
ATOM     31  C   UNL A   1     -26.250   2.920  26.395  0.00  0.00    +0.092 C 
ATOM     32  C   UNL A   1     -27.438   3.091  25.645  0.00  0.00    +0.108 C 
ATOM     33  N   UNL A   1     -28.075   2.089  25.003  0.00  0.00    -0.208 NA
ATOM     34  C   UNL A   1     -27.543   0.849  25.079  0.00  0.00    +0.255 C 
ATOM     35  C   UNL A   1     -26.354   0.576  25.777  0.00  0.00    +0.208 C 
ATOM     36  F   UNL A   1     -25.860  -0.681  25.795  0.00  0.00    -0.198 F 
BRANCH  31  37
ATOM     37  C   UNL A   1     -25.642   4.093  27.123  0.00  0.00    +0.268 C 
ATOM     38  N   UNL A   1     -25.614   5.252  26.449  0.00  0.00    -0.200 NA
ATOM     39  C   UNL A   1     -25.026   6.479  26.963  0.00  0.00    +0.139 C 
ATOM     40  O   UNL A   1     -25.143   3.966  28.243  0.00  0.00    -0.268 OA
ENDBRANCH  31  37
BRANCH  34  41
ATOM     41  O   UNL A   1     -28.193  -0.208  24.477  0.00  0.00    -0.456 OA
BRANCH  41  42
ATOM     42  C   UNL A   1     -29.460   0.005  23.866  0.00  0.00    +0.243 C 
BRANCH  42  43
ATOM     43  C   UNL A   1     -30.065  -1.377  23.573  0.00  0.00    +0.229 C 
ATOM     44  O   UNL A   1     -30.729  -1.878  24.721  0.00  0.00    -0.216 OA
ENDBRANCH  42  43
ENDBRANCH  41  42
ENDBRANCH  34  41
ENDBRANCH  29  30
ENDBRANCH   2  29
TORSDOF 13
