REMARK  Name = outputs/IAG933/test6/raw/output_9035_IAG933_linker_design_.xyz
REMARK  12 active torsions:
REMARK  status: ('A' for Active; 'I' for Inactive)
REMARK    1  A    between atoms: C_1  and  C_2
REMARK    2  A    between atoms: C_1  and  C_8
REMARK    3  A    between atoms: C_1  and  C_37
REMARK    4  A    between atoms: C_13  and  C_36
REMARK    5  A    between atoms: C_14  and  C_15
REMARK    6  A    between atoms: C_21  and  O_22
REMARK    7  A    between atoms: O_22  and  C_23
REMARK    8  A    between atoms: C_23  and  C_24
REMARK    9  A    between atoms: CA_30  and  C_38
REMARK   10  A    between atoms: C_32  and  C_38
REMARK   11  A    between atoms: C_37  and  C_41
REMARK   12  A    between atoms: C_37  and  N_42
REMARK                            x       y       z     vdW  Elec       q    Type
REMARK                         _______ _______ _______ _____ _____    ______ ____
ROOT
ATOM      1 CL   UNL A   1     -22.727   2.359  25.400  0.00  0.00    -0.079 Cl
ATOM      2  C   UNL A   1     -22.243   1.332  27.784  0.00  0.00    +0.180 A 
ATOM      3  F   UNL A   1     -20.924   1.513  27.814  0.00  0.00    -0.196 F 
ATOM      4  C   UNL A   1     -23.160   1.677  26.854  0.00  0.00    +0.092 A 
ATOM      5  C   UNL A   1     -24.519   1.312  27.209  0.00  0.00    +0.019 A 
ATOM      6  S   UNL A   1     -22.770   0.553  28.965  0.00  0.00    -0.060 S 
ATOM      7  C   UNL A   1     -24.330   0.637  28.396  0.00  0.00    +0.029 A 
ENDROOT
BRANCH   5   8
ATOM      8  C   UNL A   1     -25.688   1.614  26.461  0.00  0.00    +0.039 C 
ATOM      9  C   UNL A   1     -26.250   2.920  26.395  0.00  0.00    +0.077 C 
ATOM     10  C   UNL A   1     -27.438   3.091  25.645  0.00  0.00    +0.107 C 
ATOM     11  N   UNL A   1     -28.075   2.089  25.003  0.00  0.00    -0.208 NA
ATOM     12  C   UNL A   1     -27.543   0.849  25.079  0.00  0.00    +0.253 C 
ATOM     13  C   UNL A   1     -26.354   0.576  25.777  0.00  0.00    +0.193 C 
ATOM     14  F   UNL A   1     -25.860  -0.681  25.795  0.00  0.00    -0.199 F 
BRANCH   9  15
ATOM     15  C   UNL A   1     -25.642   4.093  27.123  0.00  0.00    +0.266 C 
ATOM     16  N   UNL A   1     -25.614   5.252  26.449  0.00  0.00    -0.200 NA
ATOM     17  C   UNL A   1     -25.026   6.479  26.963  0.00  0.00    +0.139 C 
ATOM     18  O   UNL A   1     -25.143   3.966  28.243  0.00  0.00    -0.268 OA
ENDBRANCH   9  15
BRANCH  12  19
ATOM     19  O   UNL A   1     -28.193  -0.208  24.477  0.00  0.00    -0.456 OA
BRANCH  19  20
ATOM     20  C   UNL A   1     -29.460   0.005  23.866  0.00  0.00    +0.243 C 
BRANCH  20  21
ATOM     21  C   UNL A   1     -30.065  -1.377  23.573  0.00  0.00    +0.229 C 
ATOM     22  O   UNL A   1     -30.729  -1.878  24.721  0.00  0.00    -0.216 OA
ENDBRANCH  20  21
ENDBRANCH  19  20
ENDBRANCH  12  19
ENDBRANCH   5   8
BRANCH   7  23
ATOM     23  C   UNL A   1     -25.551  -0.067  29.092  0.00  0.00    +0.110 C 
BRANCH  23  27
ATOM     24  O   UNL A   1     -28.690  -0.391  28.151  0.00  0.00    -0.273 OA
ATOM     25  CA  UNL A   1     -27.822   1.315  29.587  0.00  0.00    +0.152 C 
ATOM     26  C   UNL A   1     -27.976   0.330  28.851  0.00  0.00    +0.244 C 
ATOM     27  N   UNL A   1     -26.849   0.705  29.235  0.00  0.00    -0.269 N 
BRANCH  25  28
ATOM     28  C   UNL A   1     -28.625   2.638  29.355  0.00  0.00    +0.029 C 
BRANCH  28  29
ATOM     29  C   UNL A   1     -30.168   2.340  29.202  0.00  0.00    +0.002 C 
ATOM     30  C   UNL A   1     -30.279   2.394  27.694  0.00  0.00    +0.000 C 
ATOM     31  C   UNL A   1     -31.554   2.606  28.496  0.00  0.00    +0.000 C 
ENDBRANCH  28  29
ENDBRANCH  25  28
ENDBRANCH  23  27
BRANCH  23  32
ATOM     32  C   UNL A   1     -24.855  -1.012  30.143  0.00  0.00    +0.061 C 
BRANCH  32  33
ATOM     33  C   UNL A   1     -24.973  -2.505  29.788  0.00  0.00    -0.019 C 
ATOM     34  C   UNL A   1     -23.906  -3.173  29.146  0.00  0.00    -0.004 C 
ATOM     35  C   UNL A   1     -23.989  -4.549  28.853  0.00  0.00    -0.000 C 
ATOM     36  C   UNL A   1     -25.137  -5.280  29.205  0.00  0.00    -0.000 C 
ATOM     37  C   UNL A   1     -26.232  -4.611  29.784  0.00  0.00    -0.000 C 
ATOM     38  C   UNL A   1     -26.155  -3.232  30.065  0.00  0.00    -0.004 C 
ENDBRANCH  32  33
BRANCH  32  39
ATOM     39  C   UNL A   1     -25.387  -0.679  31.571  0.00  0.00    +0.079 C 
ATOM     40  C   UNL A   1     -25.189   0.773  32.028  0.00  0.00    +0.019 C 
ATOM     41  C   UNL A   1     -25.336   0.684  33.544  0.00  0.00    +0.020 C 
ATOM     42  C   UNL A   1     -24.829  -0.715  33.905  0.00  0.00    +0.089 C 
ATOM     43  N   UNL A   1     -24.758  -1.481  32.646  0.00  0.00    -0.219 NA
ENDBRANCH  32  39
ENDBRANCH  23  32
ENDBRANCH   7  23
TORSDOF 12
