REMARK  Name = outputs/IAG933/test6/raw/output_9038_IAG933_linker_design_.xyz
REMARK  13 active torsions:
REMARK  status: ('A' for Active; 'I' for Inactive)
REMARK    1  A    between atoms: C_1  and  C_2
REMARK    2  A    between atoms: C_1  and  C_8
REMARK    3  A    between atoms: C_1  and  C_28
REMARK    4  A    between atoms: C_13  and  C_42
REMARK    5  A    between atoms: C_14  and  C_15
REMARK    6  A    between atoms: C_21  and  O_22
REMARK    7  A    between atoms: O_22  and  C_23
REMARK    8  A    between atoms: C_23  and  C_24
REMARK    9  A    between atoms: C_28  and  C_34
REMARK   10  A    between atoms: C_28  and  C_40
REMARK   11  A    between atoms: C_31  and  C_38
REMARK   12  A    between atoms: C_31  and  C_40
REMARK   13  A    between atoms: C_36  and  C_38
REMARK                            x       y       z     vdW  Elec       q    Type
REMARK                         _______ _______ _______ _____ _____    ______ ____
ROOT
ATOM      1  C   UNL A   1     -25.238   0.038  29.081  0.00  0.00    +0.030 C 
ENDROOT
BRANCH   1   4
ATOM      2  C   UNL A   1     -21.764   1.804  27.061  0.00  0.00    +0.011 C 
ATOM      3  C   UNL A   1     -22.685   0.428  28.891  0.00  0.00    -0.004 C 
ATOM      4  C   UNL A   1     -24.034   0.678  28.401  0.00  0.00    -0.021 C 
ATOM      5  C   UNL A   1     -23.053   1.978  26.486  0.00  0.00    +0.057 C 
ATOM      6  C   UNL A   1     -24.257   1.438  27.131  0.00  0.00    +0.009 C 
ATOM      7 CL   UNL A   1     -23.200   2.821  24.959  0.00  0.00    -0.082 Cl
ATOM      8  C   UNL A   1     -21.567   0.996  28.222  0.00  0.00    +0.001 C 
BRANCH   6   9
ATOM      9  C   UNL A   1     -25.688   1.614  26.461  0.00  0.00    +0.039 C 
ATOM     10  C   UNL A   1     -26.250   2.920  26.395  0.00  0.00    +0.077 C 
ATOM     11  C   UNL A   1     -27.438   3.091  25.645  0.00  0.00    +0.107 C 
ATOM     12  N   UNL A   1     -28.075   2.089  25.003  0.00  0.00    -0.208 NA
ATOM     13  C   UNL A   1     -27.543   0.849  25.079  0.00  0.00    +0.253 C 
ATOM     14  C   UNL A   1     -26.354   0.576  25.777  0.00  0.00    +0.193 C 
ATOM     15  F   UNL A   1     -25.860  -0.681  25.795  0.00  0.00    -0.199 F 
BRANCH  10  16
ATOM     16  C   UNL A   1     -25.642   4.093  27.123  0.00  0.00    +0.266 C 
ATOM     17  N   UNL A   1     -25.614   5.252  26.449  0.00  0.00    -0.200 NA
ATOM     18  C   UNL A   1     -25.026   6.479  26.963  0.00  0.00    +0.139 C 
ATOM     19  O   UNL A   1     -25.143   3.966  28.243  0.00  0.00    -0.268 OA
ENDBRANCH  10  16
BRANCH  13  20
ATOM     20  O   UNL A   1     -28.193  -0.208  24.477  0.00  0.00    -0.456 OA
BRANCH  20  21
ATOM     21  C   UNL A   1     -29.460   0.005  23.866  0.00  0.00    +0.243 C 
BRANCH  21  22
ATOM     22  C   UNL A   1     -30.065  -1.377  23.573  0.00  0.00    +0.229 C 
ATOM     23  O   UNL A   1     -30.729  -1.878  24.721  0.00  0.00    -0.216 OA
ENDBRANCH  21  22
ENDBRANCH  20  21
ENDBRANCH  13  20
ENDBRANCH   6   9
ENDBRANCH   1   4
BRANCH   1  24
ATOM     24  C   UNL A   1     -24.855  -1.012  30.143  0.00  0.00    +0.042 C 
BRANCH  24  25
ATOM     25  C   UNL A   1     -24.973  -2.505  29.788  0.00  0.00    -0.021 C 
ATOM     26  C   UNL A   1     -23.906  -3.173  29.146  0.00  0.00    -0.004 C 
ATOM     27  C   UNL A   1     -23.989  -4.549  28.853  0.00  0.00    -0.000 C 
ATOM     28  C   UNL A   1     -25.137  -5.280  29.205  0.00  0.00    -0.000 C 
ATOM     29  C   UNL A   1     -26.232  -4.611  29.784  0.00  0.00    -0.000 C 
ATOM     30  C   UNL A   1     -26.155  -3.232  30.065  0.00  0.00    -0.004 C 
ENDBRANCH  24  25
BRANCH  24  31
ATOM     31  C   UNL A   1     -25.387  -0.679  31.571  0.00  0.00    +0.077 C 
ATOM     32  C   UNL A   1     -25.189   0.773  32.028  0.00  0.00    +0.019 C 
ATOM     33  C   UNL A   1     -25.336   0.684  33.544  0.00  0.00    +0.020 C 
ATOM     34  C   UNL A   1     -24.829  -0.715  33.905  0.00  0.00    +0.089 C 
ATOM     35  N   UNL A   1     -24.758  -1.481  32.646  0.00  0.00    -0.219 NA
ENDBRANCH  24  31
ENDBRANCH   1  24
BRANCH   1  36
ATOM     36  C   UNL A   1     -26.799   0.252  29.006  0.00  0.00    +0.038 C 
BRANCH  36  37
ATOM     37  C   UNL A   1     -27.732   1.063  29.947  0.00  0.00    +0.154 C 
ATOM     38  O   UNL A   1     -27.541   2.293  30.456  0.00  0.00    -0.223 OA
BRANCH  37  39
ATOM     39  C   UNL A   1     -29.295   0.831  29.733  0.00  0.00    +0.060 C 
BRANCH  39  43
ATOM     40  O   UNL A   1     -29.249  -1.960  30.172  0.00  0.00    -0.080 OA
ATOM     41  O   UNL A   1     -31.292  -1.640  28.860  0.00  0.00    -0.371 OA
ATOM     42  C   UNL A   1     -31.524  -0.891  27.638  0.00  0.00    +0.201 C 
ATOM     43  C   UNL A   1     -29.301  -0.291  28.676  0.00  0.00    +0.155 C 
ATOM     44  C   UNL A   1     -30.345   0.054  27.461  0.00  0.00    +0.038 C 
ATOM     45  N   UNL A   1     -29.984  -1.363  29.290  0.00  0.00    +0.030 NA
ENDBRANCH  39  43
ENDBRANCH  37  39
ENDBRANCH  36  37
ENDBRANCH   1  36
TORSDOF 13
