REMARK  Name = outputs/IAG933/test6/raw/output_9039_IAG933_linker_design_.xyz
REMARK  11 active torsions:
REMARK  status: ('A' for Active; 'I' for Inactive)
REMARK    1  A    between atoms: C_1  and  C_2
REMARK    2  A    between atoms: C_1  and  C_8
REMARK    3  A    between atoms: C_13  and  N_37
REMARK    4  A    between atoms: C_14  and  C_15
REMARK    5  A    between atoms: C_15  and  O_18
REMARK    6  A    between atoms: O_18  and  C_41
REMARK    7  A    between atoms: C_21  and  O_22
REMARK    8  A    between atoms: O_22  and  C_23
REMARK    9  A    between atoms: C_23  and  C_24
REMARK   10  A    between atoms: C_31  and  C_32
REMARK   11  A    between atoms: C_33  and  C_43
REMARK                            x       y       z     vdW  Elec       q    Type
REMARK                         _______ _______ _______ _____ _____    ______ ____
ROOT
ATOM      1  C   UNL A   1     -25.688   1.614  26.461  0.00  0.00    +0.090 C 
ATOM      2  C   UNL A   1     -26.250   2.920  26.395  0.00  0.00    +0.088 C 
ATOM      3  C   UNL A   1     -27.438   3.091  25.645  0.00  0.00    +0.108 C 
ATOM      4  N   UNL A   1     -28.075   2.089  25.003  0.00  0.00    -0.208 NA
ATOM      5  C   UNL A   1     -27.543   0.849  25.079  0.00  0.00    +0.255 C 
ATOM      6  C   UNL A   1     -26.354   0.576  25.777  0.00  0.00    +0.207 C 
ATOM      7  F   UNL A   1     -25.860  -0.681  25.795  0.00  0.00    -0.198 F 
ENDROOT
BRANCH   1  12
ATOM      8  C   UNL A   1     -23.271   1.882  26.649  0.00  0.00    +0.113 C 
ATOM      9  N   UNL A   1     -22.143   1.832  28.761  0.00  0.00    -0.209 NA
ATOM     10  C   UNL A   1     -24.244   1.113  28.404  0.00  0.00    +0.129 C 
ATOM     11  C   UNL A   1     -23.327   1.598  29.292  0.00  0.00    +0.137 C 
ATOM     12  N   UNL A   1     -24.453   1.507  27.106  0.00  0.00    -0.278 N 
ATOM     13  C   UNL A   1     -22.134   1.936  27.442  0.00  0.00    +0.223 C 
ATOM     14  F   UNL A   1     -20.935   2.072  26.869  0.00  0.00    -0.185 F 
BRANCH  10  17
ATOM     15  C   UNL A   1     -24.855  -1.012  30.143  0.00  0.00    +0.152 C 
ATOM     16  O   UNL A   1     -25.523  -0.363  28.917  0.00  0.00    -0.349 OA
ATOM     17  C   UNL A   1     -24.244  -0.391  28.611  0.00  0.00    +0.165 C 
BRANCH  15  18
ATOM     18  C   UNL A   1     -24.973  -2.505  29.788  0.00  0.00    +0.006 C 
ATOM     19  C   UNL A   1     -23.906  -3.173  29.146  0.00  0.00    -0.002 C 
ATOM     20  C   UNL A   1     -23.989  -4.549  28.853  0.00  0.00    -0.000 C 
ATOM     21  C   UNL A   1     -25.137  -5.280  29.205  0.00  0.00    -0.000 C 
ATOM     22  C   UNL A   1     -26.232  -4.611  29.784  0.00  0.00    -0.000 C 
ATOM     23  C   UNL A   1     -26.155  -3.232  30.065  0.00  0.00    -0.002 C 
ENDBRANCH  15  18
BRANCH  15  24
ATOM     24  C   UNL A   1     -25.387  -0.679  31.571  0.00  0.00    +0.104 C 
ATOM     25  C   UNL A   1     -25.189   0.773  32.028  0.00  0.00    +0.022 C 
ATOM     26  C   UNL A   1     -25.336   0.684  33.544  0.00  0.00    +0.020 C 
ATOM     27  C   UNL A   1     -24.829  -0.715  33.905  0.00  0.00    +0.089 C 
ATOM     28  N   UNL A   1     -24.758  -1.481  32.646  0.00  0.00    -0.217 NA
ENDBRANCH  15  24
ENDBRANCH  10  17
ENDBRANCH   1  12
BRANCH   2  29
ATOM     29  C   UNL A   1     -25.642   4.093  27.123  0.00  0.00    +0.223 C 
ATOM     30  N   UNL A   1     -25.614   5.252  26.449  0.00  0.00    -0.236 NA
ATOM     31  C   UNL A   1     -25.026   6.479  26.963  0.00  0.00    +0.155 C 
BRANCH  29  32
ATOM     32  O   UNL A   1     -25.143   3.966  28.243  0.00  0.00    -0.461 OA
BRANCH  32  37
ATOM     33  C   UNL A   1     -27.316   5.385  30.053  0.00  0.00    +0.152 C 
ATOM     34  C   UNL A   1     -27.422   4.265  29.155  0.00  0.00    +0.106 C 
ATOM     35  O   UNL A   1     -29.299   5.229  28.176  0.00  0.00    -0.220 OA
ATOM     36  O   UNL A   1     -26.161   5.078  30.962  0.00  0.00    -0.342 OA
ATOM     37  C   UNL A   1     -26.086   3.501  29.341  0.00  0.00    +0.210 C 
ATOM     38  C   UNL A   1     -26.077   3.646  30.963  0.00  0.00    +0.258 C 
ATOM     39  C   UNL A   1     -28.722   4.819  29.470  0.00  0.00    +0.185 C 
BRANCH  38  40
ATOM     40  C   UNL A   1     -27.301   3.277  31.931  0.00  0.00    +0.395 C 
ATOM     41  O   UNL A   1     -27.080   3.098  33.081  0.00  0.00    -0.243 OA
ATOM     42  O   UNL A   1     -28.502   3.147  31.561  0.00  0.00    -0.243 OA
ENDBRANCH  38  40
ENDBRANCH  32  37
ENDBRANCH  29  32
ENDBRANCH   2  29
BRANCH   5  43
ATOM     43  O   UNL A   1     -28.193  -0.208  24.477  0.00  0.00    -0.456 OA
BRANCH  43  44
ATOM     44  C   UNL A   1     -29.460   0.005  23.866  0.00  0.00    +0.243 C 
BRANCH  44  45
ATOM     45  C   UNL A   1     -30.065  -1.377  23.573  0.00  0.00    +0.229 C 
ATOM     46  O   UNL A   1     -30.729  -1.878  24.721  0.00  0.00    -0.216 OA
ENDBRANCH  44  45
ENDBRANCH  43  44
ENDBRANCH   5  43
TORSDOF 11
