MODEL 903
MODEL 1
REMARK VINA RESULT:    -8.429      0.000      0.000
REMARK INTER + INTRA:         -11.676
REMARK INTER:                 -10.400
REMARK INTRA:                  -1.276
REMARK UNBOUND:                -1.276
REMARK  Name = No_903-gen_results/8p0m/2024-11-27-11-27-31/
REMARK  4 active torsions:
REMARK  status: ('A' for Active; 'I' for Inactive)
REMARK    1  A    between atoms: C_15  and  C_16
REMARK    2  A    between atoms: C_18  and  C_24
REMARK    3  A    between atoms: C_29  and  C_30
REMARK    4  A    between atoms: N_32  and  C_33
REMARK                            x       y       z     vdW  Elec       q    Type
REMARK                         _______ _______ _______ _____ _____    ______ ____
ROOT
ATOM      1  C   UNL A   1     -23.596  -0.195  30.077  0.00  0.00    +0.057 A 
ATOM      2  C   UNL A   1     -24.039   0.757  29.604  0.00  0.00    +0.006 A 
ATOM      3  C   UNL A   1     -23.519   1.591  28.583  0.00  0.00    +0.018 A 
ATOM      4  C   UNL A   1     -22.240   1.264  28.098  0.00  0.00    +0.002 A 
ATOM      5  C   UNL A   1     -21.605   0.135  28.570  0.00  0.00    +0.000 A 
ATOM      6  C   UNL A   1     -22.181  -0.614  29.576  0.00  0.00    +0.005 A 
ENDROOT
BRANCH   1  21
ATOM      7  C   UNL A   1     -28.891  -1.543  31.841  0.00  0.00    +0.005 A 
ATOM      8  C   UNL A   1     -28.772  -0.694  32.455  0.00  0.00    +0.000 A 
ATOM      9  C   UNL A   1     -27.733  -2.103  31.258  0.00  0.00    +0.055 A 
ATOM     10  C   UNL A   1     -27.712  -3.357  30.461  0.00  0.00    +0.198 A 
ATOM     11  C   UNL A   1     -27.570   0.071  32.832  0.00  0.00    +0.002 A 
ATOM     12  C   UNL A   1     -26.385  -0.424  32.289  0.00  0.00    +0.018 A 
ATOM     13  C   UNL A   1     -26.424  -1.548  31.528  0.00  0.00    +0.070 A 
ATOM     14  C   UNL A   1     -26.513  -3.663  29.748  0.00  0.00    +0.055 A 
ATOM     15  C   UNL A   1     -26.227  -4.866  29.410  0.00  0.00    +0.005 A 
ATOM     16  C   UNL A   1     -24.820  -5.130  28.826  0.00  0.00    +0.000 A 
ATOM     17  C   UNL A   1     -23.948  -4.036  28.668  0.00  0.00    +0.002 A 
ATOM     18  C   UNL A   1     -24.376  -2.785  28.988  0.00  0.00    +0.018 A 
ATOM     19  C   UNL A   1     -25.597  -2.569  29.643  0.00  0.00    +0.070 A 
ATOM     20  N   UNL A   1     -25.255  -1.679  30.767  0.00  0.00    -0.274 N 
ATOM     21  C   UNL A   1     -24.080  -1.067  31.027  0.00  0.00    +0.265 C 
ATOM     22  O   UNL A   1     -28.691  -4.048  30.337  0.00  0.00    -0.286 OA
ATOM     23  O   UNL A   1     -23.513  -1.304  32.148  0.00  0.00    -0.267 OA
ENDBRANCH   1  21
BRANCH   3  24
ATOM     24  C   UNL A   1     -24.214   2.789  28.069  0.00  0.00    +0.081 A 
ATOM     25  N   UNL A   1     -24.021   3.312  27.191  0.00  0.00    -0.244 NA
ATOM     26  C   UNL A   1     -24.770   4.396  26.730  0.00  0.00    +0.103 A 
ATOM     27  C   UNL A   1     -25.389   3.174  28.920  0.00  0.00    +0.019 A 
ATOM     28  C   UNL A   1     -26.168   4.207  28.561  0.00  0.00    +0.008 A 
ATOM     29  C   UNL A   1     -25.818   4.856  27.405  0.00  0.00    +0.074 A 
BRANCH  29  30
ATOM     30  C   UNL A   1     -26.572   6.007  26.879  0.00  0.00    +0.271 C 
ATOM     31  O   UNL A   1     -27.647   6.119  26.539  0.00  0.00    -0.268 OA
ATOM     32  N   UNL A   1     -25.711   7.199  26.792  0.00  0.00    -0.174 NA
BRANCH  32  33
ATOM     33  C   UNL A   1     -26.285   8.401  26.307  0.00  0.00    +0.084 C 
ATOM     34  C   UNL A   1     -26.046   9.355  27.102  0.00  0.00    -0.008 C 
ATOM     35  C   UNL A   1     -25.224   9.287  28.266  0.00  0.00    +0.032 C 
ENDBRANCH  32  33
ENDBRANCH  29  30
ENDBRANCH   3  24
TORSDOF 4
ENDMDL
ENDMDL
