REMARK  Name = No_904-gen_results/8p0m/2024-11-27-11-27-31/
REMARK  1 active torsions:
REMARK  status: ('A' for Active; 'I' for Inactive)
REMARK    1  A    between atoms: C_2  and  C_8
REMARK                            x       y       z     vdW  Elec       q    Type
REMARK                         _______ _______ _______ _____ _____    ______ ____
ROOT
ATOM      1  C   UNL A   1     -28.016  -0.814  28.878  0.00  0.00    +0.015 A 
ATOM      2  C   UNL A   1     -27.064  -0.119  28.608  0.00  0.00    +0.072 A 
ATOM      3  C   UNL A   1     -25.792  -0.430  29.076  0.00  0.00    +0.004 A 
ATOM      4  C   UNL A   1     -25.576  -1.565  29.936  0.00  0.00    +0.001 A 
ATOM      5  C   UNL A   1     -26.735  -2.300  30.217  0.00  0.00    +0.011 A 
ATOM      6  C   UNL A   1     -27.918  -1.954  29.763  0.00  0.00    +0.058 A 
ATOM      7 CL   UNL A   1     -29.209  -2.996  30.244  0.00  0.00    -0.082 Cl
ENDROOT
BRANCH   2   8
ATOM      8  C   UNL A   1     -27.119   1.107  27.764  0.00  0.00    +0.419 C 
ATOM      9  F   UNL A   1     -26.514   1.043  26.786  0.00  0.00    -0.166 F 
ATOM     10  F   UNL A   1     -28.442   1.249  27.399  0.00  0.00    -0.166 F 
ATOM     11  F   UNL A   1     -26.847   2.234  28.427  0.00  0.00    -0.166 F 
ENDBRANCH   2   8
TORSDOF 1
