REMARK  Name = outputs/IAG933/test6/raw/output_9042_IAG933_linker_design_.xyz
REMARK  12 active torsions:
REMARK  status: ('A' for Active; 'I' for Inactive)
REMARK    1  A    between atoms: C_1  and  C_2
REMARK    2  A    between atoms: C_1  and  C_8
REMARK    3  A    between atoms: C_1  and  C_31
REMARK    4  A    between atoms: C_13  and  C_45
REMARK    5  A    between atoms: C_14  and  C_15
REMARK    6  A    between atoms: C_21  and  O_22
REMARK    7  A    between atoms: O_22  and  C_23
REMARK    8  A    between atoms: C_23  and  C_24
REMARK    9  A    between atoms: S_29  and  O_36
REMARK   10  A    between atoms: C_30  and  C_40
REMARK   11  A    between atoms: C_31  and  O_36
REMARK   12  A    between atoms: C_31  and  C_37
REMARK                            x       y       z     vdW  Elec       q    Type
REMARK                         _______ _______ _______ _____ _____    ______ ____
ROOT
ATOM      1  C   UNL A   1     -22.584   0.130  29.027  0.00  0.00    +0.211 C 
ATOM      2  F   UNL A   1     -22.360  -0.579  30.116  0.00  0.00    -0.230 F 
ATOM      3  O   UNL A   1     -20.636   0.133  27.973  0.00  0.00    -0.220 OA
ATOM      4  C   UNL A   1     -23.956   0.603  28.465  0.00  0.00    +0.016 C 
ATOM      5  C   UNL A   1     -22.859   1.452  26.758  0.00  0.00    +0.120 C 
ATOM      6  C   UNL A   1     -21.535   1.351  27.422  0.00  0.00    +0.049 C 
ATOM      7  C   UNL A   1     -21.367   0.596  28.566  0.00  0.00    +0.189 C 
ATOM      8  C   UNL A   1     -24.308   1.346  27.172  0.00  0.00    -0.015 C 
ENDROOT
BRANCH   8   9
ATOM      9  C   UNL A   1     -25.688   1.614  26.461  0.00  0.00    +0.034 C 
ATOM     10  C   UNL A   1     -26.250   2.920  26.395  0.00  0.00    +0.076 C 
ATOM     11  C   UNL A   1     -27.438   3.091  25.645  0.00  0.00    +0.107 C 
ATOM     12  N   UNL A   1     -28.075   2.089  25.003  0.00  0.00    -0.208 NA
ATOM     13  C   UNL A   1     -27.543   0.849  25.079  0.00  0.00    +0.253 C 
ATOM     14  C   UNL A   1     -26.354   0.576  25.777  0.00  0.00    +0.193 C 
ATOM     15  F   UNL A   1     -25.860  -0.681  25.795  0.00  0.00    -0.199 F 
BRANCH  10  16
ATOM     16  C   UNL A   1     -25.642   4.093  27.123  0.00  0.00    +0.266 C 
ATOM     17  N   UNL A   1     -25.614   5.252  26.449  0.00  0.00    -0.200 NA
ATOM     18  C   UNL A   1     -25.026   6.479  26.963  0.00  0.00    +0.139 C 
ATOM     19  O   UNL A   1     -25.143   3.966  28.243  0.00  0.00    -0.268 OA
ENDBRANCH  10  16
BRANCH  13  20
ATOM     20  O   UNL A   1     -28.193  -0.208  24.477  0.00  0.00    -0.456 OA
BRANCH  20  21
ATOM     21  C   UNL A   1     -29.460   0.005  23.866  0.00  0.00    +0.243 C 
BRANCH  21  22
ATOM     22  C   UNL A   1     -30.065  -1.377  23.573  0.00  0.00    +0.229 C 
ATOM     23  O   UNL A   1     -30.729  -1.878  24.721  0.00  0.00    -0.216 OA
ENDBRANCH  21  22
ENDBRANCH  20  21
ENDBRANCH  13  20
ENDBRANCH   8   9
BRANCH   5  24
ATOM     24  C   UNL A   1     -22.672   2.020  25.348  0.00  0.00    +0.401 C 
ATOM     25  F   UNL A   1     -21.451   2.391  25.066  0.00  0.00    -0.170 F 
ATOM     26  F   UNL A   1     -23.409   3.098  25.193  0.00  0.00    -0.170 F 
ATOM     27  F   UNL A   1     -23.003   1.115  24.444  0.00  0.00    -0.170 F 
ENDBRANCH   5  24
BRANCH   4  28
ATOM     28  C   UNL A   1     -25.142   0.097  29.134  0.00  0.00    +0.169 C 
BRANCH  28  29
ATOM     29  C   UNL A   1     -24.855  -1.012  30.143  0.00  0.00    +0.072 C 
BRANCH  29  30
ATOM     30  C   UNL A   1     -24.973  -2.505  29.788  0.00  0.00    -0.018 C 
ATOM     31  C   UNL A   1     -23.906  -3.173  29.146  0.00  0.00    -0.004 C 
ATOM     32  C   UNL A   1     -23.989  -4.549  28.853  0.00  0.00    -0.000 C 
ATOM     33  C   UNL A   1     -25.137  -5.280  29.205  0.00  0.00    -0.000 C 
ATOM     34  C   UNL A   1     -26.232  -4.611  29.784  0.00  0.00    -0.000 C 
ATOM     35  C   UNL A   1     -26.155  -3.232  30.065  0.00  0.00    -0.004 C 
ENDBRANCH  29  30
BRANCH  29  36
ATOM     36  C   UNL A   1     -25.387  -0.679  31.571  0.00  0.00    +0.080 C 
ATOM     37  C   UNL A   1     -25.189   0.773  32.028  0.00  0.00    +0.019 C 
ATOM     38  C   UNL A   1     -25.336   0.684  33.544  0.00  0.00    +0.020 C 
ATOM     39  C   UNL A   1     -24.829  -0.715  33.905  0.00  0.00    +0.089 C 
ATOM     40  N   UNL A   1     -24.758  -1.481  32.646  0.00  0.00    -0.219 NA
ENDBRANCH  29  36
ENDBRANCH  28  29
BRANCH  28  41
ATOM     41  O   UNL A   1     -26.229   0.872  28.757  0.00  0.00    -0.240 OA
BRANCH  41  42
ATOM     42  S   UNL A   1     -27.621   0.424  29.265  0.00  0.00    -0.005 S 
ATOM     43  C   UNL A   1     -28.224   1.594  30.355  0.00  0.00    +0.181 C 
ATOM     44  O   UNL A   1     -28.337   0.644  27.802  0.00  0.00    -0.072 OA
ATOM     45  O   UNL A   1     -27.816  -0.897  29.526  0.00  0.00    -0.072 OA
ENDBRANCH  41  42
ENDBRANCH  28  41
ENDBRANCH   4  28
TORSDOF 12
