REMARK  Name = outputs/IAG933/test6/raw/output_9043_IAG933_linker_design_.xyz
REMARK  7 active torsions:
REMARK  status: ('A' for Active; 'I' for Inactive)
REMARK    1  A    between atoms: C_1  and  C_2
REMARK    2  A    between atoms: C_13  and  C_37
REMARK    3  A    between atoms: C_14  and  C_15
REMARK    4  A    between atoms: C_21  and  O_22
REMARK    5  A    between atoms: O_22  and  C_23
REMARK    6  A    between atoms: C_23  and  C_24
REMARK    7  A    between atoms: C_31  and  C_32
REMARK                            x       y       z     vdW  Elec       q    Type
REMARK                         _______ _______ _______ _____ _____    ______ ____
ROOT
ATOM      1  C   UNL A   1     -22.111   2.198  25.876  0.00  0.00    +0.029 C 
ATOM      2  C   UNL A   1     -23.809   1.574  28.105  0.00  0.00    +0.006 C 
ATOM      3  F   UNL A   1     -20.296   2.175  27.350  0.00  0.00    -0.204 F 
ATOM      4  C   UNL A   1     -21.606   2.000  27.164  0.00  0.00    +0.140 C 
ATOM      5  C   UNL A   1     -22.408   1.640  28.251  0.00  0.00    +0.028 C 
ATOM      6  C   UNL A   1     -24.352   1.682  26.788  0.00  0.00    -0.017 C 
ATOM      7  C   UNL A   1     -23.477   2.035  25.689  0.00  0.00    -0.002 C 
ENDROOT
BRANCH   2  16
ATOM      8  C   UNL A   1     -24.855  -1.012  30.143  0.00  0.00    +0.044 C 
ATOM      9  C   UNL A   1     -25.387  -0.679  31.571  0.00  0.00    +0.107 C 
ATOM     10  C   UNL A   1     -25.189   0.773  32.028  0.00  0.00    +0.170 C 
ATOM     11  C   UNL A   1     -25.336   0.684  33.544  0.00  0.00    +0.053 C 
ATOM     12  C   UNL A   1     -24.829  -0.715  33.905  0.00  0.00    +0.091 C 
ATOM     13  N   UNL A   1     -24.758  -1.481  32.646  0.00  0.00    -0.216 NA
ATOM     14  O   UNL A   1     -23.814   2.056  30.503  0.00  0.00    -0.219 OA
ATOM     15  C   UNL A   1     -25.496   0.181  29.399  0.00  0.00    +0.043 C 
ATOM     16  C   UNL A   1     -24.587   1.476  29.398  0.00  0.00    +0.174 C 
ATOM     17  O   UNL A   1     -24.008   1.507  31.742  0.00  0.00    -0.221 OA
BRANCH   8  18
ATOM     18  C   UNL A   1     -24.973  -2.505  29.788  0.00  0.00    -0.021 C 
ATOM     19  C   UNL A   1     -23.906  -3.173  29.146  0.00  0.00    -0.004 C 
ATOM     20  C   UNL A   1     -23.989  -4.549  28.853  0.00  0.00    -0.000 C 
ATOM     21  C   UNL A   1     -25.137  -5.280  29.205  0.00  0.00    -0.000 C 
ATOM     22  C   UNL A   1     -26.232  -4.611  29.784  0.00  0.00    -0.000 C 
ATOM     23  C   UNL A   1     -26.155  -3.232  30.065  0.00  0.00    -0.004 C 
ENDBRANCH   8  18
ENDBRANCH   2  16
BRANCH   6  24
ATOM     24  C   UNL A   1     -25.688   1.614  26.461  0.00  0.00    +0.092 C 
ATOM     25  C   UNL A   1     -26.250   2.920  26.395  0.00  0.00    +0.059 C 
ATOM     26  C   UNL A   1     -27.438   3.091  25.645  0.00  0.00    +0.102 C 
ATOM     27  N   UNL A   1     -28.075   2.089  25.003  0.00  0.00    -0.212 NA
ATOM     28  C   UNL A   1     -27.543   0.849  25.079  0.00  0.00    +0.234 C 
ATOM     29  C   UNL A   1     -26.354   0.576  25.777  0.00  0.00    +0.244 C 
ATOM     30  F   UNL A   1     -25.860  -0.681  25.795  0.00  0.00    -0.227 F 
BRANCH  25  31
ATOM     31  C   UNL A   1     -25.642   4.093  27.123  0.00  0.00    +0.263 C 
ATOM     32  N   UNL A   1     -25.614   5.252  26.449  0.00  0.00    -0.200 NA
ATOM     33  C   UNL A   1     -25.026   6.479  26.963  0.00  0.00    +0.139 C 
ATOM     34  O   UNL A   1     -25.143   3.966  28.243  0.00  0.00    -0.269 OA
ENDBRANCH  25  31
BRANCH  28  35
ATOM     35  O   UNL A   1     -28.193  -0.208  24.477  0.00  0.00    -0.459 OA
BRANCH  35  36
ATOM     36  C   UNL A   1     -29.460   0.005  23.866  0.00  0.00    +0.242 C 
BRANCH  36  37
ATOM     37  C   UNL A   1     -30.065  -1.377  23.573  0.00  0.00    +0.229 C 
ATOM     38  O   UNL A   1     -30.729  -1.878  24.721  0.00  0.00    -0.216 OA
ENDBRANCH  36  37
ENDBRANCH  35  36
ENDBRANCH  28  35
ENDBRANCH   6  24
TORSDOF 7
