REMARK  Name = outputs/IAG933/test6/raw/output_9044_IAG933_linker_design_.xyz
REMARK  13 active torsions:
REMARK  status: ('A' for Active; 'I' for Inactive)
REMARK    1  A    between atoms: C_1  and  C_2
REMARK    2  A    between atoms: C_1  and  C_8
REMARK    3  A    between atoms: C_1  and  C_35
REMARK    4  A    between atoms: C_13  and  N_38
REMARK    5  A    between atoms: C_14  and  C_15
REMARK    6  A    between atoms: C_21  and  O_22
REMARK    7  A    between atoms: O_22  and  C_23
REMARK    8  A    between atoms: C_23  and  C_24
REMARK    9  A    between atoms: C_32  and  N_34
REMARK   10  A    between atoms: N_34  and  C_35
REMARK   11  A    between atoms: C_35  and  O_39
REMARK   12  A    between atoms: C_36  and  C_41
REMARK   13  A    between atoms: O_39  and  C_41
REMARK                            x       y       z     vdW  Elec       q    Type
REMARK                         _______ _______ _______ _____ _____    ______ ____
ROOT
ATOM      1  F   UNL A   1     -22.980   0.921  25.065  0.00  0.00    -0.186 F 
ATOM      2  C   UNL A   1     -23.246   1.845  26.119  0.00  0.00    +0.341 C 
ATOM      3  C   UNL A   1     -23.773   1.191  27.817  0.00  0.00    +0.181 C 
ATOM      4  O   UNL A   1     -23.367   3.105  25.483  0.00  0.00    -0.169 OA
ATOM      5  F   UNL A   1     -21.198   1.781  27.420  0.00  0.00    -0.227 F 
ATOM      6  N   UNL A   1     -24.363   1.410  26.883  0.00  0.00    -0.201 NA
ATOM      7  C   UNL A   1     -22.592   1.863  27.437  0.00  0.00    +0.266 C 
ENDROOT
BRANCH   6   8
ATOM      8  C   UNL A   1     -25.688   1.614  26.461  0.00  0.00    +0.134 C 
ATOM      9  C   UNL A   1     -26.250   2.920  26.395  0.00  0.00    +0.070 C 
ATOM     10  C   UNL A   1     -27.438   3.091  25.645  0.00  0.00    +0.103 C 
ATOM     11  N   UNL A   1     -28.075   2.089  25.003  0.00  0.00    -0.212 NA
ATOM     12  C   UNL A   1     -27.543   0.849  25.079  0.00  0.00    +0.235 C 
ATOM     13  C   UNL A   1     -26.354   0.576  25.777  0.00  0.00    +0.255 C 
ATOM     14  F   UNL A   1     -25.860  -0.681  25.795  0.00  0.00    -0.225 F 
BRANCH   9  15
ATOM     15  C   UNL A   1     -25.642   4.093  27.123  0.00  0.00    +0.264 C 
ATOM     16  N   UNL A   1     -25.614   5.252  26.449  0.00  0.00    -0.200 NA
ATOM     17  C   UNL A   1     -25.026   6.479  26.963  0.00  0.00    +0.139 C 
ATOM     18  O   UNL A   1     -25.143   3.966  28.243  0.00  0.00    -0.269 OA
ENDBRANCH   9  15
BRANCH  12  19
ATOM     19  O   UNL A   1     -28.193  -0.208  24.477  0.00  0.00    -0.459 OA
BRANCH  19  20
ATOM     20  C   UNL A   1     -29.460   0.005  23.866  0.00  0.00    +0.242 C 
BRANCH  20  21
ATOM     21  C   UNL A   1     -30.065  -1.377  23.573  0.00  0.00    +0.229 C 
ATOM     22  O   UNL A   1     -30.729  -1.878  24.721  0.00  0.00    -0.216 OA
ENDBRANCH  20  21
ENDBRANCH  19  20
ENDBRANCH  12  19
ENDBRANCH   6   8
BRANCH   3  24
ATOM     23  N   UNL A   1     -22.700  -0.099  29.424  0.00  0.00    -0.034 NA
ATOM     24  N   UNL A   1     -23.927   0.318  28.745  0.00  0.00    -0.145 NA
BRANCH  24  25
ATOM     25  C   UNL A   1     -25.382  -0.048  28.983  0.00  0.00    +0.198 C 
BRANCH  25  26
ATOM     26  C   UNL A   1     -24.855  -1.012  30.143  0.00  0.00    +0.083 C 
BRANCH  26  27
ATOM     27  C   UNL A   1     -24.973  -2.505  29.788  0.00  0.00    -0.017 C 
ATOM     28  C   UNL A   1     -23.906  -3.173  29.146  0.00  0.00    -0.004 C 
ATOM     29  C   UNL A   1     -23.989  -4.549  28.853  0.00  0.00    -0.000 C 
ATOM     30  C   UNL A   1     -25.137  -5.280  29.205  0.00  0.00    -0.000 C 
ATOM     31  C   UNL A   1     -26.232  -4.611  29.784  0.00  0.00    -0.000 C 
ATOM     32  C   UNL A   1     -26.155  -3.232  30.065  0.00  0.00    -0.004 C 
ENDBRANCH  26  27
BRANCH  26  33
ATOM     33  C   UNL A   1     -25.387  -0.679  31.571  0.00  0.00    +0.081 C 
ATOM     34  C   UNL A   1     -25.189   0.773  32.028  0.00  0.00    +0.019 C 
ATOM     35  C   UNL A   1     -25.336   0.684  33.544  0.00  0.00    +0.020 C 
ATOM     36  C   UNL A   1     -24.829  -0.715  33.905  0.00  0.00    +0.089 C 
ATOM     37  N   UNL A   1     -24.758  -1.481  32.646  0.00  0.00    -0.219 NA
ENDBRANCH  26  33
ENDBRANCH  25  26
BRANCH  25  38
ATOM     38  O   UNL A   1     -26.852   0.689  29.342  0.00  0.00    -0.336 OA
BRANCH  38  39
ATOM     39  C   UNL A   1     -28.250   0.810  28.954  0.00  0.00    +0.179 C 
BRANCH  39  41
ATOM     40  O   UNL A   1     -28.562   2.175  30.849  0.00  0.00    -0.218 OA
ATOM     41  C   UNL A   1     -28.895   2.017  29.614  0.00  0.00    +0.214 C 
ENDBRANCH  39  41
ENDBRANCH  38  39
ENDBRANCH  25  38
ENDBRANCH  24  25
ENDBRANCH   3  24
TORSDOF 13
