MODEL 904
MODEL 1
REMARK VINA RESULT:    -5.402      0.000      0.000
REMARK INTER + INTRA:          -5.839
REMARK INTER:                  -5.718
REMARK INTRA:                  -0.121
REMARK UNBOUND:                -0.121
REMARK  Name = No_904-gen_results/8p0m/2024-11-27-11-27-31/
REMARK  1 active torsions:
REMARK  status: ('A' for Active; 'I' for Inactive)
REMARK    1  A    between atoms: C_2  and  C_8
REMARK                            x       y       z     vdW  Elec       q    Type
REMARK                         _______ _______ _______ _____ _____    ______ ____
ROOT
ATOM      1  C   UNL A   1     -25.732  -2.775  29.548  0.00  0.00    +0.015 A 
ATOM      2  C   UNL A   1     -24.620  -2.636  29.094  0.00  0.00    +0.072 A 
ATOM      3  C   UNL A   1     -23.879  -3.730  28.661  0.00  0.00    +0.004 A 
ATOM      4  C   UNL A   1     -24.395  -5.070  28.784  0.00  0.00    +0.001 A 
ATOM      5  C   UNL A   1     -25.678  -5.141  29.342  0.00  0.00    +0.011 A 
ATOM      6  C   UNL A   1     -26.330  -4.077  29.751  0.00  0.00    +0.058 A 
ATOM      7 CL   UNL A   1     -27.890  -4.399  30.419  0.00  0.00    -0.082 Cl
ENDROOT
BRANCH   2   8
ATOM      8  C   UNL A   1     -23.926  -1.328  28.931  0.00  0.00    +0.419 C 
ATOM      9  F   UNL A   1     -24.089  -0.589  29.799  0.00  0.00    -0.166 F 
ATOM     10  F   UNL A   1     -22.578  -1.622  28.913  0.00  0.00    -0.166 F 
ATOM     11  F   UNL A   1     -24.143  -0.743  27.751  0.00  0.00    -0.166 F 
ENDBRANCH   2   8
TORSDOF 1
ENDMDL
ENDMDL
