REMARK  Name = outputs/IAG933/test6/raw/output_9054_IAG933_linker_design_.xyz
REMARK  10 active torsions:
REMARK  status: ('A' for Active; 'I' for Inactive)
REMARK    1  A    between atoms: C_1  and  C_2
REMARK    2  A    between atoms: C_1  and  C_8
REMARK    3  A    between atoms: C_1  and  C_28
REMARK    4  A    between atoms: C_13  and  N_40
REMARK    5  A    between atoms: C_14  and  C_15
REMARK    6  A    between atoms: C_21  and  O_22
REMARK    7  A    between atoms: O_22  and  C_23
REMARK    8  A    between atoms: C_23  and  C_24
REMARK    9  A    between atoms: C_37  and  C_38
REMARK   10  A    between atoms: C_38  and  C_43
REMARK                            x       y       z     vdW  Elec       q    Type
REMARK                         _______ _______ _______ _____ _____    ______ ____
ROOT
ATOM      1  C   UNL A   1     -23.911  -0.242  29.421  0.00  0.00    -0.018 C 
ATOM      2  C   UNL A   1     -22.773   1.909  25.736  0.00  0.00    +0.306 C 
ATOM      3  C   UNL A   1     -23.722   1.124  27.611  0.00  0.00    +0.082 C 
ATOM      4  C   UNL A   1     -22.323   0.898  27.645  0.00  0.00    +0.170 C 
ATOM      5  C   UNL A   1     -22.543  -0.421  29.587  0.00  0.00    +0.017 C 
ATOM      6  N   UNL A   1     -20.353   0.080  28.681  0.00  0.00    -0.125 NA
ATOM      7  O   UNL A   1     -21.604   1.457  26.626  0.00  0.00    -0.452 OA
ATOM      8  N   UNL A   1     -24.205   1.593  26.445  0.00  0.00    -0.263 N 
ATOM      9  C   UNL A   1     -21.637   0.182  28.679  0.00  0.00    +0.124 C 
ATOM     10  C   UNL A   1     -24.508   0.677  28.611  0.00  0.00    -0.009 C 
ENDROOT
BRANCH   8  11
ATOM     11  C   UNL A   1     -25.688   1.614  26.461  0.00  0.00    +0.146 C 
ATOM     12  C   UNL A   1     -26.250   2.920  26.395  0.00  0.00    +0.073 C 
ATOM     13  C   UNL A   1     -27.438   3.091  25.645  0.00  0.00    +0.104 C 
ATOM     14  N   UNL A   1     -28.075   2.089  25.003  0.00  0.00    -0.212 NA
ATOM     15  C   UNL A   1     -27.543   0.849  25.079  0.00  0.00    +0.236 C 
ATOM     16  C   UNL A   1     -26.354   0.576  25.777  0.00  0.00    +0.258 C 
ATOM     17  F   UNL A   1     -25.860  -0.681  25.795  0.00  0.00    -0.225 F 
BRANCH  12  18
ATOM     18  C   UNL A   1     -25.642   4.093  27.123  0.00  0.00    +0.264 C 
ATOM     19  N   UNL A   1     -25.614   5.252  26.449  0.00  0.00    -0.200 NA
ATOM     20  C   UNL A   1     -25.026   6.479  26.963  0.00  0.00    +0.139 C 
ATOM     21  O   UNL A   1     -25.143   3.966  28.243  0.00  0.00    -0.269 OA
ENDBRANCH  12  18
BRANCH  15  22
ATOM     22  O   UNL A   1     -28.193  -0.208  24.477  0.00  0.00    -0.459 OA
BRANCH  22  23
ATOM     23  C   UNL A   1     -29.460   0.005  23.866  0.00  0.00    +0.242 C 
BRANCH  23  24
ATOM     24  C   UNL A   1     -30.065  -1.377  23.573  0.00  0.00    +0.229 C 
ATOM     25  O   UNL A   1     -30.729  -1.878  24.721  0.00  0.00    -0.216 OA
ENDBRANCH  23  24
ENDBRANCH  22  23
ENDBRANCH  15  22
ENDBRANCH   8  11
BRANCH   1  26
ATOM     26  C   UNL A   1     -24.855  -1.012  30.143  0.00  0.00    +0.060 C 
BRANCH  26  27
ATOM     27  C   UNL A   1     -24.973  -2.505  29.788  0.00  0.00    -0.017 C 
ATOM     28  C   UNL A   1     -23.906  -3.173  29.146  0.00  0.00    -0.004 C 
ATOM     29  C   UNL A   1     -23.989  -4.549  28.853  0.00  0.00    -0.000 C 
ATOM     30  C   UNL A   1     -25.137  -5.280  29.205  0.00  0.00    -0.000 C 
ATOM     31  C   UNL A   1     -26.232  -4.611  29.784  0.00  0.00    -0.000 C 
ATOM     32  C   UNL A   1     -26.155  -3.232  30.065  0.00  0.00    -0.004 C 
ENDBRANCH  26  27
BRANCH  26  33
ATOM     33  C   UNL A   1     -25.387  -0.679  31.571  0.00  0.00    +0.081 C 
ATOM     34  C   UNL A   1     -25.189   0.773  32.028  0.00  0.00    +0.019 C 
ATOM     35  C   UNL A   1     -25.336   0.684  33.544  0.00  0.00    +0.020 C 
ATOM     36  C   UNL A   1     -24.829  -0.715  33.905  0.00  0.00    +0.089 C 
ATOM     37  N   UNL A   1     -24.758  -1.481  32.646  0.00  0.00    -0.219 NA
ENDBRANCH  26  33
ENDBRANCH   1  26
BRANCH  10  38
ATOM     38  C   UNL A   1     -25.928   1.282  29.016  0.00  0.00    +0.028 C 
BRANCH  38  42
ATOM     39  C   UNL A   1     -28.231  -0.399  28.886  0.00  0.00    +0.033 C 
ATOM     40  C   UNL A   1     -28.470   2.026  29.162  0.00  0.00    +0.033 C 
ATOM     41  O   UNL A   1     -30.020   0.860  27.895  0.00  0.00    -0.354 OA
ATOM     42  C   UNL A   1     -27.475   0.904  29.230  0.00  0.00    +0.009 C 
ATOM     43  C   UNL A   1     -29.918   1.563  29.107  0.00  0.00    +0.142 C 
ATOM     44  C   UNL A   1     -29.097  -0.170  27.672  0.00  0.00    +0.142 C 
ENDBRANCH  38  42
ENDBRANCH  10  38
TORSDOF 10
