MODEL 905
MODEL 1
REMARK VINA RESULT:    -7.059      0.000      0.000
REMARK INTER + INTRA:          -8.484
REMARK INTER:                  -7.884
REMARK INTRA:                  -0.600
REMARK UNBOUND:                -0.600
REMARK  Name = No_905-gen_results/8p0m/2024-11-27-11-27-31/
REMARK  2 active torsions:
REMARK  status: ('A' for Active; 'I' for Inactive)
REMARK    1  A    between atoms: C_5  and  C_11
REMARK    2  A    between atoms: C_10  and  C_15
REMARK                            x       y       z     vdW  Elec       q    Type
REMARK                         _______ _______ _______ _____ _____    ______ ____
ROOT
ATOM      1  C   UNL A   1     -21.935   1.786  27.369  0.00  0.00    -0.000 A 
ATOM      2  C   UNL A   1     -22.525   0.852  27.861  0.00  0.00    -0.000 A 
ATOM      3  C   UNL A   1     -23.840   0.591  27.653  0.00  0.00    -0.000 A 
ATOM      4  C   UNL A   1     -24.576  -0.548  28.245  0.00  0.00    +0.004 A 
ATOM      5  C   UNL A   1     -23.826  -1.442  29.078  0.00  0.00    +0.071 A 
ATOM      6  C   UNL A   1     -22.444  -1.178  29.211  0.00  0.00    +0.004 A 
ATOM      7  C   UNL A   1     -21.829  -0.099  28.631  0.00  0.00    -0.000 A 
ATOM      8  C   UNL A   1     -22.353   2.198  25.952  0.00  0.00    -0.000 A 
ATOM      9  C   UNL A   1     -23.693   2.337  25.802  0.00  0.00    -0.000 A 
ATOM     10  C   UNL A   1     -24.457   1.227  26.465  0.00  0.00    -0.000 A 
ENDROOT
BRANCH   5  11
ATOM     11  C   UNL A   1     -24.424  -2.548  29.793  0.00  0.00    +0.419 C 
ATOM     12  F   UNL A   1     -23.869  -3.607  29.620  0.00  0.00    -0.166 F 
ATOM     13  F   UNL A   1     -25.739  -2.689  29.307  0.00  0.00    -0.166 F 
ATOM     14  F   UNL A   1     -24.620  -2.250  31.077  0.00  0.00    -0.166 F 
ENDBRANCH   5  11
BRANCH  10  15
ATOM     15  C   UNL A   1     -25.887   1.019  26.155  0.00  0.00    -0.005 C 
ATOM     16  C   UNL A   1     -26.242   0.195  25.234  0.00  0.00    -0.026 C 
ATOM     17  C   UNL A   1     -25.522  -0.511  24.563  0.00  0.00    +0.031 C 
ENDBRANCH  10  15
TORSDOF 2
ENDMDL
ENDMDL
