REMARK  Name = outputs/IAG933/test6/raw/output_9067_IAG933_linker_design_.xyz
REMARK  16 active torsions:
REMARK  status: ('A' for Active; 'I' for Inactive)
REMARK    1  A    between atoms: C_1  and  C_2
REMARK    2  A    between atoms: C_1  and  C_8
REMARK    3  A    between atoms: C_1  and  C_41
REMARK    4  A    between atoms: C_13  and  N_42
REMARK    5  A    between atoms: C_14  and  C_15
REMARK    6  A    between atoms: C_21  and  O_22
REMARK    7  A    between atoms: O_22  and  C_23
REMARK    8  A    between atoms: C_23  and  C_24
REMARK    9  A    between atoms: C_28  and  C_40
REMARK   10  A    between atoms: C_29  and  C_41
REMARK   11  A    between atoms: C_29  and  C_43
REMARK   12  A    between atoms: C_33  and  C_41
REMARK   13  A    between atoms: C_33  and  N_42
REMARK   14  A    between atoms: C_37  and  O_39
REMARK   15  A    between atoms: O_39  and  N_42
REMARK   16  A    between atoms: C_40  and  C_43
REMARK                            x       y       z     vdW  Elec       q    Type
REMARK                         _______ _______ _______ _____ _____    ______ ____
ROOT
ATOM      1  C   UNL A   1     -24.359   0.043  29.246  0.00  0.00    +0.031 C 
ENDROOT
BRANCH   1   2
ATOM      2  C   UNL A   1     -24.855  -1.012  30.143  0.00  0.00    +0.040 C 
BRANCH   2   3
ATOM      3  C   UNL A   1     -24.973  -2.505  29.788  0.00  0.00    -0.021 C 
ATOM      4  C   UNL A   1     -23.906  -3.173  29.146  0.00  0.00    -0.004 C 
ATOM      5  C   UNL A   1     -23.989  -4.549  28.853  0.00  0.00    -0.000 C 
ATOM      6  C   UNL A   1     -25.137  -5.280  29.205  0.00  0.00    -0.000 C 
ATOM      7  C   UNL A   1     -26.232  -4.611  29.784  0.00  0.00    -0.000 C 
ATOM      8  C   UNL A   1     -26.155  -3.232  30.065  0.00  0.00    -0.004 C 
ENDBRANCH   2   3
BRANCH   2   9
ATOM      9  C   UNL A   1     -25.387  -0.679  31.571  0.00  0.00    +0.077 C 
ATOM     10  C   UNL A   1     -25.189   0.773  32.028  0.00  0.00    +0.019 C 
ATOM     11  C   UNL A   1     -25.336   0.684  33.544  0.00  0.00    +0.020 C 
ATOM     12  C   UNL A   1     -24.829  -0.715  33.905  0.00  0.00    +0.089 C 
ATOM     13  N   UNL A   1     -24.758  -1.481  32.646  0.00  0.00    -0.219 NA
ENDBRANCH   2   9
ENDBRANCH   1   2
BRANCH   1  14
ATOM     14  C   UNL A   1     -24.419   1.194  29.745  0.00  0.00    +0.011 C 
BRANCH  14  15
ATOM     15  C   UNL A   1     -24.240   2.802  30.571  0.00  0.00    +0.074 C 
BRANCH  15  17
ATOM     16  O   UNL A   1     -26.375   3.767  31.092  0.00  0.00    -0.286 OA
ATOM     17  C   UNL A   1     -25.233   3.825  31.401  0.00  0.00    +0.226 C 
BRANCH  17  18
ATOM     18  C   UNL A   1     -24.936   4.858  32.450  0.00  0.00    +0.284 C 
ATOM     19  O   UNL A   1     -23.810   4.848  32.959  0.00  0.00    -0.267 OA
ATOM     20  C   UNL A   1     -26.399   6.749  32.156  0.00  0.00    +0.115 C 
ATOM     21  C   UNL A   1     -25.566   6.835  33.622  0.00  0.00    +0.115 C 
ATOM     22  N   UNL A   1     -25.869   5.693  32.864  0.00  0.00    -0.270 N 
ENDBRANCH  17  18
ENDBRANCH  15  17
ENDBRANCH  14  15
ENDBRANCH   1  14
BRANCH   1  23
ATOM     23  C   UNL A   1     -25.031   0.020  28.162  0.00  0.00    +0.133 C 
BRANCH  23  24
ATOM     24  N   UNL A   1     -24.680   1.168  27.313  0.00  0.00    -0.235 N 
BRANCH  24  25
ATOM     25  C   UNL A   1     -25.688   1.614  26.461  0.00  0.00    +0.120 C 
ATOM     26  C   UNL A   1     -26.250   2.920  26.395  0.00  0.00    +0.094 C 
ATOM     27  C   UNL A   1     -27.438   3.091  25.645  0.00  0.00    +0.108 C 
ATOM     28  N   UNL A   1     -28.075   2.089  25.003  0.00  0.00    -0.208 NA
ATOM     29  C   UNL A   1     -27.543   0.849  25.079  0.00  0.00    +0.255 C 
ATOM     30  C   UNL A   1     -26.354   0.576  25.777  0.00  0.00    +0.211 C 
ATOM     31  F   UNL A   1     -25.860  -0.681  25.795  0.00  0.00    -0.198 F 
BRANCH  26  32
ATOM     32  C   UNL A   1     -25.642   4.093  27.123  0.00  0.00    +0.268 C 
ATOM     33  N   UNL A   1     -25.614   5.252  26.449  0.00  0.00    -0.200 NA
ATOM     34  C   UNL A   1     -25.026   6.479  26.963  0.00  0.00    +0.139 C 
ATOM     35  O   UNL A   1     -25.143   3.966  28.243  0.00  0.00    -0.268 OA
ENDBRANCH  26  32
BRANCH  29  36
ATOM     36  O   UNL A   1     -28.193  -0.208  24.477  0.00  0.00    -0.456 OA
BRANCH  36  37
ATOM     37  C   UNL A   1     -29.460   0.005  23.866  0.00  0.00    +0.243 C 
BRANCH  37  38
ATOM     38  C   UNL A   1     -30.065  -1.377  23.573  0.00  0.00    +0.229 C 
ATOM     39  O   UNL A   1     -30.729  -1.878  24.721  0.00  0.00    -0.216 OA
ENDBRANCH  37  38
ENDBRANCH  36  37
ENDBRANCH  29  36
ENDBRANCH  24  25
BRANCH  24  40
ATOM     40  O   UNL A   1     -23.251   0.751  26.983  0.00  0.00    -0.243 OA
BRANCH  40  43
ATOM     41 CL   UNL A   1     -22.887   2.487  25.341  0.00  0.00    -0.080 Cl
ATOM     42  C   UNL A   1     -21.839   1.302  27.885  0.00  0.00    +0.053 C 
ATOM     43  C   UNL A   1     -22.556   1.754  26.743  0.00  0.00    +0.223 C 
ENDBRANCH  40  43
ENDBRANCH  24  40
ENDBRANCH  23  24
ENDBRANCH   1  23
TORSDOF 16
