MODEL 907
MODEL 1
REMARK VINA RESULT:    -5.373      0.000      0.000
REMARK INTER + INTRA:          -5.729
REMARK INTER:                  -5.687
REMARK INTRA:                  -0.042
REMARK UNBOUND:                -0.042
REMARK  Name = No_907-gen_results/8p0m/2024-11-27-11-27-31/
REMARK  1 active torsions:
REMARK  status: ('A' for Active; 'I' for Inactive)
REMARK    1  A    between atoms: C_2  and  C_7
REMARK                            x       y       z     vdW  Elec       q    Type
REMARK                         _______ _______ _______ _____ _____    ______ ____
ROOT
ATOM      1  C   UNL A   1     -10.366  -9.426  19.253  0.00  0.00    +0.007 A 
ATOM      2  C   UNL A   1      -9.804 -10.075  18.402  0.00  0.00    +0.080 A 
ATOM      3  C   UNL A   1      -8.497 -10.515  18.579  0.00  0.00    +0.007 A 
ATOM      4  C   UNL A   1      -7.755 -10.172  19.765  0.00  0.00    +0.000 A 
ATOM      5  C   UNL A   1      -8.472  -9.400  20.687  0.00  0.00    +0.000 A 
ATOM      6  C   UNL A   1      -9.702  -8.995  20.464  0.00  0.00    +0.000 A 
ENDROOT
BRANCH   2   7
ATOM      7  C   UNL A   1     -10.405 -10.497  17.108  0.00  0.00    +0.388 C 
ATOM      8  O   UNL A   1     -11.429 -10.459  16.919  0.00  0.00    -0.241 OA
ATOM      9  O   UNL A   1      -9.431 -10.973  16.284  0.00  0.00    -0.241 OA
ENDBRANCH   2   7
TORSDOF 1
ENDMDL
ENDMDL
