REMARK  Name = No_908-gen_results/8p0m/2024-11-27-11-27-31/
REMARK  2 active torsions:
REMARK  status: ('A' for Active; 'I' for Inactive)
REMARK    1  A    between atoms: C_3  and  C_4
REMARK    2  A    between atoms: C_4  and  C_8
REMARK                            x       y       z     vdW  Elec       q    Type
REMARK                         _______ _______ _______ _____ _____    ______ ____
ROOT
ATOM      1  C   UNL A   1     -26.252   0.411  27.422  0.00  0.00    +0.038 C 
ATOM      2  C   UNL A   1     -26.658  -0.659  26.371  0.00  0.00    +0.009 C 
ATOM      3  C   UNL A   1     -26.715   1.781  26.769  0.00  0.00    +0.009 C 
ENDROOT
BRANCH   1   6
ATOM      4  C   UNL A   1     -28.016  -0.814  28.878  0.00  0.00    -0.004 A 
ATOM      5  C   UNL A   1     -28.469  -0.785  29.829  0.00  0.00    -0.000 A 
ATOM      6  C   UNL A   1     -27.087   0.290  28.638  0.00  0.00    -0.019 A 
ATOM      7  C   UNL A   1     -28.391   0.104  30.980  0.00  0.00    -0.000 A 
ATOM      8  C   UNL A   1     -27.533   1.167  30.787  0.00  0.00    -0.000 A 
ATOM      9  C   UNL A   1     -26.756   1.306  29.612  0.00  0.00    -0.004 A 
ENDBRANCH   1   6
BRANCH   1  10
ATOM     10  C   UNL A   1     -24.932   0.315  27.622  0.00  0.00    -0.019 A 
ATOM     11  C   UNL A   1     -24.055   1.165  26.815  0.00  0.00    -0.004 A 
ATOM     12  C   UNL A   1     -22.660   1.326  27.173  0.00  0.00    -0.000 A 
ATOM     13  C   UNL A   1     -22.169   0.654  28.302  0.00  0.00    -0.000 A 
ATOM     14  C   UNL A   1     -24.268  -0.235  28.773  0.00  0.00    -0.004 A 
ATOM     15  C   UNL A   1     -22.952  -0.146  29.044  0.00  0.00    -0.000 A 
ENDBRANCH   1  10
TORSDOF 2
