REMARK  Name = outputs/IAG933/test6/raw/output_9085_IAG933_linker_design_.xyz
REMARK  17 active torsions:
REMARK  status: ('A' for Active; 'I' for Inactive)
REMARK    1  A    between atoms: C_1  and  C_2
REMARK    2  A    between atoms: C_1  and  C_8
REMARK    3  A    between atoms: C_1  and  O_31
REMARK    4  A    between atoms: C_14  and  C_15
REMARK    5  A    between atoms: C_15  and  O_18
REMARK    6  A    between atoms: O_18  and  C_42
REMARK    7  A    between atoms: C_21  and  O_22
REMARK    8  A    between atoms: O_22  and  C_23
REMARK    9  A    between atoms: C_23  and  C_24
REMARK   10  A    between atoms: C_29  and  O_31
REMARK   11  A    between atoms: C_29  and  N_32
REMARK   12  A    between atoms: C_29  and  C_48
REMARK   13  A    between atoms: N_32  and  C_42
REMARK   14  A    between atoms: C_38  and  C_43
REMARK   15  A    between atoms: C_38  and  O_45
REMARK   16  A    between atoms: C_40  and  C_43
REMARK   17  A    between atoms: C_42  and  O_45
REMARK                            x       y       z     vdW  Elec       q    Type
REMARK                         _______ _______ _______ _____ _____    ______ ____
ROOT
ATOM      1  C   UNL A   1     -25.235   3.337  29.417  0.00  0.00    +0.436 C 
ENDROOT
BRANCH   1   2
ATOM      2  N   UNL A   1     -25.024   1.968  29.544  0.00  0.00    -0.103 NA
BRANCH   2   3
ATOM      3  C   UNL A   1     -24.230   0.957  29.076  0.00  0.00    +0.277 C 
BRANCH   3   8
ATOM      4  O   UNL A   1     -20.841   0.646  28.289  0.00  0.00    -0.325 OA
ATOM      5  C   UNL A   1     -21.187   1.571  27.258  0.00  0.00    +0.453 C 
ATOM      6  O   UNL A   1     -22.470   1.812  27.556  0.00  0.00    -0.418 OA
ATOM      7  N   UNL A   1     -21.907   0.193  29.021  0.00  0.00    -0.041 NA
ATOM      8  C   UNL A   1     -22.931   0.984  28.608  0.00  0.00    +0.285 C 
ENDBRANCH   3   8
BRANCH   3   9
ATOM      9  O   UNL A   1     -24.841  -0.229  29.175  0.00  0.00    -0.329 OA
BRANCH   9  10
ATOM     10  C   UNL A   1     -24.855  -1.012  30.143  0.00  0.00    +0.155 C 
BRANCH  10  11
ATOM     11  C   UNL A   1     -24.973  -2.505  29.788  0.00  0.00    +0.006 C 
ATOM     12  C   UNL A   1     -23.906  -3.173  29.146  0.00  0.00    -0.002 C 
ATOM     13  C   UNL A   1     -23.989  -4.549  28.853  0.00  0.00    -0.000 C 
ATOM     14  C   UNL A   1     -25.137  -5.280  29.205  0.00  0.00    -0.000 C 
ATOM     15  C   UNL A   1     -26.232  -4.611  29.784  0.00  0.00    -0.000 C 
ATOM     16  C   UNL A   1     -26.155  -3.232  30.065  0.00  0.00    -0.002 C 
ENDBRANCH  10  11
BRANCH  10  17
ATOM     17  C   UNL A   1     -25.387  -0.679  31.571  0.00  0.00    +0.104 C 
ATOM     18  C   UNL A   1     -25.189   0.773  32.028  0.00  0.00    +0.022 C 
ATOM     19  C   UNL A   1     -25.336   0.684  33.544  0.00  0.00    +0.020 C 
ATOM     20  C   UNL A   1     -24.829  -0.715  33.905  0.00  0.00    +0.089 C 
ATOM     21  N   UNL A   1     -24.758  -1.481  32.646  0.00  0.00    -0.217 NA
ENDBRANCH  10  17
ENDBRANCH   9  10
ENDBRANCH   3   9
ENDBRANCH   2   3
ENDBRANCH   1   2
BRANCH   1  22
ATOM     22  O   UNL A   1     -25.143   3.966  28.243  0.00  0.00    -0.413 OA
BRANCH  22  23
ATOM     23  C   UNL A   1     -25.642   4.093  27.123  0.00  0.00    +0.226 C 
ATOM     24  N   UNL A   1     -25.614   5.252  26.449  0.00  0.00    -0.235 NA
ATOM     25  C   UNL A   1     -25.026   6.479  26.963  0.00  0.00    +0.155 C 
BRANCH  23  27
ATOM     26  C   UNL A   1     -25.688   1.614  26.461  0.00  0.00    +0.041 C 
ATOM     27  C   UNL A   1     -26.250   2.920  26.395  0.00  0.00    +0.075 C 
ATOM     28  C   UNL A   1     -27.438   3.091  25.645  0.00  0.00    +0.107 C 
ATOM     29  N   UNL A   1     -28.075   2.089  25.003  0.00  0.00    -0.208 NA
ATOM     30  C   UNL A   1     -27.543   0.849  25.079  0.00  0.00    +0.253 C 
ATOM     31  C   UNL A   1     -26.354   0.576  25.777  0.00  0.00    +0.193 C 
ATOM     32  F   UNL A   1     -25.860  -0.681  25.795  0.00  0.00    -0.199 F 
BRANCH  30  33
ATOM     33  O   UNL A   1     -28.193  -0.208  24.477  0.00  0.00    -0.456 OA
BRANCH  33  34
ATOM     34  C   UNL A   1     -29.460   0.005  23.866  0.00  0.00    +0.243 C 
BRANCH  34  35
ATOM     35  C   UNL A   1     -30.065  -1.377  23.573  0.00  0.00    +0.229 C 
ATOM     36  O   UNL A   1     -30.729  -1.878  24.721  0.00  0.00    -0.216 OA
ENDBRANCH  34  35
ENDBRANCH  33  34
ENDBRANCH  30  33
ENDBRANCH  23  27
ENDBRANCH  22  23
ENDBRANCH   1  22
BRANCH   1  37
ATOM     37  O   UNL A   1     -25.332   4.311  30.362  0.00  0.00    -0.428 OA
BRANCH  37  39
ATOM     38  C   UNL A   1     -27.550   4.094  29.889  0.00  0.00    +0.013 C 
ATOM     39  C   UNL A   1     -26.541   4.904  30.448  0.00  0.00    +0.159 C 
ATOM     40  C   UNL A   1     -27.599   2.831  29.411  0.00  0.00    +0.034 C 
BRANCH  39  42
ATOM     41  N   UNL A   1     -27.522   7.070  30.593  0.00  0.00    -0.144 NA
ATOM     42  C   UNL A   1     -26.649   6.194  31.066  0.00  0.00    +0.145 C 
BRANCH  42  46
ATOM     43  N   UNL A   1     -23.950   4.741  33.070  0.00  0.00    +0.216 NA
ATOM     44  C   UNL A   1     -24.666   6.003  33.116  0.00  0.00    +0.434 C 
ATOM     45  N   UNL A   1     -24.694   8.045  33.581  0.00  0.00    -0.042 NA
ATOM     46  C   UNL A   1     -25.733   6.562  32.186  0.00  0.00    +0.136 C 
ATOM     47  N   UNL A   1     -24.192   6.918  33.959  0.00  0.00    +0.116 NA
ATOM     48  C   UNL A   1     -25.672   7.885  32.424  0.00  0.00    +0.156 C 
ENDBRANCH  42  46
ENDBRANCH  39  42
ENDBRANCH  37  39
ENDBRANCH   1  37
TORSDOF 17
