REMARK  Name = outputs/IAG933/test6/raw/output_9088_IAG933_linker_design_.xyz
REMARK  11 active torsions:
REMARK  status: ('A' for Active; 'I' for Inactive)
REMARK    1  A    between atoms: C_1  and  C_2
REMARK    2  A    between atoms: C_1  and  C_8
REMARK    3  A    between atoms: C_1  and  N_42
REMARK    4  A    between atoms: C_13  and  C_34
REMARK    5  A    between atoms: C_14  and  C_15
REMARK    6  A    between atoms: C_21  and  O_22
REMARK    7  A    between atoms: O_22  and  C_23
REMARK    8  A    between atoms: C_23  and  C_24
REMARK    9  A    between atoms: N_30  and  C_40
REMARK   10  A    between atoms: C_38  and  C_41
REMARK   11  A    between atoms: C_39  and  C_43
REMARK                            x       y       z     vdW  Elec       q    Type
REMARK                         _______ _______ _______ _____ _____    ______ ____
ROOT
ATOM      1  C   UNL A   1     -21.433   1.029  27.717  0.00  0.00    -0.014 C 
ATOM      2  C   UNL A   1     -23.659   1.182  27.715  0.00  0.00    +0.015 A 
ATOM      3  C   UNL A   1     -23.362   0.517  28.855  0.00  0.00    +0.042 A 
ATOM      4  C   UNL A   1     -24.912   1.363  27.678  0.00  0.00    +0.006 A 
ATOM      5  C   UNL A   1     -21.980   0.446  28.972  0.00  0.00    +0.070 C 
ATOM      6  C   UNL A   1     -25.721   0.824  28.902  0.00  0.00    +0.112 A 
ATOM      7  N   UNL A   1     -24.528   0.018  29.363  0.00  0.00    -0.324 N 
ATOM      8  C   UNL A   1     -22.541   1.442  26.933  0.00  0.00    +0.065 C 
ENDROOT
BRANCH   4   9
ATOM      9  C   UNL A   1     -25.688   1.614  26.461  0.00  0.00    +0.094 C 
ATOM     10  C   UNL A   1     -26.250   2.920  26.395  0.00  0.00    +0.059 C 
ATOM     11  C   UNL A   1     -27.438   3.091  25.645  0.00  0.00    +0.102 C 
ATOM     12  N   UNL A   1     -28.075   2.089  25.003  0.00  0.00    -0.212 NA
ATOM     13  C   UNL A   1     -27.543   0.849  25.079  0.00  0.00    +0.234 C 
ATOM     14  C   UNL A   1     -26.354   0.576  25.777  0.00  0.00    +0.244 C 
ATOM     15  F   UNL A   1     -25.860  -0.681  25.795  0.00  0.00    -0.227 F 
BRANCH  10  16
ATOM     16  C   UNL A   1     -25.642   4.093  27.123  0.00  0.00    +0.263 C 
ATOM     17  N   UNL A   1     -25.614   5.252  26.449  0.00  0.00    -0.200 NA
ATOM     18  C   UNL A   1     -25.026   6.479  26.963  0.00  0.00    +0.139 C 
ATOM     19  O   UNL A   1     -25.143   3.966  28.243  0.00  0.00    -0.269 OA
ENDBRANCH  10  16
BRANCH  13  20
ATOM     20  O   UNL A   1     -28.193  -0.208  24.477  0.00  0.00    -0.459 OA
BRANCH  20  21
ATOM     21  C   UNL A   1     -29.460   0.005  23.866  0.00  0.00    +0.242 C 
BRANCH  21  22
ATOM     22  C   UNL A   1     -30.065  -1.377  23.573  0.00  0.00    +0.229 C 
ATOM     23  O   UNL A   1     -30.729  -1.878  24.721  0.00  0.00    -0.216 OA
ENDBRANCH  21  22
ENDBRANCH  20  21
ENDBRANCH  13  20
ENDBRANCH   4   9
BRANCH   6  26
ATOM     24  O   UNL A   1     -28.107   1.224  29.469  0.00  0.00    -0.267 OA
ATOM     25  N   UNL A   1     -26.601   2.689  30.442  0.00  0.00    -0.166 NA
ATOM     26  C   UNL A   1     -26.929   1.594  29.699  0.00  0.00    +0.283 C 
BRANCH  25  28
ATOM     27  O   UNL A   1     -28.515   2.577  31.847  0.00  0.00    -0.194 OA
ATOM     28  C   UNL A   1     -27.420   3.405  31.471  0.00  0.00    +0.298 C 
ENDBRANCH  25  28
ENDBRANCH   6  26
BRANCH   8  31
ATOM     29  F   UNL A   1     -21.298   2.241  25.127  0.00  0.00    -0.159 F 
ATOM     30  O   UNL A   1     -23.270   1.862  24.698  0.00  0.00    -0.254 OA
ATOM     31  C   UNL A   1     -22.344   1.899  25.488  0.00  0.00    +0.333 C 
ENDBRANCH   8  31
BRANCH   7  32
ATOM     32  C   UNL A   1     -24.855  -1.012  30.143  0.00  0.00    +0.124 C 
BRANCH  32  33
ATOM     33  C   UNL A   1     -24.973  -2.505  29.788  0.00  0.00    -0.000 C 
ATOM     34  C   UNL A   1     -23.906  -3.173  29.146  0.00  0.00    -0.002 C 
ATOM     35  C   UNL A   1     -23.989  -4.549  28.853  0.00  0.00    -0.000 C 
ATOM     36  C   UNL A   1     -25.137  -5.280  29.205  0.00  0.00    -0.000 C 
ATOM     37  C   UNL A   1     -26.232  -4.611  29.784  0.00  0.00    -0.000 C 
ATOM     38  C   UNL A   1     -26.155  -3.232  30.065  0.00  0.00    -0.002 C 
ENDBRANCH  32  33
BRANCH  32  39
ATOM     39  C   UNL A   1     -25.387  -0.679  31.571  0.00  0.00    +0.098 C 
ATOM     40  C   UNL A   1     -25.189   0.773  32.028  0.00  0.00    +0.021 C 
ATOM     41  C   UNL A   1     -25.336   0.684  33.544  0.00  0.00    +0.020 C 
ATOM     42  C   UNL A   1     -24.829  -0.715  33.905  0.00  0.00    +0.089 C 
ATOM     43  N   UNL A   1     -24.758  -1.481  32.646  0.00  0.00    -0.217 NA
ENDBRANCH  32  39
ENDBRANCH   7  32
TORSDOF 11
