MODEL 908
MODEL 1
REMARK VINA RESULT:    -7.159      0.000      0.000
REMARK INTER + INTRA:          -8.795
REMARK INTER:                  -7.996
REMARK INTRA:                  -0.799
REMARK UNBOUND:                -0.799
REMARK  Name = No_908-gen_results/8p0m/2024-11-27-11-27-31/
REMARK  2 active torsions:
REMARK  status: ('A' for Active; 'I' for Inactive)
REMARK    1  A    between atoms: C_3  and  C_4
REMARK    2  A    between atoms: C_4  and  C_8
REMARK                            x       y       z     vdW  Elec       q    Type
REMARK                         _______ _______ _______ _____ _____    ______ ____
ROOT
ATOM      1  C   UNL A   1     -24.574  -1.234  29.616  0.00  0.00    +0.038 C 
ATOM      2  C   UNL A   1     -25.877  -0.425  29.368  0.00  0.00    +0.009 C 
ATOM      3  C   UNL A   1     -24.380  -1.171  31.189  0.00  0.00    +0.009 C 
ENDROOT
BRANCH   1   6
ATOM      4  C   UNL A   1     -23.803  -3.531  28.687  0.00  0.00    -0.004 A 
ATOM      5  C   UNL A   1     -24.090  -4.544  28.639  0.00  0.00    -0.000 A 
ATOM      6  C   UNL A   1     -24.792  -2.671  29.336  0.00  0.00    -0.019 A 
ATOM      7  C   UNL A   1     -25.255  -5.305  29.071  0.00  0.00    -0.000 A 
ATOM      8  C   UNL A   1     -26.218  -4.525  29.677  0.00  0.00    -0.000 A 
ATOM      9  C   UNL A   1     -26.029  -3.143  29.918  0.00  0.00    -0.004 A 
ENDBRANCH   1   6
BRANCH   1  10
ATOM     10  C   UNL A   1     -23.589  -0.658  28.916  0.00  0.00    -0.019 A 
ATOM     11  C   UNL A   1     -23.952   0.386  27.956  0.00  0.00    -0.004 A 
ATOM     12  C   UNL A   1     -22.932   1.243  27.386  0.00  0.00    -0.000 A 
ATOM     13  C   UNL A   1     -21.597   1.053  27.769  0.00  0.00    -0.000 A 
ATOM     14  C   UNL A   1     -22.186  -0.656  29.235  0.00  0.00    -0.004 A 
ATOM     15  C   UNL A   1     -21.240   0.089  28.633  0.00  0.00    -0.000 A 
ENDBRANCH   1  10
TORSDOF 2
ENDMDL
ENDMDL
