REMARK  Name = outputs/IAG933/test6/raw/output_9090_IAG933_linker_design_.xyz
REMARK  19 active torsions:
REMARK  status: ('A' for Active; 'I' for Inactive)
REMARK    1  A    between atoms: C_1  and  C_2
REMARK    2  A    between atoms: C_1  and  C_8
REMARK    3  A    between atoms: C_1  and  C_44
REMARK    4  A    between atoms: C_13  and  C_41
REMARK    5  A    between atoms: C_14  and  C_15
REMARK    6  A    between atoms: C_21  and  O_22
REMARK    7  A    between atoms: O_22  and  C_23
REMARK    8  A    between atoms: C_23  and  C_24
REMARK    9  A    between atoms: C_29  and  C_34
REMARK   10  A    between atoms: C_29  and  C_35
REMARK   11  A    between atoms: O_31  and  C_32
REMARK   12  A    between atoms: O_31  and  C_43
REMARK   13  A    between atoms: C_33  and  O_36
REMARK   14  A    between atoms: C_33  and  C_40
REMARK   15  A    between atoms: C_34  and  C_44
REMARK   16  A    between atoms: C_35  and  C_40
REMARK   17  A    between atoms: O_36  and  C_43
REMARK   18  A    between atoms: C_37  and  C_41
REMARK   19  A    between atoms: C_44  and  N_45
REMARK                            x       y       z     vdW  Elec       q    Type
REMARK                         _______ _______ _______ _____ _____    ______ ____
ROOT
ATOM      1  C   UNL A   1     -25.998  -0.228  29.240  0.00  0.00    +0.070 C 
ENDROOT
BRANCH   1   4
ATOM      2  C   UNL A   1     -24.473   1.282  27.353  0.00  0.00    +0.082 C 
ATOM      3  C   UNL A   1     -23.803   0.185  28.133  0.00  0.00    +0.091 C 
ATOM      4  N   UNL A   1     -25.220   0.084  28.041  0.00  0.00    -0.270 NA
BRANCH   2   5
ATOM      5  C   UNL A   1     -25.688   1.614  26.461  0.00  0.00    +0.030 C 
ATOM      6  C   UNL A   1     -26.250   2.920  26.395  0.00  0.00    +0.074 C 
ATOM      7  C   UNL A   1     -27.438   3.091  25.645  0.00  0.00    +0.106 C 
ATOM      8  N   UNL A   1     -28.075   2.089  25.003  0.00  0.00    -0.208 NA
ATOM      9  C   UNL A   1     -27.543   0.849  25.079  0.00  0.00    +0.253 C 
ATOM     10  C   UNL A   1     -26.354   0.576  25.777  0.00  0.00    +0.190 C 
ATOM     11  F   UNL A   1     -25.860  -0.681  25.795  0.00  0.00    -0.200 F 
BRANCH   6  12
ATOM     12  C   UNL A   1     -25.642   4.093  27.123  0.00  0.00    +0.266 C 
ATOM     13  N   UNL A   1     -25.614   5.252  26.449  0.00  0.00    -0.200 NA
ATOM     14  C   UNL A   1     -25.026   6.479  26.963  0.00  0.00    +0.139 C 
ATOM     15  O   UNL A   1     -25.143   3.966  28.243  0.00  0.00    -0.268 OA
ENDBRANCH   6  12
BRANCH   9  16
ATOM     16  O   UNL A   1     -28.193  -0.208  24.477  0.00  0.00    -0.456 OA
BRANCH  16  17
ATOM     17  C   UNL A   1     -29.460   0.005  23.866  0.00  0.00    +0.243 C 
BRANCH  17  18
ATOM     18  C   UNL A   1     -30.065  -1.377  23.573  0.00  0.00    +0.229 C 
ATOM     19  O   UNL A   1     -30.729  -1.878  24.721  0.00  0.00    -0.216 OA
ENDBRANCH  17  18
ENDBRANCH  16  17
ENDBRANCH   9  16
ENDBRANCH   2   5
BRANCH   2  21
ATOM     20  C   UNL A   1     -21.863   1.870  27.548  0.00  0.00    +0.002 C 
ATOM     21  C   UNL A   1     -23.168   2.201  26.761  0.00  0.00    +0.020 C 
ENDBRANCH   2  21
ENDBRANCH   1   4
BRANCH   1  22
ATOM     22  C   UNL A   1     -24.855  -1.012  30.143  0.00  0.00    +0.053 C 
BRANCH  22  23
ATOM     23  C   UNL A   1     -24.973  -2.505  29.788  0.00  0.00    -0.020 C 
ATOM     24  C   UNL A   1     -23.906  -3.173  29.146  0.00  0.00    -0.004 C 
ATOM     25  C   UNL A   1     -23.989  -4.549  28.853  0.00  0.00    -0.000 C 
ATOM     26  C   UNL A   1     -25.137  -5.280  29.205  0.00  0.00    -0.000 C 
ATOM     27  C   UNL A   1     -26.232  -4.611  29.784  0.00  0.00    -0.000 C 
ATOM     28  C   UNL A   1     -26.155  -3.232  30.065  0.00  0.00    -0.004 C 
ENDBRANCH  22  23
BRANCH  22  29
ATOM     29  C   UNL A   1     -25.387  -0.679  31.571  0.00  0.00    +0.078 C 
ATOM     30  C   UNL A   1     -25.189   0.773  32.028  0.00  0.00    +0.019 C 
ATOM     31  C   UNL A   1     -25.336   0.684  33.544  0.00  0.00    +0.020 C 
ATOM     32  C   UNL A   1     -24.829  -0.715  33.905  0.00  0.00    +0.089 C 
ATOM     33  N   UNL A   1     -24.758  -1.481  32.646  0.00  0.00    -0.219 NA
ENDBRANCH  22  29
ENDBRANCH   1  22
BRANCH   1  34
ATOM     34  C   UNL A   1     -27.420  -0.303  28.600  0.00  0.00    +0.081 C 
BRANCH  34  35
ATOM     35  C   UNL A   1     -28.592  -0.824  29.184  0.00  0.00    +0.152 C 
ATOM     36  O   UNL A   1     -28.716  -1.898  29.765  0.00  0.00    -0.296 OA
BRANCH  35  37
ATOM     37  C   UNL A   1     -29.824   0.025  29.116  0.00  0.00    +0.068 C 
BRANCH  37  38
ATOM     38  C   UNL A   1     -30.440   0.007  27.718  0.00  0.00    +0.055 C 
BRANCH  38  39
ATOM     39  C   UNL A   1     -31.128   1.403  27.647  0.00  0.00    +0.212 C 
BRANCH  39  40
ATOM     40  O   UNL A   1     -31.543   1.968  28.915  0.00  0.00    -0.418 OA
BRANCH  40  42
ATOM     41  O   UNL A   1     -31.420   4.200  28.488  0.00  0.00    -0.203 OA
ATOM     42  C   UNL A   1     -31.517   3.271  29.272  0.00  0.00    +0.512 C 
BRANCH  42  43
ATOM     43  O   UNL A   1     -31.661   3.579  30.653  0.00  0.00    -0.418 OA
BRANCH  43  45
ATOM     44  C   UNL A   1     -32.602   5.876  30.924  0.00  0.00    +0.051 C 
ATOM     45  C   UNL A   1     -32.816   4.387  30.968  0.00  0.00    +0.212 C 
ENDBRANCH  43  45
ENDBRANCH  42  43
ENDBRANCH  40  42
ENDBRANCH  39  40
ENDBRANCH  38  39
ENDBRANCH  37  38
ENDBRANCH  35  37
ENDBRANCH  34  35
ENDBRANCH   1  34
TORSDOF 19
