REMARK  Name = outputs/IAG933/test6/raw/output_9095_IAG933_linker_design_.xyz
REMARK  12 active torsions:
REMARK  status: ('A' for Active; 'I' for Inactive)
REMARK    1  A    between atoms: C_1  and  C_2
REMARK    2  A    between atoms: C_1  and  C_8
REMARK    3  A    between atoms: C_1  and  O_39
REMARK    4  A    between atoms: C_13  and  C_40
REMARK    5  A    between atoms: C_14  and  C_15
REMARK    6  A    between atoms: C_21  and  O_22
REMARK    7  A    between atoms: O_22  and  C_23
REMARK    8  A    between atoms: C_23  and  C_24
REMARK    9  A    between atoms: C_30  and  O_33
REMARK   10  A    between atoms: N_31  and  C_36
REMARK   11  A    between atoms: O_33  and  C_41
REMARK   12  A    between atoms: C_38  and  O_39
REMARK                            x       y       z     vdW  Elec       q    Type
REMARK                         _______ _______ _______ _____ _____    ______ ____
ROOT
ATOM      1  C   UNL A   1     -22.244   0.857  28.127  0.00  0.00    +0.178 C 
ATOM      2  O   UNL A   1     -23.329   2.497  25.220  0.00  0.00    -0.286 OA
ATOM      3  C   UNL A   1     -22.157   1.652  26.976  0.00  0.00    +0.075 C 
ATOM      4  C   UNL A   1     -24.629   0.804  28.299  0.00  0.00    +0.116 C 
ATOM      5  F   UNL A   1     -21.041   0.422  28.611  0.00  0.00    -0.201 F 
ATOM      6  C   UNL A   1     -23.417   0.411  28.777  0.00  0.00    +0.182 C 
ATOM      7  C   UNL A   1     -24.573   1.451  27.012  0.00  0.00    +0.060 C 
ATOM      8  C   UNL A   1     -23.383   1.884  26.402  0.00  0.00    +0.199 C 
ENDROOT
BRANCH   7   9
ATOM      9  C   UNL A   1     -25.688   1.614  26.461  0.00  0.00    +0.043 C 
ATOM     10  C   UNL A   1     -26.250   2.920  26.395  0.00  0.00    +0.077 C 
ATOM     11  C   UNL A   1     -27.438   3.091  25.645  0.00  0.00    +0.107 C 
ATOM     12  N   UNL A   1     -28.075   2.089  25.003  0.00  0.00    -0.208 NA
ATOM     13  C   UNL A   1     -27.543   0.849  25.079  0.00  0.00    +0.253 C 
ATOM     14  C   UNL A   1     -26.354   0.576  25.777  0.00  0.00    +0.193 C 
ATOM     15  F   UNL A   1     -25.860  -0.681  25.795  0.00  0.00    -0.199 F 
BRANCH  10  16
ATOM     16  C   UNL A   1     -25.642   4.093  27.123  0.00  0.00    +0.266 C 
ATOM     17  N   UNL A   1     -25.614   5.252  26.449  0.00  0.00    -0.200 NA
ATOM     18  C   UNL A   1     -25.026   6.479  26.963  0.00  0.00    +0.139 C 
ATOM     19  O   UNL A   1     -25.143   3.966  28.243  0.00  0.00    -0.268 OA
ENDBRANCH  10  16
BRANCH  13  20
ATOM     20  O   UNL A   1     -28.193  -0.208  24.477  0.00  0.00    -0.456 OA
BRANCH  20  21
ATOM     21  C   UNL A   1     -29.460   0.005  23.866  0.00  0.00    +0.243 C 
BRANCH  21  22
ATOM     22  C   UNL A   1     -30.065  -1.377  23.573  0.00  0.00    +0.229 C 
ATOM     23  O   UNL A   1     -30.729  -1.878  24.721  0.00  0.00    -0.216 OA
ENDBRANCH  21  22
ENDBRANCH  20  21
ENDBRANCH  13  20
ENDBRANCH   7   9
BRANCH   4  26
ATOM     24  O   UNL A   1     -27.888  -0.708  29.100  0.00  0.00    -0.224 OA
ATOM     25  C   UNL A   1     -27.391   0.390  29.200  0.00  0.00    +0.425 C 
ATOM     26  N   UNL A   1     -25.852   0.614  29.109  0.00  0.00    -0.139 NA
BRANCH  25  27
ATOM     27  O   UNL A   1     -28.089   1.609  29.443  0.00  0.00    -0.433 OA
BRANCH  27  29
ATOM     28  C   UNL A   1     -28.980   1.736  31.674  0.00  0.00    +0.051 C 
ATOM     29  C   UNL A   1     -27.960   2.350  30.696  0.00  0.00    +0.210 C 
ENDBRANCH  27  29
ENDBRANCH  25  27
ENDBRANCH   4  26
BRANCH   6  30
ATOM     30  O   UNL A   1     -23.472  -0.575  29.687  0.00  0.00    -0.470 OA
BRANCH  30  31
ATOM     31  C   UNL A   1     -24.855  -1.012  30.143  0.00  0.00    +0.204 C 
BRANCH  31  32
ATOM     32  C   UNL A   1     -24.973  -2.505  29.788  0.00  0.00    +0.019 C 
ATOM     33  C   UNL A   1     -23.906  -3.173  29.146  0.00  0.00    -0.001 C 
ATOM     34  C   UNL A   1     -23.989  -4.549  28.853  0.00  0.00    -0.000 C 
ATOM     35  C   UNL A   1     -25.137  -5.280  29.205  0.00  0.00    -0.000 C 
ATOM     36  C   UNL A   1     -26.232  -4.611  29.784  0.00  0.00    -0.000 C 
ATOM     37  C   UNL A   1     -26.155  -3.232  30.065  0.00  0.00    -0.001 C 
ENDBRANCH  31  32
BRANCH  31  38
ATOM     38  C   UNL A   1     -25.387  -0.679  31.571  0.00  0.00    +0.117 C 
ATOM     39  C   UNL A   1     -25.189   0.773  32.028  0.00  0.00    +0.023 C 
ATOM     40  C   UNL A   1     -25.336   0.684  33.544  0.00  0.00    +0.020 C 
ATOM     41  C   UNL A   1     -24.829  -0.715  33.905  0.00  0.00    +0.089 C 
ATOM     42  N   UNL A   1     -24.758  -1.481  32.646  0.00  0.00    -0.215 NA
ENDBRANCH  31  38
ENDBRANCH  30  31
ENDBRANCH   6  30
TORSDOF 12
