REMARK  Name = outputs/IAG933/test6/raw/output_9096_IAG933_linker_design_.xyz
REMARK  9 active torsions:
REMARK  status: ('A' for Active; 'I' for Inactive)
REMARK    1  A    between atoms: C_1  and  C_2
REMARK    2  A    between atoms: C_1  and  C_8
REMARK    3  A    between atoms: C_1  and  C_39
REMARK    4  A    between atoms: C_21  and  O_22
REMARK    5  A    between atoms: O_22  and  C_23
REMARK    6  A    between atoms: C_23  and  C_24
REMARK    7  A    between atoms: C_29  and  C_34
REMARK    8  A    between atoms: C_32  and  C_34
REMARK    9  A    between atoms: N_37  and  C_39
REMARK                            x       y       z     vdW  Elec       q    Type
REMARK                         _______ _______ _______ _____ _____    ______ ____
ROOT
ATOM      1  C   UNL A   1     -25.688   1.614  26.461  0.00  0.00    +0.107 C 
ATOM      2  C   UNL A   1     -26.250   2.920  26.395  0.00  0.00    +0.058 C 
ATOM      3  C   UNL A   1     -25.642   4.093  27.123  0.00  0.00    +0.220 C 
ATOM      4  N   UNL A   1     -25.614   5.252  26.449  0.00  0.00    -0.236 NA
ATOM      5  C   UNL A   1     -25.026   6.479  26.963  0.00  0.00    +0.155 C 
ATOM      6  O   UNL A   1     -25.143   3.966  28.243  0.00  0.00    -0.435 OA
ATOM      7  C   UNL A   1     -27.438   3.091  25.645  0.00  0.00    +0.103 C 
ATOM      8  N   UNL A   1     -28.075   2.089  25.003  0.00  0.00    -0.212 NA
ATOM      9  C   UNL A   1     -27.543   0.849  25.079  0.00  0.00    +0.234 C 
ATOM     10  C   UNL A   1     -26.354   0.576  25.777  0.00  0.00    +0.245 C 
ATOM     11  F   UNL A   1     -25.860  -0.681  25.795  0.00  0.00    -0.227 F 
ATOM     12  O   UNL A   1     -24.837   2.278  29.726  0.00  0.00    -0.225 OA
ATOM     13  C   UNL A   1     -22.607   0.588  28.342  0.00  0.00    +0.111 C 
ATOM     14  C   UNL A   1     -21.879   2.189  26.720  0.00  0.00    +0.029 C 
ATOM     15  C   UNL A   1     -25.663   3.188  29.385  0.00  0.00    +0.310 C 
ATOM     16  C   UNL A   1     -23.237   2.330  26.281  0.00  0.00    -0.014 C 
ATOM     17  C   UNL A   1     -21.544   1.382  27.838  0.00  0.00    +0.028 C 
ATOM     18  C   UNL A   1     -24.273   1.640  26.936  0.00  0.00    +0.045 C 
ATOM     19  N   UNL A   1     -25.254   1.171  28.979  0.00  0.00    -0.088 NA
ATOM     20  N   UNL A   1     -24.024   1.056  28.199  0.00  0.00    -0.233 N 
ENDROOT
BRANCH   9  21
ATOM     21  O   UNL A   1     -28.193  -0.208  24.477  0.00  0.00    -0.459 OA
BRANCH  21  22
ATOM     22  C   UNL A   1     -29.460   0.005  23.866  0.00  0.00    +0.242 C 
BRANCH  22  23
ATOM     23  C   UNL A   1     -30.065  -1.377  23.573  0.00  0.00    +0.229 C 
ATOM     24  O   UNL A   1     -30.729  -1.878  24.721  0.00  0.00    -0.216 OA
ENDBRANCH  22  23
ENDBRANCH  21  22
ENDBRANCH   9  21
BRANCH  15  25
ATOM     25  C   UNL A   1     -26.904   3.280  29.941  0.00  0.00    +0.114 C 
BRANCH  25  26
ATOM     26  C   UNL A   1     -27.189   4.635  30.499  0.00  0.00    +0.189 C 
ATOM     27  O   UNL A   1     -26.096   5.572  30.352  0.00  0.00    -0.220 OA
ENDBRANCH  25  26
ENDBRANCH  15  25
BRANCH  19  28
ATOM     28  C   UNL A   1     -25.697  -0.191  29.155  0.00  0.00    +0.129 C 
BRANCH  28  29
ATOM     29  C   UNL A   1     -24.855  -1.012  30.143  0.00  0.00    +0.059 C 
BRANCH  29  30
ATOM     30  C   UNL A   1     -24.973  -2.505  29.788  0.00  0.00    -0.020 C 
ATOM     31  C   UNL A   1     -23.906  -3.173  29.146  0.00  0.00    -0.004 C 
ATOM     32  C   UNL A   1     -23.989  -4.549  28.853  0.00  0.00    -0.000 C 
ATOM     33  C   UNL A   1     -25.137  -5.280  29.205  0.00  0.00    -0.000 C 
ATOM     34  C   UNL A   1     -26.232  -4.611  29.784  0.00  0.00    -0.000 C 
ATOM     35  C   UNL A   1     -26.155  -3.232  30.065  0.00  0.00    -0.004 C 
ENDBRANCH  29  30
BRANCH  29  36
ATOM     36  C   UNL A   1     -25.387  -0.679  31.571  0.00  0.00    +0.078 C 
ATOM     37  C   UNL A   1     -25.189   0.773  32.028  0.00  0.00    +0.019 C 
ATOM     38  C   UNL A   1     -25.336   0.684  33.544  0.00  0.00    +0.020 C 
ATOM     39  C   UNL A   1     -24.829  -0.715  33.905  0.00  0.00    +0.089 C 
ATOM     40  N   UNL A   1     -24.758  -1.481  32.646  0.00  0.00    -0.219 NA
ENDBRANCH  29  36
ENDBRANCH  28  29
ENDBRANCH  19  28
TORSDOF 9
