REMARK  Name = outputs/IAG933/test6/raw/output_9102_IAG933_linker_design_.xyz
REMARK  10 active torsions:
REMARK  status: ('A' for Active; 'I' for Inactive)
REMARK    1  A    between atoms: C_1  and  C_2
REMARK    2  A    between atoms: C_1  and  C_8
REMARK    3  A    between atoms: C_1  and  N_39
REMARK    4  A    between atoms: C_13  and  C_36
REMARK    5  A    between atoms: C_14  and  C_15
REMARK    6  A    between atoms: C_21  and  O_22
REMARK    7  A    between atoms: O_22  and  C_23
REMARK    8  A    between atoms: C_23  and  C_24
REMARK    9  A    between atoms: C_29  and  N_39
REMARK   10  A    between atoms: C_35  and  N_39
REMARK                            x       y       z     vdW  Elec       q    Type
REMARK                         _______ _______ _______ _____ _____    ______ ____
ROOT
ATOM      1  O   UNL A   1     -23.361   0.257  28.944  0.00  0.00    -0.414 OA
ATOM      2  C   UNL A   1     -24.604   0.507  28.304  0.00  0.00    +0.203 A 
ATOM      3  C   UNL A   1     -24.514   1.215  27.155  0.00  0.00    +0.068 A 
ATOM      4  C   UNL A   1     -22.609   1.030  28.110  0.00  0.00    +0.299 A 
ATOM      5  F   UNL A   1     -21.299   1.439  28.247  0.00  0.00    -0.162 F 
ATOM      6  C   UNL A   1     -23.286   1.534  27.004  0.00  0.00    +0.126 A 
ATOM      7 CL   UNL A   1     -22.494   2.373  25.688  0.00  0.00    -0.076 Cl
ENDROOT
BRANCH   3   8
ATOM      8  C   UNL A   1     -25.688   1.614  26.461  0.00  0.00    +0.043 C 
ATOM      9  C   UNL A   1     -26.250   2.920  26.395  0.00  0.00    +0.077 C 
ATOM     10  C   UNL A   1     -27.438   3.091  25.645  0.00  0.00    +0.107 C 
ATOM     11  N   UNL A   1     -28.075   2.089  25.003  0.00  0.00    -0.208 NA
ATOM     12  C   UNL A   1     -27.543   0.849  25.079  0.00  0.00    +0.253 C 
ATOM     13  C   UNL A   1     -26.354   0.576  25.777  0.00  0.00    +0.193 C 
ATOM     14  F   UNL A   1     -25.860  -0.681  25.795  0.00  0.00    -0.199 F 
BRANCH   9  15
ATOM     15  C   UNL A   1     -25.642   4.093  27.123  0.00  0.00    +0.266 C 
ATOM     16  N   UNL A   1     -25.614   5.252  26.449  0.00  0.00    -0.200 NA
ATOM     17  C   UNL A   1     -25.026   6.479  26.963  0.00  0.00    +0.139 C 
ATOM     18  O   UNL A   1     -25.143   3.966  28.243  0.00  0.00    -0.268 OA
ENDBRANCH   9  15
BRANCH  12  19
ATOM     19  O   UNL A   1     -28.193  -0.208  24.477  0.00  0.00    -0.456 OA
BRANCH  19  20
ATOM     20  C   UNL A   1     -29.460   0.005  23.866  0.00  0.00    +0.243 C 
BRANCH  20  21
ATOM     21  C   UNL A   1     -30.065  -1.377  23.573  0.00  0.00    +0.229 C 
ATOM     22  O   UNL A   1     -30.729  -1.878  24.721  0.00  0.00    -0.216 OA
ENDBRANCH  20  21
ENDBRANCH  19  20
ENDBRANCH  12  19
ENDBRANCH   3   8
BRANCH   2  23
ATOM     23  N   UNL A   1     -25.822  -0.139  29.162  0.00  0.00    -0.277 N 
BRANCH  23  29
ATOM     24  O   UNL A   1     -29.185   2.541  31.588  0.00  0.00    -0.223 OA
ATOM     25  C   UNL A   1     -28.756   1.865  30.336  0.00  0.00    +0.156 C 
ATOM     26  O   UNL A   1     -30.514   1.141  27.007  0.00  0.00    -0.223 OA
ATOM     27  C   UNL A   1     -29.260   1.148  27.858  0.00  0.00    +0.156 C 
ATOM     28  C   UNL A   1     -29.771   1.917  29.129  0.00  0.00    +0.061 C 
ATOM     29  C   UNL A   1     -27.425  -0.245  29.464  0.00  0.00    +0.081 C 
ATOM     30  C   UNL A   1     -29.874   3.466  28.742  0.00  0.00    +0.005 C 
ATOM     31  C   UNL A   1     -27.945   0.742  30.573  0.00  0.00    +0.053 C 
ATOM     32  C   UNL A   1     -28.500  -0.238  28.176  0.00  0.00    +0.053 C 
ENDBRANCH  23  29
BRANCH  23  33
ATOM     33  C   UNL A   1     -24.855  -1.012  30.143  0.00  0.00    +0.114 C 
BRANCH  33  34
ATOM     34  C   UNL A   1     -24.973  -2.505  29.788  0.00  0.00    -0.003 C 
ATOM     35  C   UNL A   1     -23.906  -3.173  29.146  0.00  0.00    -0.003 C 
ATOM     36  C   UNL A   1     -23.989  -4.549  28.853  0.00  0.00    -0.000 C 
ATOM     37  C   UNL A   1     -25.137  -5.280  29.205  0.00  0.00    -0.000 C 
ATOM     38  C   UNL A   1     -26.232  -4.611  29.784  0.00  0.00    -0.000 C 
ATOM     39  C   UNL A   1     -26.155  -3.232  30.065  0.00  0.00    -0.003 C 
ENDBRANCH  33  34
BRANCH  33  40
ATOM     40  C   UNL A   1     -25.387  -0.679  31.571  0.00  0.00    +0.095 C 
ATOM     41  C   UNL A   1     -25.189   0.773  32.028  0.00  0.00    +0.021 C 
ATOM     42  C   UNL A   1     -25.336   0.684  33.544  0.00  0.00    +0.020 C 
ATOM     43  C   UNL A   1     -24.829  -0.715  33.905  0.00  0.00    +0.089 C 
ATOM     44  N   UNL A   1     -24.758  -1.481  32.646  0.00  0.00    -0.217 NA
ENDBRANCH  33  40
ENDBRANCH  23  33
ENDBRANCH   2  23
TORSDOF 10
