REMARK  Name = outputs/IAG933/test6/raw/output_9103_IAG933_linker_design_.xyz
REMARK  13 active torsions:
REMARK  status: ('A' for Active; 'I' for Inactive)
REMARK    1  A    between atoms: C_1  and  C_2
REMARK    2  A    between atoms: C_1  and  C_8
REMARK    3  A    between atoms: C_1  and  C_33
REMARK    4  A    between atoms: C_13  and  O_37
REMARK    5  A    between atoms: C_14  and  C_15
REMARK    6  A    between atoms: C_21  and  O_22
REMARK    7  A    between atoms: O_22  and  C_23
REMARK    8  A    between atoms: C_23  and  C_24
REMARK    9  A    between atoms: C_28  and  O_37
REMARK   10  A    between atoms: N_29  and  C_33
REMARK   11  A    between atoms: O_31  and  C_32
REMARK   12  A    between atoms: O_31  and  C_42
REMARK   13  A    between atoms: C_33  and  C_39
REMARK                            x       y       z     vdW  Elec       q    Type
REMARK                         _______ _______ _______ _____ _____    ______ ____
ROOT
ATOM      1  C   UNL A   1     -23.624   1.368  27.387  0.00  0.00    +0.131 C 
ATOM      2  C   UNL A   1     -22.361   0.349  29.031  0.00  0.00    +0.013 C 
ATOM      3  C   UNL A   1     -22.325   1.800  27.126  0.00  0.00    +0.063 C 
ATOM      4  F   UNL A   1     -20.245   1.258  28.413  0.00  0.00    -0.204 F 
ATOM      5  C   UNL A   1     -21.603   1.134  28.174  0.00  0.00    +0.139 C 
ATOM      6  C   UNL A   1     -23.754   0.593  28.532  0.00  0.00    +0.102 C 
ENDROOT
BRANCH   6   7
ATOM      7  C   UNL A   1     -24.924  -0.003  28.983  0.00  0.00    +0.115 C 
BRANCH   7   8
ATOM      8  N   UNL A   1     -26.188   0.658  28.790  0.00  0.00    -0.169 NA
ATOM      9  C   UNL A   1     -27.642   0.297  29.042  0.00  0.00    +0.428 C 
ATOM     10  O   UNL A   1     -28.293   1.240  29.204  0.00  0.00    -0.224 OA
BRANCH   9  11
ATOM     11  O   UNL A   1     -28.146  -1.027  28.970  0.00  0.00    -0.377 OA
BRANCH  11  14
ATOM     12  O   UNL A   1     -29.747  -1.513  30.572  0.00  0.00    -0.250 OA
ATOM     13  C   UNL A   1     -30.336  -0.974  28.134  0.00  0.00    +0.122 C 
ATOM     14  C   UNL A   1     -29.660  -1.404  29.589  0.00  0.00    +0.325 C 
ENDBRANCH  11  14
ENDBRANCH   9  11
ENDBRANCH   7   8
BRANCH   7  15
ATOM     15  C   UNL A   1     -24.855  -1.012  30.143  0.00  0.00    +0.059 C 
BRANCH  15  16
ATOM     16  C   UNL A   1     -24.973  -2.505  29.788  0.00  0.00    -0.019 C 
ATOM     17  C   UNL A   1     -23.906  -3.173  29.146  0.00  0.00    -0.004 C 
ATOM     18  C   UNL A   1     -23.989  -4.549  28.853  0.00  0.00    -0.000 C 
ATOM     19  C   UNL A   1     -25.137  -5.280  29.205  0.00  0.00    -0.000 C 
ATOM     20  C   UNL A   1     -26.232  -4.611  29.784  0.00  0.00    -0.000 C 
ATOM     21  C   UNL A   1     -26.155  -3.232  30.065  0.00  0.00    -0.004 C 
ENDBRANCH  15  16
BRANCH  15  22
ATOM     22  C   UNL A   1     -25.387  -0.679  31.571  0.00  0.00    +0.079 C 
ATOM     23  C   UNL A   1     -25.189   0.773  32.028  0.00  0.00    +0.019 C 
ATOM     24  C   UNL A   1     -25.336   0.684  33.544  0.00  0.00    +0.020 C 
ATOM     25  C   UNL A   1     -24.829  -0.715  33.905  0.00  0.00    +0.089 C 
ATOM     26  N   UNL A   1     -24.758  -1.481  32.646  0.00  0.00    -0.219 NA
ENDBRANCH  15  22
ENDBRANCH   7  15
ENDBRANCH   6   7
BRANCH   1  27
ATOM     27  O   UNL A   1     -24.635   1.387  27.107  0.00  0.00    -0.455 OA
BRANCH  27  28
ATOM     28  C   UNL A   1     -25.688   1.614  26.461  0.00  0.00    +0.183 C 
ATOM     29  C   UNL A   1     -26.250   2.920  26.395  0.00  0.00    +0.111 C 
ATOM     30  C   UNL A   1     -27.438   3.091  25.645  0.00  0.00    +0.110 C 
ATOM     31  N   UNL A   1     -28.075   2.089  25.003  0.00  0.00    -0.208 NA
ATOM     32  C   UNL A   1     -27.543   0.849  25.079  0.00  0.00    +0.256 C 
ATOM     33  C   UNL A   1     -26.354   0.576  25.777  0.00  0.00    +0.227 C 
ATOM     34  F   UNL A   1     -25.860  -0.681  25.795  0.00  0.00    -0.196 F 
BRANCH  29  35
ATOM     35  C   UNL A   1     -25.642   4.093  27.123  0.00  0.00    +0.269 C 
ATOM     36  N   UNL A   1     -25.614   5.252  26.449  0.00  0.00    -0.200 NA
ATOM     37  C   UNL A   1     -25.026   6.479  26.963  0.00  0.00    +0.139 C 
ATOM     38  O   UNL A   1     -25.143   3.966  28.243  0.00  0.00    -0.268 OA
ENDBRANCH  29  35
BRANCH  32  39
ATOM     39  O   UNL A   1     -28.193  -0.208  24.477  0.00  0.00    -0.456 OA
BRANCH  39  40
ATOM     40  C   UNL A   1     -29.460   0.005  23.866  0.00  0.00    +0.243 C 
BRANCH  40  41
ATOM     41  C   UNL A   1     -30.065  -1.377  23.573  0.00  0.00    +0.229 C 
ATOM     42  O   UNL A   1     -30.729  -1.878  24.721  0.00  0.00    -0.216 OA
ENDBRANCH  40  41
ENDBRANCH  39  40
ENDBRANCH  32  39
ENDBRANCH  27  28
ENDBRANCH   1  27
TORSDOF 13
