REMARK  Name = outputs/IAG933/test6/raw/output_9104_IAG933_linker_design_.xyz
REMARK  14 active torsions:
REMARK  status: ('A' for Active; 'I' for Inactive)
REMARK    1  A    between atoms: C_1  and  C_2
REMARK    2  A    between atoms: C_1  and  C_8
REMARK    3  A    between atoms: C_1  and  N_34
REMARK    4  A    between atoms: C_13  and  C_36
REMARK    5  A    between atoms: C_14  and  C_15
REMARK    6  A    between atoms: C_21  and  O_22
REMARK    7  A    between atoms: O_22  and  C_23
REMARK    8  A    between atoms: C_23  and  C_24
REMARK    9  A    between atoms: C_28  and  C_33
REMARK   10  A    between atoms: C_28  and  C_40
REMARK   11  A    between atoms: N_34  and  C_37
REMARK   12  A    between atoms: C_36  and  C_37
REMARK   13  A    between atoms: C_36  and  N_38
REMARK   14  A    between atoms: C_37  and  N_41
REMARK                            x       y       z     vdW  Elec       q    Type
REMARK                         _______ _______ _______ _____ _____    ______ ____
ROOT
ATOM      1  C   UNL A   1     -25.285   0.802  28.679  0.00  0.00    +0.188 C 
ENDROOT
BRANCH   1   4
ATOM      2  O   UNL A   1     -27.597  -1.042  29.269  0.00  0.00    -0.273 OA
ATOM      3  C   UNL A   1     -27.548   0.208  29.230  0.00  0.00    +0.243 C 
ATOM      4  N   UNL A   1     -26.499   1.040  29.121  0.00  0.00    -0.187 NA
BRANCH   3   5
ATOM      5  C   UNL A   1     -28.823   0.977  29.250  0.00  0.00    +0.087 C 
BRANCH   5   8
ATOM      6  C   UNL A   1     -30.022   0.898  27.054  0.00  0.00    +0.001 C 
ATOM      7  C   UNL A   1     -30.631  -0.915  28.715  0.00  0.00    +0.001 C 
ATOM      8  C   UNL A   1     -29.560   0.082  28.262  0.00  0.00    +0.009 C 
ENDBRANCH   5   8
ENDBRANCH   3   5
ENDBRANCH   1   4
BRANCH   1   9
ATOM      9  N   UNL A   1     -24.851  -0.043  29.254  0.00  0.00    -0.193 NA
BRANCH   9  10
ATOM     10  C   UNL A   1     -24.855  -1.012  30.143  0.00  0.00    +0.113 C 
BRANCH  10  11
ATOM     11  C   UNL A   1     -24.973  -2.505  29.788  0.00  0.00    -0.005 C 
ATOM     12  C   UNL A   1     -23.906  -3.173  29.146  0.00  0.00    -0.003 C 
ATOM     13  C   UNL A   1     -23.989  -4.549  28.853  0.00  0.00    -0.000 C 
ATOM     14  C   UNL A   1     -25.137  -5.280  29.205  0.00  0.00    -0.000 C 
ATOM     15  C   UNL A   1     -26.232  -4.611  29.784  0.00  0.00    -0.000 C 
ATOM     16  C   UNL A   1     -26.155  -3.232  30.065  0.00  0.00    -0.003 C 
ENDBRANCH  10  11
BRANCH  10  17
ATOM     17  C   UNL A   1     -25.387  -0.679  31.571  0.00  0.00    +0.093 C 
ATOM     18  C   UNL A   1     -25.189   0.773  32.028  0.00  0.00    +0.021 C 
ATOM     19  C   UNL A   1     -25.336   0.684  33.544  0.00  0.00    +0.020 C 
ATOM     20  C   UNL A   1     -24.829  -0.715  33.905  0.00  0.00    +0.089 C 
ATOM     21  N   UNL A   1     -24.758  -1.481  32.646  0.00  0.00    -0.218 NA
ENDBRANCH  10  17
ENDBRANCH   9  10
ENDBRANCH   1   9
BRANCH   1  22
ATOM     22  C   UNL A   1     -24.722   1.323  27.549  0.00  0.00    +0.139 C 
BRANCH  22  23
ATOM     23  C   UNL A   1     -25.688   1.614  26.461  0.00  0.00    +0.093 C 
ATOM     24  C   UNL A   1     -26.250   2.920  26.395  0.00  0.00    +0.057 C 
ATOM     25  C   UNL A   1     -27.438   3.091  25.645  0.00  0.00    +0.102 C 
ATOM     26  N   UNL A   1     -28.075   2.089  25.003  0.00  0.00    -0.212 NA
ATOM     27  C   UNL A   1     -27.543   0.849  25.079  0.00  0.00    +0.234 C 
ATOM     28  C   UNL A   1     -26.354   0.576  25.777  0.00  0.00    +0.242 C 
ATOM     29  F   UNL A   1     -25.860  -0.681  25.795  0.00  0.00    -0.227 F 
BRANCH  24  30
ATOM     30  C   UNL A   1     -25.642   4.093  27.123  0.00  0.00    +0.263 C 
ATOM     31  N   UNL A   1     -25.614   5.252  26.449  0.00  0.00    -0.200 NA
ATOM     32  C   UNL A   1     -25.026   6.479  26.963  0.00  0.00    +0.139 C 
ATOM     33  O   UNL A   1     -25.143   3.966  28.243  0.00  0.00    -0.269 OA
ENDBRANCH  24  30
BRANCH  27  34
ATOM     34  O   UNL A   1     -28.193  -0.208  24.477  0.00  0.00    -0.459 OA
BRANCH  34  35
ATOM     35  C   UNL A   1     -29.460   0.005  23.866  0.00  0.00    +0.242 C 
BRANCH  35  36
ATOM     36  C   UNL A   1     -30.065  -1.377  23.573  0.00  0.00    +0.229 C 
ATOM     37  O   UNL A   1     -30.729  -1.878  24.721  0.00  0.00    -0.216 OA
ENDBRANCH  35  36
ENDBRANCH  34  35
ENDBRANCH  27  34
ENDBRANCH  22  23
BRANCH  22  40
ATOM     38  C   UNL A   1     -22.269   0.923  28.026  0.00  0.00    +0.242 C 
ATOM     39  O   UNL A   1     -22.376  -0.078  28.937  0.00  0.00    -0.273 OA
ATOM     40  N   UNL A   1     -23.350   1.493  27.468  0.00  0.00    -0.203 NA
ATOM     41  C   UNL A   1     -20.927   1.380  27.462  0.00  0.00    +0.096 C 
ENDBRANCH  22  40
ENDBRANCH   1  22
TORSDOF 14
