REMARK  Name = outputs/IAG933/test6/raw/output_9108_IAG933_linker_design_.xyz
REMARK  15 active torsions:
REMARK  status: ('A' for Active; 'I' for Inactive)
REMARK    1  A    between atoms: C_1  and  C_2
REMARK    2  A    between atoms: C_1  and  C_8
REMARK    3  A    between atoms: C_1  and  N_29
REMARK    4  A    between atoms: C_13  and  N_36
REMARK    5  A    between atoms: C_14  and  C_15
REMARK    6  A    between atoms: C_21  and  O_22
REMARK    7  A    between atoms: O_22  and  C_23
REMARK    8  A    between atoms: C_23  and  C_24
REMARK    9  A    between atoms: C_28  and  N_29
REMARK   10  A    between atoms: C_28  and  C_33
REMARK   11  A    between atoms: N_29  and  C_42
REMARK   12  A    between atoms: C_32  and  C_39
REMARK   13  A    between atoms: C_32  and  C_43
REMARK   14  A    between atoms: N_36  and  C_41
REMARK   15  A    between atoms: C_39  and  O_40
REMARK                            x       y       z     vdW  Elec       q    Type
REMARK                         _______ _______ _______ _____ _____    ______ ____
ROOT
ATOM      1  C   UNL A   1     -22.380   0.445  29.186  0.00  0.00    +0.016 C 
ATOM      2  C   UNL A   1     -21.290   1.089  28.578  0.00  0.00    +0.004 C 
ATOM      3  C   UNL A   1     -21.438   1.869  27.381  0.00  0.00    +0.031 C 
ATOM      4  F   UNL A   1     -22.687   2.539  25.489  0.00  0.00    -0.203 F 
ATOM      5  C   UNL A   1     -23.589   1.276  27.396  0.00  0.00    +0.111 C 
ATOM      6  C   UNL A   1     -23.674   0.635  28.534  0.00  0.00    +0.066 C 
ATOM      7  C   UNL A   1     -22.572   1.952  26.685  0.00  0.00    +0.156 C 
ENDROOT
BRANCH   6   8
ATOM      8  N   UNL A   1     -24.999   0.102  29.153  0.00  0.00    -0.292 N 
BRANCH   8   9
ATOM      9  C   UNL A   1     -24.855  -1.012  30.143  0.00  0.00    +0.112 C 
BRANCH   9  10
ATOM     10  C   UNL A   1     -24.973  -2.505  29.788  0.00  0.00    -0.003 C 
ATOM     11  C   UNL A   1     -23.906  -3.173  29.146  0.00  0.00    -0.003 C 
ATOM     12  C   UNL A   1     -23.989  -4.549  28.853  0.00  0.00    -0.000 C 
ATOM     13  C   UNL A   1     -25.137  -5.280  29.205  0.00  0.00    -0.000 C 
ATOM     14  C   UNL A   1     -26.232  -4.611  29.784  0.00  0.00    -0.000 C 
ATOM     15  C   UNL A   1     -26.155  -3.232  30.065  0.00  0.00    -0.003 C 
ENDBRANCH   9  10
BRANCH   9  16
ATOM     16  C   UNL A   1     -25.387  -0.679  31.571  0.00  0.00    +0.095 C 
ATOM     17  C   UNL A   1     -25.189   0.773  32.028  0.00  0.00    +0.021 C 
ATOM     18  C   UNL A   1     -25.336   0.684  33.544  0.00  0.00    +0.020 C 
ATOM     19  C   UNL A   1     -24.829  -0.715  33.905  0.00  0.00    +0.089 C 
ATOM     20  N   UNL A   1     -24.758  -1.481  32.646  0.00  0.00    -0.217 NA
ENDBRANCH   9  16
ENDBRANCH   8   9
BRANCH   8  21
ATOM     21  C   UNL A   1     -26.495   0.565  28.954  0.00  0.00    +0.169 C 
BRANCH  21  22
ATOM     22  C   UNL A   1     -27.005   1.912  29.666  0.00  0.00    -0.069 C 
ATOM     23  C   UNL A   1     -27.305   3.009  30.302  0.00  0.00    -0.084 C 
BRANCH  23  24
ATOM     24  C   UNL A   1     -27.320   4.101  31.139  0.00  0.00    +0.140 C 
BRANCH  24  26
ATOM     25  O   UNL A   1     -27.476   3.462  33.317  0.00  0.00    -0.189 OA
ATOM     26  C   UNL A   1     -26.503   3.804  32.374  0.00  0.00    +0.282 C 
BRANCH  26  28
ATOM     27  C   UNL A   1     -25.246   4.524  34.245  0.00  0.00    +0.177 C 
ATOM     28  O   UNL A   1     -25.660   4.750  32.867  0.00  0.00    -0.325 OA
ENDBRANCH  26  28
ENDBRANCH  24  26
ENDBRANCH  23  24
ENDBRANCH  21  22
ENDBRANCH   8  21
ENDBRANCH   6   8
BRANCH   5  29
ATOM     29  N   UNL A   1     -24.609   1.327  26.975  0.00  0.00    -0.206 NA
BRANCH  29  30
ATOM     30  C   UNL A   1     -25.688   1.614  26.461  0.00  0.00    +0.108 C 
ATOM     31  C   UNL A   1     -26.250   2.920  26.395  0.00  0.00    +0.092 C 
ATOM     32  C   UNL A   1     -27.438   3.091  25.645  0.00  0.00    +0.108 C 
ATOM     33  N   UNL A   1     -28.075   2.089  25.003  0.00  0.00    -0.208 NA
ATOM     34  C   UNL A   1     -27.543   0.849  25.079  0.00  0.00    +0.255 C 
ATOM     35  C   UNL A   1     -26.354   0.576  25.777  0.00  0.00    +0.208 C 
ATOM     36  F   UNL A   1     -25.860  -0.681  25.795  0.00  0.00    -0.198 F 
BRANCH  31  37
ATOM     37  C   UNL A   1     -25.642   4.093  27.123  0.00  0.00    +0.268 C 
ATOM     38  N   UNL A   1     -25.614   5.252  26.449  0.00  0.00    -0.200 NA
ATOM     39  C   UNL A   1     -25.026   6.479  26.963  0.00  0.00    +0.139 C 
ATOM     40  O   UNL A   1     -25.143   3.966  28.243  0.00  0.00    -0.268 OA
ENDBRANCH  31  37
BRANCH  34  41
ATOM     41  O   UNL A   1     -28.193  -0.208  24.477  0.00  0.00    -0.456 OA
BRANCH  41  42
ATOM     42  C   UNL A   1     -29.460   0.005  23.866  0.00  0.00    +0.243 C 
BRANCH  42  43
ATOM     43  C   UNL A   1     -30.065  -1.377  23.573  0.00  0.00    +0.229 C 
ATOM     44  O   UNL A   1     -30.729  -1.878  24.721  0.00  0.00    -0.216 OA
ENDBRANCH  42  43
ENDBRANCH  41  42
ENDBRANCH  34  41
ENDBRANCH  29  30
ENDBRANCH   5  29
TORSDOF 15
