REMARK  Name = outputs/IAG933/test6/raw/output_9109_IAG933_linker_design_.xyz
REMARK  12 active torsions:
REMARK  status: ('A' for Active; 'I' for Inactive)
REMARK    1  A    between atoms: C_1  and  C_2
REMARK    2  A    between atoms: C_1  and  C_8
REMARK    3  A    between atoms: C_1  and  C_36
REMARK    4  A    between atoms: C_13  and  N_43
REMARK    5  A    between atoms: C_14  and  C_15
REMARK    6  A    between atoms: C_21  and  O_22
REMARK    7  A    between atoms: O_22  and  C_23
REMARK    8  A    between atoms: C_23  and  C_24
REMARK    9  A    between atoms: N_30  and  C_36
REMARK   10  A    between atoms: C_33  and  C_38
REMARK   11  A    between atoms: C_36  and  N_43
REMARK   12  A    between atoms: C_41  and  C_44
REMARK                            x       y       z     vdW  Elec       q    Type
REMARK                         _______ _______ _______ _____ _____    ______ ____
ROOT
ATOM      1  C   UNL A   1     -25.439  -0.035  28.751  0.00  0.00    +0.178 C 
ENDROOT
BRANCH   1   3
ATOM      2  O   UNL A   1     -28.232   0.912  29.843  0.00  0.00    -0.268 OA
ATOM      3  N   UNL A   1     -26.728  -0.176  28.514  0.00  0.00    -0.182 NA
ATOM      4  C   UNL A   1     -27.999   0.126  28.914  0.00  0.00    +0.269 C 
BRANCH   4  11
ATOM      5  C   UNL A   1     -30.333  -1.154  28.979  0.00  0.00    +0.139 C 
ATOM      6  N   UNL A   1     -31.331  -2.581  30.347  0.00  0.00    -0.085 NA
ATOM      7  C   UNL A   1     -30.420  -1.325  30.358  0.00  0.00    +0.147 C 
ATOM      8  C   UNL A   1     -32.452  -2.181  29.562  0.00  0.00    +0.312 C 
ATOM      9  C   UNL A   1     -30.684  -1.158  31.941  0.00  0.00    +0.028 C 
ATOM     10  O   UNL A   1     -30.587  -3.642  29.877  0.00  0.00    -0.114 OA
ATOM     11  C   UNL A   1     -29.186  -0.552  28.187  0.00  0.00    +0.093 C 
ATOM     12  O   UNL A   1     -31.870  -1.731  28.437  0.00  0.00    -0.459 OA
ENDBRANCH   4  11
ENDBRANCH   1   3
BRANCH   1  15
ATOM     13  C   UNL A   1     -23.398   0.855  27.568  0.00  0.00    +0.242 C 
ATOM     14  O   UNL A   1     -23.032  -0.352  27.848  0.00  0.00    -0.274 OA
ATOM     15  N   UNL A   1     -24.913   0.891  27.737  0.00  0.00    -0.257 N 
BRANCH  15  16
ATOM     16  C   UNL A   1     -25.688   1.614  26.461  0.00  0.00    +0.147 C 
ATOM     17  C   UNL A   1     -26.250   2.920  26.395  0.00  0.00    +0.073 C 
ATOM     18  C   UNL A   1     -27.438   3.091  25.645  0.00  0.00    +0.104 C 
ATOM     19  N   UNL A   1     -28.075   2.089  25.003  0.00  0.00    -0.212 NA
ATOM     20  C   UNL A   1     -27.543   0.849  25.079  0.00  0.00    +0.236 C 
ATOM     21  C   UNL A   1     -26.354   0.576  25.777  0.00  0.00    +0.258 C 
ATOM     22  F   UNL A   1     -25.860  -0.681  25.795  0.00  0.00    -0.225 F 
BRANCH  17  23
ATOM     23  C   UNL A   1     -25.642   4.093  27.123  0.00  0.00    +0.264 C 
ATOM     24  N   UNL A   1     -25.614   5.252  26.449  0.00  0.00    -0.200 NA
ATOM     25  C   UNL A   1     -25.026   6.479  26.963  0.00  0.00    +0.139 C 
ATOM     26  O   UNL A   1     -25.143   3.966  28.243  0.00  0.00    -0.269 OA
ENDBRANCH  17  23
BRANCH  20  27
ATOM     27  O   UNL A   1     -28.193  -0.208  24.477  0.00  0.00    -0.459 OA
BRANCH  27  28
ATOM     28  C   UNL A   1     -29.460   0.005  23.866  0.00  0.00    +0.242 C 
BRANCH  28  29
ATOM     29  C   UNL A   1     -30.065  -1.377  23.573  0.00  0.00    +0.229 C 
ATOM     30  O   UNL A   1     -30.729  -1.878  24.721  0.00  0.00    -0.216 OA
ENDBRANCH  28  29
ENDBRANCH  27  28
ENDBRANCH  20  27
ENDBRANCH  15  16
BRANCH  13  33
ATOM     31 CL   UNL A   1     -22.864   2.469  25.645  0.00  0.00    -0.105 Cl
ATOM     32  C   UNL A   1     -21.273   1.468  27.607  0.00  0.00    +0.027 C 
ATOM     33  C   UNL A   1     -22.642   1.842  27.323  0.00  0.00    +0.156 C 
ENDBRANCH  13  33
ENDBRANCH   1  15
BRANCH   1  34
ATOM     34  C   UNL A   1     -24.855  -1.012  30.143  0.00  0.00    +0.077 C 
BRANCH  34  35
ATOM     35  C   UNL A   1     -24.973  -2.505  29.788  0.00  0.00    -0.018 C 
ATOM     36  C   UNL A   1     -23.906  -3.173  29.146  0.00  0.00    -0.004 C 
ATOM     37  C   UNL A   1     -23.989  -4.549  28.853  0.00  0.00    -0.000 C 
ATOM     38  C   UNL A   1     -25.137  -5.280  29.205  0.00  0.00    -0.000 C 
ATOM     39  C   UNL A   1     -26.232  -4.611  29.784  0.00  0.00    -0.000 C 
ATOM     40  C   UNL A   1     -26.155  -3.232  30.065  0.00  0.00    -0.004 C 
ENDBRANCH  34  35
BRANCH  34  41
ATOM     41  C   UNL A   1     -25.387  -0.679  31.571  0.00  0.00    +0.080 C 
ATOM     42  C   UNL A   1     -25.189   0.773  32.028  0.00  0.00    +0.019 C 
ATOM     43  C   UNL A   1     -25.336   0.684  33.544  0.00  0.00    +0.020 C 
ATOM     44  C   UNL A   1     -24.829  -0.715  33.905  0.00  0.00    +0.089 C 
ATOM     45  N   UNL A   1     -24.758  -1.481  32.646  0.00  0.00    -0.219 NA
ENDBRANCH  34  41
ENDBRANCH   1  34
TORSDOF 12
