MODEL 910
MODEL 1
REMARK VINA RESULT:    -6.656      0.000      0.000
REMARK INTER + INTRA:          -8.279
REMARK INTER:                  -7.823
REMARK INTRA:                  -0.456
REMARK UNBOUND:                -0.456
REMARK  Name = No_910-gen_results/8p0m/2024-11-27-11-27-31/
REMARK  3 active torsions:
REMARK  status: ('A' for Active; 'I' for Inactive)
REMARK    1  A    between atoms: C_1  and  C_2
REMARK    2  A    between atoms: C_1  and  C_4
REMARK    3  A    between atoms: C_4  and  C_9
REMARK                            x       y       z     vdW  Elec       q    Type
REMARK                         _______ _______ _______ _____ _____    ______ ____
ROOT
ATOM      1  C   UNL A   1     -24.622  -1.300  29.338  0.00  0.00    +0.014 C 
ENDROOT
BRANCH   1   2
ATOM      2  C   UNL A   1     -24.869  -2.735  29.206  0.00  0.00    +0.058 C 
ATOM      3  C   UNL A   1     -25.965  -3.267  29.702  0.00  0.00    +0.150 C 
ATOM      4  C   UNL A   1     -26.065  -4.708  29.639  0.00  0.00    +0.065 C 
ATOM      5  C   UNL A   1     -25.220  -5.272  29.101  0.00  0.00    +0.008 C 
ATOM      6  C   UNL A   1     -24.048  -4.809  28.517  0.00  0.00    +0.001 C 
ATOM      7  C   UNL A   1     -23.897  -3.438  28.608  0.00  0.00    +0.007 C 
ATOM      8  O   UNL A   1     -26.861  -2.567  30.475  0.00  0.00    -0.296 OA
ENDBRANCH   1   2
BRANCH   1   9
ATOM      9  C   UNL A   1     -23.270  -0.707  29.002  0.00  0.00    +0.046 C 
BRANCH   9  10
ATOM     10  C   UNL A   1     -23.342   0.154  28.155  0.00  0.00    +0.059 A 
ATOM     11  N   UNL A   1     -22.459   1.095  27.997  0.00  0.00    -0.248 NA
ATOM     12  C   UNL A   1     -22.065   1.818  27.188  0.00  0.00    +0.098 A 
ATOM     13  C   UNL A   1     -22.890   2.277  26.267  0.00  0.00    +0.021 A 
ATOM     14  C   UNL A   1     -24.069   1.400  26.099  0.00  0.00    +0.003 A 
ATOM     15  C   UNL A   1     -24.307   0.325  27.057  0.00  0.00    +0.015 A 
ENDBRANCH   9  10
ENDBRANCH   1   9
TORSDOF 3
ENDMDL
ENDMDL
