REMARK  Name = outputs/IAG933/test6/raw/output_9114_IAG933_linker_design_.xyz
REMARK  13 active torsions:
REMARK  status: ('A' for Active; 'I' for Inactive)
REMARK    1  A    between atoms: C_1  and  C_2
REMARK    2  A    between atoms: C_1  and  C_8
REMARK    3  A    between atoms: C_1  and  C_30
REMARK    4  A    between atoms: C_13  and  C_44
REMARK    5  A    between atoms: C_14  and  C_15
REMARK    6  A    between atoms: C_21  and  O_22
REMARK    7  A    between atoms: O_22  and  C_23
REMARK    8  A    between atoms: C_23  and  C_24
REMARK    9  A    between atoms: C_30  and  N_34
REMARK   10  A    between atoms: C_30  and  N_36
REMARK   11  A    between atoms: C_33  and  C_41
REMARK   12  A    between atoms: N_34  and  C_40
REMARK   13  A    between atoms: O_39  and  C_41
REMARK                            x       y       z     vdW  Elec       q    Type
REMARK                         _______ _______ _______ _____ _____    ______ ____
ROOT
ATOM      1  C   UNL A   1     -25.420  -0.139  28.939  0.00  0.00    +0.157 C 
ENDROOT
BRANCH   1   4
ATOM      2  O   UNL A   1     -22.751   0.667  29.901  0.00  0.00    -0.272 OA
ATOM      3  C   UNL A   1     -23.108   0.813  28.751  0.00  0.00    +0.260 C 
ATOM      4  N   UNL A   1     -24.348   0.585  28.182  0.00  0.00    -0.262 N 
ATOM      5  C   UNL A   1     -22.250   1.348  27.734  0.00  0.00    +0.238 C 
ATOM      6  C   UNL A   1     -23.069   1.838  26.740  0.00  0.00    +0.069 C 
ATOM      7  C   UNL A   1     -24.379   1.387  27.064  0.00  0.00    +0.105 C 
ATOM      8  F   UNL A   1     -20.861   1.531  27.649  0.00  0.00    -0.227 F 
BRANCH   7   9
ATOM      9  C   UNL A   1     -25.688   1.614  26.461  0.00  0.00    +0.034 C 
ATOM     10  C   UNL A   1     -26.250   2.920  26.395  0.00  0.00    +0.074 C 
ATOM     11  C   UNL A   1     -27.438   3.091  25.645  0.00  0.00    +0.106 C 
ATOM     12  N   UNL A   1     -28.075   2.089  25.003  0.00  0.00    -0.208 NA
ATOM     13  C   UNL A   1     -27.543   0.849  25.079  0.00  0.00    +0.253 C 
ATOM     14  C   UNL A   1     -26.354   0.576  25.777  0.00  0.00    +0.191 C 
ATOM     15  F   UNL A   1     -25.860  -0.681  25.795  0.00  0.00    -0.200 F 
BRANCH  10  16
ATOM     16  C   UNL A   1     -25.642   4.093  27.123  0.00  0.00    +0.266 C 
ATOM     17  N   UNL A   1     -25.614   5.252  26.449  0.00  0.00    -0.200 NA
ATOM     18  C   UNL A   1     -25.026   6.479  26.963  0.00  0.00    +0.139 C 
ATOM     19  O   UNL A   1     -25.143   3.966  28.243  0.00  0.00    -0.268 OA
ENDBRANCH  10  16
BRANCH  13  20
ATOM     20  O   UNL A   1     -28.193  -0.208  24.477  0.00  0.00    -0.456 OA
BRANCH  20  21
ATOM     21  C   UNL A   1     -29.460   0.005  23.866  0.00  0.00    +0.243 C 
BRANCH  21  22
ATOM     22  C   UNL A   1     -30.065  -1.377  23.573  0.00  0.00    +0.229 C 
ATOM     23  O   UNL A   1     -30.729  -1.878  24.721  0.00  0.00    -0.216 OA
ENDBRANCH  21  22
ENDBRANCH  20  21
ENDBRANCH  13  20
ENDBRANCH   7   9
ENDBRANCH   1   4
BRANCH   1  24
ATOM     24  C   UNL A   1     -24.855  -1.012  30.143  0.00  0.00    +0.073 C 
BRANCH  24  25
ATOM     25  C   UNL A   1     -24.973  -2.505  29.788  0.00  0.00    -0.018 C 
ATOM     26  C   UNL A   1     -23.906  -3.173  29.146  0.00  0.00    -0.004 C 
ATOM     27  C   UNL A   1     -23.989  -4.549  28.853  0.00  0.00    -0.000 C 
ATOM     28  C   UNL A   1     -25.137  -5.280  29.205  0.00  0.00    -0.000 C 
ATOM     29  C   UNL A   1     -26.232  -4.611  29.784  0.00  0.00    -0.000 C 
ATOM     30  C   UNL A   1     -26.155  -3.232  30.065  0.00  0.00    -0.004 C 
ENDBRANCH  24  25
BRANCH  24  31
ATOM     31  C   UNL A   1     -25.387  -0.679  31.571  0.00  0.00    +0.080 C 
ATOM     32  C   UNL A   1     -25.189   0.773  32.028  0.00  0.00    +0.019 C 
ATOM     33  C   UNL A   1     -25.336   0.684  33.544  0.00  0.00    +0.020 C 
ATOM     34  C   UNL A   1     -24.829  -0.715  33.905  0.00  0.00    +0.089 C 
ATOM     35  N   UNL A   1     -24.758  -1.481  32.646  0.00  0.00    -0.219 NA
ENDBRANCH  24  31
ENDBRANCH   1  24
BRANCH   1  36
ATOM     36  N   UNL A   1     -26.476   0.920  29.273  0.00  0.00    -0.173 NA
BRANCH  36  41
ATOM     37  C   UNL A   1     -29.277  -0.406  30.798  0.00  0.00    +0.036 C 
ATOM     38  C   UNL A   1     -28.513  -0.386  29.617  0.00  0.00    +0.051 C 
ATOM     39  C   UNL A   1     -29.122   0.789  31.337  0.00  0.00    +0.144 C 
ATOM     40  O   UNL A   1     -28.432   1.735  30.551  0.00  0.00    -0.340 OA
ATOM     41  C   UNL A   1     -27.808   0.903  29.521  0.00  0.00    +0.191 C 
BRANCH  39  42
ATOM     42  C   UNL A   1     -29.348   1.130  32.670  0.00  0.00    +0.142 C 
ATOM     43  C   UNL A   1     -30.141   0.226  33.503  0.00  0.00    +0.035 C 
BRANCH  42  44
ATOM     44  O   UNL A   1     -28.808   2.266  33.165  0.00  0.00    -0.351 OA
ATOM     45  C   UNL A   1     -28.959   3.473  32.473  0.00  0.00    +0.174 C 
ENDBRANCH  42  44
ENDBRANCH  39  42
ENDBRANCH  36  41
ENDBRANCH   1  36
TORSDOF 13
