MODEL 911
MODEL 1
REMARK VINA RESULT:    -6.442      0.000      0.000
REMARK INTER + INTRA:          -7.844
REMARK INTER:                  -7.571
REMARK INTRA:                  -0.272
REMARK UNBOUND:                -0.272
REMARK  Name = No_911-gen_results/8p0m/2024-11-27-11-27-31/
REMARK  3 active torsions:
REMARK  status: ('A' for Active; 'I' for Inactive)
REMARK    1  A    between atoms: C_1  and  C_2
REMARK    2  A    between atoms: C_5  and  C_10
REMARK    3  A    between atoms: N_8  and  C_9
REMARK                            x       y       z     vdW  Elec       q    Type
REMARK                         _______ _______ _______ _____ _____    ______ ____
ROOT
ATOM      1  C   UNL A   1      -6.502  -0.192   9.705  0.00  0.00    +0.269 C 
ATOM      2  N   UNL A   1      -5.329   0.140   9.089  0.00  0.00    -0.175 NA
ATOM      3  O   UNL A   1      -6.758  -1.421   9.729  0.00  0.00    -0.268 OA
ENDROOT
BRANCH   1   4
ATOM      4  C   UNL A   1      -7.409   0.593   9.553  0.00  0.00    +0.055 A 
ATOM      5  C   UNL A   1      -7.708   1.112   8.298  0.00  0.00    +0.005 A 
ATOM      6  C   UNL A   1      -8.789   2.090   7.984  0.00  0.00    +0.005 A 
ATOM      7  C   UNL A   1      -9.686   2.392   9.051  0.00  0.00    +0.057 A 
ATOM      8  C   UNL A   1      -9.399   1.809  10.302  0.00  0.00    +0.005 A 
ATOM      9  C   UNL A   1      -8.376   0.974  10.535  0.00  0.00    +0.005 A 
BRANCH   7  10
ATOM     10  C   UNL A   1     -10.762   3.302   8.748  0.00  0.00    +0.284 C 
ATOM     11  N   UNL A   1     -10.758   4.307   8.464  0.00  0.00    -0.084 NA
ATOM     12  O   UNL A   1     -11.835   2.578   8.217  0.00  0.00    -0.267 OA
ENDBRANCH   7  10
ENDBRANCH   1   4
BRANCH   2  13
ATOM     13  C   UNL A   1      -4.386  -0.817   8.906  0.00  0.00    +0.074 A 
ATOM     14  C   UNL A   1      -4.259  -1.456   7.698  0.00  0.00    +0.017 A 
ATOM     15  C   UNL A   1      -3.483  -1.209   9.983  0.00  0.00    +0.017 A 
ATOM     16  C   UNL A   1      -2.451  -2.164   9.752  0.00  0.00    +0.001 A 
ATOM     17  C   UNL A   1      -3.212  -2.427   7.526  0.00  0.00    +0.001 A 
ATOM     18  C   UNL A   1      -2.401  -2.785   8.563  0.00  0.00    +0.000 A 
ENDBRANCH   2  13
TORSDOF 3
ENDMDL
ENDMDL
