REMARK  Name = outputs/IAG933/test6/raw/output_912_IAG933_linker_design_.xyz
REMARK  11 active torsions:
REMARK  status: ('A' for Active; 'I' for Inactive)
REMARK    1  A    between atoms: C_1  and  C_2
REMARK    2  A    between atoms: C_1  and  C_8
REMARK    3  A    between atoms: C_1  and  C_37
REMARK    4  A    between atoms: C_13  and  C_34
REMARK    5  A    between atoms: C_14  and  C_15
REMARK    6  A    between atoms: C_21  and  O_22
REMARK    7  A    between atoms: O_22  and  C_23
REMARK    8  A    between atoms: C_23  and  C_24
REMARK    9  A    between atoms: C_29  and  O_32
REMARK   10  A    between atoms: O_30  and  C_36
REMARK   11  A    between atoms: C_31  and  N_38
REMARK                            x       y       z     vdW  Elec       q    Type
REMARK                         _______ _______ _______ _____ _____    ______ ____
ROOT
ATOM      1  C   UNL A   1     -22.346   1.354  28.064  0.00  0.00    +0.227 C 
ATOM      2  C   UNL A   1     -25.019   0.399  28.243  0.00  0.00    +0.075 C 
ATOM      3  C   UNL A   1     -24.703   1.286  27.291  0.00  0.00    +0.060 C 
ATOM      4  O   UNL A   1     -23.082   2.720  26.146  0.00  0.00    -0.283 OA
ATOM      5  C   UNL A   1     -24.184  -0.027  29.201  0.00  0.00    +0.002 C 
ATOM      6  C   UNL A   1     -22.791   0.447  29.025  0.00  0.00    +0.042 C 
ATOM      7  C   UNL A   1     -23.293   1.778  27.042  0.00  0.00    +0.235 C 
ENDROOT
BRANCH   3   8
ATOM      8  C   UNL A   1     -25.688   1.614  26.461  0.00  0.00    +0.043 C 
ATOM      9  C   UNL A   1     -26.250   2.920  26.395  0.00  0.00    +0.077 C 
ATOM     10  C   UNL A   1     -27.438   3.091  25.645  0.00  0.00    +0.107 C 
ATOM     11  N   UNL A   1     -28.075   2.089  25.003  0.00  0.00    -0.208 NA
ATOM     12  C   UNL A   1     -27.543   0.849  25.079  0.00  0.00    +0.253 C 
ATOM     13  C   UNL A   1     -26.354   0.576  25.777  0.00  0.00    +0.193 C 
ATOM     14  F   UNL A   1     -25.860  -0.681  25.795  0.00  0.00    -0.199 F 
BRANCH   9  15
ATOM     15  C   UNL A   1     -25.642   4.093  27.123  0.00  0.00    +0.266 C 
ATOM     16  N   UNL A   1     -25.614   5.252  26.449  0.00  0.00    -0.200 NA
ATOM     17  C   UNL A   1     -25.026   6.479  26.963  0.00  0.00    +0.139 C 
ATOM     18  O   UNL A   1     -25.143   3.966  28.243  0.00  0.00    -0.268 OA
ENDBRANCH   9  15
BRANCH  12  19
ATOM     19  O   UNL A   1     -28.193  -0.208  24.477  0.00  0.00    -0.456 OA
BRANCH  19  20
ATOM     20  C   UNL A   1     -29.460   0.005  23.866  0.00  0.00    +0.243 C 
BRANCH  20  21
ATOM     21  C   UNL A   1     -30.065  -1.377  23.573  0.00  0.00    +0.229 C 
ATOM     22  O   UNL A   1     -30.729  -1.878  24.721  0.00  0.00    -0.216 OA
ENDBRANCH  20  21
ENDBRANCH  19  20
ENDBRANCH  12  19
ENDBRANCH   3   8
BRANCH   2  25
ATOM     23  N   UNL A   1     -27.355   2.151  29.713  0.00  0.00    -0.090 NA
ATOM     24  C   UNL A   1     -27.322   0.981  29.387  0.00  0.00    +0.327 C 
ATOM     25  N   UNL A   1     -26.454   0.291  28.497  0.00  0.00    -0.161 NA
BRANCH  24  26
ATOM     26  O   UNL A   1     -28.632   0.276  30.042  0.00  0.00    -0.443 OA
ATOM     27  C   UNL A   1     -28.829  -0.751  29.168  0.00  0.00    +0.256 C 
ENDBRANCH  24  26
ENDBRANCH   2  25
BRANCH   1  28
ATOM     28  O   UNL A   1     -21.069   1.898  27.821  0.00  0.00    -0.289 OA
ATOM     29  F   UNL A   1     -20.260   1.026  28.173  0.00  0.00    +0.014 F 
ENDBRANCH   1  28
BRANCH   5  30
ATOM     30  C   UNL A   1     -24.855  -1.012  30.143  0.00  0.00    +0.062 C 
BRANCH  30  31
ATOM     31  C   UNL A   1     -24.973  -2.505  29.788  0.00  0.00    -0.017 C 
ATOM     32  C   UNL A   1     -23.906  -3.173  29.146  0.00  0.00    -0.004 C 
ATOM     33  C   UNL A   1     -23.989  -4.549  28.853  0.00  0.00    -0.000 C 
ATOM     34  C   UNL A   1     -25.137  -5.280  29.205  0.00  0.00    -0.000 C 
ATOM     35  C   UNL A   1     -26.232  -4.611  29.784  0.00  0.00    -0.000 C 
ATOM     36  C   UNL A   1     -26.155  -3.232  30.065  0.00  0.00    -0.004 C 
ENDBRANCH  30  31
BRANCH  30  37
ATOM     37  C   UNL A   1     -25.387  -0.679  31.571  0.00  0.00    +0.081 C 
ATOM     38  C   UNL A   1     -25.189   0.773  32.028  0.00  0.00    +0.019 C 
ATOM     39  C   UNL A   1     -25.336   0.684  33.544  0.00  0.00    +0.020 C 
ATOM     40  C   UNL A   1     -24.829  -0.715  33.905  0.00  0.00    +0.089 C 
ATOM     41  N   UNL A   1     -24.758  -1.481  32.646  0.00  0.00    -0.219 NA
ENDBRANCH  30  37
ENDBRANCH   5  30
TORSDOF 11
