REMARK  Name = outputs/IAG933/test6/raw/output_9121_IAG933_linker_design_.xyz
REMARK  12 active torsions:
REMARK  status: ('A' for Active; 'I' for Inactive)
REMARK    1  A    between atoms: C_1  and  C_2
REMARK    2  A    between atoms: C_1  and  C_8
REMARK    3  A    between atoms: C_1  and  C_39
REMARK    4  A    between atoms: C_9  and  C_44
REMARK    5  A    between atoms: C_13  and  C_29
REMARK    6  A    between atoms: C_14  and  C_15
REMARK    7  A    between atoms: C_21  and  O_22
REMARK    8  A    between atoms: O_22  and  C_23
REMARK    9  A    between atoms: C_23  and  C_24
REMARK   10  A    between atoms: O_34  and  C_40
REMARK   11  A    between atoms: O_34  and  C_44
REMARK   12  A    between atoms: C_39  and  N_42
REMARK                            x       y       z     vdW  Elec       q    Type
REMARK                         _______ _______ _______ _____ _____    ______ ____
ROOT
ATOM      1  C   UNL A   1     -23.381   1.105  29.140  0.00  0.00    +0.120 C 
ATOM      2  C   UNL A   1     -24.452   1.345  27.150  0.00  0.00    +0.081 C 
ATOM      3  F   UNL A   1     -23.206   2.149  25.280  0.00  0.00    -0.201 F 
ATOM      4  F   UNL A   1     -20.956   2.105  26.726  0.00  0.00    -0.202 F 
ATOM      5  C   UNL A   1     -22.118   1.762  27.264  0.00  0.00    +0.166 C 
ATOM      6  C   UNL A   1     -23.261   1.748  26.549  0.00  0.00    +0.180 C 
ATOM      7  N   UNL A   1     -24.386   0.781  28.388  0.00  0.00    -0.301 N 
ATOM      8  C   UNL A   1     -22.171   1.486  28.579  0.00  0.00    +0.027 C 
ENDROOT
BRANCH   2   9
ATOM      9  C   UNL A   1     -25.688   1.614  26.461  0.00  0.00    +0.054 C 
ATOM     10  C   UNL A   1     -26.250   2.920  26.395  0.00  0.00    +0.078 C 
ATOM     11  C   UNL A   1     -27.438   3.091  25.645  0.00  0.00    +0.107 C 
ATOM     12  N   UNL A   1     -28.075   2.089  25.003  0.00  0.00    -0.208 NA
ATOM     13  C   UNL A   1     -27.543   0.849  25.079  0.00  0.00    +0.253 C 
ATOM     14  C   UNL A   1     -26.354   0.576  25.777  0.00  0.00    +0.194 C 
ATOM     15  F   UNL A   1     -25.860  -0.681  25.795  0.00  0.00    -0.199 F 
BRANCH  10  16
ATOM     16  C   UNL A   1     -25.642   4.093  27.123  0.00  0.00    +0.267 C 
ATOM     17  N   UNL A   1     -25.614   5.252  26.449  0.00  0.00    -0.200 NA
ATOM     18  C   UNL A   1     -25.026   6.479  26.963  0.00  0.00    +0.139 C 
ATOM     19  O   UNL A   1     -25.143   3.966  28.243  0.00  0.00    -0.268 OA
ENDBRANCH  10  16
BRANCH  13  20
ATOM     20  O   UNL A   1     -28.193  -0.208  24.477  0.00  0.00    -0.456 OA
BRANCH  20  21
ATOM     21  C   UNL A   1     -29.460   0.005  23.866  0.00  0.00    +0.243 C 
BRANCH  21  22
ATOM     22  C   UNL A   1     -30.065  -1.377  23.573  0.00  0.00    +0.229 C 
ATOM     23  O   UNL A   1     -30.729  -1.878  24.721  0.00  0.00    -0.216 OA
ENDBRANCH  21  22
ENDBRANCH  20  21
ENDBRANCH  13  20
ENDBRANCH   2   9
BRANCH   7  24
ATOM     24  C   UNL A   1     -25.394  -0.154  28.980  0.00  0.00    +0.097 C 
BRANCH  24  25
ATOM     25  C   UNL A   1     -24.855  -1.012  30.143  0.00  0.00    +0.058 C 
BRANCH  25  26
ATOM     26  C   UNL A   1     -24.973  -2.505  29.788  0.00  0.00    -0.019 C 
ATOM     27  C   UNL A   1     -23.906  -3.173  29.146  0.00  0.00    -0.004 C 
ATOM     28  C   UNL A   1     -23.989  -4.549  28.853  0.00  0.00    -0.000 C 
ATOM     29  C   UNL A   1     -25.137  -5.280  29.205  0.00  0.00    -0.000 C 
ATOM     30  C   UNL A   1     -26.232  -4.611  29.784  0.00  0.00    -0.000 C 
ATOM     31  C   UNL A   1     -26.155  -3.232  30.065  0.00  0.00    -0.004 C 
ENDBRANCH  25  26
BRANCH  25  32
ATOM     32  C   UNL A   1     -25.387  -0.679  31.571  0.00  0.00    +0.082 C 
ATOM     33  C   UNL A   1     -25.189   0.773  32.028  0.00  0.00    +0.062 C 
ATOM     34  C   UNL A   1     -25.336   0.684  33.544  0.00  0.00    +0.024 C 
ATOM     35  C   UNL A   1     -24.829  -0.715  33.905  0.00  0.00    +0.089 C 
ATOM     36  N   UNL A   1     -24.758  -1.481  32.646  0.00  0.00    -0.219 NA
BRANCH  33  37
ATOM     37  C   UNL A   1     -25.028   2.204  31.558  0.00  0.00    +0.207 C 
BRANCH  37  38
ATOM     38  O   UNL A   1     -25.666   3.230  32.305  0.00  0.00    -0.475 OA
BRANCH  38  43
ATOM     39  C   UNL A   1     -24.683   6.362  33.818  0.00  0.00    +0.003 C 
ATOM     40  C   UNL A   1     -25.439   5.467  31.291  0.00  0.00    +0.037 C 
ATOM     41  C   UNL A   1     -24.948   5.006  33.612  0.00  0.00    +0.037 C 
ATOM     42  C   UNL A   1     -24.830   7.288  32.758  0.00  0.00    +0.000 C 
ATOM     43  C   UNL A   1     -25.364   4.541  32.357  0.00  0.00    +0.139 C 
ATOM     44  C   UNL A   1     -25.174   6.817  31.487  0.00  0.00    +0.003 C 
ENDBRANCH  38  43
ENDBRANCH  37  38
ENDBRANCH  33  37
ENDBRANCH  25  32
ENDBRANCH  24  25
ENDBRANCH   7  24
TORSDOF 12
