REMARK  Name = outputs/IAG933/test6/raw/output_9127_IAG933_linker_design_.xyz
REMARK  10 active torsions:
REMARK  status: ('A' for Active; 'I' for Inactive)
REMARK    1  A    between atoms: C_1  and  C_2
REMARK    2  A    between atoms: C_1  and  C_8
REMARK    3  A    between atoms: C_1  and  N_37
REMARK    4  A    between atoms: C_13  and  C_34
REMARK    5  A    between atoms: C_14  and  C_15
REMARK    6  A    between atoms: C_21  and  O_22
REMARK    7  A    between atoms: O_22  and  C_23
REMARK    8  A    between atoms: C_23  and  C_24
REMARK    9  A    between atoms: O_28  and  C_36
REMARK   10  A    between atoms: C_30  and  N_38
REMARK                            x       y       z     vdW  Elec       q    Type
REMARK                         _______ _______ _______ _____ _____    ______ ____
ROOT
ATOM      1  O   UNL A   1     -27.699  -0.550  28.811  0.00  0.00    -0.222 OA
ATOM      2  N   UNL A   1     -23.378   0.079  29.049  0.00  0.00    -0.033 NA
ATOM      3  C   UNL A   1     -26.881   0.321  29.137  0.00  0.00    +0.415 C 
ATOM      4  C   UNL A   1     -24.518   0.461  28.437  0.00  0.00    +0.335 C 
ATOM      5  C   UNL A   1     -24.443   1.233  27.250  0.00  0.00    +0.126 C 
ATOM      6  C   UNL A   1     -22.203   0.538  28.806  0.00  0.00    +0.268 C 
ATOM      7  C   UNL A   1     -23.084   1.582  26.845  0.00  0.00    +0.227 C 
ATOM      8  N   UNL A   1     -25.574  -0.030  29.169  0.00  0.00    -0.121 N 
ATOM      9  N   UNL A   1     -27.194   1.617  29.452  0.00  0.00    -0.166 NA
ATOM     10  F   UNL A   1     -20.756   1.166  27.197  0.00  0.00    -0.197 F 
ATOM     11  C   UNL A   1     -22.022   1.145  27.630  0.00  0.00    +0.225 C 
ENDROOT
BRANCH   5  12
ATOM     12  C   UNL A   1     -25.688   1.614  26.461  0.00  0.00    +0.048 C 
ATOM     13  C   UNL A   1     -26.250   2.920  26.395  0.00  0.00    +0.077 C 
ATOM     14  C   UNL A   1     -27.438   3.091  25.645  0.00  0.00    +0.107 C 
ATOM     15  N   UNL A   1     -28.075   2.089  25.003  0.00  0.00    -0.208 NA
ATOM     16  C   UNL A   1     -27.543   0.849  25.079  0.00  0.00    +0.253 C 
ATOM     17  C   UNL A   1     -26.354   0.576  25.777  0.00  0.00    +0.193 C 
ATOM     18  F   UNL A   1     -25.860  -0.681  25.795  0.00  0.00    -0.199 F 
BRANCH  13  19
ATOM     19  C   UNL A   1     -25.642   4.093  27.123  0.00  0.00    +0.266 C 
ATOM     20  N   UNL A   1     -25.614   5.252  26.449  0.00  0.00    -0.200 NA
ATOM     21  C   UNL A   1     -25.026   6.479  26.963  0.00  0.00    +0.139 C 
ATOM     22  O   UNL A   1     -25.143   3.966  28.243  0.00  0.00    -0.268 OA
ENDBRANCH  13  19
BRANCH  16  23
ATOM     23  O   UNL A   1     -28.193  -0.208  24.477  0.00  0.00    -0.456 OA
BRANCH  23  24
ATOM     24  C   UNL A   1     -29.460   0.005  23.866  0.00  0.00    +0.243 C 
BRANCH  24  25
ATOM     25  C   UNL A   1     -30.065  -1.377  23.573  0.00  0.00    +0.229 C 
ATOM     26  O   UNL A   1     -30.729  -1.878  24.721  0.00  0.00    -0.216 OA
ENDBRANCH  24  25
ENDBRANCH  23  24
ENDBRANCH  16  23
ENDBRANCH   5  12
BRANCH   7  27
ATOM     27  O   UNL A   1     -22.616   2.179  25.694  0.00  0.00    -0.289 OA
ATOM     28  F   UNL A   1     -23.278   3.247  25.288  0.00  0.00    +0.014 F 
ENDBRANCH   7  27
BRANCH   9  29
ATOM     29  C   UNL A   1     -28.245   2.206  30.294  0.00  0.00    +0.119 C 
ATOM     30  C   UNL A   1     -28.951   1.206  31.198  0.00  0.00    +0.025 C 
ENDBRANCH   9  29
BRANCH   8  31
ATOM     31  C   UNL A   1     -24.855  -1.012  30.143  0.00  0.00    +0.208 C 
BRANCH  31  32
ATOM     32  C   UNL A   1     -24.973  -2.505  29.788  0.00  0.00    +0.022 C 
ATOM     33  C   UNL A   1     -23.906  -3.173  29.146  0.00  0.00    -0.000 C 
ATOM     34  C   UNL A   1     -23.989  -4.549  28.853  0.00  0.00    -0.000 C 
ATOM     35  C   UNL A   1     -25.137  -5.280  29.205  0.00  0.00    -0.000 C 
ATOM     36  C   UNL A   1     -26.232  -4.611  29.784  0.00  0.00    -0.000 C 
ATOM     37  C   UNL A   1     -26.155  -3.232  30.065  0.00  0.00    -0.000 C 
ENDBRANCH  31  32
BRANCH  31  38
ATOM     38  C   UNL A   1     -25.387  -0.679  31.571  0.00  0.00    +0.120 C 
ATOM     39  C   UNL A   1     -25.189   0.773  32.028  0.00  0.00    +0.023 C 
ATOM     40  C   UNL A   1     -25.336   0.684  33.544  0.00  0.00    +0.020 C 
ATOM     41  C   UNL A   1     -24.829  -0.715  33.905  0.00  0.00    +0.089 C 
ATOM     42  N   UNL A   1     -24.758  -1.481  32.646  0.00  0.00    -0.215 NA
ENDBRANCH  31  38
ENDBRANCH   8  31
TORSDOF 10
