MODEL 912
MODEL 1
REMARK VINA RESULT:    -4.327      0.000      0.000
REMARK INTER + INTRA:          -4.327
REMARK INTER:                  -4.327
REMARK INTRA:                   0.000
REMARK UNBOUND:                 0.000
REMARK  Name = No_912-gen_results/8p0m/2024-11-27-11-27-31/
REMARK  0 active torsions:
REMARK  status: ('A' for Active; 'I' for Inactive)
REMARK                            x       y       z     vdW  Elec       q    Type
REMARK                         _______ _______ _______ _____ _____    ______ ____
ROOT
ATOM      1  C   UNL A   1     -26.208  -4.800  29.689  0.00  0.00    +0.011 A 
ATOM      2  C   UNL A   1     -26.230  -3.747  29.732  0.00  0.00    +0.058 A 
ATOM      3  C   UNL A   1     -25.013  -5.398  28.980  0.00  0.00    +0.001 A 
ATOM      4  C   UNL A   1     -23.964  -4.552  28.562  0.00  0.00    +0.000 A 
ATOM      5  C   UNL A   1     -25.275  -2.662  29.414  0.00  0.00    +0.011 A 
ATOM      6  C   UNL A   1     -24.160  -3.174  28.766  0.00  0.00    +0.001 A 
ATOM      7 CL   UNL A   1     -27.666  -3.022  30.595  0.00  0.00    -0.082 Cl
ENDROOT
TORSDOF 0
ENDMDL
ENDMDL
