REMARK  Name = outputs/IAG933/test6/raw/output_9131_IAG933_linker_design_.xyz
REMARK  14 active torsions:
REMARK  status: ('A' for Active; 'I' for Inactive)
REMARK    1  A    between atoms: C_1  and  C_2
REMARK    2  A    between atoms: C_1  and  C_8
REMARK    3  A    between atoms: C_1  and  C_40
REMARK    4  A    between atoms: C_13  and  C_37
REMARK    5  A    between atoms: C_14  and  C_15
REMARK    6  A    between atoms: C_21  and  O_22
REMARK    7  A    between atoms: O_22  and  C_23
REMARK    8  A    between atoms: C_23  and  C_24
REMARK    9  A    between atoms: C_32  and  C_40
REMARK   10  A    between atoms: C_32  and  O_41
REMARK   11  A    between atoms: C_35  and  O_44
REMARK   12  A    between atoms: C_39  and  O_41
REMARK   13  A    between atoms: C_39  and  C_42
REMARK   14  A    between atoms: C_40  and  O_44
REMARK                            x       y       z     vdW  Elec       q    Type
REMARK                         _______ _______ _______ _____ _____    ______ ____
ROOT
ATOM      1  O   UNL A   1     -24.526   1.043  28.926  0.00  0.00    -0.475 OA
ENDROOT
BRANCH   1   6
ATOM      2  C   UNL A   1     -22.345   1.113  28.064  0.00  0.00    +0.123 C 
ATOM      3  N   UNL A   1     -21.857   0.428  29.210  0.00  0.00    -0.125 NA
ATOM      4  C   UNL A   1     -21.458   1.570  27.066  0.00  0.00    +0.021 C 
ATOM      5  C   UNL A   1     -21.986   2.061  25.860  0.00  0.00    +0.001 C 
ATOM      6  C   UNL A   1     -23.734   1.270  27.888  0.00  0.00    +0.151 C 
ATOM      7  C   UNL A   1     -24.256   1.637  26.641  0.00  0.00    +0.020 C 
ATOM      8  C   UNL A   1     -23.386   2.091  25.615  0.00  0.00    -0.001 C 
BRANCH   7   9
ATOM      9  C   UNL A   1     -25.688   1.614  26.461  0.00  0.00    +0.095 C 
ATOM     10  C   UNL A   1     -26.250   2.920  26.395  0.00  0.00    +0.059 C 
ATOM     11  C   UNL A   1     -27.438   3.091  25.645  0.00  0.00    +0.102 C 
ATOM     12  N   UNL A   1     -28.075   2.089  25.003  0.00  0.00    -0.212 NA
ATOM     13  C   UNL A   1     -27.543   0.849  25.079  0.00  0.00    +0.234 C 
ATOM     14  C   UNL A   1     -26.354   0.576  25.777  0.00  0.00    +0.244 C 
ATOM     15  F   UNL A   1     -25.860  -0.681  25.795  0.00  0.00    -0.227 F 
BRANCH  10  16
ATOM     16  C   UNL A   1     -25.642   4.093  27.123  0.00  0.00    +0.263 C 
ATOM     17  N   UNL A   1     -25.614   5.252  26.449  0.00  0.00    -0.200 NA
ATOM     18  C   UNL A   1     -25.026   6.479  26.963  0.00  0.00    +0.139 C 
ATOM     19  O   UNL A   1     -25.143   3.966  28.243  0.00  0.00    -0.269 OA
ENDBRANCH  10  16
BRANCH  13  20
ATOM     20  O   UNL A   1     -28.193  -0.208  24.477  0.00  0.00    -0.459 OA
BRANCH  20  21
ATOM     21  C   UNL A   1     -29.460   0.005  23.866  0.00  0.00    +0.242 C 
BRANCH  21  22
ATOM     22  C   UNL A   1     -30.065  -1.377  23.573  0.00  0.00    +0.229 C 
ATOM     23  O   UNL A   1     -30.729  -1.878  24.721  0.00  0.00    -0.216 OA
ENDBRANCH  21  22
ENDBRANCH  20  21
ENDBRANCH  13  20
ENDBRANCH   7   9
ENDBRANCH   1   6
BRANCH   1  24
ATOM     24  C   UNL A   1     -25.327  -0.118  29.025  0.00  0.00    +0.201 C 
BRANCH  24  25
ATOM     25  C   UNL A   1     -24.855  -1.012  30.143  0.00  0.00    +0.081 C 
BRANCH  25  26
ATOM     26  C   UNL A   1     -24.973  -2.505  29.788  0.00  0.00    -0.018 C 
ATOM     27  C   UNL A   1     -23.906  -3.173  29.146  0.00  0.00    -0.004 C 
ATOM     28  C   UNL A   1     -23.989  -4.549  28.853  0.00  0.00    -0.000 C 
ATOM     29  C   UNL A   1     -25.137  -5.280  29.205  0.00  0.00    -0.000 C 
ATOM     30  C   UNL A   1     -26.232  -4.611  29.784  0.00  0.00    -0.000 C 
ATOM     31  C   UNL A   1     -26.155  -3.232  30.065  0.00  0.00    -0.004 C 
ENDBRANCH  25  26
BRANCH  25  32
ATOM     32  C   UNL A   1     -25.387  -0.679  31.571  0.00  0.00    +0.080 C 
ATOM     33  C   UNL A   1     -25.189   0.773  32.028  0.00  0.00    +0.019 C 
ATOM     34  C   UNL A   1     -25.336   0.684  33.544  0.00  0.00    +0.020 C 
ATOM     35  C   UNL A   1     -24.829  -0.715  33.905  0.00  0.00    +0.089 C 
ATOM     36  N   UNL A   1     -24.758  -1.481  32.646  0.00  0.00    -0.219 NA
ENDBRANCH  25  32
ENDBRANCH  24  25
BRANCH  24  37
ATOM     37  C   UNL A   1     -26.767   0.300  29.346  0.00  0.00    +0.186 C 
BRANCH  37  38
ATOM     38  O   UNL A   1     -27.046   1.605  29.787  0.00  0.00    -0.347 OA
BRANCH  38  39
ATOM     39  C   UNL A   1     -27.542   2.741  30.536  0.00  0.00    +0.174 C 
BRANCH  39  43
ATOM     40  C   UNL A   1     -24.845   4.235  33.150  0.00  0.00    +0.174 C 
ATOM     41  O   UNL A   1     -25.339   3.751  31.017  0.00  0.00    -0.348 OA
ATOM     42  C   UNL A   1     -27.027   4.245  32.477  0.00  0.00    +0.174 C 
ATOM     43  C   UNL A   1     -26.665   3.911  31.081  0.00  0.00    +0.174 C 
ATOM     44  C   UNL A   1     -24.684   4.595  31.715  0.00  0.00    +0.174 C 
ATOM     45  O   UNL A   1     -26.199   4.037  33.393  0.00  0.00    -0.348 OA
ENDBRANCH  39  43
ENDBRANCH  38  39
ENDBRANCH  37  38
ENDBRANCH  24  37
ENDBRANCH   1  24
TORSDOF 14
