REMARK  Name = outputs/IAG933/test6/raw/output_9132_IAG933_linker_design_.xyz
REMARK  17 active torsions:
REMARK  status: ('A' for Active; 'I' for Inactive)
REMARK    1  A    between atoms: C_1  and  C_2
REMARK    2  A    between atoms: C_1  and  C_8
REMARK    3  A    between atoms: C_1  and  C_45
REMARK    4  A    between atoms: C_13  and  N_29
REMARK    5  A    between atoms: C_14  and  C_15
REMARK    6  A    between atoms: C_21  and  O_22
REMARK    7  A    between atoms: O_22  and  C_23
REMARK    8  A    between atoms: C_23  and  C_24
REMARK    9  A    between atoms: N_30  and  C_42
REMARK   10  A    between atoms: N_30  and  C_45
REMARK   11  A    between atoms: C_31  and  C_34
REMARK   12  A    between atoms: C_31  and  C_35
REMARK   13  A    between atoms: C_31  and  C_42
REMARK   14  A    between atoms: C_32  and  C_45
REMARK   15  A    between atoms: C_33  and  C_38
REMARK   16  A    between atoms: C_35  and  C_43
REMARK   17  A    between atoms: O_36  and  C_43
REMARK                            x       y       z     vdW  Elec       q    Type
REMARK                         _______ _______ _______ _____ _____    ______ ____
ROOT
ATOM      1  N   UNL A   1     -24.585   1.167  27.164  0.00  0.00    -0.285 N 
ATOM      2  C   UNL A   1     -24.540   0.438  28.289  0.00  0.00    +0.069 C 
ATOM      3  C   UNL A   1     -22.373   1.053  27.760  0.00  0.00    +0.107 C 
ATOM      4  C   UNL A   1     -23.281   1.378  26.797  0.00  0.00    +0.105 C 
ATOM      5  F   UNL A   1     -22.459  -0.008  29.770  0.00  0.00    -0.208 F 
ATOM      6  C   UNL A   1     -23.156   0.423  28.682  0.00  0.00    +0.132 C 
ENDROOT
BRANCH   1   7
ATOM      7  C   UNL A   1     -25.688   1.614  26.461  0.00  0.00    +0.090 C 
ATOM      8  C   UNL A   1     -26.250   2.920  26.395  0.00  0.00    +0.090 C 
ATOM      9  C   UNL A   1     -27.438   3.091  25.645  0.00  0.00    +0.108 C 
ATOM     10  N   UNL A   1     -28.075   2.089  25.003  0.00  0.00    -0.208 NA
ATOM     11  C   UNL A   1     -27.543   0.849  25.079  0.00  0.00    +0.255 C 
ATOM     12  C   UNL A   1     -26.354   0.576  25.777  0.00  0.00    +0.206 C 
ATOM     13  F   UNL A   1     -25.860  -0.681  25.795  0.00  0.00    -0.198 F 
BRANCH   8  14
ATOM     14  C   UNL A   1     -25.642   4.093  27.123  0.00  0.00    +0.268 C 
ATOM     15  N   UNL A   1     -25.614   5.252  26.449  0.00  0.00    -0.200 NA
ATOM     16  C   UNL A   1     -25.026   6.479  26.963  0.00  0.00    +0.139 C 
ATOM     17  O   UNL A   1     -25.143   3.966  28.243  0.00  0.00    -0.268 OA
ENDBRANCH   8  14
BRANCH  11  18
ATOM     18  O   UNL A   1     -28.193  -0.208  24.477  0.00  0.00    -0.456 OA
BRANCH  18  19
ATOM     19  C   UNL A   1     -29.460   0.005  23.866  0.00  0.00    +0.243 C 
BRANCH  19  20
ATOM     20  C   UNL A   1     -30.065  -1.377  23.573  0.00  0.00    +0.229 C 
ATOM     21  O   UNL A   1     -30.729  -1.878  24.721  0.00  0.00    -0.216 OA
ENDBRANCH  19  20
ENDBRANCH  18  19
ENDBRANCH  11  18
ENDBRANCH   1   7
BRANCH   3  22
ATOM     22  C   UNL A   1     -21.274   1.107  27.472  0.00  0.00    +0.202 C 
ATOM     23  F   UNL A   1     -20.970   1.769  26.376  0.00  0.00    -0.234 F 
ENDBRANCH   3  22
BRANCH   2  24
ATOM     24  C   UNL A   1     -25.587  -0.162  29.059  0.00  0.00    +0.116 C 
BRANCH  24  25
ATOM     25  C   UNL A   1     -24.855  -1.012  30.143  0.00  0.00    +0.060 C 
BRANCH  25  26
ATOM     26  C   UNL A   1     -24.973  -2.505  29.788  0.00  0.00    -0.019 C 
ATOM     27  C   UNL A   1     -23.906  -3.173  29.146  0.00  0.00    -0.004 C 
ATOM     28  C   UNL A   1     -23.989  -4.549  28.853  0.00  0.00    -0.000 C 
ATOM     29  C   UNL A   1     -25.137  -5.280  29.205  0.00  0.00    -0.000 C 
ATOM     30  C   UNL A   1     -26.232  -4.611  29.784  0.00  0.00    -0.000 C 
ATOM     31  C   UNL A   1     -26.155  -3.232  30.065  0.00  0.00    -0.004 C 
ENDBRANCH  25  26
BRANCH  25  32
ATOM     32  C   UNL A   1     -25.387  -0.679  31.571  0.00  0.00    +0.079 C 
ATOM     33  C   UNL A   1     -25.189   0.773  32.028  0.00  0.00    +0.019 C 
ATOM     34  C   UNL A   1     -25.336   0.684  33.544  0.00  0.00    +0.020 C 
ATOM     35  C   UNL A   1     -24.829  -0.715  33.905  0.00  0.00    +0.089 C 
ATOM     36  N   UNL A   1     -24.758  -1.481  32.646  0.00  0.00    -0.219 NA
ENDBRANCH  25  32
ENDBRANCH  24  25
BRANCH  24  37
ATOM     37  N   UNL A   1     -27.130   0.086  28.920  0.00  0.00    -0.213 NA
BRANCH  37  38
ATOM     38  C   UNL A   1     -28.367   0.863  29.269  0.00  0.00    +0.089 C 
BRANCH  38  39
ATOM     39  C   UNL A   1     -29.101   2.125  29.646  0.00  0.00    +0.020 C 
BRANCH  39  40
ATOM     40  C   UNL A   1     -28.288   3.404  29.667  0.00  0.00    +0.002 C 
ATOM     41  C   UNL A   1     -28.646   4.160  31.004  0.00  0.00    +0.000 C 
ENDBRANCH  39  40
BRANCH  39  42
ATOM     42  C   UNL A   1     -29.588   1.687  31.014  0.00  0.00    +0.034 C 
BRANCH  42  43
ATOM     43  C   UNL A   1     -28.573   1.905  32.147  0.00  0.00    +0.142 C 
BRANCH  43  45
ATOM     44  C   UNL A   1     -27.225   3.801  33.317  0.00  0.00    +0.174 C 
ATOM     45  O   UNL A   1     -28.013   3.272  32.123  0.00  0.00    -0.351 OA
ENDBRANCH  43  45
ENDBRANCH  42  43
ENDBRANCH  39  42
ENDBRANCH  38  39
ENDBRANCH  37  38
ENDBRANCH  24  37
ENDBRANCH   2  24
TORSDOF 17
