REMARK  Name = outputs/IAG933/test6/raw/output_9133_IAG933_linker_design_.xyz
REMARK  11 active torsions:
REMARK  status: ('A' for Active; 'I' for Inactive)
REMARK    1  A    between atoms: C_1  and  C_2
REMARK    2  A    between atoms: C_1  and  C_8
REMARK    3  A    between atoms: C_9  and  C_30
REMARK    4  A    between atoms: C_13  and  C_32
REMARK    5  A    between atoms: C_14  and  C_15
REMARK    6  A    between atoms: C_21  and  O_22
REMARK    7  A    between atoms: O_22  and  C_23
REMARK    8  A    between atoms: C_23  and  C_24
REMARK    9  A    between atoms: C_28  and  C_30
REMARK   10  A    between atoms: C_30  and  C_34
REMARK   11  A    between atoms: C_34  and  C_38
REMARK                            x       y       z     vdW  Elec       q    Type
REMARK                         _______ _______ _______ _____ _____    ______ ____
ROOT
ATOM      1  C   UNL A   1     -21.903   1.314  28.291  0.00  0.00    -0.000 C 
ATOM      2  C   UNL A   1     -24.353   1.528  27.055  0.00  0.00    +0.001 C 
ATOM      3  C   UNL A   1     -21.964   1.485  26.913  0.00  0.00    -0.000 C 
ATOM      4  C   UNL A   1     -23.052   1.298  29.094  0.00  0.00    -0.002 C 
ATOM      5  C   UNL A   1     -24.362   1.436  28.605  0.00  0.00    +0.008 C 
ATOM      6  C   UNL A   1     -23.197   1.549  26.266  0.00  0.00    -0.000 C 
ENDROOT
BRANCH   2   7
ATOM      7  C   UNL A   1     -25.688   1.614  26.461  0.00  0.00    +0.038 C 
ATOM      8  C   UNL A   1     -26.250   2.920  26.395  0.00  0.00    +0.076 C 
ATOM      9  C   UNL A   1     -27.438   3.091  25.645  0.00  0.00    +0.107 C 
ATOM     10  N   UNL A   1     -28.075   2.089  25.003  0.00  0.00    -0.208 NA
ATOM     11  C   UNL A   1     -27.543   0.849  25.079  0.00  0.00    +0.253 C 
ATOM     12  C   UNL A   1     -26.354   0.576  25.777  0.00  0.00    +0.193 C 
ATOM     13  F   UNL A   1     -25.860  -0.681  25.795  0.00  0.00    -0.199 F 
BRANCH   8  14
ATOM     14  C   UNL A   1     -25.642   4.093  27.123  0.00  0.00    +0.266 C 
ATOM     15  N   UNL A   1     -25.614   5.252  26.449  0.00  0.00    -0.200 NA
ATOM     16  C   UNL A   1     -25.026   6.479  26.963  0.00  0.00    +0.139 C 
ATOM     17  O   UNL A   1     -25.143   3.966  28.243  0.00  0.00    -0.268 OA
ENDBRANCH   8  14
BRANCH  11  18
ATOM     18  O   UNL A   1     -28.193  -0.208  24.477  0.00  0.00    -0.456 OA
BRANCH  18  19
ATOM     19  C   UNL A   1     -29.460   0.005  23.866  0.00  0.00    +0.243 C 
BRANCH  19  20
ATOM     20  C   UNL A   1     -30.065  -1.377  23.573  0.00  0.00    +0.229 C 
ATOM     21  O   UNL A   1     -30.729  -1.878  24.721  0.00  0.00    -0.216 OA
ENDBRANCH  19  20
ENDBRANCH  18  19
ENDBRANCH  11  18
ENDBRANCH   2   7
BRANCH   5  22
ATOM     22  C   UNL A   1     -25.592   1.788  29.708  0.00  0.00    +0.183 C 
ATOM     23  O   UNL A   1     -26.816   1.179  29.193  0.00  0.00    -0.218 OA
BRANCH  22  24
ATOM     24  C   UNL A   1     -25.933   2.016  31.386  0.00  0.00    +0.116 C 
BRANCH  24  26
ATOM     25  C   UNL A   1     -25.387  -0.679  31.571  0.00  0.00    +0.078 C 
ATOM     26  C   UNL A   1     -25.189   0.773  32.028  0.00  0.00    +0.029 C 
ATOM     27  C   UNL A   1     -25.336   0.684  33.544  0.00  0.00    +0.021 C 
ATOM     28  C   UNL A   1     -24.829  -0.715  33.905  0.00  0.00    +0.089 C 
ATOM     29  N   UNL A   1     -24.758  -1.481  32.646  0.00  0.00    -0.219 NA
BRANCH  25  30
ATOM     30  C   UNL A   1     -24.855  -1.012  30.143  0.00  0.00    +0.044 C 
BRANCH  30  31
ATOM     31  C   UNL A   1     -24.973  -2.505  29.788  0.00  0.00    -0.021 C 
ATOM     32  C   UNL A   1     -23.906  -3.173  29.146  0.00  0.00    -0.004 C 
ATOM     33  C   UNL A   1     -23.989  -4.549  28.853  0.00  0.00    -0.000 C 
ATOM     34  C   UNL A   1     -25.137  -5.280  29.205  0.00  0.00    -0.000 C 
ATOM     35  C   UNL A   1     -26.232  -4.611  29.784  0.00  0.00    -0.000 C 
ATOM     36  C   UNL A   1     -26.155  -3.232  30.065  0.00  0.00    -0.004 C 
ENDBRANCH  30  31
ENDBRANCH  25  30
ENDBRANCH  24  26
BRANCH  24  37
ATOM     37  C   UNL A   1     -25.430   3.415  31.770  0.00  0.00    +0.263 C 
ATOM     38  O   UNL A   1     -24.206   3.536  31.916  0.00  0.00    -0.272 OA
ATOM     39  N   UNL A   1     -26.173   4.493  31.935  0.00  0.00    -0.088 NA
ENDBRANCH  24  37
ENDBRANCH  22  24
ENDBRANCH   5  22
TORSDOF 11
