MODEL 913
MODEL 1
REMARK VINA RESULT:    -4.934      0.000      0.000
REMARK INTER + INTRA:          -3.977
REMARK INTER:                  -5.511
REMARK INTRA:                   1.534
REMARK UNBOUND:                 1.534
REMARK  Name = No_913-gen_results/8p0m/2024-11-27-11-27-31/
REMARK  2 active torsions:
REMARK  status: ('A' for Active; 'I' for Inactive)
REMARK    1  A    between atoms: C_4  and  C_7
REMARK    2  A    between atoms: C_4  and  O_11
REMARK                            x       y       z     vdW  Elec       q    Type
REMARK                         _______ _______ _______ _____ _____    ______ ____
ROOT
ATOM      1  C   UNL A   1     -24.214  -4.710  28.840  0.00  0.00    +0.002 C 
ATOM      2  C   UNL A   1     -25.136  -5.001  29.258  0.00  0.00    +0.000 C 
ATOM      3  C   UNL A   1     -24.032  -3.273  28.579  0.00  0.00    +0.028 C 
ATOM      4  C   UNL A   1     -25.010  -2.329  29.010  0.00  0.00    +0.105 C 
ATOM      5  C   UNL A   1     -26.135  -2.854  29.595  0.00  0.00    +0.028 C 
ATOM      6  C   UNL A   1     -26.260  -4.184  29.787  0.00  0.00    +0.002 C 
ENDROOT
BRANCH   4   7
ATOM      7  C   UNL A   1     -24.842  -0.918  28.780  0.00  0.00    +0.090 C 
ATOM      8 CL   UNL A   1     -25.437  -0.015  29.655  0.00  0.00    -0.114 Cl
ATOM      9  C   UNL A   1     -25.239  -0.531  27.336  0.00  0.00    +0.019 C 
ATOM     10  C   UNL A   1     -23.236  -0.602  28.603  0.00  0.00    +0.019 C 
ENDBRANCH   4   7
BRANCH   4  11
ATOM     11  O   UNL A   1     -24.680  -1.860  29.881  0.00  0.00    -0.355 OA
ATOM     12  C   UNL A   1     -24.227  -1.903  31.025  0.00  0.00    +0.174 C 
ENDBRANCH   4  11
TORSDOF 2
ENDMDL
ENDMDL
