REMARK  Name = outputs/IAG933/test6/raw/output_9140_IAG933_linker_design_.xyz
REMARK  10 active torsions:
REMARK  status: ('A' for Active; 'I' for Inactive)
REMARK    1  A    between atoms: C_1  and  C_2
REMARK    2  A    between atoms: C_13  and  C_40
REMARK    3  A    between atoms: C_14  and  C_15
REMARK    4  A    between atoms: C_21  and  O_22
REMARK    5  A    between atoms: O_22  and  C_23
REMARK    6  A    between atoms: C_23  and  C_24
REMARK    7  A    between atoms: C_30  and  C_37
REMARK    8  A    between atoms: C_30  and  C_41
REMARK    9  A    between atoms: C_31  and  C_37
REMARK   10  A    between atoms: C_36  and  C_42
REMARK                            x       y       z     vdW  Elec       q    Type
REMARK                         _______ _______ _______ _____ _____    ______ ____
ROOT
ATOM      1  C   UNL A   1     -24.855  -1.012  30.143  0.00  0.00    +0.040 C 
ATOM      2  C   UNL A   1     -25.387  -0.679  31.571  0.00  0.00    +0.078 C 
ATOM      3  C   UNL A   1     -25.189   0.773  32.028  0.00  0.00    +0.034 C 
ATOM      4  C   UNL A   1     -25.336   0.684  33.544  0.00  0.00    +0.022 C 
ATOM      5  C   UNL A   1     -24.829  -0.715  33.905  0.00  0.00    +0.089 C 
ATOM      6  N   UNL A   1     -24.758  -1.481  32.646  0.00  0.00    -0.219 NA
ATOM      7  N   UNL A   1     -24.348   1.807  29.894  0.00  0.00    -0.216 NA
ATOM      8  C   UNL A   1     -24.223   1.704  31.318  0.00  0.00    +0.075 C 
ATOM      9  C   UNL A   1     -25.281  -0.198  28.961  0.00  0.00    +0.028 C 
ATOM     10  C   UNL A   1     -24.002   0.660  29.057  0.00  0.00    +0.098 C 
ENDROOT
BRANCH   1  11
ATOM     11  C   UNL A   1     -24.973  -2.505  29.788  0.00  0.00    -0.021 C 
ATOM     12  C   UNL A   1     -23.906  -3.173  29.146  0.00  0.00    -0.004 C 
ATOM     13  C   UNL A   1     -23.989  -4.549  28.853  0.00  0.00    -0.000 C 
ATOM     14  C   UNL A   1     -25.137  -5.280  29.205  0.00  0.00    -0.000 C 
ATOM     15  C   UNL A   1     -26.232  -4.611  29.784  0.00  0.00    -0.000 C 
ATOM     16  C   UNL A   1     -26.155  -3.232  30.065  0.00  0.00    -0.004 C 
ENDBRANCH   1  11
BRANCH  10  19
ATOM     17  C   UNL A   1     -23.387   1.862  25.628  0.00  0.00    +0.175 C 
ATOM     18  C   UNL A   1     -22.075   1.401  27.397  0.00  0.00    +0.176 C 
ATOM     19  C   UNL A   1     -23.441   1.198  27.779  0.00  0.00    +0.031 C 
ATOM     20  O   UNL A   1     -22.142   1.816  26.049  0.00  0.00    -0.448 OA
ATOM     21  C   UNL A   1     -24.220   1.500  26.686  0.00  0.00    +0.023 C 
BRANCH  21  22
ATOM     22  C   UNL A   1     -25.688   1.614  26.461  0.00  0.00    +0.095 C 
ATOM     23  C   UNL A   1     -26.250   2.920  26.395  0.00  0.00    +0.059 C 
ATOM     24  C   UNL A   1     -27.438   3.091  25.645  0.00  0.00    +0.102 C 
ATOM     25  N   UNL A   1     -28.075   2.089  25.003  0.00  0.00    -0.212 NA
ATOM     26  C   UNL A   1     -27.543   0.849  25.079  0.00  0.00    +0.234 C 
ATOM     27  C   UNL A   1     -26.354   0.576  25.777  0.00  0.00    +0.244 C 
ATOM     28  F   UNL A   1     -25.860  -0.681  25.795  0.00  0.00    -0.227 F 
BRANCH  23  29
ATOM     29  C   UNL A   1     -25.642   4.093  27.123  0.00  0.00    +0.263 C 
ATOM     30  N   UNL A   1     -25.614   5.252  26.449  0.00  0.00    -0.200 NA
ATOM     31  C   UNL A   1     -25.026   6.479  26.963  0.00  0.00    +0.139 C 
ATOM     32  O   UNL A   1     -25.143   3.966  28.243  0.00  0.00    -0.269 OA
ENDBRANCH  23  29
BRANCH  26  33
ATOM     33  O   UNL A   1     -28.193  -0.208  24.477  0.00  0.00    -0.459 OA
BRANCH  33  34
ATOM     34  C   UNL A   1     -29.460   0.005  23.866  0.00  0.00    +0.242 C 
BRANCH  34  35
ATOM     35  C   UNL A   1     -30.065  -1.377  23.573  0.00  0.00    +0.229 C 
ATOM     36  O   UNL A   1     -30.729  -1.878  24.721  0.00  0.00    -0.216 OA
ENDBRANCH  34  35
ENDBRANCH  33  34
ENDBRANCH  26  33
ENDBRANCH  21  22
ENDBRANCH  10  19
BRANCH   8  37
ATOM     37  C   UNL A   1     -24.400   3.159  31.668  0.00  0.00    +0.027 C 
BRANCH  37  38
ATOM     38  C   UNL A   1     -25.523   3.751  32.191  0.00  0.00    +0.088 C 
BRANCH  38  42
ATOM     39  C   UNL A   1     -24.193   7.158  32.769  0.00  0.00    +0.139 C 
ATOM     40  N   UNL A   1     -24.902   5.839  33.005  0.00  0.00    -0.203 NA
ATOM     41  O   UNL A   1     -24.895   5.544  30.739  0.00  0.00    -0.273 OA
ATOM     42  C   UNL A   1     -25.129   5.150  31.860  0.00  0.00    +0.241 C 
ENDBRANCH  38  42
ENDBRANCH  37  38
ENDBRANCH   8  37
TORSDOF 10
