REMARK  Name = outputs/IAG933/test6/raw/output_9146_IAG933_linker_design_.xyz
REMARK  13 active torsions:
REMARK  status: ('A' for Active; 'I' for Inactive)
REMARK    1  A    between atoms: C_1  and  C_2
REMARK    2  A    between atoms: C_1  and  C_8
REMARK    3  A    between atoms: C_1  and  C_40
REMARK    4  A    between atoms: C_13  and  C_33
REMARK    5  A    between atoms: C_14  and  C_15
REMARK    6  A    between atoms: C_21  and  O_22
REMARK    7  A    between atoms: O_22  and  C_23
REMARK    8  A    between atoms: C_23  and  C_24
REMARK    9  A    between atoms: C_28  and  C_33
REMARK   10  A    between atoms: C_28  and  C_39
REMARK   11  A    between atoms: C_30  and  C_40
REMARK   12  A    between atoms: C_33  and  N_35
REMARK   13  A    between atoms: N_35  and  C_40
REMARK                            x       y       z     vdW  Elec       q    Type
REMARK                         _______ _______ _______ _____ _____    ______ ____
ROOT
ATOM      1  N   UNL A   1     -25.294   0.994  28.802  0.00  0.00    -0.214 NA
ENDROOT
BRANCH   1   2
ATOM      2  C   UNL A   1     -24.780   1.334  27.543  0.00  0.00    +0.089 C 
BRANCH   2   3
ATOM      3  C   UNL A   1     -25.688   1.614  26.461  0.00  0.00    +0.087 C 
ATOM      4  C   UNL A   1     -26.250   2.920  26.395  0.00  0.00    +0.056 C 
ATOM      5  C   UNL A   1     -27.438   3.091  25.645  0.00  0.00    +0.102 C 
ATOM      6  N   UNL A   1     -28.075   2.089  25.003  0.00  0.00    -0.212 NA
ATOM      7  C   UNL A   1     -27.543   0.849  25.079  0.00  0.00    +0.234 C 
ATOM      8  C   UNL A   1     -26.354   0.576  25.777  0.00  0.00    +0.241 C 
ATOM      9  F   UNL A   1     -25.860  -0.681  25.795  0.00  0.00    -0.227 F 
BRANCH   4  10
ATOM     10  C   UNL A   1     -25.642   4.093  27.123  0.00  0.00    +0.263 C 
ATOM     11  N   UNL A   1     -25.614   5.252  26.449  0.00  0.00    -0.200 NA
ATOM     12  C   UNL A   1     -25.026   6.479  26.963  0.00  0.00    +0.139 C 
ATOM     13  O   UNL A   1     -25.143   3.966  28.243  0.00  0.00    -0.269 OA
ENDBRANCH   4  10
BRANCH   7  14
ATOM     14  O   UNL A   1     -28.193  -0.208  24.477  0.00  0.00    -0.459 OA
BRANCH  14  15
ATOM     15  C   UNL A   1     -29.460   0.005  23.866  0.00  0.00    +0.242 C 
BRANCH  15  16
ATOM     16  C   UNL A   1     -30.065  -1.377  23.573  0.00  0.00    +0.229 C 
ATOM     17  O   UNL A   1     -30.729  -1.878  24.721  0.00  0.00    -0.216 OA
ENDBRANCH  15  16
ENDBRANCH  14  15
ENDBRANCH   7  14
ENDBRANCH   2   3
BRANCH   2  18
ATOM     18  C   UNL A   1     -23.551   0.856  27.119  0.00  0.00    +0.099 C 
BRANCH  18  21
ATOM     19  O   UNL A   1     -22.264   0.428  28.971  0.00  0.00    -0.279 OA
ATOM     20 CL   UNL A   1     -21.181   1.677  26.943  0.00  0.00    -0.043 Cl
ATOM     21  C   UNL A   1     -22.393   0.902  27.812  0.00  0.00    +0.232 C 
ENDBRANCH  18  21
ENDBRANCH   2  18
ENDBRANCH   1   2
BRANCH   1  22
ATOM     22  C   UNL A   1     -25.712  -0.208  29.224  0.00  0.00    +0.118 C 
BRANCH  22  24
ATOM     23  C   UNL A   1     -29.871  -0.531  29.375  0.00  0.00    +0.015 C 
ATOM     24  C   UNL A   1     -27.222  -0.514  28.934  0.00  0.00    +0.075 C 
ATOM     25  C   UNL A   1     -29.277  -1.705  28.958  0.00  0.00    +0.003 C 
ATOM     26  N   UNL A   1     -27.851   0.660  29.043  0.00  0.00    -0.253 NA
ATOM     27  C   UNL A   1     -27.954  -1.720  28.647  0.00  0.00    +0.016 C 
ATOM     28  C   UNL A   1     -29.838   1.906  29.449  0.00  0.00    +0.052 C 
ATOM     29  C   UNL A   1     -29.164   0.652  29.313  0.00  0.00    +0.059 C 
ENDBRANCH  22  24
BRANCH  22  30
ATOM     30  C   UNL A   1     -24.855  -1.012  30.143  0.00  0.00    +0.060 C 
BRANCH  30  31
ATOM     31  C   UNL A   1     -24.973  -2.505  29.788  0.00  0.00    -0.019 C 
ATOM     32  C   UNL A   1     -23.906  -3.173  29.146  0.00  0.00    -0.004 C 
ATOM     33  C   UNL A   1     -23.989  -4.549  28.853  0.00  0.00    -0.000 C 
ATOM     34  C   UNL A   1     -25.137  -5.280  29.205  0.00  0.00    -0.000 C 
ATOM     35  C   UNL A   1     -26.232  -4.611  29.784  0.00  0.00    -0.000 C 
ATOM     36  C   UNL A   1     -26.155  -3.232  30.065  0.00  0.00    -0.004 C 
ENDBRANCH  30  31
BRANCH  30  37
ATOM     37  C   UNL A   1     -25.387  -0.679  31.571  0.00  0.00    +0.079 C 
ATOM     38  C   UNL A   1     -25.189   0.773  32.028  0.00  0.00    +0.019 C 
ATOM     39  C   UNL A   1     -25.336   0.684  33.544  0.00  0.00    +0.020 C 
ATOM     40  C   UNL A   1     -24.829  -0.715  33.905  0.00  0.00    +0.089 C 
ATOM     41  N   UNL A   1     -24.758  -1.481  32.646  0.00  0.00    -0.219 NA
ENDBRANCH  30  37
ENDBRANCH  22  30
ENDBRANCH   1  22
TORSDOF 13
