REMARK  Name = outputs/IAG933/test6/raw/output_915_IAG933_linker_design_.xyz
REMARK  10 active torsions:
REMARK  status: ('A' for Active; 'I' for Inactive)
REMARK    1  A    between atoms: C_1  and  C_2
REMARK    2  A    between atoms: C_1  and  C_8
REMARK    3  A    between atoms: C_1  and  C_30
REMARK    4  A    between atoms: C_13  and  C_38
REMARK    5  A    between atoms: C_14  and  C_15
REMARK    6  A    between atoms: C_21  and  O_22
REMARK    7  A    between atoms: O_22  and  C_23
REMARK    8  A    between atoms: C_23  and  C_24
REMARK    9  A    between atoms: C_30  and  C_43
REMARK   10  A    between atoms: C_43  and  C_44
REMARK                            x       y       z     vdW  Elec       q    Type
REMARK                         _______ _______ _______ _____ _____    ______ ____
ROOT
ATOM      1  C   UNL A   1     -22.873   0.580  28.309  0.00  0.00    +0.196 C 
ATOM      2  C   UNL A   1     -25.172   0.027  29.060  0.00  0.00    -0.036 C 
ATOM      3  C   UNL A   1     -20.858   1.226  26.422  0.00  0.00    +0.179 C 
ATOM      4  O   UNL A   1     -22.225   0.105  29.319  0.00  0.00    -0.287 OA
ATOM      5  C   UNL A   1     -23.364   1.691  26.316  0.00  0.00    +0.143 C 
ATOM      6  C   UNL A   1     -22.356   1.249  27.066  0.00  0.00    +0.080 C 
ATOM      7  C   UNL A   1     -24.423   1.346  27.025  0.00  0.00    +0.039 C 
ATOM      8  C   UNL A   1     -24.257   0.627  28.179  0.00  0.00    +0.034 C 
ATOM      9  O   UNL A   1     -23.269   2.176  25.046  0.00  0.00    -0.448 OA
ATOM     10  O   UNL A   1     -21.026   2.093  25.418  0.00  0.00    -0.311 OA
ATOM     11  C   UNL A   1     -22.212   1.768  24.416  0.00  0.00    +0.361 C 
ENDROOT
BRANCH   7  12
ATOM     12  C   UNL A   1     -25.688   1.614  26.461  0.00  0.00    +0.041 C 
ATOM     13  C   UNL A   1     -26.250   2.920  26.395  0.00  0.00    +0.077 C 
ATOM     14  C   UNL A   1     -27.438   3.091  25.645  0.00  0.00    +0.107 C 
ATOM     15  N   UNL A   1     -28.075   2.089  25.003  0.00  0.00    -0.208 NA
ATOM     16  C   UNL A   1     -27.543   0.849  25.079  0.00  0.00    +0.253 C 
ATOM     17  C   UNL A   1     -26.354   0.576  25.777  0.00  0.00    +0.193 C 
ATOM     18  F   UNL A   1     -25.860  -0.681  25.795  0.00  0.00    -0.199 F 
BRANCH  13  19
ATOM     19  C   UNL A   1     -25.642   4.093  27.123  0.00  0.00    +0.266 C 
ATOM     20  N   UNL A   1     -25.614   5.252  26.449  0.00  0.00    -0.200 NA
ATOM     21  C   UNL A   1     -25.026   6.479  26.963  0.00  0.00    +0.139 C 
ATOM     22  O   UNL A   1     -25.143   3.966  28.243  0.00  0.00    -0.268 OA
ENDBRANCH  13  19
BRANCH  16  23
ATOM     23  O   UNL A   1     -28.193  -0.208  24.477  0.00  0.00    -0.456 OA
BRANCH  23  24
ATOM     24  C   UNL A   1     -29.460   0.005  23.866  0.00  0.00    +0.243 C 
BRANCH  24  25
ATOM     25  C   UNL A   1     -30.065  -1.377  23.573  0.00  0.00    +0.229 C 
ATOM     26  O   UNL A   1     -30.729  -1.878  24.721  0.00  0.00    -0.216 OA
ENDBRANCH  24  25
ENDBRANCH  23  24
ENDBRANCH  16  23
ENDBRANCH   7  12
BRANCH   2  27
ATOM     27  C   UNL A   1     -24.855  -1.012  30.143  0.00  0.00    +0.057 C 
BRANCH  27  28
ATOM     28  C   UNL A   1     -24.973  -2.505  29.788  0.00  0.00    -0.017 C 
ATOM     29  C   UNL A   1     -23.906  -3.173  29.146  0.00  0.00    -0.004 C 
ATOM     30  C   UNL A   1     -23.989  -4.549  28.853  0.00  0.00    -0.000 C 
ATOM     31  C   UNL A   1     -25.137  -5.280  29.205  0.00  0.00    -0.000 C 
ATOM     32  C   UNL A   1     -26.232  -4.611  29.784  0.00  0.00    -0.000 C 
ATOM     33  C   UNL A   1     -26.155  -3.232  30.065  0.00  0.00    -0.004 C 
ENDBRANCH  27  28
BRANCH  27  34
ATOM     34  C   UNL A   1     -25.387  -0.679  31.571  0.00  0.00    +0.081 C 
ATOM     35  C   UNL A   1     -25.189   0.773  32.028  0.00  0.00    +0.019 C 
ATOM     36  C   UNL A   1     -25.336   0.684  33.544  0.00  0.00    +0.020 C 
ATOM     37  C   UNL A   1     -24.829  -0.715  33.905  0.00  0.00    +0.089 C 
ATOM     38  N   UNL A   1     -24.758  -1.481  32.646  0.00  0.00    -0.219 NA
ENDBRANCH  27  34
ENDBRANCH   2  27
BRANCH   2  39
ATOM     39  C   UNL A   1     -26.628   0.197  28.619  0.00  0.00    +0.022 C 
BRANCH  39  46
ATOM     40  C   UNL A   1     -27.184   2.546  29.742  0.00  0.00    +0.000 C 
ATOM     41  C   UNL A   1     -29.586   2.609  29.254  0.00  0.00    +0.000 C 
ATOM     42  C   UNL A   1     -28.538   3.107  30.305  0.00  0.00    +0.000 C 
ATOM     43  C   UNL A   1     -29.710   0.683  27.491  0.00  0.00    +0.000 C 
ATOM     44  C   UNL A   1     -29.591   0.148  29.825  0.00  0.00    +0.000 C 
ATOM     45  C   UNL A   1     -29.081   1.185  28.815  0.00  0.00    +0.000 C 
ATOM     46  C   UNL A   1     -27.603   1.459  28.677  0.00  0.00    +0.004 C 
ENDBRANCH  39  46
ENDBRANCH   2  39
TORSDOF 10
