REMARK  Name = outputs/IAG933/test6/raw/output_9151_IAG933_linker_design_.xyz
REMARK  8 active torsions:
REMARK  status: ('A' for Active; 'I' for Inactive)
REMARK    1  A    between atoms: C_1  and  C_2
REMARK    2  A    between atoms: C_1  and  C_8
REMARK    3  A    between atoms: C_1  and  N_35
REMARK    4  A    between atoms: C_13  and  C_36
REMARK    5  A    between atoms: C_14  and  C_15
REMARK    6  A    between atoms: C_21  and  O_22
REMARK    7  A    between atoms: O_22  and  C_23
REMARK    8  A    between atoms: C_23  and  C_24
REMARK                            x       y       z     vdW  Elec       q    Type
REMARK                         _______ _______ _______ _____ _____    ______ ____
ROOT
ATOM      1  C   UNL A   1     -25.141   0.274  28.213  0.00  0.00    +0.322 C 
ATOM      2  O   UNL A   1     -21.571   2.207  26.049  0.00  0.00    -0.244 OA
ATOM      3  N   UNL A   1     -22.649   0.606  30.358  0.00  0.00    +0.197 NA
ATOM      4  O   UNL A   1     -23.520   2.034  24.734  0.00  0.00    -0.241 OA
ATOM      5  O   UNL A   1     -21.317   1.814  27.503  0.00  0.00    -0.276 OA
ATOM      6  O   UNL A   1     -26.322  -0.261  28.064  0.00  0.00    -0.246 OA
ATOM      7  C   UNL A   1     -22.564   1.284  28.034  0.00  0.00    +0.285 A 
ATOM      8  N   UNL A   1     -24.329  -0.017  29.212  0.00  0.00    -0.133 N 
ATOM      9  C   UNL A   1     -24.724   1.115  27.342  0.00  0.00    +0.159 C 
ATOM     10  C   UNL A   1     -23.113   0.631  29.214  0.00  0.00    +0.421 C 
ATOM     11  C   UNL A   1     -23.481   1.471  27.028  0.00  0.00    +0.119 A 
ATOM     12  C   UNL A   1     -22.908   1.899  25.787  0.00  0.00    +0.388 A 
ENDROOT
BRANCH   9  13
ATOM     13  C   UNL A   1     -25.688   1.614  26.461  0.00  0.00    +0.031 C 
ATOM     14  C   UNL A   1     -26.250   2.920  26.395  0.00  0.00    +0.073 C 
ATOM     15  C   UNL A   1     -27.438   3.091  25.645  0.00  0.00    +0.106 C 
ATOM     16  N   UNL A   1     -28.075   2.089  25.003  0.00  0.00    -0.208 NA
ATOM     17  C   UNL A   1     -27.543   0.849  25.079  0.00  0.00    +0.253 C 
ATOM     18  C   UNL A   1     -26.354   0.576  25.777  0.00  0.00    +0.190 C 
ATOM     19  F   UNL A   1     -25.860  -0.681  25.795  0.00  0.00    -0.200 F 
BRANCH  14  20
ATOM     20  C   UNL A   1     -25.642   4.093  27.123  0.00  0.00    +0.266 C 
ATOM     21  N   UNL A   1     -25.614   5.252  26.449  0.00  0.00    -0.200 NA
ATOM     22  C   UNL A   1     -25.026   6.479  26.963  0.00  0.00    +0.139 C 
ATOM     23  O   UNL A   1     -25.143   3.966  28.243  0.00  0.00    -0.268 OA
ENDBRANCH  14  20
BRANCH  17  24
ATOM     24  O   UNL A   1     -28.193  -0.208  24.477  0.00  0.00    -0.456 OA
BRANCH  24  25
ATOM     25  C   UNL A   1     -29.460   0.005  23.866  0.00  0.00    +0.243 C 
BRANCH  25  26
ATOM     26  C   UNL A   1     -30.065  -1.377  23.573  0.00  0.00    +0.229 C 
ATOM     27  O   UNL A   1     -30.729  -1.878  24.721  0.00  0.00    -0.216 OA
ENDBRANCH  25  26
ENDBRANCH  24  25
ENDBRANCH  17  24
ENDBRANCH   9  13
BRANCH   8  28
ATOM     28  C   UNL A   1     -24.855  -1.012  30.143  0.00  0.00    +0.206 C 
BRANCH  28  29
ATOM     29  C   UNL A   1     -24.973  -2.505  29.788  0.00  0.00    +0.022 C 
ATOM     30  C   UNL A   1     -23.906  -3.173  29.146  0.00  0.00    -0.000 C 
ATOM     31  C   UNL A   1     -23.989  -4.549  28.853  0.00  0.00    -0.000 C 
ATOM     32  C   UNL A   1     -25.137  -5.280  29.205  0.00  0.00    -0.000 C 
ATOM     33  C   UNL A   1     -26.232  -4.611  29.784  0.00  0.00    -0.000 C 
ATOM     34  C   UNL A   1     -26.155  -3.232  30.065  0.00  0.00    -0.000 C 
ENDBRANCH  28  29
BRANCH  28  35
ATOM     35  C   UNL A   1     -25.387  -0.679  31.571  0.00  0.00    +0.120 C 
ATOM     36  C   UNL A   1     -25.189   0.773  32.028  0.00  0.00    +0.023 C 
ATOM     37  C   UNL A   1     -25.336   0.684  33.544  0.00  0.00    +0.020 C 
ATOM     38  C   UNL A   1     -24.829  -0.715  33.905  0.00  0.00    +0.089 C 
ATOM     39  N   UNL A   1     -24.758  -1.481  32.646  0.00  0.00    -0.215 NA
ENDBRANCH  28  35
ENDBRANCH   8  28
TORSDOF 8
