REMARK  Name = outputs/IAG933/test6/raw/output_9152_IAG933_linker_design_.xyz
REMARK  11 active torsions:
REMARK  status: ('A' for Active; 'I' for Inactive)
REMARK    1  A    between atoms: C_1  and  C_2
REMARK    2  A    between atoms: C_1  and  C_8
REMARK    3  A    between atoms: C_13  and  C_31
REMARK    4  A    between atoms: C_14  and  C_15
REMARK    5  A    between atoms: C_21  and  O_22
REMARK    6  A    between atoms: O_22  and  C_23
REMARK    7  A    between atoms: C_23  and  C_24
REMARK    8  A    between atoms: N_28  and  C_38
REMARK    9  A    between atoms: N_28  and  C_42
REMARK   10  A    between atoms: C_33  and  C_34
REMARK   11  A    between atoms: C_42  and  N_43
REMARK                            x       y       z     vdW  Elec       q    Type
REMARK                         _______ _______ _______ _____ _____    ______ ____
ROOT
ATOM      1  C   UNL A   1     -23.360   1.574  26.615  0.00  0.00    +0.032 C 
ATOM      2  C   UNL A   1     -24.561   1.450  27.158  0.00  0.00    +0.045 C 
ATOM      3  N   UNL A   1     -22.392   0.084  29.577  0.00  0.00    -0.124 NA
ATOM      4  C   UNL A   1     -22.975   0.874  28.671  0.00  0.00    +0.135 C 
ATOM      5  O   UNL A   1     -21.495   2.162  25.420  0.00  0.00    -0.449 OA
ATOM      6  C   UNL A   1     -22.922   2.026  25.282  0.00  0.00    +0.235 C 
ATOM      7  C   UNL A   1     -24.383   1.232  28.595  0.00  0.00    +0.200 C 
ATOM      8  C   UNL A   1     -22.427   1.382  27.542  0.00  0.00    +0.083 C 
ATOM      9  F   UNL A   1     -20.197   2.241  27.336  0.00  0.00    -0.163 F 
ATOM     10  C   UNL A   1     -21.328   1.930  26.877  0.00  0.00    +0.285 C 
ENDROOT
BRANCH   2  11
ATOM     11  C   UNL A   1     -25.688   1.614  26.461  0.00  0.00    +0.041 C 
ATOM     12  C   UNL A   1     -26.250   2.920  26.395  0.00  0.00    +0.077 C 
ATOM     13  C   UNL A   1     -27.438   3.091  25.645  0.00  0.00    +0.107 C 
ATOM     14  N   UNL A   1     -28.075   2.089  25.003  0.00  0.00    -0.208 NA
ATOM     15  C   UNL A   1     -27.543   0.849  25.079  0.00  0.00    +0.253 C 
ATOM     16  C   UNL A   1     -26.354   0.576  25.777  0.00  0.00    +0.193 C 
ATOM     17  F   UNL A   1     -25.860  -0.681  25.795  0.00  0.00    -0.199 F 
BRANCH  12  18
ATOM     18  C   UNL A   1     -25.642   4.093  27.123  0.00  0.00    +0.266 C 
ATOM     19  N   UNL A   1     -25.614   5.252  26.449  0.00  0.00    -0.200 NA
ATOM     20  C   UNL A   1     -25.026   6.479  26.963  0.00  0.00    +0.139 C 
ATOM     21  O   UNL A   1     -25.143   3.966  28.243  0.00  0.00    -0.268 OA
ENDBRANCH  12  18
BRANCH  15  22
ATOM     22  O   UNL A   1     -28.193  -0.208  24.477  0.00  0.00    -0.456 OA
BRANCH  22  23
ATOM     23  C   UNL A   1     -29.460   0.005  23.866  0.00  0.00    +0.243 C 
BRANCH  23  24
ATOM     24  C   UNL A   1     -30.065  -1.377  23.573  0.00  0.00    +0.229 C 
ATOM     25  O   UNL A   1     -30.729  -1.878  24.721  0.00  0.00    -0.216 OA
ENDBRANCH  23  24
ENDBRANCH  22  23
ENDBRANCH  15  22
ENDBRANCH   2  11
BRANCH   7  26
ATOM     26  N   UNL A   1     -25.198   1.405  29.646  0.00  0.00    -0.006 NA
BRANCH  26  32
ATOM     27  C   UNL A   1     -25.387  -0.679  31.571  0.00  0.00    +0.102 C 
ATOM     28  C   UNL A   1     -25.189   0.773  32.028  0.00  0.00    +0.057 C 
ATOM     29  C   UNL A   1     -25.336   0.684  33.544  0.00  0.00    +0.050 C 
ATOM     30  C   UNL A   1     -24.829  -0.715  33.905  0.00  0.00    +0.094 C 
ATOM     31  N   UNL A   1     -24.758  -1.481  32.646  0.00  0.00    -0.214 NA
ATOM     32  C   UNL A   1     -25.073   1.887  31.055  0.00  0.00    +0.353 C 
BRANCH  32  34
ATOM     33  C   UNL A   1     -25.612   3.989  32.482  0.00  0.00    +0.371 C 
ATOM     34  N   UNL A   1     -25.149   3.237  31.479  0.00  0.00    +0.031 NA
ATOM     35  O   UNL A   1     -25.387   3.741  33.658  0.00  0.00    -0.241 OA
BRANCH  33  37
ATOM     36  N   UNL A   1     -27.654   4.909  31.338  0.00  0.00    -0.118 NA
ATOM     37  C   UNL A   1     -26.358   5.221  32.034  0.00  0.00    +0.225 C 
ENDBRANCH  33  37
ENDBRANCH  32  34
BRANCH  27  38
ATOM     38  C   UNL A   1     -24.855  -1.012  30.143  0.00  0.00    +0.048 C 
BRANCH  38  39
ATOM     39  C   UNL A   1     -24.973  -2.505  29.788  0.00  0.00    -0.021 C 
ATOM     40  C   UNL A   1     -23.906  -3.173  29.146  0.00  0.00    -0.004 C 
ATOM     41  C   UNL A   1     -23.989  -4.549  28.853  0.00  0.00    -0.000 C 
ATOM     42  C   UNL A   1     -25.137  -5.280  29.205  0.00  0.00    -0.000 C 
ATOM     43  C   UNL A   1     -26.232  -4.611  29.784  0.00  0.00    -0.000 C 
ATOM     44  C   UNL A   1     -26.155  -3.232  30.065  0.00  0.00    -0.004 C 
ENDBRANCH  38  39
ENDBRANCH  27  38
ENDBRANCH  26  32
ENDBRANCH   7  26
TORSDOF 11
