REMARK  Name = outputs/IAG933/test6/raw/output_9153_IAG933_linker_design_.xyz
REMARK  13 active torsions:
REMARK  status: ('A' for Active; 'I' for Inactive)
REMARK    1  A    between atoms: C_1  and  C_2
REMARK    2  A    between atoms: C_1  and  C_8
REMARK    3  A    between atoms: C_1  and  N_43
REMARK    4  A    between atoms: C_13  and  C_38
REMARK    5  A    between atoms: C_14  and  C_15
REMARK    6  A    between atoms: C_21  and  O_22
REMARK    7  A    between atoms: O_22  and  C_23
REMARK    8  A    between atoms: C_23  and  C_24
REMARK    9  A    between atoms: C_28  and  N_43
REMARK   10  A    between atoms: O_31  and  C_45
REMARK   11  A    between atoms: C_32  and  C_42
REMARK   12  A    between atoms: C_32  and  N_43
REMARK   13  A    between atoms: O_36  and  C_39
REMARK                            x       y       z     vdW  Elec       q    Type
REMARK                         _______ _______ _______ _____ _____    ______ ____
ROOT
ATOM      1  C   UNL A   1     -24.343   0.530  28.281  0.00  0.00    +0.047 C 
ATOM      2  N   UNL A   1     -22.320  -0.614  29.437  0.00  0.00    -0.129 NA
ATOM      3  C   UNL A   1     -22.191   2.219  27.244  0.00  0.00    +0.075 C 
ATOM      4  C   UNL A   1     -22.004   1.083  27.914  0.00  0.00    +0.203 C 
ATOM      5  C   UNL A   1     -24.509   1.381  27.136  0.00  0.00    +0.092 C 
ATOM      6  C   UNL A   1     -22.942   0.313  28.559  0.00  0.00    +0.109 C 
ATOM      7  C   UNL A   1     -23.374   2.132  26.563  0.00  0.00    +0.168 C 
ATOM      8  F   UNL A   1     -20.700   0.777  27.864  0.00  0.00    -0.231 F 
ENDROOT
BRANCH   5   9
ATOM      9  C   UNL A   1     -25.688   1.614  26.461  0.00  0.00    +0.023 C 
ATOM     10  C   UNL A   1     -26.250   2.920  26.395  0.00  0.00    +0.073 C 
ATOM     11  C   UNL A   1     -27.438   3.091  25.645  0.00  0.00    +0.106 C 
ATOM     12  N   UNL A   1     -28.075   2.089  25.003  0.00  0.00    -0.208 NA
ATOM     13  C   UNL A   1     -27.543   0.849  25.079  0.00  0.00    +0.253 C 
ATOM     14  C   UNL A   1     -26.354   0.576  25.777  0.00  0.00    +0.190 C 
ATOM     15  F   UNL A   1     -25.860  -0.681  25.795  0.00  0.00    -0.200 F 
BRANCH  10  16
ATOM     16  C   UNL A   1     -25.642   4.093  27.123  0.00  0.00    +0.266 C 
ATOM     17  N   UNL A   1     -25.614   5.252  26.449  0.00  0.00    -0.200 NA
ATOM     18  C   UNL A   1     -25.026   6.479  26.963  0.00  0.00    +0.139 C 
ATOM     19  O   UNL A   1     -25.143   3.966  28.243  0.00  0.00    -0.268 OA
ENDBRANCH  10  16
BRANCH  13  20
ATOM     20  O   UNL A   1     -28.193  -0.208  24.477  0.00  0.00    -0.456 OA
BRANCH  20  21
ATOM     21  C   UNL A   1     -29.460   0.005  23.866  0.00  0.00    +0.243 C 
BRANCH  21  22
ATOM     22  C   UNL A   1     -30.065  -1.377  23.573  0.00  0.00    +0.229 C 
ATOM     23  O   UNL A   1     -30.729  -1.878  24.721  0.00  0.00    -0.216 OA
ENDBRANCH  21  22
ENDBRANCH  20  21
ENDBRANCH  13  20
ENDBRANCH   5   9
BRANCH   7  24
ATOM     24  O   UNL A   1     -23.297   2.343  25.206  0.00  0.00    -0.191 OA
ATOM     25  O   UNL A   1     -23.098   1.071  24.909  0.00  0.00    -0.035 OA
ENDBRANCH   7  24
BRANCH   1  26
ATOM     26  N   UNL A   1     -25.394  -0.150  29.098  0.00  0.00    -0.306 N 
BRANCH  26  27
ATOM     27  C   UNL A   1     -24.855  -1.012  30.143  0.00  0.00    +0.111 C 
BRANCH  27  28
ATOM     28  C   UNL A   1     -24.973  -2.505  29.788  0.00  0.00    -0.003 C 
ATOM     29  C   UNL A   1     -23.906  -3.173  29.146  0.00  0.00    -0.003 C 
ATOM     30  C   UNL A   1     -23.989  -4.549  28.853  0.00  0.00    -0.000 C 
ATOM     31  C   UNL A   1     -25.137  -5.280  29.205  0.00  0.00    -0.000 C 
ATOM     32  C   UNL A   1     -26.232  -4.611  29.784  0.00  0.00    -0.000 C 
ATOM     33  C   UNL A   1     -26.155  -3.232  30.065  0.00  0.00    -0.003 C 
ENDBRANCH  27  28
BRANCH  27  34
ATOM     34  C   UNL A   1     -25.387  -0.679  31.571  0.00  0.00    +0.095 C 
ATOM     35  C   UNL A   1     -25.189   0.773  32.028  0.00  0.00    +0.021 C 
ATOM     36  C   UNL A   1     -25.336   0.684  33.544  0.00  0.00    +0.020 C 
ATOM     37  C   UNL A   1     -24.829  -0.715  33.905  0.00  0.00    +0.089 C 
ATOM     38  N   UNL A   1     -24.758  -1.481  32.646  0.00  0.00    -0.217 NA
ENDBRANCH  27  34
ENDBRANCH  26  27
BRANCH  26  39
ATOM     39  C   UNL A   1     -26.815  -0.410  28.764  0.00  0.00    +0.093 C 
BRANCH  39  44
ATOM     40  C   UNL A   1     -29.817   1.350  29.629  0.00  0.00    +0.030 C 
ATOM     41  C   UNL A   1     -30.048   0.281  28.520  0.00  0.00    +0.003 C 
ATOM     42  C   UNL A   1     -28.482   1.022  30.275  0.00  0.00    +0.117 C 
ATOM     43  C   UNL A   1     -29.278  -0.973  28.962  0.00  0.00    +0.004 C 
ATOM     44  C   UNL A   1     -28.062  -0.389  29.680  0.00  0.00    +0.047 C 
BRANCH  42  46
ATOM     45  C   UNL A   1     -28.463   2.713  31.839  0.00  0.00    +0.174 C 
ATOM     46  O   UNL A   1     -27.901   1.612  31.253  0.00  0.00    -0.353 OA
ENDBRANCH  42  46
ENDBRANCH  39  44
ENDBRANCH  26  39
ENDBRANCH   1  26
TORSDOF 13
