REMARK  Name = outputs/IAG933/test6/raw/output_9156_IAG933_linker_design_.xyz
REMARK  15 active torsions:
REMARK  status: ('A' for Active; 'I' for Inactive)
REMARK    1  A    between atoms: C_1  and  C_2
REMARK    2  A    between atoms: C_1  and  C_8
REMARK    3  A    between atoms: C_1  and  N_33
REMARK    4  A    between atoms: C_13  and  C_43
REMARK    5  A    between atoms: C_14  and  C_15
REMARK    6  A    between atoms: C_21  and  O_22
REMARK    7  A    between atoms: O_22  and  C_23
REMARK    8  A    between atoms: C_23  and  C_24
REMARK    9  A    between atoms: C_28  and  C_29
REMARK   10  A    between atoms: N_31  and  C_34
REMARK   11  A    between atoms: C_32  and  C_40
REMARK   12  A    between atoms: C_35  and  C_40
REMARK   13  A    between atoms: C_35  and  N_44
REMARK   14  A    between atoms: C_36  and  O_41
REMARK   15  A    between atoms: N_44  and  C_45
REMARK                            x       y       z     vdW  Elec       q    Type
REMARK                         _______ _______ _______ _____ _____    ______ ____
ROOT
ATOM      1  C   UNL A   1     -23.288   0.389  28.643  0.00  0.00    +0.072 A 
ATOM      2  N   UNL A   1     -24.486  -0.170  29.174  0.00  0.00    -0.312 N 
ATOM      3  C   UNL A   1     -25.517   0.304  28.385  0.00  0.00    +0.135 A 
ATOM      4  C   UNL A   1     -23.590   1.242  27.586  0.00  0.00    +0.149 A 
ATOM      5  C   UNL A   1     -24.906   1.202  27.451  0.00  0.00    +0.052 A 
ENDROOT
BRANCH   5   6
ATOM      6  C   UNL A   1     -25.688   1.614  26.461  0.00  0.00    +0.098 C 
ATOM      7  C   UNL A   1     -26.250   2.920  26.395  0.00  0.00    +0.059 C 
ATOM      8  C   UNL A   1     -27.438   3.091  25.645  0.00  0.00    +0.102 C 
ATOM      9  N   UNL A   1     -28.075   2.089  25.003  0.00  0.00    -0.212 NA
ATOM     10  C   UNL A   1     -27.543   0.849  25.079  0.00  0.00    +0.234 C 
ATOM     11  C   UNL A   1     -26.354   0.576  25.777  0.00  0.00    +0.244 C 
ATOM     12  F   UNL A   1     -25.860  -0.681  25.795  0.00  0.00    -0.227 F 
BRANCH   7  13
ATOM     13  C   UNL A   1     -25.642   4.093  27.123  0.00  0.00    +0.263 C 
ATOM     14  N   UNL A   1     -25.614   5.252  26.449  0.00  0.00    -0.200 NA
ATOM     15  C   UNL A   1     -25.026   6.479  26.963  0.00  0.00    +0.139 C 
ATOM     16  O   UNL A   1     -25.143   3.966  28.243  0.00  0.00    -0.269 OA
ENDBRANCH   7  13
BRANCH  10  17
ATOM     17  O   UNL A   1     -28.193  -0.208  24.477  0.00  0.00    -0.459 OA
BRANCH  17  18
ATOM     18  C   UNL A   1     -29.460   0.005  23.866  0.00  0.00    +0.242 C 
BRANCH  18  19
ATOM     19  C   UNL A   1     -30.065  -1.377  23.573  0.00  0.00    +0.229 C 
ATOM     20  O   UNL A   1     -30.729  -1.878  24.721  0.00  0.00    -0.216 OA
ENDBRANCH  18  19
ENDBRANCH  17  18
ENDBRANCH  10  17
ENDBRANCH   5   6
BRANCH   3  21
ATOM     21  N   UNL A   1     -26.853   0.031  28.578  0.00  0.00    -0.162 NA
ATOM     22  C   UNL A   1     -28.154  -0.148  29.095  0.00  0.00    +0.248 C 
ATOM     23  O   UNL A   1     -28.858  -0.720  28.282  0.00  0.00    -0.273 OA
BRANCH  22  24
ATOM     24  C   UNL A   1     -28.572   0.250  30.440  0.00  0.00    +0.106 C 
BRANCH  24  25
ATOM     25  C   UNL A   1     -29.546  -0.632  31.067  0.00  0.00    +0.098 C 
BRANCH  25  26
ATOM     26  N   UNL A   1     -30.483   0.389  31.586  0.00  0.00    -0.219 NA
BRANCH  26  29
ATOM     27  C   UNL A   1     -31.939   2.188  31.131  0.00  0.00    +0.019 C 
ATOM     28  C   UNL A   1     -29.771   1.977  29.870  0.00  0.00    +0.019 C 
ATOM     29  C   UNL A   1     -30.931   1.220  30.464  0.00  0.00    +0.073 C 
ENDBRANCH  26  29
ENDBRANCH  25  26
ENDBRANCH  24  25
ENDBRANCH  22  24
ENDBRANCH   3  21
BRANCH   1  30
ATOM     30  C   UNL A   1     -21.777   0.145  28.929  0.00  0.00    +0.047 C 
ATOM     31  C   UNL A   1     -20.707   0.963  28.246  0.00  0.00    +0.007 C 
ENDBRANCH   1  30
BRANCH   4  33
ATOM     32  C   UNL A   1     -22.999   2.584  25.601  0.00  0.00    +0.253 C 
ATOM     33  O   UNL A   1     -22.670   2.036  26.888  0.00  0.00    -0.470 OA
ENDBRANCH   4  33
BRANCH   2  34
ATOM     34  C   UNL A   1     -24.855  -1.012  30.143  0.00  0.00    +0.125 C 
BRANCH  34  35
ATOM     35  C   UNL A   1     -24.973  -2.505  29.788  0.00  0.00    -0.000 C 
ATOM     36  C   UNL A   1     -23.906  -3.173  29.146  0.00  0.00    -0.002 C 
ATOM     37  C   UNL A   1     -23.989  -4.549  28.853  0.00  0.00    -0.000 C 
ATOM     38  C   UNL A   1     -25.137  -5.280  29.205  0.00  0.00    -0.000 C 
ATOM     39  C   UNL A   1     -26.232  -4.611  29.784  0.00  0.00    -0.000 C 
ATOM     40  C   UNL A   1     -26.155  -3.232  30.065  0.00  0.00    -0.002 C 
ENDBRANCH  34  35
BRANCH  34  41
ATOM     41  C   UNL A   1     -25.387  -0.679  31.571  0.00  0.00    +0.098 C 
ATOM     42  C   UNL A   1     -25.189   0.773  32.028  0.00  0.00    +0.021 C 
ATOM     43  C   UNL A   1     -25.336   0.684  33.544  0.00  0.00    +0.020 C 
ATOM     44  C   UNL A   1     -24.829  -0.715  33.905  0.00  0.00    +0.089 C 
ATOM     45  N   UNL A   1     -24.758  -1.481  32.646  0.00  0.00    -0.217 NA
ENDBRANCH  34  41
ENDBRANCH   2  34
TORSDOF 15
