REMARK  Name = outputs/IAG933/test6/raw/output_9158_IAG933_linker_design_.xyz
REMARK  15 active torsions:
REMARK  status: ('A' for Active; 'I' for Inactive)
REMARK    1  A    between atoms: C_1  and  C_2
REMARK    2  A    between atoms: C_1  and  C_8
REMARK    3  A    between atoms: C_1  and  C_31
REMARK    4  A    between atoms: C_13  and  C_30
REMARK    5  A    between atoms: C_14  and  C_15
REMARK    6  A    between atoms: C_21  and  O_22
REMARK    7  A    between atoms: O_22  and  C_23
REMARK    8  A    between atoms: C_23  and  C_24
REMARK    9  A    between atoms: C_31  and  N_32
REMARK   10  A    between atoms: C_31  and  C_44
REMARK   11  A    between atoms: C_34  and  C_36
REMARK   12  A    between atoms: C_34  and  C_37
REMARK   13  A    between atoms: C_35  and  C_43
REMARK   14  A    between atoms: C_39  and  C_43
REMARK   15  A    between atoms: C_39  and  C_46
REMARK                            x       y       z     vdW  Elec       q    Type
REMARK                         _______ _______ _______ _____ _____    ______ ____
ROOT
ATOM      1  C   UNL A   1     -25.109  -0.183  28.833  0.00  0.00    +0.101 C 
ENDROOT
BRANCH   1   5
ATOM      2  C   UNL A   1     -22.102   1.829  28.027  0.00  0.00    +0.000 C 
ATOM      3  C   UNL A   1     -24.217   1.421  26.823  0.00  0.00    +0.009 C 
ATOM      4  C   UNL A   1     -23.077   1.424  29.101  0.00  0.00    +0.002 C 
ATOM      5  C   UNL A   1     -24.273   1.067  28.248  0.00  0.00    +0.021 C 
ATOM      6  C   UNL A   1     -22.701   1.719  26.640  0.00  0.00    +0.001 C 
BRANCH   3   7
ATOM      7  C   UNL A   1     -25.688   1.614  26.461  0.00  0.00    +0.070 C 
ATOM      8  C   UNL A   1     -26.250   2.920  26.395  0.00  0.00    +0.055 C 
ATOM      9  C   UNL A   1     -27.438   3.091  25.645  0.00  0.00    +0.102 C 
ATOM     10  N   UNL A   1     -28.075   2.089  25.003  0.00  0.00    -0.212 NA
ATOM     11  C   UNL A   1     -27.543   0.849  25.079  0.00  0.00    +0.234 C 
ATOM     12  C   UNL A   1     -26.354   0.576  25.777  0.00  0.00    +0.240 C 
ATOM     13  F   UNL A   1     -25.860  -0.681  25.795  0.00  0.00    -0.227 F 
BRANCH   8  14
ATOM     14  C   UNL A   1     -25.642   4.093  27.123  0.00  0.00    +0.262 C 
ATOM     15  N   UNL A   1     -25.614   5.252  26.449  0.00  0.00    -0.200 NA
ATOM     16  C   UNL A   1     -25.026   6.479  26.963  0.00  0.00    +0.139 C 
ATOM     17  O   UNL A   1     -25.143   3.966  28.243  0.00  0.00    -0.269 OA
ENDBRANCH   8  14
BRANCH  11  18
ATOM     18  O   UNL A   1     -28.193  -0.208  24.477  0.00  0.00    -0.459 OA
BRANCH  18  19
ATOM     19  C   UNL A   1     -29.460   0.005  23.866  0.00  0.00    +0.242 C 
BRANCH  19  20
ATOM     20  C   UNL A   1     -30.065  -1.377  23.573  0.00  0.00    +0.229 C 
ATOM     21  O   UNL A   1     -30.729  -1.878  24.721  0.00  0.00    -0.216 OA
ENDBRANCH  19  20
ENDBRANCH  18  19
ENDBRANCH  11  18
ENDBRANCH   3   7
ENDBRANCH   1   5
BRANCH   1  22
ATOM     22  N   UNL A   1     -26.441   0.502  28.809  0.00  0.00    -0.207 NA
ATOM     23  O   UNL A   1     -28.055  -1.181  28.988  0.00  0.00    -0.273 OA
ATOM     24  C   UNL A   1     -27.723  -0.002  28.757  0.00  0.00    +0.241 C 
BRANCH  24  25
ATOM     25  C   UNL A   1     -28.780   1.075  28.758  0.00  0.00    +0.087 C 
BRANCH  25  26
ATOM     26  C   UNL A   1     -28.715   1.713  30.174  0.00  0.00    +0.011 C 
BRANCH  26  28
ATOM     27  C   UNL A   1     -28.045   4.318  32.767  0.00  0.00    +0.004 C 
ATOM     28  C   UNL A   1     -28.552   3.284  30.499  0.00  0.00    +0.018 C 
ATOM     29  C   UNL A   1     -25.521   4.498  32.021  0.00  0.00    +0.188 C 
ATOM     30  O   UNL A   1     -24.295   3.816  31.879  0.00  0.00    -0.208 OA
ATOM     31  C   UNL A   1     -28.772   3.245  31.956  0.00  0.00    +0.002 C 
ATOM     32  C   UNL A   1     -26.524   4.189  33.191  0.00  0.00    +0.047 C 
ATOM     33  C   UNL A   1     -27.172   4.028  30.123  0.00  0.00    +0.091 C 
ATOM     34  N   UNL A   1     -26.075   3.874  30.745  0.00  0.00    -0.193 NA
BRANCH  29  35
ATOM     35  C   UNL A   1     -25.154   6.076  32.053  0.00  0.00    +0.083 C 
BRANCH  35  36
ATOM     36  C   UNL A   1     -24.208   6.425  33.003  0.00  0.00    +0.186 C 
ATOM     37  O   UNL A   1     -23.967   5.538  34.044  0.00  0.00    -0.220 OA
ENDBRANCH  35  36
ENDBRANCH  29  35
ENDBRANCH  26  28
ENDBRANCH  25  26
ENDBRANCH  24  25
ENDBRANCH   1  22
BRANCH   1  38
ATOM     38  C   UNL A   1     -24.855  -1.012  30.143  0.00  0.00    +0.058 C 
BRANCH  38  39
ATOM     39  C   UNL A   1     -24.973  -2.505  29.788  0.00  0.00    -0.019 C 
ATOM     40  C   UNL A   1     -23.906  -3.173  29.146  0.00  0.00    -0.004 C 
ATOM     41  C   UNL A   1     -23.989  -4.549  28.853  0.00  0.00    -0.000 C 
ATOM     42  C   UNL A   1     -25.137  -5.280  29.205  0.00  0.00    -0.000 C 
ATOM     43  C   UNL A   1     -26.232  -4.611  29.784  0.00  0.00    -0.000 C 
ATOM     44  C   UNL A   1     -26.155  -3.232  30.065  0.00  0.00    -0.004 C 
ENDBRANCH  38  39
BRANCH  38  45
ATOM     45  C   UNL A   1     -25.387  -0.679  31.571  0.00  0.00    +0.079 C 
ATOM     46  C   UNL A   1     -25.189   0.773  32.028  0.00  0.00    +0.019 C 
ATOM     47  C   UNL A   1     -25.336   0.684  33.544  0.00  0.00    +0.020 C 
ATOM     48  C   UNL A   1     -24.829  -0.715  33.905  0.00  0.00    +0.089 C 
ATOM     49  N   UNL A   1     -24.758  -1.481  32.646  0.00  0.00    -0.219 NA
ENDBRANCH  38  45
ENDBRANCH   1  38
TORSDOF 15
