MODEL 915
MODEL 1
REMARK VINA RESULT:    -6.416      0.000      0.000
REMARK INTER + INTRA:          -6.986
REMARK INTER:                  -6.791
REMARK INTRA:                  -0.194
REMARK UNBOUND:                -0.194
REMARK  Name = No_915-gen_results/8p0m/2024-11-27-11-27-31/
REMARK  1 active torsions:
REMARK  status: ('A' for Active; 'I' for Inactive)
REMARK    1  A    between atoms: C_4  and  C_5
REMARK                            x       y       z     vdW  Elec       q    Type
REMARK                         _______ _______ _______ _____ _____    ______ ____
ROOT
ATOM      1  O   UNL A   1     -20.554  -0.738  28.823  0.00  0.00    -0.249 OA
ATOM      2  C   UNL A   1     -21.698  -0.603  28.838  0.00  0.00    +0.340 C 
ATOM      3  N   UNL A   1     -22.488  -1.595  28.969  0.00  0.00    -0.184 NA
ATOM      4  C   UNL A   1     -23.940  -1.573  28.732  0.00  0.00    +0.121 C 
ATOM      5  N   UNL A   1     -22.312   0.697  28.574  0.00  0.00    -0.187 NA
ATOM      6  C   UNL A   1     -24.425  -0.310  28.364  0.00  0.00    +0.050 C 
ATOM      7  C   UNL A   1     -23.622   0.828  28.278  0.00  0.00    +0.119 C 
ENDROOT
BRANCH   4   8
ATOM      8  C   UNL A   1     -24.662  -2.700  28.838  0.00  0.00    -0.003 A 
ATOM      9  C   UNL A   1     -25.787  -2.695  29.678  0.00  0.00    -0.003 A 
ATOM     10  C   UNL A   1     -26.603  -3.806  29.848  0.00  0.00    -0.000 A 
ATOM     11  C   UNL A   1     -25.991  -5.023  29.642  0.00  0.00    -0.000 A 
ATOM     12  C   UNL A   1     -24.784  -5.131  28.956  0.00  0.00    -0.000 A 
ATOM     13  C   UNL A   1     -24.112  -3.968  28.570  0.00  0.00    -0.003 A 
ENDBRANCH   4   8
TORSDOF 1
ENDMDL
ENDMDL
