REMARK  Name = outputs/IAG933/test6/raw/output_9168_IAG933_linker_design_.xyz
REMARK  14 active torsions:
REMARK  status: ('A' for Active; 'I' for Inactive)
REMARK    1  A    between atoms: C_1  and  C_2
REMARK    2  A    between atoms: C_1  and  C_8
REMARK    3  A    between atoms: C_9  and  C_31
REMARK    4  A    between atoms: C_13  and  N_36
REMARK    5  A    between atoms: C_14  and  C_15
REMARK    6  A    between atoms: C_21  and  O_22
REMARK    7  A    between atoms: O_22  and  C_23
REMARK    8  A    between atoms: C_23  and  C_24
REMARK    9  A    between atoms: N_29  and  C_31
REMARK   10  A    between atoms: C_30  and  C_38
REMARK   11  A    between atoms: C_31  and  C_41
REMARK   12  A    between atoms: C_32  and  C_40
REMARK   13  A    between atoms: C_33  and  C_38
REMARK   14  A    between atoms: C_40  and  C_41
REMARK                            x       y       z     vdW  Elec       q    Type
REMARK                         _______ _______ _______ _____ _____    ______ ____
ROOT
ATOM      1  N   UNL A   1     -24.154   1.833  29.957  0.00  0.00    -0.207 NA
ATOM      2  C   UNL A   1     -23.106   1.146  29.295  0.00  0.00    +0.250 C 
ATOM      3  O   UNL A   1     -22.687   0.073  29.612  0.00  0.00    -0.273 OA
ENDROOT
BRANCH   2   5
ATOM      4  C   UNL A   1     -20.952   1.741  27.595  0.00  0.00    +0.019 C 
ATOM      5  C   UNL A   1     -22.450   1.983  28.070  0.00  0.00    +0.156 C 
BRANCH   5   6
ATOM      6  C   UNL A   1     -23.443   1.975  26.863  0.00  0.00    +0.254 C 
ATOM      7  N   UNL A   1     -24.583   1.294  27.108  0.00  0.00    -0.176 NA
ATOM      8  O   UNL A   1     -23.179   2.491  25.786  0.00  0.00    -0.273 OA
BRANCH   7   9
ATOM      9  C   UNL A   1     -25.688   1.614  26.461  0.00  0.00    +0.111 C 
ATOM     10  C   UNL A   1     -26.250   2.920  26.395  0.00  0.00    +0.092 C 
ATOM     11  C   UNL A   1     -27.438   3.091  25.645  0.00  0.00    +0.108 C 
ATOM     12  N   UNL A   1     -28.075   2.089  25.003  0.00  0.00    -0.208 NA
ATOM     13  C   UNL A   1     -27.543   0.849  25.079  0.00  0.00    +0.255 C 
ATOM     14  C   UNL A   1     -26.354   0.576  25.777  0.00  0.00    +0.208 C 
ATOM     15  F   UNL A   1     -25.860  -0.681  25.795  0.00  0.00    -0.198 F 
BRANCH  10  16
ATOM     16  C   UNL A   1     -25.642   4.093  27.123  0.00  0.00    +0.268 C 
ATOM     17  N   UNL A   1     -25.614   5.252  26.449  0.00  0.00    -0.200 NA
ATOM     18  C   UNL A   1     -25.026   6.479  26.963  0.00  0.00    +0.139 C 
ATOM     19  O   UNL A   1     -25.143   3.966  28.243  0.00  0.00    -0.268 OA
ENDBRANCH  10  16
BRANCH  13  20
ATOM     20  O   UNL A   1     -28.193  -0.208  24.477  0.00  0.00    -0.456 OA
BRANCH  20  21
ATOM     21  C   UNL A   1     -29.460   0.005  23.866  0.00  0.00    +0.243 C 
BRANCH  21  22
ATOM     22  C   UNL A   1     -30.065  -1.377  23.573  0.00  0.00    +0.229 C 
ATOM     23  O   UNL A   1     -30.729  -1.878  24.721  0.00  0.00    -0.216 OA
ENDBRANCH  21  22
ENDBRANCH  20  21
ENDBRANCH  13  20
ENDBRANCH   7   9
ENDBRANCH   5   6
ENDBRANCH   2   5
BRANCH   1  24
ATOM     24  C   UNL A   1     -24.668   1.871  31.344  0.00  0.00    +0.099 C 
BRANCH  24  26
ATOM     25  C   UNL A   1     -25.387  -0.679  31.571  0.00  0.00    +0.079 C 
ATOM     26  C   UNL A   1     -25.189   0.773  32.028  0.00  0.00    +0.038 C 
ATOM     27  C   UNL A   1     -25.336   0.684  33.544  0.00  0.00    +0.022 C 
ATOM     28  C   UNL A   1     -24.829  -0.715  33.905  0.00  0.00    +0.089 C 
ATOM     29  N   UNL A   1     -24.758  -1.481  32.646  0.00  0.00    -0.219 NA
BRANCH  25  30
ATOM     30  C   UNL A   1     -24.855  -1.012  30.143  0.00  0.00    +0.044 C 
BRANCH  30  31
ATOM     31  C   UNL A   1     -24.973  -2.505  29.788  0.00  0.00    -0.021 C 
ATOM     32  C   UNL A   1     -23.906  -3.173  29.146  0.00  0.00    -0.004 C 
ATOM     33  C   UNL A   1     -23.989  -4.549  28.853  0.00  0.00    -0.000 C 
ATOM     34  C   UNL A   1     -25.137  -5.280  29.205  0.00  0.00    -0.000 C 
ATOM     35  C   UNL A   1     -26.232  -4.611  29.784  0.00  0.00    -0.000 C 
ATOM     36  C   UNL A   1     -26.155  -3.232  30.065  0.00  0.00    -0.004 C 
ENDBRANCH  30  31
ENDBRANCH  25  30
ENDBRANCH  24  26
BRANCH  24  37
ATOM     37  C   UNL A   1     -24.750   3.370  31.934  0.00  0.00    +0.057 C 
BRANCH  37  39
ATOM     38  O   UNL A   1     -27.266   2.807  31.817  0.00  0.00    -0.220 OA
ATOM     39  C   UNL A   1     -26.215   3.694  32.415  0.00  0.00    +0.186 C 
BRANCH  39  40
ATOM     40  C   UNL A   1     -26.108   4.651  33.633  0.00  0.00    +0.215 C 
ATOM     41  O   UNL A   1     -25.402   5.872  33.433  0.00  0.00    -0.218 OA
ENDBRANCH  39  40
ENDBRANCH  37  39
ENDBRANCH  24  37
ENDBRANCH   1  24
TORSDOF 14
