REMARK  Name = outputs/IAG933/test6/raw/output_917_IAG933_linker_design_.xyz
REMARK  12 active torsions:
REMARK  status: ('A' for Active; 'I' for Inactive)
REMARK    1  A    between atoms: C_1  and  C_2
REMARK    2  A    between atoms: C_1  and  C_8
REMARK    3  A    between atoms: C_1  and  C_31
REMARK    4  A    between atoms: C_13  and  C_39
REMARK    5  A    between atoms: C_14  and  C_15
REMARK    6  A    between atoms: C_21  and  O_22
REMARK    7  A    between atoms: O_22  and  C_23
REMARK    8  A    between atoms: C_23  and  C_24
REMARK    9  A    between atoms: C_32  and  O_40
REMARK   10  A    between atoms: N_33  and  C_43
REMARK   11  A    between atoms: C_35  and  CA_36
REMARK   12  A    between atoms: C_38  and  O_40
REMARK                            x       y       z     vdW  Elec       q    Type
REMARK                         _______ _______ _______ _____ _____    ______ ____
ROOT
ATOM      1  N   UNL A   1     -23.385   1.376  27.039  0.00  0.00    -0.195 NA
ATOM      2  C   UNL A   1     -24.209   0.130  29.348  0.00  0.00    +0.081 C 
ATOM      3  N   UNL A   1     -24.951   1.103  28.766  0.00  0.00    -0.289 N 
ATOM      4  CA  UNL A   1     -22.555   1.125  27.962  0.00  0.00    +0.109 C 
ATOM      5  C   UNL A   1     -24.651   1.364  27.448  0.00  0.00    +0.174 C 
ATOM      6  C   UNL A   1     -22.858   0.287  29.080  0.00  0.00    +0.040 C 
ENDROOT
BRANCH   5   7
ATOM      7  C   UNL A   1     -25.688   1.614  26.461  0.00  0.00    +0.050 C 
ATOM      8  C   UNL A   1     -26.250   2.920  26.395  0.00  0.00    +0.075 C 
ATOM      9  C   UNL A   1     -27.438   3.091  25.645  0.00  0.00    +0.106 C 
ATOM     10  N   UNL A   1     -28.075   2.089  25.003  0.00  0.00    -0.208 NA
ATOM     11  C   UNL A   1     -27.543   0.849  25.079  0.00  0.00    +0.253 C 
ATOM     12  C   UNL A   1     -26.354   0.576  25.777  0.00  0.00    +0.192 C 
ATOM     13  F   UNL A   1     -25.860  -0.681  25.795  0.00  0.00    -0.200 F 
BRANCH   8  14
ATOM     14  C   UNL A   1     -25.642   4.093  27.123  0.00  0.00    +0.266 C 
ATOM     15  N   UNL A   1     -25.614   5.252  26.449  0.00  0.00    -0.200 NA
ATOM     16  C   UNL A   1     -25.026   6.479  26.963  0.00  0.00    +0.139 C 
ATOM     17  O   UNL A   1     -25.143   3.966  28.243  0.00  0.00    -0.268 OA
ENDBRANCH   8  14
BRANCH  11  18
ATOM     18  O   UNL A   1     -28.193  -0.208  24.477  0.00  0.00    -0.456 OA
BRANCH  18  19
ATOM     19  C   UNL A   1     -29.460   0.005  23.866  0.00  0.00    +0.243 C 
BRANCH  19  20
ATOM     20  C   UNL A   1     -30.065  -1.377  23.573  0.00  0.00    +0.229 C 
ATOM     21  O   UNL A   1     -30.729  -1.878  24.721  0.00  0.00    -0.216 OA
ENDBRANCH  19  20
ENDBRANCH  18  19
ENDBRANCH  11  18
ENDBRANCH   5   7
BRANCH   3  23
ATOM     22  C   UNL A   1     -25.817   3.651  30.498  0.00  0.00    +0.195 C 
ATOM     23  C   UNL A   1     -25.840   2.127  29.936  0.00  0.00    +0.104 C 
BRANCH  22  24
ATOM     24  O   UNL A   1     -25.102   5.118  30.354  0.00  0.00    -0.449 OA
BRANCH  24  28
ATOM     25  C   UNL A   1     -25.875   8.406  31.779  0.00  0.00    +0.003 C 
ATOM     26  C   UNL A   1     -26.923   6.626  29.961  0.00  0.00    +0.037 C 
ATOM     27  C   UNL A   1     -27.243   8.367  31.563  0.00  0.00    +0.000 C 
ATOM     28  C   UNL A   1     -25.659   6.446  30.474  0.00  0.00    +0.145 C 
ATOM     29  C   UNL A   1     -27.771   7.534  30.584  0.00  0.00    +0.003 C 
ATOM     30  C   UNL A   1     -25.024   7.532  31.134  0.00  0.00    +0.037 C 
ENDBRANCH  24  28
ENDBRANCH  22  24
ENDBRANCH   3  23
BRANCH   4  32
ATOM     31  O   UNL A   1     -21.007   2.252  26.538  0.00  0.00    -0.219 OA
ATOM     32  C   UNL A   1     -21.173   1.724  27.824  0.00  0.00    +0.199 C 
ENDBRANCH   4  32
BRANCH   2  33
ATOM     33  C   UNL A   1     -24.855  -1.012  30.143  0.00  0.00    +0.057 C 
BRANCH  33  34
ATOM     34  C   UNL A   1     -24.973  -2.505  29.788  0.00  0.00    -0.019 C 
ATOM     35  C   UNL A   1     -23.906  -3.173  29.146  0.00  0.00    -0.004 C 
ATOM     36  C   UNL A   1     -23.989  -4.549  28.853  0.00  0.00    -0.000 C 
ATOM     37  C   UNL A   1     -25.137  -5.280  29.205  0.00  0.00    -0.000 C 
ATOM     38  C   UNL A   1     -26.232  -4.611  29.784  0.00  0.00    -0.000 C 
ATOM     39  C   UNL A   1     -26.155  -3.232  30.065  0.00  0.00    -0.004 C 
ENDBRANCH  33  34
BRANCH  33  40
ATOM     40  C   UNL A   1     -25.387  -0.679  31.571  0.00  0.00    +0.078 C 
ATOM     41  C   UNL A   1     -25.189   0.773  32.028  0.00  0.00    +0.019 C 
ATOM     42  C   UNL A   1     -25.336   0.684  33.544  0.00  0.00    +0.020 C 
ATOM     43  C   UNL A   1     -24.829  -0.715  33.905  0.00  0.00    +0.089 C 
ATOM     44  N   UNL A   1     -24.758  -1.481  32.646  0.00  0.00    -0.219 NA
ENDBRANCH  33  40
ENDBRANCH   2  33
TORSDOF 12
