REMARK  Name = outputs/IAG933/test6/raw/output_9178_IAG933_linker_design_.xyz
REMARK  11 active torsions:
REMARK  status: ('A' for Active; 'I' for Inactive)
REMARK    1  A    between atoms: C_1  and  C_2
REMARK    2  A    between atoms: C_1  and  C_8
REMARK    3  A    between atoms: C_1  and  C_36
REMARK    4  A    between atoms: C_13  and  C_33
REMARK    5  A    between atoms: C_14  and  C_15
REMARK    6  A    between atoms: C_21  and  O_22
REMARK    7  A    between atoms: O_22  and  C_23
REMARK    8  A    between atoms: C_23  and  C_24
REMARK    9  A    between atoms: C_31  and  N_39
REMARK   10  A    between atoms: C_36  and  N_38
REMARK   11  A    between atoms: C_41  and  C_47
REMARK                            x       y       z     vdW  Elec       q    Type
REMARK                         _______ _______ _______ _____ _____    ______ ____
ROOT
ATOM      1  C   UNL A   1     -26.814   0.080  29.080  0.00  0.00    -0.090 C 
ATOM      2  C   UNL A   1     -25.470  -0.086  29.188  0.00  0.00    +0.065 C 
ATOM      3  C   UNL A   1     -28.157   0.273  29.065  0.00  0.00    +0.044 C 
ENDROOT
BRANCH   3   7
ATOM      4  C   UNL A   1     -32.268  -0.964  29.365  0.00  0.00    +0.043 C 
ATOM      5  O   UNL A   1     -32.823   0.579  27.834  0.00  0.00    -0.287 OA
ATOM      6  C   UNL A   1     -29.937  -1.285  29.997  0.00  0.00    +0.074 C 
ATOM      7  C   UNL A   1     -29.527  -0.211  29.146  0.00  0.00    +0.026 C 
ATOM      8  C   UNL A   1     -31.858   0.055  28.494  0.00  0.00    +0.196 C 
ATOM      9  C   UNL A   1     -31.295  -1.691  30.046  0.00  0.00    +0.020 C 
ATOM     10  C   UNL A   1     -30.522   0.435  28.363  0.00  0.00    +0.044 C 
BRANCH   6  13
ATOM     11  C   UNL A   1     -30.411  -2.573  32.864  0.00  0.00    +0.097 C 
ATOM     12  C   UNL A   1     -29.493  -2.944  31.738  0.00  0.00    +0.246 C 
ATOM     13  N   UNL A   1     -29.099  -1.966  30.879  0.00  0.00    -0.179 NA
ATOM     14  O   UNL A   1     -29.029  -4.057  31.688  0.00  0.00    -0.273 OA
ENDBRANCH   6  13
ENDBRANCH   3   7
BRANCH   2  18
ATOM     15  C   UNL A   1     -24.660   1.429  27.355  0.00  0.00    +0.098 C 
ATOM     16  C   UNL A   1     -23.027   0.228  28.464  0.00  0.00    +0.091 C 
ATOM     17  C   UNL A   1     -23.265   1.556  26.586  0.00  0.00    +0.026 C 
ATOM     18  N   UNL A   1     -24.530   0.489  28.373  0.00  0.00    -0.303 N 
ATOM     19  C   UNL A   1     -22.440   1.474  27.694  0.00  0.00    +0.022 C 
ATOM     20  C   UNL A   1     -20.970   1.400  27.392  0.00  0.00    +0.002 C 
BRANCH  15  21
ATOM     21  C   UNL A   1     -25.688   1.614  26.461  0.00  0.00    +0.034 C 
ATOM     22  C   UNL A   1     -26.250   2.920  26.395  0.00  0.00    +0.074 C 
ATOM     23  C   UNL A   1     -27.438   3.091  25.645  0.00  0.00    +0.106 C 
ATOM     24  N   UNL A   1     -28.075   2.089  25.003  0.00  0.00    -0.208 NA
ATOM     25  C   UNL A   1     -27.543   0.849  25.079  0.00  0.00    +0.253 C 
ATOM     26  C   UNL A   1     -26.354   0.576  25.777  0.00  0.00    +0.191 C 
ATOM     27  F   UNL A   1     -25.860  -0.681  25.795  0.00  0.00    -0.200 F 
BRANCH  22  28
ATOM     28  C   UNL A   1     -25.642   4.093  27.123  0.00  0.00    +0.266 C 
ATOM     29  N   UNL A   1     -25.614   5.252  26.449  0.00  0.00    -0.200 NA
ATOM     30  C   UNL A   1     -25.026   6.479  26.963  0.00  0.00    +0.139 C 
ATOM     31  O   UNL A   1     -25.143   3.966  28.243  0.00  0.00    -0.268 OA
ENDBRANCH  22  28
BRANCH  25  32
ATOM     32  O   UNL A   1     -28.193  -0.208  24.477  0.00  0.00    -0.456 OA
BRANCH  32  33
ATOM     33  C   UNL A   1     -29.460   0.005  23.866  0.00  0.00    +0.243 C 
BRANCH  33  34
ATOM     34  C   UNL A   1     -30.065  -1.377  23.573  0.00  0.00    +0.229 C 
ATOM     35  O   UNL A   1     -30.729  -1.878  24.721  0.00  0.00    -0.216 OA
ENDBRANCH  33  34
ENDBRANCH  32  33
ENDBRANCH  25  32
ENDBRANCH  15  21
ENDBRANCH   2  18
BRANCH   2  36
ATOM     36  C   UNL A   1     -24.855  -1.012  30.143  0.00  0.00    +0.081 C 
BRANCH  36  37
ATOM     37  C   UNL A   1     -24.973  -2.505  29.788  0.00  0.00    -0.015 C 
ATOM     38  C   UNL A   1     -23.906  -3.173  29.146  0.00  0.00    -0.004 C 
ATOM     39  C   UNL A   1     -23.989  -4.549  28.853  0.00  0.00    -0.000 C 
ATOM     40  C   UNL A   1     -25.137  -5.280  29.205  0.00  0.00    -0.000 C 
ATOM     41  C   UNL A   1     -26.232  -4.611  29.784  0.00  0.00    -0.000 C 
ATOM     42  C   UNL A   1     -26.155  -3.232  30.065  0.00  0.00    -0.004 C 
ENDBRANCH  36  37
BRANCH  36  43
ATOM     43  C   UNL A   1     -25.387  -0.679  31.571  0.00  0.00    +0.083 C 
ATOM     44  C   UNL A   1     -25.189   0.773  32.028  0.00  0.00    +0.020 C 
ATOM     45  C   UNL A   1     -25.336   0.684  33.544  0.00  0.00    +0.020 C 
ATOM     46  C   UNL A   1     -24.829  -0.715  33.905  0.00  0.00    +0.089 C 
ATOM     47  N   UNL A   1     -24.758  -1.481  32.646  0.00  0.00    -0.219 NA
ENDBRANCH  36  43
ENDBRANCH   2  36
TORSDOF 11
