MODEL 917
MODEL 1
REMARK VINA RESULT:    -6.787      0.000      0.000
REMARK INTER + INTRA:          -8.068
REMARK INTER:                  -7.580
REMARK INTRA:                  -0.488
REMARK UNBOUND:                -0.488
REMARK  Name = No_917-gen_results/8p0m/2024-11-27-11-27-31/
REMARK  2 active torsions:
REMARK  status: ('A' for Active; 'I' for Inactive)
REMARK    1  A    between atoms: C_4  and  C_7
REMARK    2  A    between atoms: C_8  and  C_14
REMARK                            x       y       z     vdW  Elec       q    Type
REMARK                         _______ _______ _______ _____ _____    ______ ____
ROOT
ATOM      1  C   UNL A   1     -24.075   1.102  28.492  0.00  0.00    +0.043 C 
ATOM      2  C   UNL A   1     -23.731   0.100  29.422  0.00  0.00    +0.086 C 
ATOM      3  C   UNL A   1     -23.688   0.382  30.813  0.00  0.00    +0.029 C 
ATOM      4  C   UNL A   1     -23.827   1.765  31.167  0.00  0.00    +0.089 C 
ATOM      5  C   UNL A   1     -24.918   2.134  29.252  0.00  0.00    +0.093 C 
ATOM      6  N   UNL A   1     -24.425   2.540  30.440  0.00  0.00    -0.218 NA
ATOM      7  C   UNL A   1     -22.671   1.895  28.140  0.00  0.00    +0.006 C 
ENDROOT
BRANCH   2   8
ATOM      8  C   UNL A   1     -23.272  -1.258  28.970  0.00  0.00    +0.241 C 
ATOM      9  O   UNL A   1     -22.217  -1.506  28.555  0.00  0.00    -0.272 OA
ATOM     10  N   UNL A   1     -24.114  -2.260  29.403  0.00  0.00    -0.275 N 
ATOM     11  C   UNL A   1     -23.948  -3.676  28.945  0.00  0.00    +0.083 A 
ATOM     12  C   UNL A   1     -25.209  -4.395  29.116  0.00  0.00    +0.021 A 
ATOM     13  C   UNL A   1     -25.515  -2.126  29.928  0.00  0.00    +0.083 A 
ATOM     14  C   UNL A   1     -26.102  -3.406  29.801  0.00  0.00    +0.021 A 
ENDBRANCH   2   8
BRANCH   1  18
ATOM     15  C   UNL A   1     -24.622   0.330  24.765  0.00  0.00    -0.000 A 
ATOM     16  C   UNL A   1     -25.585  -0.091  24.846  0.00  0.00    -0.000 A 
ATOM     17  C   UNL A   1     -24.018   0.837  26.007  0.00  0.00    -0.004 A 
ATOM     18  C   UNL A   1     -24.660   0.629  27.263  0.00  0.00    -0.021 A 
ATOM     19  C   UNL A   1     -25.884   0.011  27.218  0.00  0.00    -0.004 A 
ATOM     20  C   UNL A   1     -26.404  -0.411  26.046  0.00  0.00    -0.000 A 
ENDBRANCH   1  18
TORSDOF 2
ENDMDL
ENDMDL
