REMARK  Name = outputs/IAG933/test6/raw/output_918_IAG933_linker_design_.xyz
REMARK  13 active torsions:
REMARK  status: ('A' for Active; 'I' for Inactive)
REMARK    1  A    between atoms: C_1  and  C_2
REMARK    2  A    between atoms: C_1  and  C_8
REMARK    3  A    between atoms: C_1  and  C_45
REMARK    4  A    between atoms: C_13  and  C_41
REMARK    5  A    between atoms: C_14  and  C_15
REMARK    6  A    between atoms: C_21  and  O_22
REMARK    7  A    between atoms: O_22  and  C_23
REMARK    8  A    between atoms: C_23  and  C_24
REMARK    9  A    between atoms: O_29  and  C_34
REMARK   10  A    between atoms: O_29  and  S_43
REMARK   11  A    between atoms: C_31  and  C_32
REMARK   12  A    between atoms: C_35  and  C_37
REMARK   13  A    between atoms: C_37  and  S_43
REMARK                            x       y       z     vdW  Elec       q    Type
REMARK                         _______ _______ _______ _____ _____    ______ ____
ROOT
ATOM      1  C   UNL A   1     -22.791   1.219  28.515  0.00  0.00    +0.209 C 
ATOM      2  C   UNL A   1     -23.557   1.553  27.478  0.00  0.00    +0.075 C 
ATOM      3  C   UNL A   1     -25.630   0.654  28.791  0.00  0.00    +0.051 C 
ATOM      4  C   UNL A   1     -23.128   0.151  29.230  0.00  0.00    +0.005 C 
ATOM      5  C   UNL A   1     -24.946   1.306  27.609  0.00  0.00    -0.029 C 
ATOM      6  F   UNL A   1     -21.382   1.586  28.475  0.00  0.00    -0.227 F 
ATOM      7  C   UNL A   1     -24.554  -0.048  29.422  0.00  0.00    -0.036 C 
ENDROOT
BRANCH   5   8
ATOM      8  C   UNL A   1     -25.688   1.614  26.461  0.00  0.00    +0.089 C 
ATOM      9  C   UNL A   1     -26.250   2.920  26.395  0.00  0.00    +0.059 C 
ATOM     10  C   UNL A   1     -27.438   3.091  25.645  0.00  0.00    +0.102 C 
ATOM     11  N   UNL A   1     -28.075   2.089  25.003  0.00  0.00    -0.212 NA
ATOM     12  C   UNL A   1     -27.543   0.849  25.079  0.00  0.00    +0.234 C 
ATOM     13  C   UNL A   1     -26.354   0.576  25.777  0.00  0.00    +0.244 C 
ATOM     14  F   UNL A   1     -25.860  -0.681  25.795  0.00  0.00    -0.227 F 
BRANCH   9  15
ATOM     15  C   UNL A   1     -25.642   4.093  27.123  0.00  0.00    +0.263 C 
ATOM     16  N   UNL A   1     -25.614   5.252  26.449  0.00  0.00    -0.200 NA
ATOM     17  C   UNL A   1     -25.026   6.479  26.963  0.00  0.00    +0.139 C 
ATOM     18  O   UNL A   1     -25.143   3.966  28.243  0.00  0.00    -0.269 OA
ENDBRANCH   9  15
BRANCH  12  19
ATOM     19  O   UNL A   1     -28.193  -0.208  24.477  0.00  0.00    -0.459 OA
BRANCH  19  20
ATOM     20  C   UNL A   1     -29.460   0.005  23.866  0.00  0.00    +0.242 C 
BRANCH  20  21
ATOM     21  C   UNL A   1     -30.065  -1.377  23.573  0.00  0.00    +0.229 C 
ATOM     22  O   UNL A   1     -30.729  -1.878  24.721  0.00  0.00    -0.216 OA
ENDBRANCH  20  21
ENDBRANCH  19  20
ENDBRANCH  12  19
ENDBRANCH   5   8
BRANCH   2  23
ATOM     23  C   UNL A   1     -22.980   2.196  26.239  0.00  0.00    +0.332 C 
ATOM     24  F   UNL A   1     -22.120   1.576  25.507  0.00  0.00    -0.159 F 
ATOM     25  O   UNL A   1     -23.386   3.225  25.784  0.00  0.00    -0.254 OA
ENDBRANCH   2  23
BRANCH   7  26
ATOM     26  C   UNL A   1     -24.855  -1.012  30.143  0.00  0.00    +0.057 C 
BRANCH  26  27
ATOM     27  C   UNL A   1     -24.973  -2.505  29.788  0.00  0.00    -0.017 C 
ATOM     28  C   UNL A   1     -23.906  -3.173  29.146  0.00  0.00    -0.004 C 
ATOM     29  C   UNL A   1     -23.989  -4.549  28.853  0.00  0.00    -0.000 C 
ATOM     30  C   UNL A   1     -25.137  -5.280  29.205  0.00  0.00    -0.000 C 
ATOM     31  C   UNL A   1     -26.232  -4.611  29.784  0.00  0.00    -0.000 C 
ATOM     32  C   UNL A   1     -26.155  -3.232  30.065  0.00  0.00    -0.004 C 
ENDBRANCH  26  27
BRANCH  26  33
ATOM     33  C   UNL A   1     -25.387  -0.679  31.571  0.00  0.00    +0.081 C 
ATOM     34  C   UNL A   1     -25.189   0.773  32.028  0.00  0.00    +0.019 C 
ATOM     35  C   UNL A   1     -25.336   0.684  33.544  0.00  0.00    +0.020 C 
ATOM     36  C   UNL A   1     -24.829  -0.715  33.905  0.00  0.00    +0.089 C 
ATOM     37  N   UNL A   1     -24.758  -1.481  32.646  0.00  0.00    -0.219 NA
ENDBRANCH  26  33
ENDBRANCH   7  26
BRANCH   3  38
ATOM     38  C   UNL A   1     -26.832  -0.334  28.954  0.00  0.00    +0.102 C 
BRANCH  38  41
ATOM     39  C   UNL A   1     -29.330  -0.648  29.875  0.00  0.00    +0.108 C 
ATOM     40  O   UNL A   1     -28.960  -0.063  27.382  0.00  0.00    -0.145 OA
ATOM     41  S   UNL A   1     -28.472   0.240  28.668  0.00  0.00    +0.033 S 
BRANCH  41  42
ATOM     42  O   UNL A   1     -28.165   1.776  28.798  0.00  0.00    -0.241 OA
BRANCH  42  43
ATOM     43  C   UNL A   1     -28.931   2.689  29.490  0.00  0.00    +0.376 C 
ATOM     44  F   UNL A   1     -28.650   3.990  29.221  0.00  0.00    -0.174 F 
ATOM     45  C   UNL A   1     -30.391   2.472  29.186  0.00  0.00    +0.108 C 
ATOM     46  F   UNL A   1     -28.599   2.633  30.760  0.00  0.00    -0.174 F 
ENDBRANCH  42  43
ENDBRANCH  41  42
ENDBRANCH  38  41
ENDBRANCH   3  38
TORSDOF 13
