REMARK  Name = outputs/IAG933/test6/raw/output_9183_IAG933_linker_design_.xyz
REMARK  14 active torsions:
REMARK  status: ('A' for Active; 'I' for Inactive)
REMARK    1  A    between atoms: C_1  and  C_2
REMARK    2  A    between atoms: C_1  and  C_8
REMARK    3  A    between atoms: C_1  and  C_38
REMARK    4  A    between atoms: C_13  and  C_28
REMARK    5  A    between atoms: C_14  and  C_15
REMARK    6  A    between atoms: C_21  and  O_22
REMARK    7  A    between atoms: O_22  and  C_23
REMARK    8  A    between atoms: C_23  and  C_24
REMARK    9  A    between atoms: C_30  and  C_37
REMARK   10  A    between atoms: C_30  and  O_44
REMARK   11  A    between atoms: C_31  and  C_37
REMARK   12  A    between atoms: C_31  and  N_43
REMARK   13  A    between atoms: C_36  and  N_39
REMARK   14  A    between atoms: C_36  and  N_43
REMARK                            x       y       z     vdW  Elec       q    Type
REMARK                         _______ _______ _______ _____ _____    ______ ____
ROOT
ATOM      1  C   UNL A   1     -24.509   1.347  27.340  0.00  0.00    +0.134 C 
ATOM      2  F   UNL A   1     -20.963   1.271  27.713  0.00  0.00    -0.203 F 
ATOM      3  C   UNL A   1     -22.193   1.036  27.950  0.00  0.00    +0.149 C 
ATOM      4  C   UNL A   1     -23.241   1.523  27.007  0.00  0.00    +0.085 C 
ATOM      5  C   UNL A   1     -22.643   0.492  29.195  0.00  0.00    +0.041 C 
ATOM      6  C   UNL A   1     -24.159   0.130  29.389  0.00  0.00    +0.034 C 
ATOM      7  N   UNL A   1     -25.025   0.856  28.507  0.00  0.00    -0.289 N 
ATOM      8 CL   UNL A   1     -22.558   2.213  25.533  0.00  0.00    -0.083 Cl
ENDROOT
BRANCH   1   9
ATOM      9  C   UNL A   1     -25.688   1.614  26.461  0.00  0.00    +0.039 C 
ATOM     10  C   UNL A   1     -26.250   2.920  26.395  0.00  0.00    +0.074 C 
ATOM     11  C   UNL A   1     -27.438   3.091  25.645  0.00  0.00    +0.106 C 
ATOM     12  N   UNL A   1     -28.075   2.089  25.003  0.00  0.00    -0.208 NA
ATOM     13  C   UNL A   1     -27.543   0.849  25.079  0.00  0.00    +0.253 C 
ATOM     14  C   UNL A   1     -26.354   0.576  25.777  0.00  0.00    +0.191 C 
ATOM     15  F   UNL A   1     -25.860  -0.681  25.795  0.00  0.00    -0.200 F 
BRANCH  10  16
ATOM     16  C   UNL A   1     -25.642   4.093  27.123  0.00  0.00    +0.266 C 
ATOM     17  N   UNL A   1     -25.614   5.252  26.449  0.00  0.00    -0.200 NA
ATOM     18  C   UNL A   1     -25.026   6.479  26.963  0.00  0.00    +0.139 C 
ATOM     19  O   UNL A   1     -25.143   3.966  28.243  0.00  0.00    -0.268 OA
ENDBRANCH  10  16
BRANCH  13  20
ATOM     20  O   UNL A   1     -28.193  -0.208  24.477  0.00  0.00    -0.456 OA
BRANCH  20  21
ATOM     21  C   UNL A   1     -29.460   0.005  23.866  0.00  0.00    +0.243 C 
BRANCH  21  22
ATOM     22  C   UNL A   1     -30.065  -1.377  23.573  0.00  0.00    +0.229 C 
ATOM     23  O   UNL A   1     -30.729  -1.878  24.721  0.00  0.00    -0.216 OA
ENDBRANCH  21  22
ENDBRANCH  20  21
ENDBRANCH  13  20
ENDBRANCH   1   9
BRANCH   6  24
ATOM     24  C   UNL A   1     -24.855  -1.012  30.143  0.00  0.00    +0.074 C 
BRANCH  24  25
ATOM     25  C   UNL A   1     -24.973  -2.505  29.788  0.00  0.00    -0.016 C 
ATOM     26  C   UNL A   1     -23.906  -3.173  29.146  0.00  0.00    -0.004 C 
ATOM     27  C   UNL A   1     -23.989  -4.549  28.853  0.00  0.00    -0.000 C 
ATOM     28  C   UNL A   1     -25.137  -5.280  29.205  0.00  0.00    -0.000 C 
ATOM     29  C   UNL A   1     -26.232  -4.611  29.784  0.00  0.00    -0.000 C 
ATOM     30  C   UNL A   1     -26.155  -3.232  30.065  0.00  0.00    -0.004 C 
ENDBRANCH  24  25
BRANCH  24  31
ATOM     31  C   UNL A   1     -25.387  -0.679  31.571  0.00  0.00    +0.082 C 
ATOM     32  C   UNL A   1     -25.189   0.773  32.028  0.00  0.00    +0.020 C 
ATOM     33  C   UNL A   1     -25.336   0.684  33.544  0.00  0.00    +0.020 C 
ATOM     34  C   UNL A   1     -24.829  -0.715  33.905  0.00  0.00    +0.089 C 
ATOM     35  N   UNL A   1     -24.758  -1.481  32.646  0.00  0.00    -0.219 NA
ENDBRANCH  24  31
ENDBRANCH   6  24
BRANCH   7  36
ATOM     36  C   UNL A   1     -26.581   1.067  28.979  0.00  0.00    +0.184 C 
BRANCH  36  37
ATOM     37  N   UNL A   1     -26.707   2.480  29.648  0.00  0.00    -0.194 NA
BRANCH  37  38
ATOM     38  C   UNL A   1     -27.644   3.129  30.608  0.00  0.00    +0.135 C 
BRANCH  38  39
ATOM     39  C   UNL A   1     -26.955   4.173  31.494  0.00  0.00    +0.267 C 
ATOM     40  O   UNL A   1     -25.624   4.467  31.069  0.00  0.00    -0.209 OA
BRANCH  39  41
ATOM     41  C   UNL A   1     -27.723   5.427  31.248  0.00  0.00    +0.349 C 
ATOM     42  O   UNL A   1     -27.416   6.272  30.405  0.00  0.00    -0.247 OA
BRANCH  41  44
ATOM     43  C   UNL A   1     -29.981   6.167  31.551  0.00  0.00    +0.256 C 
ATOM     44  O   UNL A   1     -28.794   5.582  32.153  0.00  0.00    -0.443 OA
ENDBRANCH  41  44
ENDBRANCH  39  41
ENDBRANCH  38  39
ENDBRANCH  37  38
ENDBRANCH  36  37
ENDBRANCH   7  36
TORSDOF 14
