REMARK  Name = outputs/IAG933/test6/raw/output_9187_IAG933_linker_design_.xyz
REMARK  12 active torsions:
REMARK  status: ('A' for Active; 'I' for Inactive)
REMARK    1  A    between atoms: C_1  and  C_2
REMARK    2  A    between atoms: C_1  and  C_8
REMARK    3  A    between atoms: C_1  and  N_36
REMARK    4  A    between atoms: C_14  and  C_15
REMARK    5  A    between atoms: C_15  and  O_18
REMARK    6  A    between atoms: O_18  and  C_40
REMARK    7  A    between atoms: C_21  and  O_22
REMARK    8  A    between atoms: O_22  and  C_23
REMARK    9  A    between atoms: C_23  and  C_24
REMARK   10  A    between atoms: C_32  and  N_36
REMARK   11  A    between atoms: C_34  and  N_41
REMARK   12  A    between atoms: C_38  and  N_41
REMARK                            x       y       z     vdW  Elec       q    Type
REMARK                         _______ _______ _______ _____ _____    ______ ____
ROOT
ATOM      1  N   UNL A   1     -24.609   1.767  29.514  0.00  0.00    -0.237 NA
ENDROOT
BRANCH   1   6
ATOM      2  C   UNL A   1     -22.181   1.811  26.682  0.00  0.00    +0.041 C 
ATOM      3  C   UNL A   1     -23.182   2.122  27.575  0.00  0.00    +0.082 C 
ATOM      4  C   UNL A   1     -22.962   0.398  29.185  0.00  0.00    +0.077 C 
ATOM      5  C   UNL A   1     -21.619   0.151  29.137  0.00  0.00    +0.017 C 
ATOM      6  C   UNL A   1     -23.609   1.459  28.694  0.00  0.00    +0.063 C 
ATOM      7  C   UNL A   1     -20.750   0.493  28.139  0.00  0.00    +0.002 C 
ATOM      8 CL   UNL A   1     -22.350   2.290  24.929  0.00  0.00    -0.086 Cl
ATOM      9  C   UNL A   1     -21.008   1.196  26.977  0.00  0.00    +0.007 C 
BRANCH   4  10
ATOM     10  N   UNL A   1     -23.629  -0.430  29.800  0.00  0.00    -0.233 NA
BRANCH  10  11
ATOM     11  C   UNL A   1     -24.855  -1.012  30.143  0.00  0.00    +0.131 C 
BRANCH  11  12
ATOM     12  C   UNL A   1     -24.973  -2.505  29.788  0.00  0.00    -0.001 C 
ATOM     13  C   UNL A   1     -23.906  -3.173  29.146  0.00  0.00    -0.003 C 
ATOM     14  C   UNL A   1     -23.989  -4.549  28.853  0.00  0.00    -0.000 C 
ATOM     15  C   UNL A   1     -25.137  -5.280  29.205  0.00  0.00    -0.000 C 
ATOM     16  C   UNL A   1     -26.232  -4.611  29.784  0.00  0.00    -0.000 C 
ATOM     17  C   UNL A   1     -26.155  -3.232  30.065  0.00  0.00    -0.003 C 
ENDBRANCH  11  12
BRANCH  11  18
ATOM     18  C   UNL A   1     -25.387  -0.679  31.571  0.00  0.00    +0.097 C 
ATOM     19  C   UNL A   1     -25.189   0.773  32.028  0.00  0.00    +0.021 C 
ATOM     20  C   UNL A   1     -25.336   0.684  33.544  0.00  0.00    +0.020 C 
ATOM     21  C   UNL A   1     -24.829  -0.715  33.905  0.00  0.00    +0.089 C 
ATOM     22  N   UNL A   1     -24.758  -1.481  32.646  0.00  0.00    -0.217 NA
ENDBRANCH  11  18
ENDBRANCH  10  11
ENDBRANCH   4  10
ENDBRANCH   1   6
BRANCH   1  26
ATOM     23  C   UNL A   1     -27.081   1.787  29.975  0.00  0.00    +0.044 C 
ATOM     24  C   UNL A   1     -27.983   2.817  29.968  0.00  0.00    +0.077 C 
ATOM     25  N   UNL A   1     -27.398   3.956  29.618  0.00  0.00    -0.237 NA
ATOM     26  C   UNL A   1     -25.841   2.288  29.553  0.00  0.00    +0.150 C 
ATOM     27  C   UNL A   1     -26.041   3.530  29.127  0.00  0.00    +0.250 C 
ATOM     28  C   UNL A   1     -27.959   5.279  29.798  0.00  0.00    +0.093 C 
BRANCH  27  29
ATOM     29  O   UNL A   1     -25.143   3.966  28.243  0.00  0.00    -0.446 OA
BRANCH  29  30
ATOM     30  C   UNL A   1     -25.642   4.093  27.123  0.00  0.00    +0.223 C 
ATOM     31  N   UNL A   1     -25.614   5.252  26.449  0.00  0.00    -0.236 NA
ATOM     32  C   UNL A   1     -25.026   6.479  26.963  0.00  0.00    +0.155 C 
BRANCH  30  34
ATOM     33  C   UNL A   1     -25.688   1.614  26.461  0.00  0.00    +0.041 C 
ATOM     34  C   UNL A   1     -26.250   2.920  26.395  0.00  0.00    +0.074 C 
ATOM     35  C   UNL A   1     -27.438   3.091  25.645  0.00  0.00    +0.107 C 
ATOM     36  N   UNL A   1     -28.075   2.089  25.003  0.00  0.00    -0.208 NA
ATOM     37  C   UNL A   1     -27.543   0.849  25.079  0.00  0.00    +0.253 C 
ATOM     38  C   UNL A   1     -26.354   0.576  25.777  0.00  0.00    +0.193 C 
ATOM     39  F   UNL A   1     -25.860  -0.681  25.795  0.00  0.00    -0.199 F 
BRANCH  37  40
ATOM     40  O   UNL A   1     -28.193  -0.208  24.477  0.00  0.00    -0.456 OA
BRANCH  40  41
ATOM     41  C   UNL A   1     -29.460   0.005  23.866  0.00  0.00    +0.243 C 
BRANCH  41  42
ATOM     42  C   UNL A   1     -30.065  -1.377  23.573  0.00  0.00    +0.229 C 
ATOM     43  O   UNL A   1     -30.729  -1.878  24.721  0.00  0.00    -0.216 OA
ENDBRANCH  41  42
ENDBRANCH  40  41
ENDBRANCH  37  40
ENDBRANCH  30  34
ENDBRANCH  29  30
ENDBRANCH  27  29
ENDBRANCH   1  26
TORSDOF 12
