REMARK  Name = outputs/IAG933/test6/raw/output_9188_IAG933_linker_design_.xyz
REMARK  15 active torsions:
REMARK  status: ('A' for Active; 'I' for Inactive)
REMARK    1  A    between atoms: C_1  and  C_2
REMARK    2  A    between atoms: C_1  and  C_8
REMARK    3  A    between atoms: C_1  and  C_29
REMARK    4  A    between atoms: C_13  and  N_37
REMARK    5  A    between atoms: C_14  and  C_15
REMARK    6  A    between atoms: C_21  and  O_22
REMARK    7  A    between atoms: O_22  and  C_23
REMARK    8  A    between atoms: C_23  and  C_24
REMARK    9  A    between atoms: C_29  and  C_31
REMARK   10  A    between atoms: C_29  and  O_39
REMARK   11  A    between atoms: C_30  and  C_40
REMARK   12  A    between atoms: C_30  and  N_44
REMARK   13  A    between atoms: C_32  and  O_39
REMARK   14  A    between atoms: C_32  and  C_40
REMARK   15  A    between atoms: C_38  and  N_44
REMARK                            x       y       z     vdW  Elec       q    Type
REMARK                         _______ _______ _______ _____ _____    ______ ____
ROOT
ATOM      1  C   UNL A   1     -25.584  -0.270  28.973  0.00  0.00    +0.167 C 
ENDROOT
BRANCH   1   2
ATOM      2  C   UNL A   1     -24.372   0.706  28.468  0.00  0.00    +0.221 C 
ATOM      3  N   UNL A   1     -24.393   1.303  27.074  0.00  0.00    -0.280 N 
ATOM      4  O   UNL A   1     -23.026   0.532  28.675  0.00  0.00    -0.334 OA
ATOM      5  C   UNL A   1     -23.019   1.843  26.656  0.00  0.00    +0.125 C 
ATOM      6  C   UNL A   1     -22.214   1.316  27.813  0.00  0.00    +0.166 C 
BRANCH   3   7
ATOM      7  C   UNL A   1     -25.688   1.614  26.461  0.00  0.00    +0.088 C 
ATOM      8  C   UNL A   1     -26.250   2.920  26.395  0.00  0.00    +0.090 C 
ATOM      9  C   UNL A   1     -27.438   3.091  25.645  0.00  0.00    +0.108 C 
ATOM     10  N   UNL A   1     -28.075   2.089  25.003  0.00  0.00    -0.208 NA
ATOM     11  C   UNL A   1     -27.543   0.849  25.079  0.00  0.00    +0.255 C 
ATOM     12  C   UNL A   1     -26.354   0.576  25.777  0.00  0.00    +0.206 C 
ATOM     13  F   UNL A   1     -25.860  -0.681  25.795  0.00  0.00    -0.198 F 
BRANCH   8  14
ATOM     14  C   UNL A   1     -25.642   4.093  27.123  0.00  0.00    +0.268 C 
ATOM     15  N   UNL A   1     -25.614   5.252  26.449  0.00  0.00    -0.200 NA
ATOM     16  C   UNL A   1     -25.026   6.479  26.963  0.00  0.00    +0.139 C 
ATOM     17  O   UNL A   1     -25.143   3.966  28.243  0.00  0.00    -0.268 OA
ENDBRANCH   8  14
BRANCH  11  18
ATOM     18  O   UNL A   1     -28.193  -0.208  24.477  0.00  0.00    -0.456 OA
BRANCH  18  19
ATOM     19  C   UNL A   1     -29.460   0.005  23.866  0.00  0.00    +0.243 C 
BRANCH  19  20
ATOM     20  C   UNL A   1     -30.065  -1.377  23.573  0.00  0.00    +0.229 C 
ATOM     21  O   UNL A   1     -30.729  -1.878  24.721  0.00  0.00    -0.216 OA
ENDBRANCH  19  20
ENDBRANCH  18  19
ENDBRANCH  11  18
ENDBRANCH   3   7
ENDBRANCH   1   2
BRANCH   1  22
ATOM     22  C   UNL A   1     -24.855  -1.012  30.143  0.00  0.00    +0.070 C 
BRANCH  22  23
ATOM     23  C   UNL A   1     -24.973  -2.505  29.788  0.00  0.00    -0.019 C 
ATOM     24  C   UNL A   1     -23.906  -3.173  29.146  0.00  0.00    -0.004 C 
ATOM     25  C   UNL A   1     -23.989  -4.549  28.853  0.00  0.00    -0.000 C 
ATOM     26  C   UNL A   1     -25.137  -5.280  29.205  0.00  0.00    -0.000 C 
ATOM     27  C   UNL A   1     -26.232  -4.611  29.784  0.00  0.00    -0.000 C 
ATOM     28  C   UNL A   1     -26.155  -3.232  30.065  0.00  0.00    -0.004 C 
ENDBRANCH  22  23
BRANCH  22  29
ATOM     29  C   UNL A   1     -25.387  -0.679  31.571  0.00  0.00    +0.079 C 
ATOM     30  C   UNL A   1     -25.189   0.773  32.028  0.00  0.00    +0.019 C 
ATOM     31  C   UNL A   1     -25.336   0.684  33.544  0.00  0.00    +0.020 C 
ATOM     32  C   UNL A   1     -24.829  -0.715  33.905  0.00  0.00    +0.089 C 
ATOM     33  N   UNL A   1     -24.758  -1.481  32.646  0.00  0.00    -0.219 NA
ENDBRANCH  22  29
ENDBRANCH   1  22
BRANCH   1  34
ATOM     34  O   UNL A   1     -27.117  -0.379  28.965  0.00  0.00    -0.351 OA
BRANCH  34  35
ATOM     35  C   UNL A   1     -27.560   0.764  29.807  0.00  0.00    +0.144 C 
BRANCH  35  36
ATOM     36  C   UNL A   1     -28.339   1.836  29.891  0.00  0.00    +0.052 C 
BRANCH  36  37
ATOM     37  C   UNL A   1     -29.530   1.686  28.948  0.00  0.00    +0.080 C 
ATOM     38  C   UNL A   1     -30.106   2.044  27.589  0.00  0.00    +0.022 C 
BRANCH  37  42
ATOM     39  C   UNL A   1     -30.545   0.554  30.481  0.00  0.00    +0.228 C 
ATOM     40  O   UNL A   1     -30.023   0.873  31.561  0.00  0.00    -0.275 OA
ATOM     41  C   UNL A   1     -32.002   0.154  30.484  0.00  0.00    +0.095 C 
ATOM     42  N   UNL A   1     -29.997   0.432  29.154  0.00  0.00    -0.253 N 
BRANCH  42  44
ATOM     43  O   UNL A   1     -30.917  -0.941  27.467  0.00  0.00    -0.196 OA
ATOM     44  C   UNL A   1     -29.668  -0.462  27.961  0.00  0.00    +0.280 C 
ENDBRANCH  42  44
ENDBRANCH  37  42
ENDBRANCH  36  37
ENDBRANCH  35  36
ENDBRANCH  34  35
ENDBRANCH   1  34
TORSDOF 15
