MODEL 918
MODEL 1
REMARK VINA RESULT:    -5.866      0.000      0.000
REMARK INTER + INTRA:          -7.875
REMARK INTER:                  -7.581
REMARK INTRA:                  -0.294
REMARK UNBOUND:                -0.294
REMARK  Name = No_918-gen_results/8p0m/2024-11-27-11-27-31/
REMARK  5 active torsions:
REMARK  status: ('A' for Active; 'I' for Inactive)
REMARK    1  A    between atoms: C_1  and  C_2
REMARK    2  A    between atoms: C_1  and  N_8
REMARK    3  A    between atoms: N_8  and  C_9
REMARK    4  A    between atoms: C_10  and  C_11
REMARK    5  A    between atoms: C_12  and  C_13
REMARK                            x       y       z     vdW  Elec       q    Type
REMARK                         _______ _______ _______ _____ _____    ______ ____
ROOT
ATOM      1  C   UNL A   1     -25.025  -1.202  29.512  0.00  0.00    +0.139 C 
ENDROOT
BRANCH   1   2
ATOM      2  C   UNL A   1     -24.980  -2.405  29.393  0.00  0.00    -0.001 A 
ATOM      3  C   UNL A   1     -26.061  -3.203  29.752  0.00  0.00    -0.003 A 
ATOM      4  C   UNL A   1     -26.125  -4.690  29.664  0.00  0.00    -0.000 A 
ATOM      5  C   UNL A   1     -25.029  -5.324  29.008  0.00  0.00    -0.000 A 
ATOM      6  C   UNL A   1     -23.970  -4.489  28.598  0.00  0.00    -0.000 A 
ATOM      7  C   UNL A   1     -23.947  -3.157  28.753  0.00  0.00    -0.003 A 
ENDBRANCH   1   2
BRANCH   1   8
ATOM      8  N   UNL A   1     -25.799  -0.509  28.571  0.00  0.00    -0.232 NA
BRANCH   8   9
ATOM      9  C   UNL A   1     -25.522   0.042  27.744  0.00  0.00    +0.080 C 
ATOM     10  C   UNL A   1     -25.210   0.184  26.639  0.00  0.00    +0.017 C 
BRANCH  10  11
ATOM     11  C   UNL A   1     -24.556   0.791  25.572  0.00  0.00    -0.003 C 
ATOM     12  C   UNL A   1     -23.584   1.784  25.712  0.00  0.00    -0.026 C 
BRANCH  12  13
ATOM     13  C   UNL A   1     -23.193   2.211  26.960  0.00  0.00    +0.026 C 
ATOM     14  C   UNL A   1     -21.948   1.741  27.437  0.00  0.00    +0.005 C 
ENDBRANCH  12  13
ENDBRANCH  10  11
ENDBRANCH   8   9
ENDBRANCH   1   8
TORSDOF 5
ENDMDL
ENDMDL
