REMARK  Name = No_919-gen_results/8p0m/2024-11-27-11-27-31/
REMARK  2 active torsions:
REMARK  status: ('A' for Active; 'I' for Inactive)
REMARK    1  A    between atoms: C_6  and  C_7
REMARK    2  A    between atoms: C_7  and  C_9
REMARK                            x       y       z     vdW  Elec       q    Type
REMARK                         _______ _______ _______ _____ _____    ______ ____
ROOT
ATOM      1  C   UNL A   1     -28.016  -0.814  28.878  0.00  0.00    +0.001 A 
ATOM      2  C   UNL A   1     -27.064  -0.119  28.608  0.00  0.00    +0.000 A 
ATOM      3  C   UNL A   1     -25.765  -0.390  29.036  0.00  0.00    +0.000 A 
ATOM      4  C   UNL A   1     -25.530  -1.530  29.901  0.00  0.00    +0.000 A 
ATOM      5  C   UNL A   1     -26.689  -2.289  30.181  0.00  0.00    +0.001 A 
ATOM      6  C   UNL A   1     -27.873  -1.951  29.737  0.00  0.00    +0.015 A 
ENDROOT
BRANCH   6   7
ATOM      7  C   UNL A   1     -29.002  -2.814  30.179  0.00  0.00    +0.081 C 
ATOM      8  N   UNL A   1     -28.827  -4.075  30.477  0.00  0.00    -0.153 NA
BRANCH   7   9
ATOM      9  C   UNL A   1     -30.300  -2.286  30.346  0.00  0.00    +0.048 C 
ATOM     10  C   UNL A   1     -31.320  -3.135  30.686  0.00  0.00    +0.007 C 
ENDBRANCH   7   9
ENDBRANCH   6   7
TORSDOF 2
