REMARK  Name = outputs/IAG933/test6/raw/output_9192_IAG933_linker_design_.xyz
REMARK  10 active torsions:
REMARK  status: ('A' for Active; 'I' for Inactive)
REMARK    1  A    between atoms: C_1  and  C_2
REMARK    2  A    between atoms: C_1  and  C_8
REMARK    3  A    between atoms: C_1  and  C_36
REMARK    4  A    between atoms: C_13  and  C_40
REMARK    5  A    between atoms: C_14  and  C_15
REMARK    6  A    between atoms: C_21  and  O_22
REMARK    7  A    between atoms: O_22  and  C_23
REMARK    8  A    between atoms: C_23  and  C_24
REMARK    9  A    between atoms: C_34  and  C_36
REMARK   10  A    between atoms: C_34  and  C_42
REMARK                            x       y       z     vdW  Elec       q    Type
REMARK                         _______ _______ _______ _____ _____    ______ ____
ROOT
ATOM      1  C   UNL A   1     -23.212   2.069  25.855  0.00  0.00    +0.188 C 
ATOM      2  C   UNL A   1     -21.664  -0.085  28.854  0.00  0.00    +0.224 C 
ATOM      3  C   UNL A   1     -21.498   1.571  27.308  0.00  0.00    +0.290 C 
ATOM      4  C   UNL A   1     -22.464   0.834  28.084  0.00  0.00    +0.079 C 
ATOM      5  O   UNL A   1     -20.239   1.303  27.786  0.00  0.00    -0.445 OA
ATOM      6  C   UNL A   1     -23.453   2.637  24.500  0.00  0.00    +0.052 C 
ATOM      7  O   UNL A   1     -22.065  -0.799  29.878  0.00  0.00    -0.214 OA
ATOM      8  O   UNL A   1     -21.938   2.118  26.217  0.00  0.00    -0.448 OA
ATOM      9  C   UNL A   1     -24.238   1.485  26.684  0.00  0.00    -0.002 C 
ATOM     10  C   UNL A   1     -20.280   0.026  28.616  0.00  0.00    +0.246 C 
ATOM     11  C   UNL A   1     -23.546   1.044  27.829  0.00  0.00    -0.014 C 
ENDROOT
BRANCH   9  12
ATOM     12  C   UNL A   1     -25.688   1.614  26.461  0.00  0.00    +0.091 C 
ATOM     13  C   UNL A   1     -26.250   2.920  26.395  0.00  0.00    +0.059 C 
ATOM     14  C   UNL A   1     -27.438   3.091  25.645  0.00  0.00    +0.102 C 
ATOM     15  N   UNL A   1     -28.075   2.089  25.003  0.00  0.00    -0.212 NA
ATOM     16  C   UNL A   1     -27.543   0.849  25.079  0.00  0.00    +0.234 C 
ATOM     17  C   UNL A   1     -26.354   0.576  25.777  0.00  0.00    +0.244 C 
ATOM     18  F   UNL A   1     -25.860  -0.681  25.795  0.00  0.00    -0.227 F 
BRANCH  13  19
ATOM     19  C   UNL A   1     -25.642   4.093  27.123  0.00  0.00    +0.263 C 
ATOM     20  N   UNL A   1     -25.614   5.252  26.449  0.00  0.00    -0.200 NA
ATOM     21  C   UNL A   1     -25.026   6.479  26.963  0.00  0.00    +0.139 C 
ATOM     22  O   UNL A   1     -25.143   3.966  28.243  0.00  0.00    -0.269 OA
ENDBRANCH  13  19
BRANCH  16  23
ATOM     23  O   UNL A   1     -28.193  -0.208  24.477  0.00  0.00    -0.459 OA
BRANCH  23  24
ATOM     24  C   UNL A   1     -29.460   0.005  23.866  0.00  0.00    +0.242 C 
BRANCH  24  25
ATOM     25  C   UNL A   1     -30.065  -1.377  23.573  0.00  0.00    +0.229 C 
ATOM     26  O   UNL A   1     -30.729  -1.878  24.721  0.00  0.00    -0.216 OA
ENDBRANCH  24  25
ENDBRANCH  23  24
ENDBRANCH  16  23
ENDBRANCH   9  12
BRANCH  11  27
ATOM     27  C   UNL A   1     -23.798   0.938  29.108  0.00  0.00    +0.118 C 
BRANCH  27  29
ATOM     28  O   UNL A   1     -26.187  -0.437  28.280  0.00  0.00    -0.275 OA
ATOM     29  C   UNL A   1     -25.230   0.193  29.146  0.00  0.00    +0.360 C 
ATOM     30  O   UNL A   1     -25.932   1.414  29.251  0.00  0.00    -0.275 OA
BRANCH  29  31
ATOM     31  C   UNL A   1     -24.855  -1.012  30.143  0.00  0.00    +0.123 C 
BRANCH  31  32
ATOM     32  C   UNL A   1     -24.973  -2.505  29.788  0.00  0.00    -0.014 C 
ATOM     33  C   UNL A   1     -23.906  -3.173  29.146  0.00  0.00    -0.004 C 
ATOM     34  C   UNL A   1     -23.989  -4.549  28.853  0.00  0.00    -0.000 C 
ATOM     35  C   UNL A   1     -25.137  -5.280  29.205  0.00  0.00    -0.000 C 
ATOM     36  C   UNL A   1     -26.232  -4.611  29.784  0.00  0.00    -0.000 C 
ATOM     37  C   UNL A   1     -26.155  -3.232  30.065  0.00  0.00    -0.004 C 
ENDBRANCH  31  32
BRANCH  31  38
ATOM     38  C   UNL A   1     -25.387  -0.679  31.571  0.00  0.00    +0.084 C 
ATOM     39  C   UNL A   1     -25.189   0.773  32.028  0.00  0.00    +0.019 C 
ATOM     40  C   UNL A   1     -25.336   0.684  33.544  0.00  0.00    +0.020 C 
ATOM     41  C   UNL A   1     -24.829  -0.715  33.905  0.00  0.00    +0.089 C 
ATOM     42  N   UNL A   1     -24.758  -1.481  32.646  0.00  0.00    -0.219 NA
ENDBRANCH  31  38
ENDBRANCH  29  31
ENDBRANCH  27  29
ENDBRANCH  11  27
TORSDOF 10
