REMARK  Name = outputs/IAG933/test6/raw/output_9194_IAG933_linker_design_.xyz
REMARK  14 active torsions:
REMARK  status: ('A' for Active; 'I' for Inactive)
REMARK    1  A    between atoms: C_1  and  C_2
REMARK    2  A    between atoms: C_1  and  C_8
REMARK    3  A    between atoms: C_1  and  C_39
REMARK    4  A    between atoms: C_13  and  C_41
REMARK    5  A    between atoms: C_14  and  C_15
REMARK    6  A    between atoms: C_21  and  O_22
REMARK    7  A    between atoms: O_22  and  C_23
REMARK    8  A    between atoms: C_23  and  C_24
REMARK    9  A    between atoms: C_29  and  O_33
REMARK   10  A    between atoms: C_29  and  C_37
REMARK   11  A    between atoms: C_30  and  C_34
REMARK   12  A    between atoms: C_30  and  C_37
REMARK   13  A    between atoms: O_33  and  C_38
REMARK   14  A    between atoms: C_34  and  N_40
REMARK                            x       y       z     vdW  Elec       q    Type
REMARK                         _______ _______ _______ _____ _____    ______ ____
ROOT
ATOM      1  C   UNL A   1     -22.938   0.032  28.939  0.00  0.00    +0.117 C 
ATOM      2  O   UNL A   1     -23.441   1.825  27.423  0.00  0.00    -0.263 OA
ATOM      3  C   UNL A   1     -21.110   1.311  27.812  0.00  0.00    +0.121 C 
ATOM      4  N   UNL A   1     -22.488   0.749  27.764  0.00  0.00    -0.161 NA
ATOM      5  C   UNL A   1     -24.453  -0.061  29.011  0.00  0.00    +0.084 C 
ATOM      6  N   UNL A   1     -25.034   1.264  28.718  0.00  0.00    -0.245 NA
ATOM      7  C   UNL A   1     -24.592   1.259  27.174  0.00  0.00    +0.224 C 
ENDROOT
BRANCH   7   8
ATOM      8  C   UNL A   1     -25.688   1.614  26.461  0.00  0.00    +0.060 C 
ATOM      9  C   UNL A   1     -26.250   2.920  26.395  0.00  0.00    +0.076 C 
ATOM     10  C   UNL A   1     -27.438   3.091  25.645  0.00  0.00    +0.106 C 
ATOM     11  N   UNL A   1     -28.075   2.089  25.003  0.00  0.00    -0.208 NA
ATOM     12  C   UNL A   1     -27.543   0.849  25.079  0.00  0.00    +0.253 C 
ATOM     13  C   UNL A   1     -26.354   0.576  25.777  0.00  0.00    +0.193 C 
ATOM     14  F   UNL A   1     -25.860  -0.681  25.795  0.00  0.00    -0.199 F 
BRANCH   9  15
ATOM     15  C   UNL A   1     -25.642   4.093  27.123  0.00  0.00    +0.266 C 
ATOM     16  N   UNL A   1     -25.614   5.252  26.449  0.00  0.00    -0.200 NA
ATOM     17  C   UNL A   1     -25.026   6.479  26.963  0.00  0.00    +0.139 C 
ATOM     18  O   UNL A   1     -25.143   3.966  28.243  0.00  0.00    -0.268 OA
ENDBRANCH   9  15
BRANCH  12  19
ATOM     19  O   UNL A   1     -28.193  -0.208  24.477  0.00  0.00    -0.456 OA
BRANCH  19  20
ATOM     20  C   UNL A   1     -29.460   0.005  23.866  0.00  0.00    +0.243 C 
BRANCH  20  21
ATOM     21  C   UNL A   1     -30.065  -1.377  23.573  0.00  0.00    +0.229 C 
ATOM     22  O   UNL A   1     -30.729  -1.878  24.721  0.00  0.00    -0.216 OA
ENDBRANCH  20  21
ENDBRANCH  19  20
ENDBRANCH  12  19
ENDBRANCH   7   8
BRANCH   5  23
ATOM     23  C   UNL A   1     -24.855  -1.012  30.143  0.00  0.00    +0.054 C 
BRANCH  23  24
ATOM     24  C   UNL A   1     -24.973  -2.505  29.788  0.00  0.00    -0.020 C 
ATOM     25  C   UNL A   1     -23.906  -3.173  29.146  0.00  0.00    -0.004 C 
ATOM     26  C   UNL A   1     -23.989  -4.549  28.853  0.00  0.00    -0.000 C 
ATOM     27  C   UNL A   1     -25.137  -5.280  29.205  0.00  0.00    -0.000 C 
ATOM     28  C   UNL A   1     -26.232  -4.611  29.784  0.00  0.00    -0.000 C 
ATOM     29  C   UNL A   1     -26.155  -3.232  30.065  0.00  0.00    -0.004 C 
ENDBRANCH  23  24
BRANCH  23  30
ATOM     30  C   UNL A   1     -25.387  -0.679  31.571  0.00  0.00    +0.078 C 
ATOM     31  C   UNL A   1     -25.189   0.773  32.028  0.00  0.00    +0.019 C 
ATOM     32  C   UNL A   1     -25.336   0.684  33.544  0.00  0.00    +0.020 C 
ATOM     33  C   UNL A   1     -24.829  -0.715  33.905  0.00  0.00    +0.089 C 
ATOM     34  N   UNL A   1     -24.758  -1.481  32.646  0.00  0.00    -0.219 NA
ENDBRANCH  23  30
ENDBRANCH   5  23
BRANCH   6  35
ATOM     35  C   UNL A   1     -26.203   1.596  29.689  0.00  0.00    +0.077 C 
BRANCH  35  36
ATOM     36  C   UNL A   1     -25.959   2.870  30.524  0.00  0.00    +0.053 C 
BRANCH  36  37
ATOM     37  C   UNL A   1     -27.204   3.698  30.899  0.00  0.00    +0.183 C 
ATOM     38  O   UNL A   1     -27.417   4.856  30.376  0.00  0.00    -0.220 OA
BRANCH  37  39
ATOM     39  C   UNL A   1     -28.129   2.989  31.787  0.00  0.00    +0.175 C 
BRANCH  39  40
ATOM     40  O   UNL A   1     -28.974   3.922  32.289  0.00  0.00    -0.351 OA
BRANCH  40  42
ATOM     41  C   UNL A   1     -30.059   5.144  34.022  0.00  0.00    +0.035 C 
ATOM     42  C   UNL A   1     -28.913   4.339  33.545  0.00  0.00    +0.142 C 
ENDBRANCH  40  42
ENDBRANCH  39  40
ENDBRANCH  37  39
ENDBRANCH  36  37
ENDBRANCH  35  36
ENDBRANCH   6  35
TORSDOF 14
