REMARK  Name = outputs/IAG933/test6/raw/output_9197_IAG933_linker_design_.xyz
REMARK  12 active torsions:
REMARK  status: ('A' for Active; 'I' for Inactive)
REMARK    1  A    between atoms: C_1  and  C_2
REMARK    2  A    between atoms: C_1  and  C_8
REMARK    3  A    between atoms: C_1  and  N_38
REMARK    4  A    between atoms: C_13  and  C_31
REMARK    5  A    between atoms: C_14  and  C_15
REMARK    6  A    between atoms: C_21  and  O_22
REMARK    7  A    between atoms: O_22  and  C_23
REMARK    8  A    between atoms: C_23  and  C_24
REMARK    9  A    between atoms: N_29  and  C_34
REMARK   10  A    between atoms: C_32  and  C_33
REMARK   11  A    between atoms: C_34  and  C_35
REMARK   12  A    between atoms: C_37  and  N_38
REMARK                            x       y       z     vdW  Elec       q    Type
REMARK                         _______ _______ _______ _____ _____    ______ ____
ROOT
ATOM      1  N   UNL A   1     -23.508   0.329  28.134  0.00  0.00    -0.252 NA
ATOM      2  C   UNL A   1     -24.336   1.268  27.215  0.00  0.00    +0.118 C 
ATOM      3  C   UNL A   1     -24.772   0.783  28.558  0.00  0.00    +0.156 C 
ENDROOT
BRANCH   2   4
ATOM      4  C   UNL A   1     -25.688   1.614  26.461  0.00  0.00    +0.033 C 
ATOM      5  C   UNL A   1     -26.250   2.920  26.395  0.00  0.00    +0.074 C 
ATOM      6  C   UNL A   1     -27.438   3.091  25.645  0.00  0.00    +0.106 C 
ATOM      7  N   UNL A   1     -28.075   2.089  25.003  0.00  0.00    -0.208 NA
ATOM      8  C   UNL A   1     -27.543   0.849  25.079  0.00  0.00    +0.253 C 
ATOM      9  C   UNL A   1     -26.354   0.576  25.777  0.00  0.00    +0.191 C 
ATOM     10  F   UNL A   1     -25.860  -0.681  25.795  0.00  0.00    -0.200 F 
BRANCH   5  11
ATOM     11  C   UNL A   1     -25.642   4.093  27.123  0.00  0.00    +0.266 C 
ATOM     12  N   UNL A   1     -25.614   5.252  26.449  0.00  0.00    -0.200 NA
ATOM     13  C   UNL A   1     -25.026   6.479  26.963  0.00  0.00    +0.139 C 
ATOM     14  O   UNL A   1     -25.143   3.966  28.243  0.00  0.00    -0.268 OA
ENDBRANCH   5  11
BRANCH   8  15
ATOM     15  O   UNL A   1     -28.193  -0.208  24.477  0.00  0.00    -0.456 OA
BRANCH  15  16
ATOM     16  C   UNL A   1     -29.460   0.005  23.866  0.00  0.00    +0.243 C 
BRANCH  16  17
ATOM     17  C   UNL A   1     -30.065  -1.377  23.573  0.00  0.00    +0.229 C 
ATOM     18  O   UNL A   1     -30.729  -1.878  24.721  0.00  0.00    -0.216 OA
ENDBRANCH  16  17
ENDBRANCH  15  16
ENDBRANCH   8  15
ENDBRANCH   2   4
BRANCH   3  21
ATOM     19  O   UNL A   1     -27.696  -1.318  29.015  0.00  0.00    -0.270 OA
ATOM     20  C   UNL A   1     -27.195  -0.214  29.171  0.00  0.00    +0.250 C 
ATOM     21  N   UNL A   1     -25.672  -0.137  29.214  0.00  0.00    -0.259 N 
BRANCH  20  23
ATOM     22  C   UNL A   1     -29.522   3.032  29.617  0.00  0.00    +0.000 C 
ATOM     23  C   UNL A   1     -28.404   0.858  29.312  0.00  0.00    +0.054 C 
ATOM     24  C   UNL A   1     -28.469   2.141  29.939  0.00  0.00    +0.004 C 
ATOM     25  C   UNL A   1     -29.470   0.446  28.546  0.00  0.00    +0.004 C 
ATOM     26  C   UNL A   1     -30.497   2.626  28.702  0.00  0.00    +0.000 C 
ATOM     27  C   UNL A   1     -30.478   1.354  28.155  0.00  0.00    +0.000 C 
ENDBRANCH  20  23
BRANCH  21  28
ATOM     28  C   UNL A   1     -24.855  -1.012  30.143  0.00  0.00    +0.115 C 
BRANCH  28  29
ATOM     29  C   UNL A   1     -24.973  -2.505  29.788  0.00  0.00    -0.003 C 
ATOM     30  C   UNL A   1     -23.906  -3.173  29.146  0.00  0.00    -0.003 C 
ATOM     31  C   UNL A   1     -23.989  -4.549  28.853  0.00  0.00    -0.000 C 
ATOM     32  C   UNL A   1     -25.137  -5.280  29.205  0.00  0.00    -0.000 C 
ATOM     33  C   UNL A   1     -26.232  -4.611  29.784  0.00  0.00    -0.000 C 
ATOM     34  C   UNL A   1     -26.155  -3.232  30.065  0.00  0.00    -0.003 C 
ENDBRANCH  28  29
BRANCH  28  35
ATOM     35  C   UNL A   1     -25.387  -0.679  31.571  0.00  0.00    +0.095 C 
ATOM     36  C   UNL A   1     -25.189   0.773  32.028  0.00  0.00    +0.021 C 
ATOM     37  C   UNL A   1     -25.336   0.684  33.544  0.00  0.00    +0.020 C 
ATOM     38  C   UNL A   1     -24.829  -0.715  33.905  0.00  0.00    +0.089 C 
ATOM     39  N   UNL A   1     -24.758  -1.481  32.646  0.00  0.00    -0.217 NA
ENDBRANCH  28  35
ENDBRANCH  21  28
ENDBRANCH   3  21
BRANCH   1  40
ATOM     40  C   UNL A   1     -22.635   0.123  29.238  0.00  0.00    +0.074 C 
BRANCH  40  41
ATOM     41  C   UNL A   1     -21.226   0.110  28.762  0.00  0.00    +0.017 C 
ATOM     42  C   UNL A   1     -20.885   1.264  27.849  0.00  0.00    +0.002 C 
ENDBRANCH  40  41
ENDBRANCH   1  40
TORSDOF 12
