MODEL 919
MODEL 1
REMARK VINA RESULT:    -5.021      0.000      0.000
REMARK INTER + INTRA:          -5.828
REMARK INTER:                  -5.608
REMARK INTRA:                  -0.220
REMARK UNBOUND:                -0.220
REMARK  Name = No_919-gen_results/8p0m/2024-11-27-11-27-31/
REMARK  2 active torsions:
REMARK  status: ('A' for Active; 'I' for Inactive)
REMARK    1  A    between atoms: C_6  and  C_7
REMARK    2  A    between atoms: C_7  and  C_9
REMARK                            x       y       z     vdW  Elec       q    Type
REMARK                         _______ _______ _______ _____ _____    ______ ____
ROOT
ATOM      1  C   UNL A   1     -25.759  -2.638  29.751  0.00  0.00    +0.001 A 
ATOM      2  C   UNL A   1     -26.395  -3.656  29.894  0.00  0.00    +0.000 A 
ATOM      3  C   UNL A   1     -25.939  -4.912  29.497  0.00  0.00    +0.000 A 
ATOM      4  C   UNL A   1     -24.660  -5.018  28.822  0.00  0.00    +0.000 A 
ATOM      5  C   UNL A   1     -23.979  -3.788  28.682  0.00  0.00    +0.001 A 
ATOM      6  C   UNL A   1     -24.492  -2.652  29.082  0.00  0.00    +0.015 A 
ENDROOT
BRANCH   6   7
ATOM      7  C   UNL A   1     -23.681  -1.438  28.799  0.00  0.00    +0.081 C 
ATOM      8  N   UNL A   1     -22.393  -1.405  29.021  0.00  0.00    -0.153 NA
BRANCH   7   9
ATOM      9  C   UNL A   1     -24.266  -0.289  28.225  0.00  0.00    +0.048 C 
ATOM     10  C   UNL A   1     -25.042  -0.431  27.105  0.00  0.00    +0.007 C 
ENDBRANCH   7   9
ENDBRANCH   6   7
TORSDOF 2
ENDMDL
ENDMDL
