MODEL 91
MODEL 1
REMARK VINA RESULT:    -5.400      0.000      0.000
REMARK INTER + INTRA:          -5.400
REMARK INTER:                  -5.400
REMARK INTRA:                   0.000
REMARK UNBOUND:                 0.000
REMARK  Name = No_91-gen_results/8p0m/2024-11-27-11-27-31/
REMARK  0 active torsions:
REMARK  status: ('A' for Active; 'I' for Inactive)
REMARK                            x       y       z     vdW  Elec       q    Type
REMARK                         _______ _______ _______ _____ _____    ______ ____
ROOT
ATOM      1 CL   UNL A   1     -23.455   3.039  25.539  0.00  0.00    -0.082 Cl
ATOM      2  C   UNL A   1     -23.310   2.104  26.627  0.00  0.00    +0.058 A 
ATOM      3  C   UNL A   1     -24.341   1.242  26.973  0.00  0.00    +0.011 A 
ATOM      4  C   UNL A   1     -24.070   0.014  27.544  0.00  0.00    +0.001 A 
ATOM      5  C   UNL A   1     -22.928  -0.163  28.361  0.00  0.00    +0.000 A 
ATOM      6  C   UNL A   1     -21.957   0.801  28.196  0.00  0.00    +0.001 A 
ATOM      7  C   UNL A   1     -22.109   1.865  27.386  0.00  0.00    +0.011 A 
ATOM      8  C   UNL A   1     -25.176  -0.975  27.840  0.00  0.00    +0.000 A 
ATOM      9  C   UNL A   1     -24.946  -2.072  28.677  0.00  0.00    +0.000 A 
ATOM     10  C   UNL A   1     -23.739  -2.181  29.380  0.00  0.00    +0.000 A 
ATOM     11  C   UNL A   1     -22.799  -1.293  29.234  0.00  0.00    +0.000 A 
ENDROOT
TORSDOF 0
ENDMDL
ENDMDL
