REMARK  Name = outputs/IAG933/test6/raw/output_92_IAG933_linker_design_.xyz
REMARK  10 active torsions:
REMARK  status: ('A' for Active; 'I' for Inactive)
REMARK    1  A    between atoms: C_1  and  C_2
REMARK    2  A    between atoms: C_1  and  C_8
REMARK    3  A    between atoms: C_1  and  C_33
REMARK    4  A    between atoms: C_13  and  C_34
REMARK    5  A    between atoms: C_14  and  C_15
REMARK    6  A    between atoms: C_21  and  O_22
REMARK    7  A    between atoms: O_22  and  C_23
REMARK    8  A    between atoms: C_23  and  C_24
REMARK    9  A    between atoms: N_29  and  C_34
REMARK   10  A    between atoms: C_31  and  O_40
REMARK                            x       y       z     vdW  Elec       q    Type
REMARK                         _______ _______ _______ _____ _____    ______ ____
ROOT
ATOM      1  C   UNL A   1     -24.905  -0.222  27.941  0.00  0.00    +0.030 C 
ATOM      2  C   UNL A   1     -23.512   1.621  27.108  0.00  0.00    +0.177 C 
ATOM      3  F   UNL A   1     -22.932   0.573  30.117  0.00  0.00    -0.205 F 
ATOM      4  C   UNL A   1     -24.072  -0.156  29.357  0.00  0.00    +0.068 C 
ATOM      5  C   UNL A   1     -24.736   1.272  27.575  0.00  0.00    +0.120 C 
ATOM      6  O   UNL A   1     -21.689  -0.711  28.759  0.00  0.00    -0.298 OA
ATOM      7  O   UNL A   1     -19.788  -0.523  27.597  0.00  0.00    -0.186 OA
ATOM      8  C   UNL A   1     -22.447   1.247  27.721  0.00  0.00    +0.083 C 
ATOM      9  F   UNL A   1     -20.199   2.194  27.495  0.00  0.00    -0.227 F 
ATOM     10  C   UNL A   1     -20.660   0.061  28.517  0.00  0.00    +0.308 C 
ATOM     11  C   UNL A   1     -21.147   1.318  27.722  0.00  0.00    +0.246 C 
ATOM     12  C   UNL A   1     -22.836   0.295  28.834  0.00  0.00    +0.250 C 
ENDROOT
BRANCH   5  13
ATOM     13  C   UNL A   1     -25.688   1.614  26.461  0.00  0.00    +0.092 C 
ATOM     14  C   UNL A   1     -26.250   2.920  26.395  0.00  0.00    +0.057 C 
ATOM     15  C   UNL A   1     -27.438   3.091  25.645  0.00  0.00    +0.102 C 
ATOM     16  N   UNL A   1     -28.075   2.089  25.003  0.00  0.00    -0.212 NA
ATOM     17  C   UNL A   1     -27.543   0.849  25.079  0.00  0.00    +0.234 C 
ATOM     18  C   UNL A   1     -26.354   0.576  25.777  0.00  0.00    +0.242 C 
ATOM     19  F   UNL A   1     -25.860  -0.681  25.795  0.00  0.00    -0.227 F 
BRANCH  14  20
ATOM     20  C   UNL A   1     -25.642   4.093  27.123  0.00  0.00    +0.263 C 
ATOM     21  N   UNL A   1     -25.614   5.252  26.449  0.00  0.00    -0.200 NA
ATOM     22  C   UNL A   1     -25.026   6.479  26.963  0.00  0.00    +0.139 C 
ATOM     23  O   UNL A   1     -25.143   3.966  28.243  0.00  0.00    -0.269 OA
ENDBRANCH  14  20
BRANCH  17  24
ATOM     24  O   UNL A   1     -28.193  -0.208  24.477  0.00  0.00    -0.459 OA
BRANCH  24  25
ATOM     25  C   UNL A   1     -29.460   0.005  23.866  0.00  0.00    +0.242 C 
BRANCH  25  26
ATOM     26  C   UNL A   1     -30.065  -1.377  23.573  0.00  0.00    +0.229 C 
ATOM     27  O   UNL A   1     -30.729  -1.878  24.721  0.00  0.00    -0.216 OA
ENDBRANCH  25  26
ENDBRANCH  24  25
ENDBRANCH  17  24
ENDBRANCH   5  13
BRANCH   5  28
ATOM     28  N   UNL A   1     -25.285   1.862  28.657  0.00  0.00    -0.212 NA
ATOM     29  C   UNL A   1     -24.899   2.255  29.963  0.00  0.00    +0.108 C 
ENDBRANCH   5  28
BRANCH   2  31
ATOM     30  O   UNL A   1     -22.757   2.073  24.969  0.00  0.00    +0.028 OA
ATOM     31  O   UNL A   1     -23.390   2.486  26.107  0.00  0.00    -0.306 OA
ENDBRANCH   2  31
BRANCH   4  32
ATOM     32  C   UNL A   1     -24.855  -1.012  30.143  0.00  0.00    +0.044 C 
BRANCH  32  33
ATOM     33  C   UNL A   1     -24.973  -2.505  29.788  0.00  0.00    -0.021 C 
ATOM     34  C   UNL A   1     -23.906  -3.173  29.146  0.00  0.00    -0.004 C 
ATOM     35  C   UNL A   1     -23.989  -4.549  28.853  0.00  0.00    -0.000 C 
ATOM     36  C   UNL A   1     -25.137  -5.280  29.205  0.00  0.00    -0.000 C 
ATOM     37  C   UNL A   1     -26.232  -4.611  29.784  0.00  0.00    -0.000 C 
ATOM     38  C   UNL A   1     -26.155  -3.232  30.065  0.00  0.00    -0.004 C 
ENDBRANCH  32  33
BRANCH  32  39
ATOM     39  C   UNL A   1     -25.387  -0.679  31.571  0.00  0.00    +0.077 C 
ATOM     40  C   UNL A   1     -25.189   0.773  32.028  0.00  0.00    +0.019 C 
ATOM     41  C   UNL A   1     -25.336   0.684  33.544  0.00  0.00    +0.020 C 
ATOM     42  C   UNL A   1     -24.829  -0.715  33.905  0.00  0.00    +0.089 C 
ATOM     43  N   UNL A   1     -24.758  -1.481  32.646  0.00  0.00    -0.219 NA
ENDBRANCH  32  39
ENDBRANCH   4  32
TORSDOF 10
