REMARK  Name = outputs/IAG933/test6/raw/output_9205_IAG933_linker_design_.xyz
REMARK  13 active torsions:
REMARK  status: ('A' for Active; 'I' for Inactive)
REMARK    1  A    between atoms: C_1  and  C_2
REMARK    2  A    between atoms: C_1  and  C_8
REMARK    3  A    between atoms: C_1  and  C_34
REMARK    4  A    between atoms: C_13  and  C_40
REMARK    5  A    between atoms: C_14  and  C_15
REMARK    6  A    between atoms: C_21  and  O_22
REMARK    7  A    between atoms: O_22  and  C_23
REMARK    8  A    between atoms: C_23  and  C_24
REMARK    9  A    between atoms: C_30  and  C_39
REMARK   10  A    between atoms: N_31  and  C_34
REMARK   11  A    between atoms: N_31  and  C_40
REMARK   12  A    between atoms: C_34  and  N_35
REMARK   13  A    between atoms: O_41  and  C_42
REMARK                            x       y       z     vdW  Elec       q    Type
REMARK                         _______ _______ _______ _____ _____    ______ ____
ROOT
ATOM      1  C   UNL A   1     -25.344   0.054  28.983  0.00  0.00    +0.180 C 
ENDROOT
BRANCH   1   3
ATOM      2  C   UNL A   1     -27.766   0.550  28.865  0.00  0.00    +0.246 C 
ATOM      3  N   UNL A   1     -26.500   0.938  29.168  0.00  0.00    -0.186 NA
ATOM      4  O   UNL A   1     -27.982  -0.628  28.599  0.00  0.00    -0.273 OA
BRANCH   2  10
ATOM      5  C   UNL A   1     -29.767   1.260  30.007  0.00  0.00    +0.015 C 
ATOM      6  C   UNL A   1     -32.007   2.567  29.079  0.00  0.00    +0.091 C 
ATOM      7  N   UNL A   1     -31.523   3.511  27.989  0.00  0.00    -0.305 N 
ATOM      8  C   UNL A   1     -31.693   2.886  26.641  0.00  0.00    +0.112 C 
ATOM      9  C   UNL A   1     -30.043   3.934  28.270  0.00  0.00    +0.057 C 
ATOM     10  C   UNL A   1     -29.078   1.529  28.796  0.00  0.00    +0.102 C 
ATOM     11  C   UNL A   1     -28.807   3.028  28.707  0.00  0.00    -0.002 C 
ATOM     12  C   UNL A   1     -30.942   2.095  30.062  0.00  0.00    +0.022 C 
ENDBRANCH   2  10
ENDBRANCH   1   3
BRANCH   1  13
ATOM     13  N   UNL A   1     -24.201   0.541  28.212  0.00  0.00    -0.225 N 
ATOM     14  C   UNL A   1     -22.925   0.357  28.706  0.00  0.00    +0.406 C 
ATOM     15  O   UNL A   1     -22.391  -0.205  29.645  0.00  0.00    -0.226 OA
BRANCH  14  17
ATOM     16  C   UNL A   1     -21.792   1.958  26.868  0.00  0.00    +0.257 C 
ATOM     17  O   UNL A   1     -22.043   1.001  27.808  0.00  0.00    -0.430 OA
ENDBRANCH  14  17
BRANCH  13  18
ATOM     18  C   UNL A   1     -24.301   1.348  26.965  0.00  0.00    +0.128 C 
BRANCH  18  19
ATOM     19  C   UNL A   1     -25.688   1.614  26.461  0.00  0.00    +0.036 C 
ATOM     20  C   UNL A   1     -26.250   2.920  26.395  0.00  0.00    +0.074 C 
ATOM     21  C   UNL A   1     -27.438   3.091  25.645  0.00  0.00    +0.106 C 
ATOM     22  N   UNL A   1     -28.075   2.089  25.003  0.00  0.00    -0.208 NA
ATOM     23  C   UNL A   1     -27.543   0.849  25.079  0.00  0.00    +0.253 C 
ATOM     24  C   UNL A   1     -26.354   0.576  25.777  0.00  0.00    +0.191 C 
ATOM     25  F   UNL A   1     -25.860  -0.681  25.795  0.00  0.00    -0.200 F 
BRANCH  20  26
ATOM     26  C   UNL A   1     -25.642   4.093  27.123  0.00  0.00    +0.266 C 
ATOM     27  N   UNL A   1     -25.614   5.252  26.449  0.00  0.00    -0.200 NA
ATOM     28  C   UNL A   1     -25.026   6.479  26.963  0.00  0.00    +0.139 C 
ATOM     29  O   UNL A   1     -25.143   3.966  28.243  0.00  0.00    -0.268 OA
ENDBRANCH  20  26
BRANCH  23  30
ATOM     30  O   UNL A   1     -28.193  -0.208  24.477  0.00  0.00    -0.456 OA
BRANCH  30  31
ATOM     31  C   UNL A   1     -29.460   0.005  23.866  0.00  0.00    +0.243 C 
BRANCH  31  32
ATOM     32  C   UNL A   1     -30.065  -1.377  23.573  0.00  0.00    +0.229 C 
ATOM     33  O   UNL A   1     -30.729  -1.878  24.721  0.00  0.00    -0.216 OA
ENDBRANCH  31  32
ENDBRANCH  30  31
ENDBRANCH  23  30
ENDBRANCH  18  19
ENDBRANCH  13  18
ENDBRANCH   1  13
BRANCH   1  34
ATOM     34  C   UNL A   1     -24.855  -1.012  30.143  0.00  0.00    +0.077 C 
BRANCH  34  35
ATOM     35  C   UNL A   1     -24.973  -2.505  29.788  0.00  0.00    -0.018 C 
ATOM     36  C   UNL A   1     -23.906  -3.173  29.146  0.00  0.00    -0.004 C 
ATOM     37  C   UNL A   1     -23.989  -4.549  28.853  0.00  0.00    -0.000 C 
ATOM     38  C   UNL A   1     -25.137  -5.280  29.205  0.00  0.00    -0.000 C 
ATOM     39  C   UNL A   1     -26.232  -4.611  29.784  0.00  0.00    -0.000 C 
ATOM     40  C   UNL A   1     -26.155  -3.232  30.065  0.00  0.00    -0.004 C 
ENDBRANCH  34  35
BRANCH  34  41
ATOM     41  C   UNL A   1     -25.387  -0.679  31.571  0.00  0.00    +0.080 C 
ATOM     42  C   UNL A   1     -25.189   0.773  32.028  0.00  0.00    +0.019 C 
ATOM     43  C   UNL A   1     -25.336   0.684  33.544  0.00  0.00    +0.020 C 
ATOM     44  C   UNL A   1     -24.829  -0.715  33.905  0.00  0.00    +0.089 C 
ATOM     45  N   UNL A   1     -24.758  -1.481  32.646  0.00  0.00    -0.219 NA
ENDBRANCH  34  41
ENDBRANCH   1  34
TORSDOF 13
