REMARK  Name = outputs/IAG933/test6/raw/output_9208_IAG933_linker_design_.xyz
REMARK  13 active torsions:
REMARK  status: ('A' for Active; 'I' for Inactive)
REMARK    1  A    between atoms: C_1  and  C_2
REMARK    2  A    between atoms: C_1  and  C_8
REMARK    3  A    between atoms: C_1  and  N_35
REMARK    4  A    between atoms: C_13  and  C_33
REMARK    5  A    between atoms: C_14  and  C_15
REMARK    6  A    between atoms: C_21  and  O_22
REMARK    7  A    between atoms: O_22  and  C_23
REMARK    8  A    between atoms: C_23  and  C_24
REMARK    9  A    between atoms: C_30  and  C_37
REMARK   10  A    between atoms: C_30  and  C_43
REMARK   11  A    between atoms: N_35  and  C_36
REMARK   12  A    between atoms: N_35  and  C_40
REMARK   13  A    between atoms: C_37  and  C_42
REMARK                            x       y       z     vdW  Elec       q    Type
REMARK                         _______ _______ _______ _____ _____    ______ ____
ROOT
ATOM      1  N   UNL A   1     -25.187  -0.237  29.048  0.00  0.00    -0.276 N 
ENDROOT
BRANCH   1   6
ATOM      2  C   UNL A   1     -23.194   1.784  26.694  0.00  0.00    +0.058 C 
ATOM      3 CL   UNL A   1     -22.998   2.557  25.205  0.00  0.00    -0.085 Cl
ATOM      4  C   UNL A   1     -24.399   1.353  27.190  0.00  0.00    +0.024 C 
ATOM      5  C   UNL A   1     -22.207   1.385  27.615  0.00  0.00    +0.148 C 
ATOM      6  C   UNL A   1     -24.215   0.545  28.413  0.00  0.00    +0.050 C 
ATOM      7  C   UNL A   1     -22.829   0.659  28.686  0.00  0.00    +0.013 C 
ATOM      8  N   UNL A   1     -20.831   1.664  27.504  0.00  0.00    -0.122 NA
BRANCH   4   9
ATOM      9  C   UNL A   1     -25.688   1.614  26.461  0.00  0.00    +0.040 C 
ATOM     10  C   UNL A   1     -26.250   2.920  26.395  0.00  0.00    +0.077 C 
ATOM     11  C   UNL A   1     -27.438   3.091  25.645  0.00  0.00    +0.107 C 
ATOM     12  N   UNL A   1     -28.075   2.089  25.003  0.00  0.00    -0.208 NA
ATOM     13  C   UNL A   1     -27.543   0.849  25.079  0.00  0.00    +0.253 C 
ATOM     14  C   UNL A   1     -26.354   0.576  25.777  0.00  0.00    +0.193 C 
ATOM     15  F   UNL A   1     -25.860  -0.681  25.795  0.00  0.00    -0.199 F 
BRANCH  10  16
ATOM     16  C   UNL A   1     -25.642   4.093  27.123  0.00  0.00    +0.266 C 
ATOM     17  N   UNL A   1     -25.614   5.252  26.449  0.00  0.00    -0.200 NA
ATOM     18  C   UNL A   1     -25.026   6.479  26.963  0.00  0.00    +0.139 C 
ATOM     19  O   UNL A   1     -25.143   3.966  28.243  0.00  0.00    -0.268 OA
ENDBRANCH  10  16
BRANCH  13  20
ATOM     20  O   UNL A   1     -28.193  -0.208  24.477  0.00  0.00    -0.456 OA
BRANCH  20  21
ATOM     21  C   UNL A   1     -29.460   0.005  23.866  0.00  0.00    +0.243 C 
BRANCH  21  22
ATOM     22  C   UNL A   1     -30.065  -1.377  23.573  0.00  0.00    +0.229 C 
ATOM     23  O   UNL A   1     -30.729  -1.878  24.721  0.00  0.00    -0.216 OA
ENDBRANCH  21  22
ENDBRANCH  20  21
ENDBRANCH  13  20
ENDBRANCH   4   9
ENDBRANCH   1   6
BRANCH   1  25
ATOM     24  C   UNL A   1     -27.670  -0.388  28.852  0.00  0.00    -0.089 C 
ATOM     25  C   UNL A   1     -26.556  -0.317  28.631  0.00  0.00    +0.108 C 
ATOM     26  C   UNL A   1     -28.849  -0.860  29.042  0.00  0.00    +0.018 C 
BRANCH  26  27
ATOM     27  C   UNL A   1     -30.256  -0.924  28.845  0.00  0.00    +0.053 C 
BRANCH  27  29
ATOM     28 BR   UNL A   1     -29.730  -3.451  30.380  0.00  0.00    -0.073 Br
ATOM     29  C   UNL A   1     -30.688  -2.315  29.368  0.00  0.00    +0.119 C 
BRANCH  29  31
ATOM     30  O   UNL A   1     -32.366  -2.490  31.085  0.00  0.00    -0.295 OA
ATOM     31  C   UNL A   1     -32.023  -2.119  30.008  0.00  0.00    +0.162 C 
ATOM     32  C   UNL A   1     -32.972  -1.460  28.991  0.00  0.00    +0.073 C 
ENDBRANCH  29  31
ENDBRANCH  27  29
ENDBRANCH  26  27
ENDBRANCH   1  25
BRANCH   1  33
ATOM     33  C   UNL A   1     -24.855  -1.012  30.143  0.00  0.00    +0.116 C 
BRANCH  33  34
ATOM     34  C   UNL A   1     -24.973  -2.505  29.788  0.00  0.00    -0.003 C 
ATOM     35  C   UNL A   1     -23.906  -3.173  29.146  0.00  0.00    -0.003 C 
ATOM     36  C   UNL A   1     -23.989  -4.549  28.853  0.00  0.00    -0.000 C 
ATOM     37  C   UNL A   1     -25.137  -5.280  29.205  0.00  0.00    -0.000 C 
ATOM     38  C   UNL A   1     -26.232  -4.611  29.784  0.00  0.00    -0.000 C 
ATOM     39  C   UNL A   1     -26.155  -3.232  30.065  0.00  0.00    -0.003 C 
ENDBRANCH  33  34
BRANCH  33  40
ATOM     40  C   UNL A   1     -25.387  -0.679  31.571  0.00  0.00    +0.095 C 
ATOM     41  C   UNL A   1     -25.189   0.773  32.028  0.00  0.00    +0.021 C 
ATOM     42  C   UNL A   1     -25.336   0.684  33.544  0.00  0.00    +0.020 C 
ATOM     43  C   UNL A   1     -24.829  -0.715  33.905  0.00  0.00    +0.089 C 
ATOM     44  N   UNL A   1     -24.758  -1.481  32.646  0.00  0.00    -0.217 NA
ENDBRANCH  33  40
ENDBRANCH   1  33
TORSDOF 13
