REMARK  Name = outputs/IAG933/test6/raw/output_9209_IAG933_linker_design_.xyz
REMARK  11 active torsions:
REMARK  status: ('A' for Active; 'I' for Inactive)
REMARK    1  A    between atoms: C_1  and  C_2
REMARK    2  A    between atoms: C_1  and  C_8
REMARK    3  A    between atoms: C_1  and  C_37
REMARK    4  A    between atoms: C_13  and  C_38
REMARK    5  A    between atoms: C_14  and  C_15
REMARK    6  A    between atoms: C_21  and  O_22
REMARK    7  A    between atoms: O_22  and  C_23
REMARK    8  A    between atoms: C_23  and  C_24
REMARK    9  A    between atoms: C_30  and  C_37
REMARK   10  A    between atoms: C_35  and  C_42
REMARK   11  A    between atoms: C_36  and  C_37
REMARK                            x       y       z     vdW  Elec       q    Type
REMARK                         _______ _______ _______ _____ _____    ______ ____
ROOT
ATOM      1  C   UNL A   1     -21.695   1.099  28.141  0.00  0.00    +0.385 A 
ATOM      2  O   UNL A   1     -21.927   1.715  27.017  0.00  0.00    -0.418 OA
ATOM      3  C   UNL A   1     -24.154   0.537  28.328  0.00  0.00    +0.037 A 
ATOM      4  O   UNL A   1     -20.379   1.008  28.442  0.00  0.00    -0.241 OA
ATOM      5  C   UNL A   1     -24.338   1.297  27.053  0.00  0.00    +0.038 A 
ATOM      6  C   UNL A   1     -22.779   0.439  28.847  0.00  0.00    +0.268 A 
ATOM      7  O   UNL A   1     -22.411  -0.206  29.927  0.00  0.00    -0.280 OA
ATOM      8  C   UNL A   1     -23.151   1.711  26.409  0.00  0.00    +0.192 A 
ENDROOT
BRANCH   5   9
ATOM      9  C   UNL A   1     -25.688   1.614  26.461  0.00  0.00    +0.041 C 
ATOM     10  C   UNL A   1     -26.250   2.920  26.395  0.00  0.00    +0.077 C 
ATOM     11  C   UNL A   1     -27.438   3.091  25.645  0.00  0.00    +0.107 C 
ATOM     12  N   UNL A   1     -28.075   2.089  25.003  0.00  0.00    -0.208 NA
ATOM     13  C   UNL A   1     -27.543   0.849  25.079  0.00  0.00    +0.253 C 
ATOM     14  C   UNL A   1     -26.354   0.576  25.777  0.00  0.00    +0.193 C 
ATOM     15  F   UNL A   1     -25.860  -0.681  25.795  0.00  0.00    -0.199 F 
BRANCH  10  16
ATOM     16  C   UNL A   1     -25.642   4.093  27.123  0.00  0.00    +0.266 C 
ATOM     17  N   UNL A   1     -25.614   5.252  26.449  0.00  0.00    -0.200 NA
ATOM     18  C   UNL A   1     -25.026   6.479  26.963  0.00  0.00    +0.139 C 
ATOM     19  O   UNL A   1     -25.143   3.966  28.243  0.00  0.00    -0.268 OA
ENDBRANCH  10  16
BRANCH  13  20
ATOM     20  O   UNL A   1     -28.193  -0.208  24.477  0.00  0.00    -0.456 OA
BRANCH  20  21
ATOM     21  C   UNL A   1     -29.460   0.005  23.866  0.00  0.00    +0.243 C 
BRANCH  21  22
ATOM     22  C   UNL A   1     -30.065  -1.377  23.573  0.00  0.00    +0.229 C 
ATOM     23  O   UNL A   1     -30.729  -1.878  24.721  0.00  0.00    -0.216 OA
ENDBRANCH  21  22
ENDBRANCH  20  21
ENDBRANCH  13  20
ENDBRANCH   5   9
BRANCH   8  26
ATOM     24  F   UNL A   1     -21.765   2.101  24.580  0.00  0.00    -0.190 F 
ATOM     25  F   UNL A   1     -23.348   3.617  25.092  0.00  0.00    -0.190 F 
ATOM     26  C   UNL A   1     -22.972   2.330  25.093  0.00  0.00    +0.375 C 
ENDBRANCH   8  26
BRANCH   3  27
ATOM     27  C   UNL A   1     -25.288  -0.048  28.993  0.00  0.00    +0.134 C 
BRANCH  27  29
ATOM     28  O   UNL A   1     -27.220   1.315  29.581  0.00  0.00    -0.245 OA
ATOM     29  C   UNL A   1     -26.746   0.300  28.933  0.00  0.00    +0.369 C 
ATOM     30  O   UNL A   1     -27.545  -0.472  28.346  0.00  0.00    -0.245 OA
ENDBRANCH  27  29
BRANCH  27  31
ATOM     31  C   UNL A   1     -24.855  -1.012  30.143  0.00  0.00    +0.053 C 
BRANCH  31  32
ATOM     32  C   UNL A   1     -24.973  -2.505  29.788  0.00  0.00    -0.020 C 
ATOM     33  C   UNL A   1     -23.906  -3.173  29.146  0.00  0.00    -0.004 C 
ATOM     34  C   UNL A   1     -23.989  -4.549  28.853  0.00  0.00    -0.000 C 
ATOM     35  C   UNL A   1     -25.137  -5.280  29.205  0.00  0.00    -0.000 C 
ATOM     36  C   UNL A   1     -26.232  -4.611  29.784  0.00  0.00    -0.000 C 
ATOM     37  C   UNL A   1     -26.155  -3.232  30.065  0.00  0.00    -0.004 C 
ENDBRANCH  31  32
BRANCH  31  38
ATOM     38  C   UNL A   1     -25.387  -0.679  31.571  0.00  0.00    +0.078 C 
ATOM     39  C   UNL A   1     -25.189   0.773  32.028  0.00  0.00    +0.019 C 
ATOM     40  C   UNL A   1     -25.336   0.684  33.544  0.00  0.00    +0.020 C 
ATOM     41  C   UNL A   1     -24.829  -0.715  33.905  0.00  0.00    +0.089 C 
ATOM     42  N   UNL A   1     -24.758  -1.481  32.646  0.00  0.00    -0.219 NA
ENDBRANCH  31  38
ENDBRANCH  27  31
ENDBRANCH   3  27
TORSDOF 11
