MODEL 920
MODEL 1
REMARK VINA RESULT:    -5.408      0.000      0.000
REMARK INTER + INTRA:          -5.786
REMARK INTER:                  -5.724
REMARK INTRA:                  -0.062
REMARK UNBOUND:                -0.062
REMARK  Name = No_920-gen_results/8p0m/2024-11-27-11-27-31/
REMARK  1 active torsions:
REMARK  status: ('A' for Active; 'I' for Inactive)
REMARK    1  A    between atoms: C_2  and  C_7
REMARK                            x       y       z     vdW  Elec       q    Type
REMARK                         _______ _______ _______ _____ _____    ______ ____
ROOT
ATOM      1  C   UNL A   1     -24.029  -3.901  28.798  0.00  0.00    +0.005 A 
ATOM      2  C   UNL A   1     -24.388  -2.957  29.098  0.00  0.00    +0.055 A 
ATOM      3  C   UNL A   1     -24.935  -5.043  28.998  0.00  0.00    +0.000 A 
ATOM      4  C   UNL A   1     -26.020  -4.894  29.548  0.00  0.00    +0.000 A 
ATOM      5  C   UNL A   1     -25.679  -2.519  29.660  0.00  0.00    +0.005 A 
ATOM      6  C   UNL A   1     -26.498  -3.578  29.907  0.00  0.00    +0.000 A 
ENDROOT
BRANCH   2   7
ATOM      7  C   UNL A   1     -23.627  -1.555  28.845  0.00  0.00    +0.265 C 
ATOM      8  O   UNL A   1     -24.203  -0.743  28.299  0.00  0.00    -0.268 OA
ATOM      9  N   UNL A   1     -22.291  -1.464  29.085  0.00  0.00    -0.200 NA
ATOM     10  C   UNL A   1     -21.646  -0.170  28.920  0.00  0.00    +0.139 C 
ENDBRANCH   2   7
TORSDOF 1
ENDMDL
ENDMDL
