REMARK  Name = outputs/IAG933/test6/raw/output_921_IAG933_linker_design_.xyz
REMARK  14 active torsions:
REMARK  status: ('A' for Active; 'I' for Inactive)
REMARK    1  A    between atoms: C_1  and  C_2
REMARK    2  A    between atoms: C_1  and  C_8
REMARK    3  A    between atoms: C_9  and  C_36
REMARK    4  A    between atoms: C_13  and  C_32
REMARK    5  A    between atoms: C_14  and  C_15
REMARK    6  A    between atoms: C_21  and  O_22
REMARK    7  A    between atoms: O_22  and  C_23
REMARK    8  A    between atoms: C_23  and  C_24
REMARK    9  A    between atoms: C_32  and  O_33
REMARK   10  A    between atoms: C_32  and  C_43
REMARK   11  A    between atoms: O_33  and  C_42
REMARK   12  A    between atoms: O_38  and  C_41
REMARK   13  A    between atoms: O_39  and  C_41
REMARK   14  A    between atoms: C_41  and  C_43
REMARK                            x       y       z     vdW  Elec       q    Type
REMARK                         _______ _______ _______ _____ _____    ______ ____
ROOT
ATOM      1  C   UNL A   1     -24.861   1.104  27.722  0.00  0.00    +0.158 C 
ENDROOT
BRANCH   1   2
ATOM      2  C   UNL A   1     -25.688   1.614  26.461  0.00  0.00    +0.100 C 
ATOM      3  C   UNL A   1     -26.250   2.920  26.395  0.00  0.00    +0.057 C 
ATOM      4  C   UNL A   1     -27.438   3.091  25.645  0.00  0.00    +0.102 C 
ATOM      5  N   UNL A   1     -28.075   2.089  25.003  0.00  0.00    -0.212 NA
ATOM      6  C   UNL A   1     -27.543   0.849  25.079  0.00  0.00    +0.234 C 
ATOM      7  C   UNL A   1     -26.354   0.576  25.777  0.00  0.00    +0.242 C 
ATOM      8  F   UNL A   1     -25.860  -0.681  25.795  0.00  0.00    -0.227 F 
BRANCH   3   9
ATOM      9  C   UNL A   1     -25.642   4.093  27.123  0.00  0.00    +0.263 C 
ATOM     10  N   UNL A   1     -25.614   5.252  26.449  0.00  0.00    -0.200 NA
ATOM     11  C   UNL A   1     -25.026   6.479  26.963  0.00  0.00    +0.139 C 
ATOM     12  O   UNL A   1     -25.143   3.966  28.243  0.00  0.00    -0.269 OA
ENDBRANCH   3   9
BRANCH   6  13
ATOM     13  O   UNL A   1     -28.193  -0.208  24.477  0.00  0.00    -0.459 OA
BRANCH  13  14
ATOM     14  C   UNL A   1     -29.460   0.005  23.866  0.00  0.00    +0.242 C 
BRANCH  14  15
ATOM     15  C   UNL A   1     -30.065  -1.377  23.573  0.00  0.00    +0.229 C 
ATOM     16  O   UNL A   1     -30.729  -1.878  24.721  0.00  0.00    -0.216 OA
ENDBRANCH  14  15
ENDBRANCH  13  14
ENDBRANCH   6  13
ENDBRANCH   1   2
BRANCH   1  18
ATOM     17  O   UNL A   1     -23.446   2.081  29.217  0.00  0.00    -0.215 OA
ATOM     18  C   UNL A   1     -23.619   1.609  27.930  0.00  0.00    +0.238 C 
BRANCH  18  19
ATOM     19  C   UNL A   1     -22.673   1.652  26.653  0.00  0.00    +0.307 C 
BRANCH  19  21
ATOM     20  C   UNL A   1     -23.634   1.020  24.279  0.00  0.00    +0.177 C 
ATOM     21  O   UNL A   1     -22.981   2.082  25.229  0.00  0.00    -0.324 OA
ENDBRANCH  19  21
BRANCH  19  23
ATOM     22  F   UNL A   1     -20.922   1.814  28.165  0.00  0.00    -0.044 F 
ATOM     23  O   UNL A   1     -21.341   1.224  26.861  0.00  0.00    -0.148 OA
ENDBRANCH  19  23
ENDBRANCH  18  19
ENDBRANCH   1  18
BRANCH   1  24
ATOM     24  O   UNL A   1     -25.885   1.041  28.802  0.00  0.00    -0.351 OA
BRANCH  24  31
ATOM     25  N   UNL A   1     -26.157   2.960  32.424  0.00  0.00    -0.203 NA
ATOM     26  C   UNL A   1     -27.378   3.010  29.751  0.00  0.00    +0.189 C 
ATOM     27  S   UNL A   1     -26.559   5.337  31.529  0.00  0.00    +0.023 S 
ATOM     28  C   UNL A   1     -25.648   4.311  32.663  0.00  0.00    +0.175 C 
ATOM     29  C   UNL A   1     -25.913   1.900  31.366  0.00  0.00    +0.105 C 
ATOM     30  O   UNL A   1     -27.335   4.459  30.249  0.00  0.00    -0.296 OA
ATOM     31  C   UNL A   1     -26.374   1.919  30.026  0.00  0.00    +0.162 C 
BRANCH  29  33
ATOM     32  C   UNL A   1     -25.387  -0.679  31.571  0.00  0.00    +0.079 C 
ATOM     33  C   UNL A   1     -25.189   0.773  32.028  0.00  0.00    +0.036 C 
ATOM     34  C   UNL A   1     -25.336   0.684  33.544  0.00  0.00    +0.022 C 
ATOM     35  C   UNL A   1     -24.829  -0.715  33.905  0.00  0.00    +0.089 C 
ATOM     36  N   UNL A   1     -24.758  -1.481  32.646  0.00  0.00    -0.219 NA
BRANCH  32  37
ATOM     37  C   UNL A   1     -24.855  -1.012  30.143  0.00  0.00    +0.044 C 
BRANCH  37  38
ATOM     38  C   UNL A   1     -24.973  -2.505  29.788  0.00  0.00    -0.021 C 
ATOM     39  C   UNL A   1     -23.906  -3.173  29.146  0.00  0.00    -0.004 C 
ATOM     40  C   UNL A   1     -23.989  -4.549  28.853  0.00  0.00    -0.000 C 
ATOM     41  C   UNL A   1     -25.137  -5.280  29.205  0.00  0.00    -0.000 C 
ATOM     42  C   UNL A   1     -26.232  -4.611  29.784  0.00  0.00    -0.000 C 
ATOM     43  C   UNL A   1     -26.155  -3.232  30.065  0.00  0.00    -0.004 C 
ENDBRANCH  37  38
ENDBRANCH  32  37
ENDBRANCH  29  33
ENDBRANCH  24  31
ENDBRANCH   1  24
TORSDOF 14
