REMARK  Name = outputs/IAG933/test6/raw/output_9210_IAG933_linker_design_.xyz
REMARK  12 active torsions:
REMARK  status: ('A' for Active; 'I' for Inactive)
REMARK    1  A    between atoms: C_1  and  C_2
REMARK    2  A    between atoms: C_1  and  C_8
REMARK    3  A    between atoms: C_1  and  N_28
REMARK    4  A    between atoms: C_13  and  C_40
REMARK    5  A    between atoms: C_14  and  C_15
REMARK    6  A    between atoms: C_21  and  O_22
REMARK    7  A    between atoms: O_22  and  C_23
REMARK    8  A    between atoms: C_23  and  C_24
REMARK    9  A    between atoms: N_29  and  C_36
REMARK   10  A    between atoms: N_30  and  C_33
REMARK   11  A    between atoms: C_33  and  C_45
REMARK   12  A    between atoms: C_41  and  C_45
REMARK                            x       y       z     vdW  Elec       q    Type
REMARK                         _______ _______ _______ _____ _____    ______ ____
ROOT
ATOM      1  N   UNL A   1     -24.969  -0.060  29.146  0.00  0.00    -0.311 N 
ATOM      2  C   UNL A   1     -21.244   0.584  28.416  0.00  0.00    +0.002 C 
ATOM      3  C   UNL A   1     -22.335  -0.073  29.030  0.00  0.00    +0.017 C 
ATOM      4  C   UNL A   1     -26.047   0.461  28.735  0.00  0.00    +0.132 A 
ATOM      5  C   UNL A   1     -23.813   1.087  27.692  0.00  0.00    +0.015 A 
ATOM      6  C   UNL A   1     -22.751   1.641  26.936  0.00  0.00    +0.001 C 
ATOM      7  C   UNL A   1     -25.246   1.167  27.687  0.00  0.00    +0.018 A 
ATOM      8  C   UNL A   1     -23.645   0.291  28.701  0.00  0.00    +0.061 A 
ATOM      9  C   UNL A   1     -21.435   1.489  27.361  0.00  0.00    +0.000 C 
ENDROOT
BRANCH   7  10
ATOM     10  C   UNL A   1     -25.688   1.614  26.461  0.00  0.00    +0.095 C 
ATOM     11  C   UNL A   1     -26.250   2.920  26.395  0.00  0.00    +0.059 C 
ATOM     12  C   UNL A   1     -27.438   3.091  25.645  0.00  0.00    +0.102 C 
ATOM     13  N   UNL A   1     -28.075   2.089  25.003  0.00  0.00    -0.212 NA
ATOM     14  C   UNL A   1     -27.543   0.849  25.079  0.00  0.00    +0.234 C 
ATOM     15  C   UNL A   1     -26.354   0.576  25.777  0.00  0.00    +0.244 C 
ATOM     16  F   UNL A   1     -25.860  -0.681  25.795  0.00  0.00    -0.227 F 
BRANCH  11  17
ATOM     17  C   UNL A   1     -25.642   4.093  27.123  0.00  0.00    +0.263 C 
ATOM     18  N   UNL A   1     -25.614   5.252  26.449  0.00  0.00    -0.200 NA
ATOM     19  C   UNL A   1     -25.026   6.479  26.963  0.00  0.00    +0.139 C 
ATOM     20  O   UNL A   1     -25.143   3.966  28.243  0.00  0.00    -0.269 OA
ENDBRANCH  11  17
BRANCH  14  21
ATOM     21  O   UNL A   1     -28.193  -0.208  24.477  0.00  0.00    -0.459 OA
BRANCH  21  22
ATOM     22  C   UNL A   1     -29.460   0.005  23.866  0.00  0.00    +0.242 C 
BRANCH  22  23
ATOM     23  C   UNL A   1     -30.065  -1.377  23.573  0.00  0.00    +0.229 C 
ATOM     24  O   UNL A   1     -30.729  -1.878  24.721  0.00  0.00    -0.216 OA
ENDBRANCH  22  23
ENDBRANCH  21  22
ENDBRANCH  14  21
ENDBRANCH   7  10
BRANCH   4  25
ATOM     25  N   UNL A   1     -27.264  -0.476  29.201  0.00  0.00    -0.162 NA
ATOM     26  O   UNL A   1     -28.916  -0.282  27.529  0.00  0.00    -0.273 OA
ATOM     27  C   UNL A   1     -28.851  -0.398  29.022  0.00  0.00    +0.249 C 
BRANCH  27  28
ATOM     28  C   UNL A   1     -30.264  -0.265  29.579  0.00  0.00    +0.111 C 
BRANCH  28  29
ATOM     29  C   UNL A   1     -30.611  -1.213  30.376  0.00  0.00    +0.128 C 
BRANCH  29  30
ATOM     30  N   UNL A   1     -29.753  -1.037  31.589  0.00  0.00    -0.165 NA
ATOM     31  O   UNL A   1     -31.321  -0.222  32.872  0.00  0.00    -0.221 OA
ATOM     32  O   UNL A   1     -30.060   1.392  31.914  0.00  0.00    -0.221 OA
ATOM     33  C   UNL A   1     -30.336   0.102  32.109  0.00  0.00    +0.463 C 
ENDBRANCH  29  30
ENDBRANCH  28  29
ENDBRANCH  27  28
ENDBRANCH   4  25
BRANCH   1  34
ATOM     34  C   UNL A   1     -24.855  -1.012  30.143  0.00  0.00    +0.125 C 
BRANCH  34  35
ATOM     35  C   UNL A   1     -24.973  -2.505  29.788  0.00  0.00    -0.000 C 
ATOM     36  C   UNL A   1     -23.906  -3.173  29.146  0.00  0.00    -0.002 C 
ATOM     37  C   UNL A   1     -23.989  -4.549  28.853  0.00  0.00    -0.000 C 
ATOM     38  C   UNL A   1     -25.137  -5.280  29.205  0.00  0.00    -0.000 C 
ATOM     39  C   UNL A   1     -26.232  -4.611  29.784  0.00  0.00    -0.000 C 
ATOM     40  C   UNL A   1     -26.155  -3.232  30.065  0.00  0.00    -0.002 C 
ENDBRANCH  34  35
BRANCH  34  41
ATOM     41  C   UNL A   1     -25.387  -0.679  31.571  0.00  0.00    +0.098 C 
ATOM     42  C   UNL A   1     -25.189   0.773  32.028  0.00  0.00    +0.021 C 
ATOM     43  C   UNL A   1     -25.336   0.684  33.544  0.00  0.00    +0.020 C 
ATOM     44  C   UNL A   1     -24.829  -0.715  33.905  0.00  0.00    +0.089 C 
ATOM     45  N   UNL A   1     -24.758  -1.481  32.646  0.00  0.00    -0.217 NA
ENDBRANCH  34  41
ENDBRANCH   1  34
TORSDOF 12
