REMARK  Name = outputs/IAG933/test6/raw/output_9212_IAG933_linker_design_.xyz
REMARK  12 active torsions:
REMARK  status: ('A' for Active; 'I' for Inactive)
REMARK    1  A    between atoms: C_1  and  C_2
REMARK    2  A    between atoms: C_1  and  C_8
REMARK    3  A    between atoms: C_1  and  N_39
REMARK    4  A    between atoms: C_13  and  C_29
REMARK    5  A    between atoms: C_14  and  C_15
REMARK    6  A    between atoms: C_21  and  O_22
REMARK    7  A    between atoms: O_22  and  C_23
REMARK    8  A    between atoms: C_23  and  C_24
REMARK    9  A    between atoms: N_28  and  C_37
REMARK   10  A    between atoms: C_29  and  O_30
REMARK   11  A    between atoms: O_30  and  C_32
REMARK   12  A    between atoms: C_33  and  C_36
REMARK                            x       y       z     vdW  Elec       q    Type
REMARK                         _______ _______ _______ _____ _____    ______ ____
ROOT
ATOM      1  C   UNL A   1     -24.247   1.472  26.333  0.00  0.00    +0.173 C 
ATOM      2  C   UNL A   1     -23.355   1.235  27.168  0.00  0.00    -0.022 C 
ATOM      3  F   UNL A   1     -21.066   1.397  27.887  0.00  0.00    -0.177 F 
ATOM      4  C   UNL A   1     -22.388   1.274  28.058  0.00  0.00    +0.253 C 
ENDROOT
BRANCH   1   5
ATOM      5  C   UNL A   1     -25.688   1.614  26.461  0.00  0.00    +0.135 C 
ATOM      6  C   UNL A   1     -26.250   2.920  26.395  0.00  0.00    +0.063 C 
ATOM      7  C   UNL A   1     -27.438   3.091  25.645  0.00  0.00    +0.103 C 
ATOM      8  N   UNL A   1     -28.075   2.089  25.003  0.00  0.00    -0.212 NA
ATOM      9  C   UNL A   1     -27.543   0.849  25.079  0.00  0.00    +0.235 C 
ATOM     10  C   UNL A   1     -26.354   0.576  25.777  0.00  0.00    +0.248 C 
ATOM     11  F   UNL A   1     -25.860  -0.681  25.795  0.00  0.00    -0.226 F 
BRANCH   6  12
ATOM     12  C   UNL A   1     -25.642   4.093  27.123  0.00  0.00    +0.263 C 
ATOM     13  N   UNL A   1     -25.614   5.252  26.449  0.00  0.00    -0.200 NA
ATOM     14  C   UNL A   1     -25.026   6.479  26.963  0.00  0.00    +0.139 C 
ATOM     15  O   UNL A   1     -25.143   3.966  28.243  0.00  0.00    -0.269 OA
ENDBRANCH   6  12
BRANCH   9  16
ATOM     16  O   UNL A   1     -28.193  -0.208  24.477  0.00  0.00    -0.459 OA
BRANCH  16  17
ATOM     17  C   UNL A   1     -29.460   0.005  23.866  0.00  0.00    +0.242 C 
BRANCH  17  18
ATOM     18  C   UNL A   1     -30.065  -1.377  23.573  0.00  0.00    +0.229 C 
ATOM     19  O   UNL A   1     -30.729  -1.878  24.721  0.00  0.00    -0.216 OA
ENDBRANCH  17  18
ENDBRANCH  16  17
ENDBRANCH   9  16
ENDBRANCH   1   5
BRANCH   4  20
ATOM     20  N   UNL A   1     -22.777   1.225  29.401  0.00  0.00    -0.134 NA
ATOM     21  C   UNL A   1     -24.062   1.551  29.686  0.00  0.00    +0.362 C 
ATOM     22  O   UNL A   1     -24.283   2.429  30.468  0.00  0.00    -0.259 OA
BRANCH  21  23
ATOM     23  C   UNL A   1     -25.162   0.896  29.093  0.00  0.00    +0.469 C 
ATOM     24  N   UNL A   1     -24.909  -0.294  28.936  0.00  0.00    -0.022 NA
ATOM     25  N   UNL A   1     -26.524   1.070  29.268  0.00  0.00    +0.202 NA
BRANCH  24  26
ATOM     26  C   UNL A   1     -24.855  -1.012  30.143  0.00  0.00    +0.243 C 
BRANCH  26  27
ATOM     27  C   UNL A   1     -24.973  -2.505  29.788  0.00  0.00    +0.025 C 
ATOM     28  C   UNL A   1     -23.906  -3.173  29.146  0.00  0.00    -0.000 C 
ATOM     29  C   UNL A   1     -23.989  -4.549  28.853  0.00  0.00    -0.000 C 
ATOM     30  C   UNL A   1     -25.137  -5.280  29.205  0.00  0.00    -0.000 C 
ATOM     31  C   UNL A   1     -26.232  -4.611  29.784  0.00  0.00    -0.000 C 
ATOM     32  C   UNL A   1     -26.155  -3.232  30.065  0.00  0.00    -0.000 C 
ENDBRANCH  26  27
BRANCH  26  33
ATOM     33  C   UNL A   1     -25.387  -0.679  31.571  0.00  0.00    +0.124 C 
ATOM     34  C   UNL A   1     -25.189   0.773  32.028  0.00  0.00    +0.024 C 
ATOM     35  C   UNL A   1     -25.336   0.684  33.544  0.00  0.00    +0.020 C 
ATOM     36  C   UNL A   1     -24.829  -0.715  33.905  0.00  0.00    +0.089 C 
ATOM     37  N   UNL A   1     -24.758  -1.481  32.646  0.00  0.00    -0.215 NA
ENDBRANCH  26  33
ENDBRANCH  24  26
ENDBRANCH  21  23
ENDBRANCH   4  20
BRANCH   1  38
ATOM     38  O   UNL A   1     -23.951   1.878  25.072  0.00  0.00    -0.396 OA
BRANCH  38  39
ATOM     39  C   UNL A   1     -23.180   3.045  25.302  0.00  0.00    +0.502 C 
ATOM     40  O   UNL A   1     -23.591   3.981  25.304  0.00  0.00    -0.210 OA
ATOM     41  F   UNL A   1     -21.863   2.569  25.407  0.00  0.00    -0.125 F 
ENDBRANCH  38  39
ENDBRANCH   1  38
TORSDOF 12
