REMARK  Name = outputs/IAG933/test6/raw/output_9213_IAG933_linker_design_.xyz
REMARK  7 active torsions:
REMARK  status: ('A' for Active; 'I' for Inactive)
REMARK    1  A    between atoms: C_1  and  C_2
REMARK    2  A    between atoms: C_13  and  N_38
REMARK    3  A    between atoms: C_14  and  C_15
REMARK    4  A    between atoms: C_21  and  O_22
REMARK    5  A    between atoms: O_22  and  C_23
REMARK    6  A    between atoms: C_23  and  C_24
REMARK    7  A    between atoms: C_32  and  O_41
REMARK                            x       y       z     vdW  Elec       q    Type
REMARK                         _______ _______ _______ _____ _____    ______ ____
ROOT
ATOM      1  C   UNL A   1     -24.855  -1.012  30.143  0.00  0.00    +0.042 C 
ATOM      2  C   UNL A   1     -25.387  -0.679  31.571  0.00  0.00    +0.083 C 
ATOM      3  C   UNL A   1     -25.189   0.773  32.028  0.00  0.00    +0.089 C 
ATOM      4  C   UNL A   1     -25.336   0.684  33.544  0.00  0.00    +0.027 C 
ATOM      5  C   UNL A   1     -24.829  -0.715  33.905  0.00  0.00    +0.089 C 
ATOM      6  N   UNL A   1     -24.758  -1.481  32.646  0.00  0.00    -0.219 NA
ATOM      7  C   UNL A   1     -24.287   0.960  28.559  0.00  0.00    +0.133 C 
ATOM      8  C   UNL A   1     -21.918   1.315  27.576  0.00  0.00    +0.263 C 
ATOM      9  N   UNL A   1     -24.699   1.873  29.759  0.00  0.00    -0.152 NA
ATOM     10  O   UNL A   1     -23.765   2.800  31.622  0.00  0.00    -0.176 OA
ATOM     11  C   UNL A   1     -24.890   2.083  31.244  0.00  0.00    +0.287 C 
ATOM     12  C   UNL A   1     -22.772   0.709  28.478  0.00  0.00    +0.111 C 
ATOM     13  C   UNL A   1     -25.070  -0.373  28.741  0.00  0.00    +0.041 C 
ATOM     14  N   UNL A   1     -20.630  -0.002  28.877  0.00  0.00    -0.081 NA
ATOM     15  C   UNL A   1     -23.375   1.516  26.098  0.00  0.00    +0.368 C 
ATOM     16  C   UNL A   1     -21.888  -0.198  29.201  0.00  0.00    +0.130 C 
ATOM     17  N   UNL A   1     -24.537   1.347  27.093  0.00  0.00    -0.245 N 
ATOM     18  O   UNL A   1     -22.194   2.044  26.422  0.00  0.00    -0.284 OA
ATOM     19  O   UNL A   1     -20.605   1.120  27.967  0.00  0.00    -0.238 OA
ATOM     20  F   UNL A   1     -23.591   1.100  24.943  0.00  0.00    -0.180 F 
ENDROOT
BRANCH  17  21
ATOM     21  C   UNL A   1     -25.688   1.614  26.461  0.00  0.00    +0.091 C 
ATOM     22  C   UNL A   1     -26.250   2.920  26.395  0.00  0.00    +0.090 C 
ATOM     23  C   UNL A   1     -27.438   3.091  25.645  0.00  0.00    +0.108 C 
ATOM     24  N   UNL A   1     -28.075   2.089  25.003  0.00  0.00    -0.208 NA
ATOM     25  C   UNL A   1     -27.543   0.849  25.079  0.00  0.00    +0.255 C 
ATOM     26  C   UNL A   1     -26.354   0.576  25.777  0.00  0.00    +0.206 C 
ATOM     27  F   UNL A   1     -25.860  -0.681  25.795  0.00  0.00    -0.198 F 
BRANCH  22  28
ATOM     28  C   UNL A   1     -25.642   4.093  27.123  0.00  0.00    +0.268 C 
ATOM     29  N   UNL A   1     -25.614   5.252  26.449  0.00  0.00    -0.200 NA
ATOM     30  C   UNL A   1     -25.026   6.479  26.963  0.00  0.00    +0.139 C 
ATOM     31  O   UNL A   1     -25.143   3.966  28.243  0.00  0.00    -0.268 OA
ENDBRANCH  22  28
BRANCH  25  32
ATOM     32  O   UNL A   1     -28.193  -0.208  24.477  0.00  0.00    -0.456 OA
BRANCH  32  33
ATOM     33  C   UNL A   1     -29.460   0.005  23.866  0.00  0.00    +0.243 C 
BRANCH  33  34
ATOM     34  C   UNL A   1     -30.065  -1.377  23.573  0.00  0.00    +0.229 C 
ATOM     35  O   UNL A   1     -30.729  -1.878  24.721  0.00  0.00    -0.216 OA
ENDBRANCH  33  34
ENDBRANCH  32  33
ENDBRANCH  25  32
ENDBRANCH  17  21
BRANCH   1  36
ATOM     36  C   UNL A   1     -24.973  -2.505  29.788  0.00  0.00    -0.021 C 
ATOM     37  C   UNL A   1     -23.906  -3.173  29.146  0.00  0.00    -0.004 C 
ATOM     38  C   UNL A   1     -23.989  -4.549  28.853  0.00  0.00    -0.000 C 
ATOM     39  C   UNL A   1     -25.137  -5.280  29.205  0.00  0.00    -0.000 C 
ATOM     40  C   UNL A   1     -26.232  -4.611  29.784  0.00  0.00    -0.000 C 
ATOM     41  C   UNL A   1     -26.155  -3.232  30.065  0.00  0.00    -0.004 C 
ENDBRANCH   1  36
BRANCH  11  42
ATOM     42  O   UNL A   1     -26.026   2.905  31.598  0.00  0.00    -0.317 OA
ATOM     43  C   UNL A   1     -25.824   3.838  32.699  0.00  0.00    +0.178 C 
ENDBRANCH  11  42
TORSDOF 7
