REMARK  Name = outputs/IAG933/test6/raw/output_9214_IAG933_linker_design_.xyz
REMARK  12 active torsions:
REMARK  status: ('A' for Active; 'I' for Inactive)
REMARK    1  A    between atoms: C_1  and  C_2
REMARK    2  A    between atoms: C_1  and  C_8
REMARK    3  A    between atoms: C_1  and  C_30
REMARK    4  A    between atoms: C_13  and  C_31
REMARK    5  A    between atoms: C_14  and  C_15
REMARK    6  A    between atoms: C_21  and  O_22
REMARK    7  A    between atoms: O_22  and  C_23
REMARK    8  A    between atoms: C_23  and  C_24
REMARK    9  A    between atoms: C_28  and  C_29
REMARK   10  A    between atoms: C_30  and  O_39
REMARK   11  A    between atoms: C_30  and  O_41
REMARK   12  A    between atoms: C_33  and  O_39
REMARK                            x       y       z     vdW  Elec       q    Type
REMARK                         _______ _______ _______ _____ _____    ______ ____
ROOT
ATOM      1  C   UNL A   1     -21.651   1.254  28.628  0.00  0.00    +0.099 C 
ATOM      2  C   UNL A   1     -20.704  -0.323  28.564  0.00  0.00    +0.044 C 
ATOM      3  C   UNL A   1     -22.565   0.537  29.745  0.00  0.00    +0.124 C 
ATOM      4  F   UNL A   1     -19.549   1.899  27.897  0.00  0.00    -0.237 F 
ATOM      5  C   UNL A   1     -20.195   0.983  28.678  0.00  0.00    +0.167 C 
ATOM      6  C   UNL A   1     -21.979  -0.864  29.393  0.00  0.00    +0.033 C 
ENDROOT
BRANCH   1   7
ATOM      7  C   UNL A   1     -22.097   1.496  27.435  0.00  0.00    +0.193 C 
ATOM      8  C   UNL A   1     -24.217   1.738  26.314  0.00  0.00    -0.013 C 
ATOM      9  O   UNL A   1     -21.459   1.867  26.243  0.00  0.00    -0.472 OA
ATOM     10  C   UNL A   1     -22.245   2.300  25.173  0.00  0.00    +0.172 C 
ATOM     11  C   UNL A   1     -23.380   1.544  27.257  0.00  0.00    +0.013 C 
ATOM     12  C   UNL A   1     -23.617   2.170  25.250  0.00  0.00    +0.036 C 
BRANCH   8  13
ATOM     13  C   UNL A   1     -25.688   1.614  26.461  0.00  0.00    +0.092 C 
ATOM     14  C   UNL A   1     -26.250   2.920  26.395  0.00  0.00    +0.059 C 
ATOM     15  C   UNL A   1     -27.438   3.091  25.645  0.00  0.00    +0.102 C 
ATOM     16  N   UNL A   1     -28.075   2.089  25.003  0.00  0.00    -0.212 NA
ATOM     17  C   UNL A   1     -27.543   0.849  25.079  0.00  0.00    +0.234 C 
ATOM     18  C   UNL A   1     -26.354   0.576  25.777  0.00  0.00    +0.244 C 
ATOM     19  F   UNL A   1     -25.860  -0.681  25.795  0.00  0.00    -0.227 F 
BRANCH  14  20
ATOM     20  C   UNL A   1     -25.642   4.093  27.123  0.00  0.00    +0.263 C 
ATOM     21  N   UNL A   1     -25.614   5.252  26.449  0.00  0.00    -0.200 NA
ATOM     22  C   UNL A   1     -25.026   6.479  26.963  0.00  0.00    +0.139 C 
ATOM     23  O   UNL A   1     -25.143   3.966  28.243  0.00  0.00    -0.269 OA
ENDBRANCH  14  20
BRANCH  17  24
ATOM     24  O   UNL A   1     -28.193  -0.208  24.477  0.00  0.00    -0.459 OA
BRANCH  24  25
ATOM     25  C   UNL A   1     -29.460   0.005  23.866  0.00  0.00    +0.242 C 
BRANCH  25  26
ATOM     26  C   UNL A   1     -30.065  -1.377  23.573  0.00  0.00    +0.229 C 
ATOM     27  O   UNL A   1     -30.729  -1.878  24.721  0.00  0.00    -0.216 OA
ENDBRANCH  25  26
ENDBRANCH  24  25
ENDBRANCH  17  24
ENDBRANCH   8  13
ENDBRANCH   1   7
BRANCH   3  28
ATOM     28  O   UNL A   1     -23.859   0.960  29.412  0.00  0.00    -0.333 OA
BRANCH  28  29
ATOM     29  C   UNL A   1     -24.944   0.048  29.120  0.00  0.00    +0.240 C 
BRANCH  29  31
ATOM     30  C   UNL A   1     -27.200   0.115  28.899  0.00  0.00    +0.177 C 
ATOM     31  O   UNL A   1     -25.986  -0.185  28.203  0.00  0.00    -0.328 OA
ENDBRANCH  29  31
BRANCH  29  32
ATOM     32  C   UNL A   1     -24.855  -1.012  30.143  0.00  0.00    +0.095 C 
BRANCH  32  33
ATOM     33  C   UNL A   1     -24.973  -2.505  29.788  0.00  0.00    -0.016 C 
ATOM     34  C   UNL A   1     -23.906  -3.173  29.146  0.00  0.00    -0.004 C 
ATOM     35  C   UNL A   1     -23.989  -4.549  28.853  0.00  0.00    -0.000 C 
ATOM     36  C   UNL A   1     -25.137  -5.280  29.205  0.00  0.00    -0.000 C 
ATOM     37  C   UNL A   1     -26.232  -4.611  29.784  0.00  0.00    -0.000 C 
ATOM     38  C   UNL A   1     -26.155  -3.232  30.065  0.00  0.00    -0.004 C 
ENDBRANCH  32  33
BRANCH  32  39
ATOM     39  C   UNL A   1     -25.387  -0.679  31.571  0.00  0.00    +0.082 C 
ATOM     40  C   UNL A   1     -25.189   0.773  32.028  0.00  0.00    +0.019 C 
ATOM     41  C   UNL A   1     -25.336   0.684  33.544  0.00  0.00    +0.020 C 
ATOM     42  C   UNL A   1     -24.829  -0.715  33.905  0.00  0.00    +0.089 C 
ATOM     43  N   UNL A   1     -24.758  -1.481  32.646  0.00  0.00    -0.219 NA
ENDBRANCH  32  39
ENDBRANCH  29  32
ENDBRANCH  28  29
ENDBRANCH   3  28
TORSDOF 12
