REMARK  Name = outputs/IAG933/test6/raw/output_9215_IAG933_linker_design_.xyz
REMARK  13 active torsions:
REMARK  status: ('A' for Active; 'I' for Inactive)
REMARK    1  A    between atoms: C_1  and  C_2
REMARK    2  A    between atoms: C_1  and  C_8
REMARK    3  A    between atoms: C_1  and  C_39
REMARK    4  A    between atoms: C_13  and  C_37
REMARK    5  A    between atoms: C_14  and  C_15
REMARK    6  A    between atoms: C_21  and  O_22
REMARK    7  A    between atoms: O_22  and  C_23
REMARK    8  A    between atoms: C_23  and  C_24
REMARK    9  A    between atoms: C_29  and  O_40
REMARK   10  A    between atoms: C_32  and  C_43
REMARK   11  A    between atoms: C_34  and  C_36
REMARK   12  A    between atoms: C_34  and  C_42
REMARK   13  A    between atoms: C_43  and  C_46
REMARK                            x       y       z     vdW  Elec       q    Type
REMARK                         _______ _______ _______ _____ _____    ______ ____
ROOT
ATOM      1  C   UNL A   1     -23.364   1.443  27.292  0.00  0.00    +0.139 C 
ATOM      2  C   UNL A   1     -22.503   1.094  28.344  0.00  0.00    +0.207 C 
ATOM      3  C   UNL A   1     -23.009   0.427  29.372  0.00  0.00    +0.042 C 
ATOM      4  C   UNL A   1     -24.752   1.322  27.421  0.00  0.00    +0.002 C 
ATOM      5  C   UNL A   1     -24.467  -0.024  29.160  0.00  0.00    +0.019 C 
ATOM      6  O   UNL A   1     -21.188   1.143  27.879  0.00  0.00    -0.215 OA
ATOM      7  C   UNL A   1     -25.489   1.020  28.767  0.00  0.00    +0.079 C 
ENDROOT
BRANCH   4   8
ATOM      8  C   UNL A   1     -25.688   1.614  26.461  0.00  0.00    +0.091 C 
ATOM      9  C   UNL A   1     -26.250   2.920  26.395  0.00  0.00    +0.059 C 
ATOM     10  C   UNL A   1     -27.438   3.091  25.645  0.00  0.00    +0.102 C 
ATOM     11  N   UNL A   1     -28.075   2.089  25.003  0.00  0.00    -0.212 NA
ATOM     12  C   UNL A   1     -27.543   0.849  25.079  0.00  0.00    +0.234 C 
ATOM     13  C   UNL A   1     -26.354   0.576  25.777  0.00  0.00    +0.244 C 
ATOM     14  F   UNL A   1     -25.860  -0.681  25.795  0.00  0.00    -0.227 F 
BRANCH   9  15
ATOM     15  C   UNL A   1     -25.642   4.093  27.123  0.00  0.00    +0.263 C 
ATOM     16  N   UNL A   1     -25.614   5.252  26.449  0.00  0.00    -0.200 NA
ATOM     17  C   UNL A   1     -25.026   6.479  26.963  0.00  0.00    +0.139 C 
ATOM     18  O   UNL A   1     -25.143   3.966  28.243  0.00  0.00    -0.269 OA
ENDBRANCH   9  15
BRANCH  12  19
ATOM     19  O   UNL A   1     -28.193  -0.208  24.477  0.00  0.00    -0.459 OA
BRANCH  19  20
ATOM     20  C   UNL A   1     -29.460   0.005  23.866  0.00  0.00    +0.242 C 
BRANCH  20  21
ATOM     21  C   UNL A   1     -30.065  -1.377  23.573  0.00  0.00    +0.229 C 
ATOM     22  O   UNL A   1     -30.729  -1.878  24.721  0.00  0.00    -0.216 OA
ENDBRANCH  20  21
ENDBRANCH  19  20
ENDBRANCH  12  19
ENDBRANCH   4   8
BRANCH   7  24
ATOM     23  O   UNL A   1     -27.308  -0.659  28.576  0.00  0.00    -0.296 OA
ATOM     24  C   UNL A   1     -27.093   0.353  29.093  0.00  0.00    +0.155 C 
BRANCH  24  25
ATOM     25  C   UNL A   1     -28.197   0.952  29.984  0.00  0.00    +0.077 C 
ATOM     26  C   UNL A   1     -30.487   1.637  30.670  0.00  0.00    +0.082 C 
ATOM     27  N   UNL A   1     -29.439   2.037  31.545  0.00  0.00    -0.218 NA
ATOM     28  C   UNL A   1     -29.648   1.044  29.517  0.00  0.00    +0.027 C 
ATOM     29  C   UNL A   1     -28.141   2.122  30.893  0.00  0.00    +0.096 C 
BRANCH  26  31
ATOM     30  C   UNL A   1     -31.804   0.121  32.186  0.00  0.00    +0.011 C 
ATOM     31  C   UNL A   1     -31.807   0.768  30.777  0.00  0.00    +0.096 C 
BRANCH  31  33
ATOM     32  N   UNL A   1     -34.255   1.056  30.692  0.00  0.00    -0.088 NA
ATOM     33  C   UNL A   1     -33.118   1.541  30.631  0.00  0.00    +0.262 C 
ATOM     34  O   UNL A   1     -33.025   2.749  30.564  0.00  0.00    -0.272 OA
ENDBRANCH  31  33
ENDBRANCH  26  31
ENDBRANCH  24  25
ENDBRANCH   7  24
BRANCH   1  36
ATOM     35  C   UNL A   1     -22.871   1.739  24.917  0.00  0.00    +0.252 C 
ATOM     36  O   UNL A   1     -22.812   2.060  26.211  0.00  0.00    -0.474 OA
ENDBRANCH   1  36
BRANCH   5  37
ATOM     37  C   UNL A   1     -24.855  -1.012  30.143  0.00  0.00    +0.039 C 
BRANCH  37  38
ATOM     38  C   UNL A   1     -24.973  -2.505  29.788  0.00  0.00    -0.021 C 
ATOM     39  C   UNL A   1     -23.906  -3.173  29.146  0.00  0.00    -0.004 C 
ATOM     40  C   UNL A   1     -23.989  -4.549  28.853  0.00  0.00    -0.000 C 
ATOM     41  C   UNL A   1     -25.137  -5.280  29.205  0.00  0.00    -0.000 C 
ATOM     42  C   UNL A   1     -26.232  -4.611  29.784  0.00  0.00    -0.000 C 
ATOM     43  C   UNL A   1     -26.155  -3.232  30.065  0.00  0.00    -0.004 C 
ENDBRANCH  37  38
BRANCH  37  44
ATOM     44  C   UNL A   1     -25.387  -0.679  31.571  0.00  0.00    +0.077 C 
ATOM     45  C   UNL A   1     -25.189   0.773  32.028  0.00  0.00    +0.019 C 
ATOM     46  C   UNL A   1     -25.336   0.684  33.544  0.00  0.00    +0.020 C 
ATOM     47  C   UNL A   1     -24.829  -0.715  33.905  0.00  0.00    +0.089 C 
ATOM     48  N   UNL A   1     -24.758  -1.481  32.646  0.00  0.00    -0.219 NA
ENDBRANCH  37  44
ENDBRANCH   5  37
TORSDOF 13
