REMARK  Name = outputs/IAG933/test6/raw/output_9216_IAG933_linker_design_.xyz
REMARK  14 active torsions:
REMARK  status: ('A' for Active; 'I' for Inactive)
REMARK    1  A    between atoms: C_1  and  C_2
REMARK    2  A    between atoms: C_1  and  C_8
REMARK    3  A    between atoms: C_1  and  C_43
REMARK    4  A    between atoms: C_13  and  C_33
REMARK    5  A    between atoms: C_14  and  C_15
REMARK    6  A    between atoms: C_21  and  O_22
REMARK    7  A    between atoms: O_22  and  C_23
REMARK    8  A    between atoms: C_23  and  C_24
REMARK    9  A    between atoms: C_29  and  C_40
REMARK   10  A    between atoms: C_30  and  O_31
REMARK   11  A    between atoms: C_30  and  C_39
REMARK   12  A    between atoms: O_31  and  C_36
REMARK   13  A    between atoms: O_34  and  C_41
REMARK   14  A    between atoms: C_36  and  C_40
REMARK                            x       y       z     vdW  Elec       q    Type
REMARK                         _______ _______ _______ _____ _____    ______ ____
ROOT
ATOM      1  C   UNL A   1     -25.509   0.636  28.317  0.00  0.00    +0.015 C 
ATOM      2  C   UNL A   1     -23.018   0.623  29.425  0.00  0.00    +0.008 C 
ATOM      3  C   UNL A   1     -24.717   1.187  27.221  0.00  0.00    +0.006 C 
ATOM      4  C   UNL A   1     -23.238   1.320  27.002  0.00  0.00    +0.137 C 
ATOM      5  C   UNL A   1     -22.262   1.148  28.252  0.00  0.00    +0.035 C 
ATOM      6  C   UNL A   1     -24.456   0.124  29.369  0.00  0.00    +0.030 C 
ENDROOT
BRANCH   3   7
ATOM      7  C   UNL A   1     -25.688   1.614  26.461  0.00  0.00    +0.036 C 
ATOM      8  C   UNL A   1     -26.250   2.920  26.395  0.00  0.00    +0.076 C 
ATOM      9  C   UNL A   1     -27.438   3.091  25.645  0.00  0.00    +0.107 C 
ATOM     10  N   UNL A   1     -28.075   2.089  25.003  0.00  0.00    -0.208 NA
ATOM     11  C   UNL A   1     -27.543   0.849  25.079  0.00  0.00    +0.253 C 
ATOM     12  C   UNL A   1     -26.354   0.576  25.777  0.00  0.00    +0.193 C 
ATOM     13  F   UNL A   1     -25.860  -0.681  25.795  0.00  0.00    -0.199 F 
BRANCH   8  14
ATOM     14  C   UNL A   1     -25.642   4.093  27.123  0.00  0.00    +0.266 C 
ATOM     15  N   UNL A   1     -25.614   5.252  26.449  0.00  0.00    -0.200 NA
ATOM     16  C   UNL A   1     -25.026   6.479  26.963  0.00  0.00    +0.139 C 
ATOM     17  O   UNL A   1     -25.143   3.966  28.243  0.00  0.00    -0.268 OA
ENDBRANCH   8  14
BRANCH  11  18
ATOM     18  O   UNL A   1     -28.193  -0.208  24.477  0.00  0.00    -0.456 OA
BRANCH  18  19
ATOM     19  C   UNL A   1     -29.460   0.005  23.866  0.00  0.00    +0.243 C 
BRANCH  19  20
ATOM     20  C   UNL A   1     -30.065  -1.377  23.573  0.00  0.00    +0.229 C 
ATOM     21  O   UNL A   1     -30.729  -1.878  24.721  0.00  0.00    -0.216 OA
ENDBRANCH  19  20
ENDBRANCH  18  19
ENDBRANCH  11  18
ENDBRANCH   3   7
BRANCH   4  23
ATOM     22  C   UNL A   1     -22.804   2.440  25.037  0.00  0.00    +0.174 C 
ATOM     23  O   UNL A   1     -22.380   1.470  25.976  0.00  0.00    -0.349 OA
ENDBRANCH   4  23
BRANCH   1  25
ATOM     24  O   UNL A   1     -27.498  -0.685  28.634  0.00  0.00    -0.287 OA
ATOM     25  C   UNL A   1     -27.017   0.369  28.829  0.00  0.00    +0.214 C 
BRANCH  25  26
ATOM     26  C   UNL A   1     -27.867   1.384  29.594  0.00  0.00    +0.269 C 
ATOM     27  N   UNL A   1     -28.334   0.888  30.982  0.00  0.00    -0.092 NA
BRANCH  26  28
ATOM     28  O   UNL A   1     -28.849   1.955  28.907  0.00  0.00    -0.330 OA
BRANCH  28  29
ATOM     29  C   UNL A   1     -29.055   3.318  29.398  0.00  0.00    +0.180 C 
BRANCH  29  31
ATOM     30  O   UNL A   1     -31.152   4.743  29.272  0.00  0.00    -0.218 OA
ATOM     31  C   UNL A   1     -30.133   4.008  28.812  0.00  0.00    +0.214 C 
ENDBRANCH  29  31
ENDBRANCH  28  29
ENDBRANCH  26  28
ENDBRANCH  25  26
ENDBRANCH   1  25
BRANCH   6  32
ATOM     32  C   UNL A   1     -24.855  -1.012  30.143  0.00  0.00    +0.042 C 
BRANCH  32  33
ATOM     33  C   UNL A   1     -24.973  -2.505  29.788  0.00  0.00    -0.021 C 
ATOM     34  C   UNL A   1     -23.906  -3.173  29.146  0.00  0.00    -0.004 C 
ATOM     35  C   UNL A   1     -23.989  -4.549  28.853  0.00  0.00    -0.000 C 
ATOM     36  C   UNL A   1     -25.137  -5.280  29.205  0.00  0.00    -0.000 C 
ATOM     37  C   UNL A   1     -26.232  -4.611  29.784  0.00  0.00    -0.000 C 
ATOM     38  C   UNL A   1     -26.155  -3.232  30.065  0.00  0.00    -0.004 C 
ENDBRANCH  32  33
BRANCH  32  39
ATOM     39  C   UNL A   1     -25.387  -0.679  31.571  0.00  0.00    +0.077 C 
ATOM     40  C   UNL A   1     -25.189   0.773  32.028  0.00  0.00    +0.019 C 
ATOM     41  C   UNL A   1     -25.336   0.684  33.544  0.00  0.00    +0.020 C 
ATOM     42  C   UNL A   1     -24.829  -0.715  33.905  0.00  0.00    +0.089 C 
ATOM     43  N   UNL A   1     -24.758  -1.481  32.646  0.00  0.00    -0.219 NA
ENDBRANCH  32  39
ENDBRANCH   6  32
TORSDOF 14
