REMARK  Name = outputs/IAG933/test6/raw/output_9218_IAG933_linker_design_.xyz
REMARK  9 active torsions:
REMARK  status: ('A' for Active; 'I' for Inactive)
REMARK    1  A    between atoms: C_1  and  C_2
REMARK    2  A    between atoms: C_1  and  C_8
REMARK    3  A    between atoms: C_1  and  C_33
REMARK    4  A    between atoms: C_13  and  C_37
REMARK    5  A    between atoms: C_14  and  C_15
REMARK    6  A    between atoms: C_21  and  O_22
REMARK    7  A    between atoms: O_22  and  C_23
REMARK    8  A    between atoms: C_23  and  C_24
REMARK    9  A    between atoms: C_28  and  C_33
REMARK                            x       y       z     vdW  Elec       q    Type
REMARK                         _______ _______ _______ _____ _____    ______ ____
ROOT
ATOM      1  C   UNL A   1     -24.060   0.654  28.618  0.00  0.00    +0.238 C 
ATOM      2  O   UNL A   1     -21.885   1.601  25.931  0.00  0.00    -0.310 OA
ATOM      3  C   UNL A   1     -20.811   0.081  28.595  0.00  0.00    +0.176 C 
ATOM      4  O   UNL A   1     -22.922   0.218  29.342  0.00  0.00    -0.332 OA
ATOM      5  N   UNL A   1     -23.541   0.895  27.414  0.00  0.00    -0.216 NA
ATOM      6  C   UNL A   1     -22.095   0.622  27.147  0.00  0.00    +0.211 C 
ATOM      7  O   UNL A   1     -20.023   1.158  28.250  0.00  0.00    -0.347 OA
ATOM      8  C   UNL A   1     -24.203   1.417  26.366  0.00  0.00    +0.131 C 
ATOM      9  C   UNL A   1     -21.554  -0.639  29.519  0.00  0.00    +0.176 C 
ATOM     10  C   UNL A   1     -21.751   1.394  28.400  0.00  0.00    +0.188 C 
ATOM     11  F   UNL A   1     -23.212   1.508  24.070  0.00  0.00    -0.203 F 
ATOM     12  C   UNL A   1     -23.205   1.662  25.343  0.00  0.00    +0.295 C 
ENDROOT
BRANCH   8  13
ATOM     13  C   UNL A   1     -25.688   1.614  26.461  0.00  0.00    +0.090 C 
ATOM     14  C   UNL A   1     -26.250   2.920  26.395  0.00  0.00    +0.056 C 
ATOM     15  C   UNL A   1     -27.438   3.091  25.645  0.00  0.00    +0.102 C 
ATOM     16  N   UNL A   1     -28.075   2.089  25.003  0.00  0.00    -0.212 NA
ATOM     17  C   UNL A   1     -27.543   0.849  25.079  0.00  0.00    +0.234 C 
ATOM     18  C   UNL A   1     -26.354   0.576  25.777  0.00  0.00    +0.241 C 
ATOM     19  F   UNL A   1     -25.860  -0.681  25.795  0.00  0.00    -0.227 F 
BRANCH  14  20
ATOM     20  C   UNL A   1     -25.642   4.093  27.123  0.00  0.00    +0.263 C 
ATOM     21  N   UNL A   1     -25.614   5.252  26.449  0.00  0.00    -0.200 NA
ATOM     22  C   UNL A   1     -25.026   6.479  26.963  0.00  0.00    +0.139 C 
ATOM     23  O   UNL A   1     -25.143   3.966  28.243  0.00  0.00    -0.269 OA
ENDBRANCH  14  20
BRANCH  17  24
ATOM     24  O   UNL A   1     -28.193  -0.208  24.477  0.00  0.00    -0.459 OA
BRANCH  24  25
ATOM     25  C   UNL A   1     -29.460   0.005  23.866  0.00  0.00    +0.242 C 
BRANCH  25  26
ATOM     26  C   UNL A   1     -30.065  -1.377  23.573  0.00  0.00    +0.229 C 
ATOM     27  O   UNL A   1     -30.729  -1.878  24.721  0.00  0.00    -0.216 OA
ENDBRANCH  25  26
ENDBRANCH  24  25
ENDBRANCH  17  24
ENDBRANCH   8  13
BRANCH   1  29
ATOM     28  O   UNL A   1     -26.289  -0.104  28.554  0.00  0.00    -0.292 OA
ATOM     29  C   UNL A   1     -25.180  -0.105  29.003  0.00  0.00    +0.199 C 
BRANCH  29  30
ATOM     30  C   UNL A   1     -24.855  -1.012  30.143  0.00  0.00    +0.100 C 
BRANCH  30  31
ATOM     31  C   UNL A   1     -24.973  -2.505  29.788  0.00  0.00    -0.014 C 
ATOM     32  C   UNL A   1     -23.906  -3.173  29.146  0.00  0.00    -0.004 C 
ATOM     33  C   UNL A   1     -23.989  -4.549  28.853  0.00  0.00    -0.000 C 
ATOM     34  C   UNL A   1     -25.137  -5.280  29.205  0.00  0.00    -0.000 C 
ATOM     35  C   UNL A   1     -26.232  -4.611  29.784  0.00  0.00    -0.000 C 
ATOM     36  C   UNL A   1     -26.155  -3.232  30.065  0.00  0.00    -0.004 C 
ENDBRANCH  30  31
BRANCH  30  37
ATOM     37  C   UNL A   1     -25.387  -0.679  31.571  0.00  0.00    +0.084 C 
ATOM     38  C   UNL A   1     -25.189   0.773  32.028  0.00  0.00    +0.020 C 
ATOM     39  C   UNL A   1     -25.336   0.684  33.544  0.00  0.00    +0.020 C 
ATOM     40  C   UNL A   1     -24.829  -0.715  33.905  0.00  0.00    +0.089 C 
ATOM     41  N   UNL A   1     -24.758  -1.481  32.646  0.00  0.00    -0.219 NA
ENDBRANCH  30  37
ENDBRANCH  29  30
ENDBRANCH   1  29
TORSDOF 9
