REMARK  Name = outputs/IAG933/test6/raw/output_9219_IAG933_linker_design_.xyz
REMARK  12 active torsions:
REMARK  status: ('A' for Active; 'I' for Inactive)
REMARK    1  A    between atoms: C_1  and  C_2
REMARK    2  A    between atoms: C_1  and  C_8
REMARK    3  A    between atoms: C_1  and  C_39
REMARK    4  A    between atoms: C_13  and  C_33
REMARK    5  A    between atoms: C_14  and  C_15
REMARK    6  A    between atoms: C_21  and  O_22
REMARK    7  A    between atoms: O_22  and  C_23
REMARK    8  A    between atoms: C_23  and  C_24
REMARK    9  A    between atoms: C_32  and  N_37
REMARK   10  A    between atoms: C_32  and  C_45
REMARK   11  A    between atoms: N_37  and  C_39
REMARK   12  A    between atoms: C_39  and  C_43
REMARK                            x       y       z     vdW  Elec       q    Type
REMARK                         _______ _______ _______ _____ _____    ______ ____
ROOT
ATOM      1 CL   UNL A   1     -20.648   1.206  27.652  0.00  0.00    -0.077 Cl
ATOM      2  C   UNL A   1     -22.399   1.165  27.697  0.00  0.00    +0.123 C 
ATOM      3  C   UNL A   1     -23.074   0.655  28.746  0.00  0.00    +0.206 C 
ATOM      4  C   UNL A   1     -24.591   1.221  27.240  0.00  0.00    +0.031 C 
ATOM      5  O   UNL A   1     -22.509   0.218  29.793  0.00  0.00    -0.286 OA
ATOM      6  C   UNL A   1     -23.128   1.645  26.732  0.00  0.00    +0.154 C 
ATOM      7  C   UNL A   1     -24.418   0.575  28.414  0.00  0.00    +0.036 C 
ATOM      8  F   UNL A   1     -22.593   2.395  25.632  0.00  0.00    -0.203 F 
ENDROOT
BRANCH   4   9
ATOM      9  C   UNL A   1     -25.688   1.614  26.461  0.00  0.00    +0.040 C 
ATOM     10  C   UNL A   1     -26.250   2.920  26.395  0.00  0.00    +0.077 C 
ATOM     11  C   UNL A   1     -27.438   3.091  25.645  0.00  0.00    +0.107 C 
ATOM     12  N   UNL A   1     -28.075   2.089  25.003  0.00  0.00    -0.208 NA
ATOM     13  C   UNL A   1     -27.543   0.849  25.079  0.00  0.00    +0.253 C 
ATOM     14  C   UNL A   1     -26.354   0.576  25.777  0.00  0.00    +0.193 C 
ATOM     15  F   UNL A   1     -25.860  -0.681  25.795  0.00  0.00    -0.199 F 
BRANCH  10  16
ATOM     16  C   UNL A   1     -25.642   4.093  27.123  0.00  0.00    +0.266 C 
ATOM     17  N   UNL A   1     -25.614   5.252  26.449  0.00  0.00    -0.200 NA
ATOM     18  C   UNL A   1     -25.026   6.479  26.963  0.00  0.00    +0.139 C 
ATOM     19  O   UNL A   1     -25.143   3.966  28.243  0.00  0.00    -0.268 OA
ENDBRANCH  10  16
BRANCH  13  20
ATOM     20  O   UNL A   1     -28.193  -0.208  24.477  0.00  0.00    -0.456 OA
BRANCH  20  21
ATOM     21  C   UNL A   1     -29.460   0.005  23.866  0.00  0.00    +0.243 C 
BRANCH  21  22
ATOM     22  C   UNL A   1     -30.065  -1.377  23.573  0.00  0.00    +0.229 C 
ATOM     23  O   UNL A   1     -30.729  -1.878  24.721  0.00  0.00    -0.216 OA
ENDBRANCH  21  22
ENDBRANCH  20  21
ENDBRANCH  13  20
ENDBRANCH   4   9
BRANCH   7  24
ATOM     24  C   UNL A   1     -25.398  -0.084  29.103  0.00  0.00    +0.104 C 
BRANCH  24  25
ATOM     25  C   UNL A   1     -24.855  -1.012  30.143  0.00  0.00    +0.059 C 
BRANCH  25  26
ATOM     26  C   UNL A   1     -24.973  -2.505  29.788  0.00  0.00    -0.019 C 
ATOM     27  C   UNL A   1     -23.906  -3.173  29.146  0.00  0.00    -0.004 C 
ATOM     28  C   UNL A   1     -23.989  -4.549  28.853  0.00  0.00    -0.000 C 
ATOM     29  C   UNL A   1     -25.137  -5.280  29.205  0.00  0.00    -0.000 C 
ATOM     30  C   UNL A   1     -26.232  -4.611  29.784  0.00  0.00    -0.000 C 
ATOM     31  C   UNL A   1     -26.155  -3.232  30.065  0.00  0.00    -0.004 C 
ENDBRANCH  25  26
BRANCH  25  32
ATOM     32  C   UNL A   1     -25.387  -0.679  31.571  0.00  0.00    +0.079 C 
ATOM     33  C   UNL A   1     -25.189   0.773  32.028  0.00  0.00    +0.019 C 
ATOM     34  C   UNL A   1     -25.336   0.684  33.544  0.00  0.00    +0.020 C 
ATOM     35  C   UNL A   1     -24.829  -0.715  33.905  0.00  0.00    +0.089 C 
ATOM     36  N   UNL A   1     -24.758  -1.481  32.646  0.00  0.00    -0.219 NA
ENDBRANCH  25  32
ENDBRANCH  24  25
BRANCH  24  37
ATOM     37  N   UNL A   1     -26.713  -0.170  28.447  0.00  0.00    -0.205 NA
BRANCH  37  38
ATOM     38  C   UNL A   1     -27.758  -0.069  29.186  0.00  0.00    +0.174 C 
BRANCH  38  45
ATOM     39  C   UNL A   1     -28.361   2.682  29.957  0.00  0.00    +0.093 C 
ATOM     40  C   UNL A   1     -29.906   2.799  28.259  0.00  0.00    +0.093 C 
ATOM     41  C   UNL A   1     -29.016   4.027  29.992  0.00  0.00    +0.023 C 
ATOM     42  O   UNL A   1     -29.740  -0.355  28.776  0.00  0.00    -0.273 OA
ATOM     43  C   UNL A   1     -29.749   4.189  28.701  0.00  0.00    +0.023 C 
ATOM     44  N   UNL A   1     -29.034   1.968  29.063  0.00  0.00    -0.278 N 
ATOM     45  C   UNL A   1     -28.921   0.668  29.059  0.00  0.00    +0.243 C 
ENDBRANCH  38  45
ENDBRANCH  37  38
ENDBRANCH  24  37
ENDBRANCH   7  24
TORSDOF 12
