MODEL 921
MODEL 1
REMARK VINA RESULT:    -6.841      0.000      0.000
REMARK INTER + INTRA:          -8.293
REMARK INTER:                  -8.041
REMARK INTRA:                  -0.251
REMARK UNBOUND:                -0.251
REMARK  Name = No_921-gen_results/8p0m/2024-11-27-11-27-31/
REMARK  3 active torsions:
REMARK  status: ('A' for Active; 'I' for Inactive)
REMARK    1  A    between atoms: C_10  and  C_11
REMARK    2  A    between atoms: C_11  and  C_12
REMARK    3  A    between atoms: C_12  and  C_15
REMARK                            x       y       z     vdW  Elec       q    Type
REMARK                         _______ _______ _______ _____ _____    ______ ____
ROOT
ATOM      1  C   UNL A   1     -23.900  -4.696  28.533  0.00  0.00    -0.000 A 
ATOM      2  C   UNL A   1     -23.996  -3.491  28.536  0.00  0.00    -0.000 A 
ATOM      3  C   UNL A   1     -25.079  -2.858  29.137  0.00  0.00    -0.004 A 
ATOM      4  C   UNL A   1     -25.930  -3.370  29.566  0.00  0.00    -0.000 A 
ATOM      5  C   UNL A   1     -27.184  -2.805  30.222  0.00  0.00    -0.000 A 
ATOM      6  C   UNL A   1     -25.017  -5.491  29.020  0.00  0.00    -0.000 A 
ATOM      7  C   UNL A   1     -26.042  -4.812  29.638  0.00  0.00    -0.000 A 
ATOM      8  C   UNL A   1     -27.422  -1.360  29.853  0.00  0.00    -0.000 A 
ATOM      9  C   UNL A   1     -26.319  -0.508  29.695  0.00  0.00    -0.004 A 
ATOM     10  C   UNL A   1     -25.138  -1.239  29.044  0.00  0.00    -0.015 A 
ENDROOT
BRANCH  10  11
ATOM     11  C   UNL A   1     -24.057  -0.376  28.615  0.00  0.00    +0.089 C 
ATOM     12  C   UNL A   1     -24.160   0.263  27.370  0.00  0.00    +0.013 C 
BRANCH  11  13
ATOM     13  C   UNL A   1     -23.111  -0.174  29.536  0.00  0.00    +0.231 C 
ATOM     14  O   UNL A   1     -21.863  -0.306  29.417  0.00  0.00    -0.286 OA
BRANCH  13  15
ATOM     15  C   UNL A   1     -23.573   0.566  30.811  0.00  0.00    +0.300 C 
ATOM     16  O   UNL A   1     -23.563  -0.028  31.956  0.00  0.00    -0.265 OA
ATOM     17  N   UNL A   1     -23.799   1.878  30.615  0.00  0.00    -0.197 NA
ATOM     18  C   UNL A   1     -24.287   2.651  31.753  0.00  0.00    +0.139 C 
ENDBRANCH  13  15
ENDBRANCH  11  13
ENDBRANCH  10  11
TORSDOF 3
ENDMDL
ENDMDL
