REMARK  Name = outputs/IAG933/test6/raw/output_922_IAG933_linker_design_.xyz
REMARK  15 active torsions:
REMARK  status: ('A' for Active; 'I' for Inactive)
REMARK    1  A    between atoms: C_1  and  C_2
REMARK    2  A    between atoms: C_1  and  C_8
REMARK    3  A    between atoms: C_1  and  C_34
REMARK    4  A    between atoms: C_13  and  C_37
REMARK    5  A    between atoms: C_14  and  C_15
REMARK    6  A    between atoms: C_21  and  O_22
REMARK    7  A    between atoms: O_22  and  C_23
REMARK    8  A    between atoms: C_23  and  C_24
REMARK    9  A    between atoms: O_29  and  C_44
REMARK   10  A    between atoms: O_29  and  C_45
REMARK   11  A    between atoms: C_32  and  C_44
REMARK   12  A    between atoms: C_34  and  C_40
REMARK   13  A    between atoms: C_34  and  C_42
REMARK   14  A    between atoms: C_39  and  C_42
REMARK   15  A    between atoms: C_39  and  C_45
REMARK                            x       y       z     vdW  Elec       q    Type
REMARK                         _______ _______ _______ _____ _____    ______ ____
ROOT
ATOM      1  C   UNL A   1     -25.233  -0.134  28.924  0.00  0.00    +0.045 C 
ENDROOT
BRANCH   1   6
ATOM      2  C   UNL A   1     -22.088   2.128  26.112  0.00  0.00    -0.020 C 
ATOM      3  C   UNL A   1     -21.397   1.807  27.284  0.00  0.00    +0.073 C 
ATOM      4  C   UNL A   1     -24.412   1.439  26.848  0.00  0.00    -0.002 C 
ATOM      5  C   UNL A   1     -21.912   1.251  28.440  0.00  0.00    +0.077 C 
ATOM      6  C   UNL A   1     -24.234   0.704  28.257  0.00  0.00    +0.055 C 
ATOM      7  N   UNL A   1     -23.066   0.828  28.926  0.00  0.00    -0.253 NA
ATOM      8  C   UNL A   1     -23.448   1.901  25.901  0.00  0.00    -0.007 C 
BRANCH   4   9
ATOM      9  C   UNL A   1     -25.688   1.614  26.461  0.00  0.00    +0.093 C 
ATOM     10  C   UNL A   1     -26.250   2.920  26.395  0.00  0.00    +0.059 C 
ATOM     11  C   UNL A   1     -27.438   3.091  25.645  0.00  0.00    +0.102 C 
ATOM     12  N   UNL A   1     -28.075   2.089  25.003  0.00  0.00    -0.212 NA
ATOM     13  C   UNL A   1     -27.543   0.849  25.079  0.00  0.00    +0.234 C 
ATOM     14  C   UNL A   1     -26.354   0.576  25.777  0.00  0.00    +0.244 C 
ATOM     15  F   UNL A   1     -25.860  -0.681  25.795  0.00  0.00    -0.227 F 
BRANCH  10  16
ATOM     16  C   UNL A   1     -25.642   4.093  27.123  0.00  0.00    +0.263 C 
ATOM     17  N   UNL A   1     -25.614   5.252  26.449  0.00  0.00    -0.200 NA
ATOM     18  C   UNL A   1     -25.026   6.479  26.963  0.00  0.00    +0.139 C 
ATOM     19  O   UNL A   1     -25.143   3.966  28.243  0.00  0.00    -0.269 OA
ENDBRANCH  10  16
BRANCH  13  20
ATOM     20  O   UNL A   1     -28.193  -0.208  24.477  0.00  0.00    -0.459 OA
BRANCH  20  21
ATOM     21  C   UNL A   1     -29.460   0.005  23.866  0.00  0.00    +0.242 C 
BRANCH  21  22
ATOM     22  C   UNL A   1     -30.065  -1.377  23.573  0.00  0.00    +0.229 C 
ATOM     23  O   UNL A   1     -30.729  -1.878  24.721  0.00  0.00    -0.216 OA
ENDBRANCH  21  22
ENDBRANCH  20  21
ENDBRANCH  13  20
ENDBRANCH   4   9
ENDBRANCH   1   6
BRANCH   1  24
ATOM     24  C   UNL A   1     -24.855  -1.012  30.143  0.00  0.00    +0.044 C 
BRANCH  24  25
ATOM     25  C   UNL A   1     -24.973  -2.505  29.788  0.00  0.00    -0.021 C 
ATOM     26  C   UNL A   1     -23.906  -3.173  29.146  0.00  0.00    -0.004 C 
ATOM     27  C   UNL A   1     -23.989  -4.549  28.853  0.00  0.00    -0.000 C 
ATOM     28  C   UNL A   1     -25.137  -5.280  29.205  0.00  0.00    -0.000 C 
ATOM     29  C   UNL A   1     -26.232  -4.611  29.784  0.00  0.00    -0.000 C 
ATOM     30  C   UNL A   1     -26.155  -3.232  30.065  0.00  0.00    -0.004 C 
ENDBRANCH  24  25
BRANCH  24  31
ATOM     31  C   UNL A   1     -25.387  -0.679  31.571  0.00  0.00    +0.077 C 
ATOM     32  C   UNL A   1     -25.189   0.773  32.028  0.00  0.00    +0.019 C 
ATOM     33  C   UNL A   1     -25.336   0.684  33.544  0.00  0.00    +0.020 C 
ATOM     34  C   UNL A   1     -24.829  -0.715  33.905  0.00  0.00    +0.089 C 
ATOM     35  N   UNL A   1     -24.758  -1.481  32.646  0.00  0.00    -0.219 NA
ENDBRANCH  24  31
ENDBRANCH   1  24
BRANCH   1  36
ATOM     36  C   UNL A   1     -26.563  -0.243  28.537  0.00  0.00    +0.009 C 
BRANCH  36  37
ATOM     37  C   UNL A   1     -27.952  -0.061  29.075  0.00  0.00    +0.033 C 
BRANCH  37  38
ATOM     38  C   UNL A   1     -28.591   1.337  29.166  0.00  0.00    +0.143 C 
BRANCH  38  39
ATOM     39  O   UNL A   1     -27.690   2.309  29.700  0.00  0.00    -0.349 OA
BRANCH  39  40
ATOM     40  C   UNL A   1     -27.891   2.893  30.993  0.00  0.00    +0.169 C 
BRANCH  40  43
ATOM     41  C   UNL A   1     -27.746   6.436  29.457  0.00  0.00    -0.000 C 
ATOM     42  C   UNL A   1     -28.241   5.186  29.882  0.00  0.00    -0.002 C 
ATOM     43  C   UNL A   1     -27.507   4.404  30.814  0.00  0.00    +0.007 C 
ATOM     44  C   UNL A   1     -25.846   6.200  30.948  0.00  0.00    -0.000 C 
ATOM     45  C   UNL A   1     -26.549   6.941  29.998  0.00  0.00    -0.000 C 
ATOM     46  C   UNL A   1     -26.366   4.956  31.401  0.00  0.00    -0.002 C 
ENDBRANCH  40  43
ENDBRANCH  39  40
ENDBRANCH  38  39
ENDBRANCH  37  38
ENDBRANCH  36  37
ENDBRANCH   1  36
TORSDOF 15
