REMARK  Name = outputs/IAG933/test6/raw/output_9226_IAG933_linker_design_.xyz
REMARK  12 active torsions:
REMARK  status: ('A' for Active; 'I' for Inactive)
REMARK    1  A    between atoms: C_1  and  C_2
REMARK    2  A    between atoms: C_1  and  C_8
REMARK    3  A    between atoms: C_1  and  C_36
REMARK    4  A    between atoms: C_13  and  C_29
REMARK    5  A    between atoms: C_14  and  C_15
REMARK    6  A    between atoms: C_21  and  O_22
REMARK    7  A    between atoms: O_22  and  C_23
REMARK    8  A    between atoms: C_23  and  C_24
REMARK    9  A    between atoms: O_28  and  C_39
REMARK   10  A    between atoms: C_30  and  C_36
REMARK   11  A    between atoms: N_32  and  C_36
REMARK   12  A    between atoms: N_32  and  C_42
REMARK                            x       y       z     vdW  Elec       q    Type
REMARK                         _______ _______ _______ _____ _____    ______ ____
ROOT
ATOM      1  C   UNL A   1     -24.269   1.415  26.921  0.00  0.00    +0.018 C 
ATOM      2  C   UNL A   1     -22.765   0.482  28.487  0.00  0.00    +0.062 C 
ATOM      3  N   UNL A   1     -22.053  -0.340  29.342  0.00  0.00    -0.240 NA
ATOM      4  C   UNL A   1     -22.017   1.222  27.631  0.00  0.00    +0.024 C 
ATOM      5  C   UNL A   1     -22.742   1.660  26.582  0.00  0.00    +0.130 C 
ATOM      6  C   UNL A   1     -19.949   0.273  28.320  0.00  0.00    +0.028 C 
ATOM      7  C   UNL A   1     -20.754  -0.411  29.028  0.00  0.00    +0.112 C 
ATOM      8  C   UNL A   1     -24.135   0.851  28.099  0.00  0.00    +0.132 C 
ATOM      9  C   UNL A   1     -20.622   1.361  27.745  0.00  0.00    +0.032 C 
ENDROOT
BRANCH   1  10
ATOM     10  C   UNL A   1     -25.688   1.614  26.461  0.00  0.00    +0.093 C 
ATOM     11  C   UNL A   1     -26.250   2.920  26.395  0.00  0.00    +0.059 C 
ATOM     12  C   UNL A   1     -27.438   3.091  25.645  0.00  0.00    +0.102 C 
ATOM     13  N   UNL A   1     -28.075   2.089  25.003  0.00  0.00    -0.212 NA
ATOM     14  C   UNL A   1     -27.543   0.849  25.079  0.00  0.00    +0.234 C 
ATOM     15  C   UNL A   1     -26.354   0.576  25.777  0.00  0.00    +0.244 C 
ATOM     16  F   UNL A   1     -25.860  -0.681  25.795  0.00  0.00    -0.227 F 
BRANCH  11  17
ATOM     17  C   UNL A   1     -25.642   4.093  27.123  0.00  0.00    +0.263 C 
ATOM     18  N   UNL A   1     -25.614   5.252  26.449  0.00  0.00    -0.200 NA
ATOM     19  C   UNL A   1     -25.026   6.479  26.963  0.00  0.00    +0.139 C 
ATOM     20  O   UNL A   1     -25.143   3.966  28.243  0.00  0.00    -0.269 OA
ENDBRANCH  11  17
BRANCH  14  21
ATOM     21  O   UNL A   1     -28.193  -0.208  24.477  0.00  0.00    -0.459 OA
BRANCH  21  22
ATOM     22  C   UNL A   1     -29.460   0.005  23.866  0.00  0.00    +0.242 C 
BRANCH  22  23
ATOM     23  C   UNL A   1     -30.065  -1.377  23.573  0.00  0.00    +0.229 C 
ATOM     24  O   UNL A   1     -30.729  -1.878  24.721  0.00  0.00    -0.216 OA
ENDBRANCH  22  23
ENDBRANCH  21  22
ENDBRANCH  14  21
ENDBRANCH   1  10
BRANCH   5  25
ATOM     25  O   UNL A   1     -21.993   2.165  25.561  0.00  0.00    -0.472 OA
ATOM     26  C   UNL A   1     -22.830   2.269  24.465  0.00  0.00    +0.252 C 
ENDBRANCH   5  25
BRANCH   8  27
ATOM     27  N   UNL A   1     -25.067   0.961  28.891  0.00  0.00    -0.201 NA
BRANCH  27  28
ATOM     28  C   UNL A   1     -25.734  -0.100  29.290  0.00  0.00    +0.156 C 
BRANCH  28  29
ATOM     29  C   UNL A   1     -27.176  -0.106  29.111  0.00  0.00    +0.258 C 
ATOM     30  N   UNL A   1     -27.795   1.085  29.101  0.00  0.00    -0.202 NA
ATOM     31  O   UNL A   1     -27.689  -1.186  28.813  0.00  0.00    -0.272 OA
ATOM     32  C   UNL A   1     -29.226   1.061  28.802  0.00  0.00    +0.139 C 
ENDBRANCH  28  29
BRANCH  28  33
ATOM     33  C   UNL A   1     -24.855  -1.012  30.143  0.00  0.00    +0.063 C 
BRANCH  33  34
ATOM     34  C   UNL A   1     -24.973  -2.505  29.788  0.00  0.00    -0.019 C 
ATOM     35  C   UNL A   1     -23.906  -3.173  29.146  0.00  0.00    -0.004 C 
ATOM     36  C   UNL A   1     -23.989  -4.549  28.853  0.00  0.00    -0.000 C 
ATOM     37  C   UNL A   1     -25.137  -5.280  29.205  0.00  0.00    -0.000 C 
ATOM     38  C   UNL A   1     -26.232  -4.611  29.784  0.00  0.00    -0.000 C 
ATOM     39  C   UNL A   1     -26.155  -3.232  30.065  0.00  0.00    -0.004 C 
ENDBRANCH  33  34
BRANCH  33  40
ATOM     40  C   UNL A   1     -25.387  -0.679  31.571  0.00  0.00    +0.079 C 
ATOM     41  C   UNL A   1     -25.189   0.773  32.028  0.00  0.00    +0.019 C 
ATOM     42  C   UNL A   1     -25.336   0.684  33.544  0.00  0.00    +0.020 C 
ATOM     43  C   UNL A   1     -24.829  -0.715  33.905  0.00  0.00    +0.089 C 
ATOM     44  N   UNL A   1     -24.758  -1.481  32.646  0.00  0.00    -0.219 NA
ENDBRANCH  33  40
ENDBRANCH  28  33
ENDBRANCH  27  28
ENDBRANCH   8  27
TORSDOF 12
