REMARK  Name = outputs/IAG933/test6/raw/output_9229_IAG933_linker_design_.xyz
REMARK  12 active torsions:
REMARK  status: ('A' for Active; 'I' for Inactive)
REMARK    1  A    between atoms: C_1  and  C_2
REMARK    2  A    between atoms: C_1  and  C_8
REMARK    3  A    between atoms: C_1  and  C_43
REMARK    4  A    between atoms: C_13  and  C_32
REMARK    5  A    between atoms: C_14  and  C_15
REMARK    6  A    between atoms: C_21  and  O_22
REMARK    7  A    between atoms: O_22  and  C_23
REMARK    8  A    between atoms: C_23  and  C_24
REMARK    9  A    between atoms: N_34  and  C_38
REMARK   10  A    between atoms: N_34  and  C_43
REMARK   11  A    between atoms: C_37  and  C_42
REMARK   12  A    between atoms: C_41  and  C_43
REMARK                            x       y       z     vdW  Elec       q    Type
REMARK                         _______ _______ _______ _____ _____    ______ ____
ROOT
ATOM      1  C   UNL A   1     -22.242   1.431  27.150  0.00  0.00    +0.148 C 
ATOM      2  F   UNL A   1     -22.900   2.749  25.362  0.00  0.00    -0.202 F 
ATOM      3  C   UNL A   1     -24.388   1.452  26.964  0.00  0.00    +0.026 C 
ATOM      4  C   UNL A   1     -23.252   1.969  26.404  0.00  0.00    +0.163 C 
ATOM      5  C   UNL A   1     -24.160   0.592  28.070  0.00  0.00    -0.020 C 
ATOM      6  C   UNL A   1     -22.769   0.721  28.180  0.00  0.00    +0.072 C 
ATOM      7  F   UNL A   1     -20.931   1.579  26.869  0.00  0.00    -0.206 F 
ENDROOT
BRANCH   3   8
ATOM      8  C   UNL A   1     -25.688   1.614  26.461  0.00  0.00    +0.040 C 
ATOM      9  C   UNL A   1     -26.250   2.920  26.395  0.00  0.00    +0.077 C 
ATOM     10  C   UNL A   1     -27.438   3.091  25.645  0.00  0.00    +0.107 C 
ATOM     11  N   UNL A   1     -28.075   2.089  25.003  0.00  0.00    -0.208 NA
ATOM     12  C   UNL A   1     -27.543   0.849  25.079  0.00  0.00    +0.253 C 
ATOM     13  C   UNL A   1     -26.354   0.576  25.777  0.00  0.00    +0.193 C 
ATOM     14  F   UNL A   1     -25.860  -0.681  25.795  0.00  0.00    -0.199 F 
BRANCH   9  15
ATOM     15  C   UNL A   1     -25.642   4.093  27.123  0.00  0.00    +0.266 C 
ATOM     16  N   UNL A   1     -25.614   5.252  26.449  0.00  0.00    -0.200 NA
ATOM     17  C   UNL A   1     -25.026   6.479  26.963  0.00  0.00    +0.139 C 
ATOM     18  O   UNL A   1     -25.143   3.966  28.243  0.00  0.00    -0.268 OA
ENDBRANCH   9  15
BRANCH  12  19
ATOM     19  O   UNL A   1     -28.193  -0.208  24.477  0.00  0.00    -0.456 OA
BRANCH  19  20
ATOM     20  C   UNL A   1     -29.460   0.005  23.866  0.00  0.00    +0.243 C 
BRANCH  20  21
ATOM     21  C   UNL A   1     -30.065  -1.377  23.573  0.00  0.00    +0.229 C 
ATOM     22  O   UNL A   1     -30.729  -1.878  24.721  0.00  0.00    -0.216 OA
ENDBRANCH  20  21
ENDBRANCH  19  20
ENDBRANCH  12  19
ENDBRANCH   3   8
BRANCH   6  23
ATOM     23  C   UNL A   1     -22.017   0.271  29.239  0.00  0.00    +0.011 C 
ATOM     24  C   UNL A   1     -20.759  -0.468  28.959  0.00  0.00    +0.001 C 
ENDBRANCH   6  23
BRANCH   5  25
ATOM     25  C   UNL A   1     -25.132  -0.123  28.925  0.00  0.00    +0.097 C 
BRANCH  25  26
ATOM     26  C   UNL A   1     -24.855  -1.012  30.143  0.00  0.00    +0.058 C 
BRANCH  26  27
ATOM     27  C   UNL A   1     -24.973  -2.505  29.788  0.00  0.00    -0.019 C 
ATOM     28  C   UNL A   1     -23.906  -3.173  29.146  0.00  0.00    -0.004 C 
ATOM     29  C   UNL A   1     -23.989  -4.549  28.853  0.00  0.00    -0.000 C 
ATOM     30  C   UNL A   1     -25.137  -5.280  29.205  0.00  0.00    -0.000 C 
ATOM     31  C   UNL A   1     -26.232  -4.611  29.784  0.00  0.00    -0.000 C 
ATOM     32  C   UNL A   1     -26.155  -3.232  30.065  0.00  0.00    -0.004 C 
ENDBRANCH  26  27
BRANCH  26  33
ATOM     33  C   UNL A   1     -25.387  -0.679  31.571  0.00  0.00    +0.079 C 
ATOM     34  C   UNL A   1     -25.189   0.773  32.028  0.00  0.00    +0.019 C 
ATOM     35  C   UNL A   1     -25.336   0.684  33.544  0.00  0.00    +0.020 C 
ATOM     36  C   UNL A   1     -24.829  -0.715  33.905  0.00  0.00    +0.089 C 
ATOM     37  N   UNL A   1     -24.758  -1.481  32.646  0.00  0.00    -0.219 NA
ENDBRANCH  26  33
ENDBRANCH  25  26
BRANCH  25  38
ATOM     38  N   UNL A   1     -26.335  -0.124  28.485  0.00  0.00    -0.216 NA
BRANCH  38  43
ATOM     39  C   UNL A   1     -27.661   1.901  29.094  0.00  0.00    +0.017 C 
ATOM     40  C   UNL A   1     -29.118   2.149  29.499  0.00  0.00    +0.001 C 
ATOM     41  C   UNL A   1     -28.463  -0.583  29.162  0.00  0.00    +0.017 C 
ATOM     42  C   UNL A   1     -29.610  -0.135  28.262  0.00  0.00    +0.001 C 
ATOM     43  C   UNL A   1     -27.317   0.432  29.350  0.00  0.00    +0.073 C 
ATOM     44  C   UNL A   1     -30.028   1.375  28.475  0.00  0.00    +0.000 C 
ENDBRANCH  38  43
ENDBRANCH  25  38
ENDBRANCH   5  25
TORSDOF 12
