MODEL 922
MODEL 1
REMARK VINA RESULT:    -6.403      0.000      0.000
REMARK INTER + INTRA:          -6.403
REMARK INTER:                  -6.403
REMARK INTRA:                   0.000
REMARK UNBOUND:                 0.000
REMARK  Name = No_922-gen_results/8p0m/2024-11-27-11-27-31/
REMARK  0 active torsions:
REMARK  status: ('A' for Active; 'I' for Inactive)
REMARK                            x       y       z     vdW  Elec       q    Type
REMARK                         _______ _______ _______ _____ _____    ______ ____
ROOT
ATOM      1  C   UNL A   1     -24.202  -4.081  29.203  0.00  0.00    +0.020 A 
ATOM      2  C   UNL A   1     -25.106  -4.621  29.181  0.00  0.00    +0.002 A 
ATOM      3  C   UNL A   1     -24.309  -2.652  29.688  0.00  0.00    +0.104 A 
ATOM      4  C   UNL A   1     -25.539  -2.187  30.201  0.00  0.00    +0.154 A 
ATOM      5  C   UNL A   1     -26.482  -4.391  29.679  0.00  0.00    +0.003 A 
ATOM      6  C   UNL A   1     -26.618  -3.088  30.138  0.00  0.00    +0.038 A 
ATOM      7  O   UNL A   1     -25.682  -0.942  30.591  0.00  0.00    -0.469 OA
ATOM      8  C   UNL A   1     -25.421   0.090  29.729  0.00  0.00    +0.233 C 
ATOM      9  C   UNL A   1     -24.204   0.430  29.431  0.00  0.00    +0.036 A 
ATOM     10  C   UNL A   1     -24.068   1.292  28.539  0.00  0.00    +0.001 A 
ATOM     11  C   UNL A   1     -22.815   1.528  27.954  0.00  0.00    -0.000 A 
ATOM     12  C   UNL A   1     -21.785   0.576  28.179  0.00  0.00    +0.001 A 
ATOM     13  C   UNL A   1     -22.038  -0.488  28.964  0.00  0.00    +0.016 A 
ATOM     14  C   UNL A   1     -23.261  -0.634  29.558  0.00  0.00    +0.070 A 
ATOM     15  N   UNL A   1     -23.244  -1.902  29.711  0.00  0.00    -0.210 NA
ENDROOT
TORSDOF 0
ENDMDL
ENDMDL
