REMARK  Name = outputs/IAG933/test6/raw/output_9231_IAG933_linker_design_.xyz
REMARK  12 active torsions:
REMARK  status: ('A' for Active; 'I' for Inactive)
REMARK    1  A    between atoms: C_1  and  C_2
REMARK    2  A    between atoms: C_1  and  C_8
REMARK    3  A    between atoms: C_9  and  P_39
REMARK    4  A    between atoms: C_13  and  C_38
REMARK    5  A    between atoms: C_14  and  C_15
REMARK    6  A    between atoms: C_21  and  O_22
REMARK    7  A    between atoms: O_22  and  C_23
REMARK    8  A    between atoms: C_23  and  C_24
REMARK    9  A    between atoms: C_34  and  O_36
REMARK   10  A    between atoms: C_35  and  O_36
REMARK   11  A    between atoms: C_35  and  P_39
REMARK   12  A    between atoms: P_39  and  N_40
REMARK                            x       y       z     vdW  Elec       q    Type
REMARK                         _______ _______ _______ _____ _____    ______ ____
ROOT
ATOM      1  C   UNL A   1     -23.085   2.026  26.097  0.00  0.00    +0.161 C 
ATOM      2  C   UNL A   1     -21.694   1.974  26.537  0.00  0.00    +0.091 C 
ATOM      3  C   UNL A   1     -22.451   1.375  28.902  0.00  0.00    +0.011 C 
ATOM      4  C   UNL A   1     -21.398   1.609  27.968  0.00  0.00    -0.017 C 
ATOM      5  C   UNL A   1     -23.971   1.537  28.490  0.00  0.00    +0.067 C 
ATOM      6  C   UNL A   1     -24.229   1.625  26.911  0.00  0.00    +0.105 C 
ATOM      7  N   UNL A   1     -24.809   1.937  29.393  0.00  0.00    -0.225 NA
ATOM      8  O   UNL A   1     -23.208   2.508  24.919  0.00  0.00    -0.295 OA
ENDROOT
BRANCH   6   9
ATOM      9  C   UNL A   1     -25.688   1.614  26.461  0.00  0.00    +0.083 C 
ATOM     10  C   UNL A   1     -26.250   2.920  26.395  0.00  0.00    +0.056 C 
ATOM     11  C   UNL A   1     -27.438   3.091  25.645  0.00  0.00    +0.102 C 
ATOM     12  N   UNL A   1     -28.075   2.089  25.003  0.00  0.00    -0.212 NA
ATOM     13  C   UNL A   1     -27.543   0.849  25.079  0.00  0.00    +0.234 C 
ATOM     14  C   UNL A   1     -26.354   0.576  25.777  0.00  0.00    +0.241 C 
ATOM     15  F   UNL A   1     -25.860  -0.681  25.795  0.00  0.00    -0.227 F 
BRANCH  10  16
ATOM     16  C   UNL A   1     -25.642   4.093  27.123  0.00  0.00    +0.263 C 
ATOM     17  N   UNL A   1     -25.614   5.252  26.449  0.00  0.00    -0.200 NA
ATOM     18  C   UNL A   1     -25.026   6.479  26.963  0.00  0.00    +0.139 C 
ATOM     19  O   UNL A   1     -25.143   3.966  28.243  0.00  0.00    -0.269 OA
ENDBRANCH  10  16
BRANCH  13  20
ATOM     20  O   UNL A   1     -28.193  -0.208  24.477  0.00  0.00    -0.459 OA
BRANCH  20  21
ATOM     21  C   UNL A   1     -29.460   0.005  23.866  0.00  0.00    +0.242 C 
BRANCH  21  22
ATOM     22  C   UNL A   1     -30.065  -1.377  23.573  0.00  0.00    +0.229 C 
ATOM     23  O   UNL A   1     -30.729  -1.878  24.721  0.00  0.00    -0.216 OA
ENDBRANCH  21  22
ENDBRANCH  20  21
ENDBRANCH  13  20
ENDBRANCH   6   9
BRANCH   7  24
ATOM     24  P   UNL A   1     -25.009   2.228  30.947  0.00  0.00    +0.238 P 
ATOM     25  O   UNL A   1     -24.013   2.989  31.592  0.00  0.00    -0.293 OA
BRANCH  24  27
ATOM     26  C   UNL A   1     -25.387  -0.679  31.571  0.00  0.00    +0.086 C 
ATOM     27  C   UNL A   1     -25.189   0.773  32.028  0.00  0.00    +0.093 C 
ATOM     28  C   UNL A   1     -25.336   0.684  33.544  0.00  0.00    +0.029 C 
ATOM     29  C   UNL A   1     -24.829  -0.715  33.905  0.00  0.00    +0.089 C 
ATOM     30  N   UNL A   1     -24.758  -1.481  32.646  0.00  0.00    -0.219 NA
BRANCH  26  31
ATOM     31  C   UNL A   1     -24.855  -1.012  30.143  0.00  0.00    +0.044 C 
BRANCH  31  32
ATOM     32  C   UNL A   1     -24.973  -2.505  29.788  0.00  0.00    -0.021 C 
ATOM     33  C   UNL A   1     -23.906  -3.173  29.146  0.00  0.00    -0.004 C 
ATOM     34  C   UNL A   1     -23.989  -4.549  28.853  0.00  0.00    -0.000 C 
ATOM     35  C   UNL A   1     -25.137  -5.280  29.205  0.00  0.00    -0.000 C 
ATOM     36  C   UNL A   1     -26.232  -4.611  29.784  0.00  0.00    -0.000 C 
ATOM     37  C   UNL A   1     -26.155  -3.232  30.065  0.00  0.00    -0.004 C 
ENDBRANCH  31  32
ENDBRANCH  26  31
ENDBRANCH  24  27
BRANCH  24  38
ATOM     38  C   UNL A   1     -26.666   2.659  31.093  0.00  0.00    +0.223 C 
BRANCH  38  39
ATOM     39  O   UNL A   1     -26.892   2.896  32.502  0.00  0.00    -0.347 OA
BRANCH  39  42
ATOM     40  C   UNL A   1     -25.622   4.398  34.086  0.00  0.00    +0.032 C 
ATOM     41  C   UNL A   1     -27.495   5.308  32.573  0.00  0.00    +0.032 C 
ATOM     42  C   UNL A   1     -26.670   4.139  33.019  0.00  0.00    +0.116 C 
ENDBRANCH  39  42
ENDBRANCH  38  39
ENDBRANCH  24  38
ENDBRANCH   7  24
TORSDOF 12
