REMARK  Name = outputs/IAG933/test6/raw/output_9235_IAG933_linker_design_.xyz
REMARK  19 active torsions:
REMARK  status: ('A' for Active; 'I' for Inactive)
REMARK    1  A    between atoms: C_1  and  C_2
REMARK    2  A    between atoms: C_1  and  C_8
REMARK    3  A    between atoms: C_9  and  C_37
REMARK    4  A    between atoms: C_13  and  C_29
REMARK    5  A    between atoms: C_14  and  C_15
REMARK    6  A    between atoms: C_21  and  O_22
REMARK    7  A    between atoms: O_22  and  C_23
REMARK    8  A    between atoms: C_23  and  C_24
REMARK    9  A    between atoms: C_29  and  N_31
REMARK   10  A    between atoms: C_30  and  C_43
REMARK   11  A    between atoms: C_32  and  C_37
REMARK   12  A    between atoms: C_32  and  O_48
REMARK   13  A    between atoms: C_33  and  C_37
REMARK   14  A    between atoms: C_34  and  C_35
REMARK   15  A    between atoms: C_35  and  O_48
REMARK   16  A    between atoms: C_37  and  C_41
REMARK   17  A    between atoms: C_40  and  C_42
REMARK   18  A    between atoms: C_40  and  N_47
REMARK   19  A    between atoms: C_41  and  C_43
REMARK                            x       y       z     vdW  Elec       q    Type
REMARK                         _______ _______ _______ _____ _____    ______ ____
ROOT
ATOM      1  C   UNL A   1     -25.566   2.183  31.611  0.00  0.00    +0.134 C 
ENDROOT
BRANCH   1   3
ATOM      2  C   UNL A   1     -25.387  -0.679  31.571  0.00  0.00    +0.079 C 
ATOM      3  C   UNL A   1     -25.189   0.773  32.028  0.00  0.00    +0.038 C 
ATOM      4  C   UNL A   1     -25.336   0.684  33.544  0.00  0.00    +0.022 C 
ATOM      5  C   UNL A   1     -24.829  -0.715  33.905  0.00  0.00    +0.089 C 
ATOM      6  N   UNL A   1     -24.758  -1.481  32.646  0.00  0.00    -0.219 NA
BRANCH   2   7
ATOM      7  C   UNL A   1     -24.855  -1.012  30.143  0.00  0.00    +0.044 C 
BRANCH   7   8
ATOM      8  C   UNL A   1     -24.973  -2.505  29.788  0.00  0.00    -0.021 C 
ATOM      9  C   UNL A   1     -23.906  -3.173  29.146  0.00  0.00    -0.004 C 
ATOM     10  C   UNL A   1     -23.989  -4.549  28.853  0.00  0.00    -0.000 C 
ATOM     11  C   UNL A   1     -25.137  -5.280  29.205  0.00  0.00    -0.000 C 
ATOM     12  C   UNL A   1     -26.232  -4.611  29.784  0.00  0.00    -0.000 C 
ATOM     13  C   UNL A   1     -26.155  -3.232  30.065  0.00  0.00    -0.004 C 
ENDBRANCH   7   8
ENDBRANCH   2   7
ENDBRANCH   1   3
BRANCH   1  15
ATOM     14  O   UNL A   1     -23.491   2.890  30.567  0.00  0.00    -0.295 OA
ATOM     15  C   UNL A   1     -24.154   2.113  30.422  0.00  0.00    +0.165 C 
BRANCH  15  16
ATOM     16  C   UNL A   1     -23.170   0.766  29.724  0.00  0.00    +0.082 C 
BRANCH  16  17
ATOM     17  C   UNL A   1     -22.618   1.071  28.329  0.00  0.00    +0.065 C 
ATOM     18  N   UNL A   1     -23.567   1.848  27.514  0.00  0.00    -0.273 NA
ATOM     19  C   UNL A   1     -21.310   1.351  27.651  0.00  0.00    +0.018 C 
ATOM     20  C   UNL A   1     -22.951   2.284  26.177  0.00  0.00    +0.072 C 
ATOM     21  C   UNL A   1     -21.659   1.984  26.409  0.00  0.00    +0.019 C 
BRANCH  18  22
ATOM     22  C   UNL A   1     -24.841   1.096  27.418  0.00  0.00    +0.080 C 
BRANCH  22  23
ATOM     23  C   UNL A   1     -25.688   1.614  26.461  0.00  0.00    +0.086 C 
ATOM     24  C   UNL A   1     -26.250   2.920  26.395  0.00  0.00    +0.056 C 
ATOM     25  C   UNL A   1     -27.438   3.091  25.645  0.00  0.00    +0.102 C 
ATOM     26  N   UNL A   1     -28.075   2.089  25.003  0.00  0.00    -0.212 NA
ATOM     27  C   UNL A   1     -27.543   0.849  25.079  0.00  0.00    +0.234 C 
ATOM     28  C   UNL A   1     -26.354   0.576  25.777  0.00  0.00    +0.241 C 
ATOM     29  F   UNL A   1     -25.860  -0.681  25.795  0.00  0.00    -0.227 F 
BRANCH  24  30
ATOM     30  C   UNL A   1     -25.642   4.093  27.123  0.00  0.00    +0.263 C 
ATOM     31  N   UNL A   1     -25.614   5.252  26.449  0.00  0.00    -0.200 NA
ATOM     32  C   UNL A   1     -25.026   6.479  26.963  0.00  0.00    +0.139 C 
ATOM     33  O   UNL A   1     -25.143   3.966  28.243  0.00  0.00    -0.269 OA
ENDBRANCH  24  30
BRANCH  27  34
ATOM     34  O   UNL A   1     -28.193  -0.208  24.477  0.00  0.00    -0.459 OA
BRANCH  34  35
ATOM     35  C   UNL A   1     -29.460   0.005  23.866  0.00  0.00    +0.242 C 
BRANCH  35  36
ATOM     36  C   UNL A   1     -30.065  -1.377  23.573  0.00  0.00    +0.229 C 
ATOM     37  O   UNL A   1     -30.729  -1.878  24.721  0.00  0.00    -0.216 OA
ENDBRANCH  35  36
ENDBRANCH  34  35
ENDBRANCH  27  34
ENDBRANCH  22  23
ENDBRANCH  18  22
ENDBRANCH  16  17
ENDBRANCH  15  16
ENDBRANCH   1  15
BRANCH   1  38
ATOM     38  C   UNL A   1     -25.252   3.488  32.348  0.00  0.00    -0.070 C 
ATOM     39  C   UNL A   1     -25.019   4.561  32.830  0.00  0.00    -0.014 C 
ENDBRANCH   1  38
BRANCH   1  40
ATOM     40  C   UNL A   1     -27.179   2.379  31.313  0.00  0.00    +0.162 C 
BRANCH  40  41
ATOM     41  O   UNL A   1     -27.966   3.149  32.174  0.00  0.00    -0.343 OA
BRANCH  41  42
ATOM     42  C   UNL A   1     -27.936   4.556  32.321  0.00  0.00    +0.229 C 
BRANCH  42  43
ATOM     43  C   UNL A   1     -27.688   4.725  33.815  0.00  0.00    +0.272 C 
ATOM     44  O   UNL A   1     -28.719   5.599  34.258  0.00  0.00    -0.271 OA
ATOM     45  N   UNL A   1     -26.773   4.247  34.594  0.00  0.00    -0.202 NA
BRANCH  45  46
ATOM     46  C   UNL A   1     -27.155   4.030  35.986  0.00  0.00    +0.136 C 
BRANCH  46  47
ATOM     47  C   UNL A   1     -26.967   2.572  36.268  0.00  0.00    +0.133 C 
ATOM     48  N   UNL A   1     -25.643   2.549  35.790  0.00  0.00    -0.129 NA
ENDBRANCH  46  47
ENDBRANCH  45  46
ENDBRANCH  42  43
ENDBRANCH  41  42
ENDBRANCH  40  41
ENDBRANCH   1  40
TORSDOF 19
