MODEL 923
MODEL 1
REMARK VINA RESULT:    -4.275      0.000      0.000
REMARK INTER + INTRA:          -4.275
REMARK INTER:                  -4.275
REMARK INTRA:                   0.000
REMARK UNBOUND:                 0.000
REMARK  Name = No_923-gen_results/8p0m/2024-11-27-11-27-31/
REMARK  0 active torsions:
REMARK  status: ('A' for Active; 'I' for Inactive)
REMARK                            x       y       z     vdW  Elec       q    Type
REMARK                         _______ _______ _______ _____ _____    ______ ____
ROOT
ATOM      1  C   UNL A   1     -26.074  -4.853  29.657  0.00  0.00    +0.000 A 
ATOM      2  C   UNL A   1     -26.216  -3.654  29.718  0.00  0.00    +0.000 A 
ATOM      3  C   UNL A   1     -25.253  -2.749  29.317  0.00  0.00    +0.000 A 
ATOM      4  C   UNL A   1     -24.044  -3.261  28.767  0.00  0.00    +0.000 A 
ATOM      5  C   UNL A   1     -24.002  -4.598  28.564  0.00  0.00    +0.000 A 
ATOM      6  C   UNL A   1     -24.991  -5.386  28.942  0.00  0.00    +0.000 A 
ENDROOT
TORSDOF 0
ENDMDL
ENDMDL
