REMARK  Name = outputs/IAG933/test6/raw/output_9240_IAG933_linker_design_.xyz
REMARK  7 active torsions:
REMARK  status: ('A' for Active; 'I' for Inactive)
REMARK    1  A    between atoms: C_1  and  C_2
REMARK    2  A    between atoms: C_13  and  C_31
REMARK    3  A    between atoms: C_14  and  C_15
REMARK    4  A    between atoms: C_21  and  O_22
REMARK    5  A    between atoms: O_22  and  C_23
REMARK    6  A    between atoms: C_23  and  C_24
REMARK    7  A    between atoms: C_28  and  C_39
REMARK                            x       y       z     vdW  Elec       q    Type
REMARK                         _______ _______ _______ _____ _____    ______ ____
ROOT
ATOM      1  C   UNL A   1     -24.855  -1.012  30.143  0.00  0.00    +0.155 C 
ATOM      2  C   UNL A   1     -25.387  -0.679  31.571  0.00  0.00    +0.114 C 
ATOM      3  C   UNL A   1     -25.189   0.773  32.028  0.00  0.00    +0.069 C 
ATOM      4  C   UNL A   1     -25.336   0.684  33.544  0.00  0.00    +0.031 C 
ATOM      5  C   UNL A   1     -24.829  -0.715  33.905  0.00  0.00    +0.090 C 
ATOM      6  N   UNL A   1     -24.758  -1.481  32.646  0.00  0.00    -0.216 NA
ATOM      7  C   UNL A   1     -23.357   1.498  26.870  0.00  0.00    +0.068 C 
ATOM      8  S   UNL A   1     -24.176   1.968  31.259  0.00  0.00    -0.119 S 
ATOM      9  C   UNL A   1     -24.651   1.287  27.437  0.00  0.00    +0.069 C 
ATOM     10  C   UNL A   1     -20.841  -0.005  28.608  0.00  0.00    +0.344 C 
ATOM     11  N   UNL A   1     -24.993   1.296  28.787  0.00  0.00    -0.229 NA
ATOM     12  O   UNL A   1     -20.103   1.255  28.014  0.00  0.00    -0.447 OA
ATOM     13  C   UNL A   1     -21.220   2.058  27.445  0.00  0.00    +0.213 C 
ATOM     14  O   UNL A   1     -20.651  -0.843  27.657  0.00  0.00    -0.247 OA
ATOM     15  C   UNL A   1     -22.763   1.092  29.190  0.00  0.00    +0.076 C 
ATOM     16  O   UNL A   1     -23.471  -0.558  29.749  0.00  0.00    -0.342 OA
ATOM     17  C   UNL A   1     -22.079  -0.223  29.405  0.00  0.00    +0.216 C 
ATOM     18  C   UNL A   1     -22.421   1.465  27.715  0.00  0.00    +0.077 C 
ATOM     19  C   UNL A   1     -24.016   1.857  29.481  0.00  0.00    +0.143 C 
ENDROOT
BRANCH   9  20
ATOM     20  C   UNL A   1     -25.688   1.614  26.461  0.00  0.00    +0.053 C 
ATOM     21  C   UNL A   1     -26.250   2.920  26.395  0.00  0.00    +0.078 C 
ATOM     22  C   UNL A   1     -27.438   3.091  25.645  0.00  0.00    +0.107 C 
ATOM     23  N   UNL A   1     -28.075   2.089  25.003  0.00  0.00    -0.208 NA
ATOM     24  C   UNL A   1     -27.543   0.849  25.079  0.00  0.00    +0.253 C 
ATOM     25  C   UNL A   1     -26.354   0.576  25.777  0.00  0.00    +0.194 C 
ATOM     26  F   UNL A   1     -25.860  -0.681  25.795  0.00  0.00    -0.199 F 
BRANCH  21  27
ATOM     27  C   UNL A   1     -25.642   4.093  27.123  0.00  0.00    +0.267 C 
ATOM     28  N   UNL A   1     -25.614   5.252  26.449  0.00  0.00    -0.200 NA
ATOM     29  C   UNL A   1     -25.026   6.479  26.963  0.00  0.00    +0.139 C 
ATOM     30  O   UNL A   1     -25.143   3.966  28.243  0.00  0.00    -0.268 OA
ENDBRANCH  21  27
BRANCH  24  31
ATOM     31  O   UNL A   1     -28.193  -0.208  24.477  0.00  0.00    -0.456 OA
BRANCH  31  32
ATOM     32  C   UNL A   1     -29.460   0.005  23.866  0.00  0.00    +0.243 C 
BRANCH  32  33
ATOM     33  C   UNL A   1     -30.065  -1.377  23.573  0.00  0.00    +0.229 C 
ATOM     34  O   UNL A   1     -30.729  -1.878  24.721  0.00  0.00    -0.216 OA
ENDBRANCH  32  33
ENDBRANCH  31  32
ENDBRANCH  24  31
ENDBRANCH   9  20
BRANCH   1  35
ATOM     35  C   UNL A   1     -24.973  -2.505  29.788  0.00  0.00    +0.006 C 
ATOM     36  C   UNL A   1     -23.906  -3.173  29.146  0.00  0.00    -0.002 C 
ATOM     37  C   UNL A   1     -23.989  -4.549  28.853  0.00  0.00    -0.000 C 
ATOM     38  C   UNL A   1     -25.137  -5.280  29.205  0.00  0.00    -0.000 C 
ATOM     39  C   UNL A   1     -26.232  -4.611  29.784  0.00  0.00    -0.000 C 
ATOM     40  C   UNL A   1     -26.155  -3.232  30.065  0.00  0.00    -0.002 C 
ENDBRANCH   1  35
BRANCH   7  42
ATOM     41  F   UNL A   1     -21.742   1.758  24.947  0.00  0.00    -0.166 F 
ATOM     42  C   UNL A   1     -22.967   1.867  25.467  0.00  0.00    +0.416 C 
ATOM     43  F   UNL A   1     -23.249   3.097  25.444  0.00  0.00    -0.166 F 
ATOM     44  F   UNL A   1     -23.556   0.965  24.820  0.00  0.00    -0.166 F 
ENDBRANCH   7  42
TORSDOF 7
