REMARK  Name = outputs/IAG933/test6/raw/output_9247_IAG933_linker_design_.xyz
REMARK  9 active torsions:
REMARK  status: ('A' for Active; 'I' for Inactive)
REMARK    1  A    between atoms: C_1  and  C_2
REMARK    2  A    between atoms: C_1  and  C_8
REMARK    3  A    between atoms: C_9  and  C_34
REMARK    4  A    between atoms: C_13  and  C_40
REMARK    5  A    between atoms: C_14  and  C_15
REMARK    6  A    between atoms: C_21  and  O_22
REMARK    7  A    between atoms: O_22  and  C_23
REMARK    8  A    between atoms: C_23  and  C_24
REMARK    9  A    between atoms: C_28  and  C_31
REMARK                            x       y       z     vdW  Elec       q    Type
REMARK                         _______ _______ _______ _____ _____    ______ ____
ROOT
ATOM      1  C   UNL A   1     -24.825   0.797  28.591  0.00  0.00    +0.110 A 
ATOM      2  C   UNL A   1     -22.170  -0.532  29.546  0.00  0.00    +0.130 C 
ATOM      3  N   UNL A   1     -23.254   0.201  28.906  0.00  0.00    -0.323 N 
ATOM      4  C   UNL A   1     -22.637   0.722  27.992  0.00  0.00    +0.068 A 
ATOM      5  O   UNL A   1     -21.322   1.762  26.295  0.00  0.00    -0.317 OA
ATOM      6  C   UNL A   1     -22.703   1.725  25.901  0.00  0.00    +0.303 C 
ATOM      7  C   UNL A   1     -24.689   1.238  27.439  0.00  0.00    +0.007 A 
ATOM      8  C   UNL A   1     -21.284   0.963  27.595  0.00  0.00    +0.189 C 
ATOM      9  F   UNL A   1     -23.284   2.150  24.803  0.00  0.00    -0.199 F 
ATOM     10  C   UNL A   1     -23.397   1.223  27.044  0.00  0.00    +0.051 A 
ENDROOT
BRANCH   1  12
ATOM     11  N   UNL A   1     -26.466   2.008  30.317  0.00  0.00    -0.277 N 
ATOM     12  C   UNL A   1     -26.223   1.024  29.426  0.00  0.00    +0.265 C 
ATOM     13  C   UNL A   1     -27.254   4.549  30.794  0.00  0.00    +0.022 C 
ATOM     14  C   UNL A   1     -25.532   2.232  31.385  0.00  0.00    +0.077 C 
ATOM     15  C   UNL A   1     -27.201   4.237  32.283  0.00  0.00    +0.004 C 
ATOM     16  C   UNL A   1     -26.109   3.119  32.536  0.00  0.00    +0.020 C 
ATOM     17  O   UNL A   1     -27.259   0.156  29.145  0.00  0.00    -0.268 OA
ATOM     18  C   UNL A   1     -27.518   3.073  30.168  0.00  0.00    +0.094 C 
BRANCH  14  20
ATOM     19  C   UNL A   1     -25.387  -0.679  31.571  0.00  0.00    +0.079 C 
ATOM     20  C   UNL A   1     -25.189   0.773  32.028  0.00  0.00    +0.036 C 
ATOM     21  C   UNL A   1     -25.336   0.684  33.544  0.00  0.00    +0.022 C 
ATOM     22  C   UNL A   1     -24.829  -0.715  33.905  0.00  0.00    +0.089 C 
ATOM     23  N   UNL A   1     -24.758  -1.481  32.646  0.00  0.00    -0.219 NA
BRANCH  19  24
ATOM     24  C   UNL A   1     -24.855  -1.012  30.143  0.00  0.00    +0.044 C 
BRANCH  24  25
ATOM     25  C   UNL A   1     -24.973  -2.505  29.788  0.00  0.00    -0.021 C 
ATOM     26  C   UNL A   1     -23.906  -3.173  29.146  0.00  0.00    -0.004 C 
ATOM     27  C   UNL A   1     -23.989  -4.549  28.853  0.00  0.00    -0.000 C 
ATOM     28  C   UNL A   1     -25.137  -5.280  29.205  0.00  0.00    -0.000 C 
ATOM     29  C   UNL A   1     -26.232  -4.611  29.784  0.00  0.00    -0.000 C 
ATOM     30  C   UNL A   1     -26.155  -3.232  30.065  0.00  0.00    -0.004 C 
ENDBRANCH  24  25
ENDBRANCH  19  24
ENDBRANCH  14  20
ENDBRANCH   1  12
BRANCH   7  31
ATOM     31  C   UNL A   1     -25.688   1.614  26.461  0.00  0.00    +0.094 C 
ATOM     32  C   UNL A   1     -26.250   2.920  26.395  0.00  0.00    +0.059 C 
ATOM     33  C   UNL A   1     -27.438   3.091  25.645  0.00  0.00    +0.102 C 
ATOM     34  N   UNL A   1     -28.075   2.089  25.003  0.00  0.00    -0.212 NA
ATOM     35  C   UNL A   1     -27.543   0.849  25.079  0.00  0.00    +0.234 C 
ATOM     36  C   UNL A   1     -26.354   0.576  25.777  0.00  0.00    +0.244 C 
ATOM     37  F   UNL A   1     -25.860  -0.681  25.795  0.00  0.00    -0.227 F 
BRANCH  32  38
ATOM     38  C   UNL A   1     -25.642   4.093  27.123  0.00  0.00    +0.263 C 
ATOM     39  N   UNL A   1     -25.614   5.252  26.449  0.00  0.00    -0.200 NA
ATOM     40  C   UNL A   1     -25.026   6.479  26.963  0.00  0.00    +0.139 C 
ATOM     41  O   UNL A   1     -25.143   3.966  28.243  0.00  0.00    -0.269 OA
ENDBRANCH  32  38
BRANCH  35  42
ATOM     42  O   UNL A   1     -28.193  -0.208  24.477  0.00  0.00    -0.459 OA
BRANCH  42  43
ATOM     43  C   UNL A   1     -29.460   0.005  23.866  0.00  0.00    +0.242 C 
BRANCH  43  44
ATOM     44  C   UNL A   1     -30.065  -1.377  23.573  0.00  0.00    +0.229 C 
ATOM     45  O   UNL A   1     -30.729  -1.878  24.721  0.00  0.00    -0.216 OA
ENDBRANCH  43  44
ENDBRANCH  42  43
ENDBRANCH  35  42
ENDBRANCH   7  31
TORSDOF 9
