MODEL 924
MODEL 1
REMARK VINA RESULT:    -7.558      0.000      0.000
REMARK INTER + INTRA:          -9.037
REMARK INTER:                  -8.442
REMARK INTRA:                  -0.595
REMARK UNBOUND:                -0.595
REMARK  Name = No_924-gen_results/8p0m/2024-11-27-11-27-31/
REMARK  2 active torsions:
REMARK  status: ('A' for Active; 'I' for Inactive)
REMARK    1  A    between atoms: C_1  and  C_3
REMARK    2  A    between atoms: C_8  and  C_13
REMARK                            x       y       z     vdW  Elec       q    Type
REMARK                         _______ _______ _______ _____ _____    ______ ____
ROOT
ATOM      1  C   UNL A   1     -23.395  -1.466  28.863  0.00  0.00    +0.000 A 
ATOM      2  C   UNL A   1     -22.434  -1.446  29.295  0.00  0.00    +0.000 A 
ATOM      3  C   UNL A   1     -21.413  -0.259  28.994  0.00  0.00    +0.000 A 
ATOM      4  C   UNL A   1     -21.943   0.691  28.133  0.00  0.00    +0.001 A 
ATOM      5  C   UNL A   1     -23.271   0.754  27.873  0.00  0.00    +0.009 A 
ATOM      6  C   UNL A   1     -24.067  -0.318  28.328  0.00  0.00    +0.001 A 
ENDROOT
BRANCH   1   7
ATOM      7  C   UNL A   1     -24.230  -2.574  29.344  0.00  0.00    +0.000 A 
ATOM      8  C   UNL A   1     -25.550  -2.319  29.951  0.00  0.00    +0.000 A 
ATOM      9  C   UNL A   1     -26.516  -3.205  29.977  0.00  0.00    +0.000 A 
ATOM     10  C   UNL A   1     -26.319  -4.563  29.586  0.00  0.00    +0.000 A 
ATOM     11  C   UNL A   1     -25.055  -4.857  29.087  0.00  0.00    +0.000 A 
ATOM     12  C   UNL A   1     -24.070  -3.861  28.902  0.00  0.00    +0.000 A 
ENDBRANCH   1   7
BRANCH   5  13
ATOM     13  C   UNL A   1     -23.820   1.958  27.259  0.00  0.00    +0.054 C 
ATOM     14  C   UNL A   1     -24.795   2.706  27.715  0.00  0.00    -0.003 C 
ATOM     15  N   UNL A   1     -25.146   3.822  26.933  0.00  0.00    -0.202 NA
ATOM     16  C   UNL A   1     -23.447   2.286  25.883  0.00  0.00    +0.031 C 
ATOM     17  C   UNL A   1     -24.347   3.577  25.784  0.00  0.00    +0.109 C 
ENDBRANCH   5  13
TORSDOF 2
ENDMDL
ENDMDL
