REMARK  Name = outputs/IAG933/test6/raw/output_9250_IAG933_linker_design_.xyz
REMARK  12 active torsions:
REMARK  status: ('A' for Active; 'I' for Inactive)
REMARK    1  A    between atoms: C_1  and  C_2
REMARK    2  A    between atoms: C_1  and  C_8
REMARK    3  A    between atoms: C_1  and  C_39
REMARK    4  A    between atoms: C_14  and  C_15
REMARK    5  A    between atoms: C_21  and  O_22
REMARK    6  A    between atoms: O_22  and  C_23
REMARK    7  A    between atoms: C_23  and  C_24
REMARK    8  A    between atoms: O_32  and  C_33
REMARK    9  A    between atoms: O_32  and  C_39
REMARK   10  A    between atoms: C_34  and  C_35
REMARK   11  A    between atoms: C_34  and  O_36
REMARK   12  A    between atoms: C_34  and  C_39
REMARK                            x       y       z     vdW  Elec       q    Type
REMARK                         _______ _______ _______ _____ _____    ______ ____
ROOT
ATOM      1  C   UNL A   1     -23.646   0.385  28.299  0.00  0.00    +0.211 C 
ENDROOT
BRANCH   1  11
ATOM      2  C   UNL A   1     -25.688   1.614  26.461  0.00  0.00    +0.062 C 
ATOM      3  C   UNL A   1     -26.250   2.920  26.395  0.00  0.00    +0.080 C 
ATOM      4  C   UNL A   1     -27.438   3.091  25.645  0.00  0.00    +0.107 C 
ATOM      5  N   UNL A   1     -28.075   2.089  25.003  0.00  0.00    -0.211 NA
ATOM      6  C   UNL A   1     -27.543   0.849  25.079  0.00  0.00    +0.239 C 
ATOM      7  C   UNL A   1     -26.354   0.576  25.777  0.00  0.00    +0.265 C 
ATOM      8  F   UNL A   1     -25.860  -0.681  25.795  0.00  0.00    -0.222 F 
ATOM      9  C   UNL A   1     -24.376   1.433  26.935  0.00  0.00    -0.064 C 
ATOM     10  O   UNL A   1     -22.244   2.163  26.343  0.00  0.00    -0.280 OA
ATOM     11  C   UNL A   1     -23.331   1.433  27.258  0.00  0.00    +0.237 C 
BRANCH   3  12
ATOM     12  C   UNL A   1     -25.642   4.093  27.123  0.00  0.00    +0.267 C 
ATOM     13  N   UNL A   1     -25.614   5.252  26.449  0.00  0.00    -0.200 NA
ATOM     14  C   UNL A   1     -25.026   6.479  26.963  0.00  0.00    +0.139 C 
ATOM     15  O   UNL A   1     -25.143   3.966  28.243  0.00  0.00    -0.268 OA
ENDBRANCH   3  12
BRANCH   6  16
ATOM     16  O   UNL A   1     -28.193  -0.208  24.477  0.00  0.00    -0.458 OA
BRANCH  16  17
ATOM     17  C   UNL A   1     -29.460   0.005  23.866  0.00  0.00    +0.242 C 
BRANCH  17  18
ATOM     18  C   UNL A   1     -30.065  -1.377  23.573  0.00  0.00    +0.229 C 
ATOM     19  O   UNL A   1     -30.729  -1.878  24.721  0.00  0.00    -0.216 OA
ENDBRANCH  17  18
ENDBRANCH  16  17
ENDBRANCH   6  16
ENDBRANCH   1  11
BRANCH   1  21
ATOM     20  C   UNL A   1     -21.175   0.706  28.515  0.00  0.00    +0.175 C 
ATOM     21  O   UNL A   1     -22.341  -0.029  28.925  0.00  0.00    -0.343 OA
ENDBRANCH   1  21
BRANCH   1  22
ATOM     22  C   UNL A   1     -24.918  -0.018  29.147  0.00  0.00    +0.156 C 
BRANCH  22  23
ATOM     23  C   UNL A   1     -24.855  -1.012  30.143  0.00  0.00    +0.068 C 
BRANCH  23  24
ATOM     24  C   UNL A   1     -24.973  -2.505  29.788  0.00  0.00    -0.019 C 
ATOM     25  C   UNL A   1     -23.906  -3.173  29.146  0.00  0.00    -0.004 C 
ATOM     26  C   UNL A   1     -23.989  -4.549  28.853  0.00  0.00    -0.000 C 
ATOM     27  C   UNL A   1     -25.137  -5.280  29.205  0.00  0.00    -0.000 C 
ATOM     28  C   UNL A   1     -26.232  -4.611  29.784  0.00  0.00    -0.000 C 
ATOM     29  C   UNL A   1     -26.155  -3.232  30.065  0.00  0.00    -0.004 C 
ENDBRANCH  23  24
BRANCH  23  30
ATOM     30  C   UNL A   1     -25.387  -0.679  31.571  0.00  0.00    +0.079 C 
ATOM     31  C   UNL A   1     -25.189   0.773  32.028  0.00  0.00    +0.019 C 
ATOM     32  C   UNL A   1     -25.336   0.684  33.544  0.00  0.00    +0.020 C 
ATOM     33  C   UNL A   1     -24.829  -0.715  33.905  0.00  0.00    +0.089 C 
ATOM     34  N   UNL A   1     -24.758  -1.481  32.646  0.00  0.00    -0.219 NA
ENDBRANCH  23  30
ENDBRANCH  22  23
BRANCH  22  35
ATOM     35  O   UNL A   1     -26.034   0.493  28.593  0.00  0.00    -0.355 OA
BRANCH  35  37
ATOM     36  C   UNL A   1     -27.934   2.349  29.320  0.00  0.00    +0.030 C 
ATOM     37  C   UNL A   1     -27.229   0.938  29.443  0.00  0.00    +0.118 C 
ATOM     38  C   UNL A   1     -29.362   0.103  28.702  0.00  0.00    +0.154 C 
ATOM     39  C   UNL A   1     -28.448   0.044  29.875  0.00  0.00    +0.062 C 
ATOM     40  C   UNL A   1     -29.431   2.416  29.527  0.00  0.00    +0.005 C 
ATOM     41  C   UNL A   1     -30.176   1.360  28.776  0.00  0.00    +0.033 C 
ATOM     42  O   UNL A   1     -28.884  -0.260  27.496  0.00  0.00    -0.223 OA
ENDBRANCH  35  37
ENDBRANCH  22  35
ENDBRANCH   1  22
TORSDOF 12
