REMARK  Name = outputs/IAG933/test6/raw/output_9252_IAG933_linker_design_.xyz
REMARK  10 active torsions:
REMARK  status: ('A' for Active; 'I' for Inactive)
REMARK    1  A    between atoms: C_1  and  C_2
REMARK    2  A    between atoms: C_1  and  C_8
REMARK    3  A    between atoms: C_1  and  N_44
REMARK    4  A    between atoms: C_13  and  C_41
REMARK    5  A    between atoms: C_14  and  C_15
REMARK    6  A    between atoms: C_21  and  O_22
REMARK    7  A    between atoms: O_22  and  C_23
REMARK    8  A    between atoms: C_23  and  C_24
REMARK    9  A    between atoms: C_28  and  C_40
REMARK   10  A    between atoms: C_31  and  C_43
REMARK                            x       y       z     vdW  Elec       q    Type
REMARK                         _______ _______ _______ _____ _____    ______ ____
ROOT
ATOM      1  C   UNL A   1     -23.252   1.418  26.910  0.00  0.00    +0.106 C 
ATOM      2  C   UNL A   1     -22.213   1.247  27.732  0.00  0.00    +0.144 C 
ATOM      3  C   UNL A   1     -25.070   0.601  28.502  0.00  0.00    +0.029 C 
ATOM      4  C   UNL A   1     -23.070  -0.087  29.173  0.00  0.00    +0.068 C 
ATOM      5  C   UNL A   1     -19.957   0.301  28.176  0.00  0.00    +0.232 C 
ATOM      6  C   UNL A   1     -21.254  -1.292  29.523  0.00  0.00    -0.001 C 
ATOM      7  O   UNL A   1     -20.973   1.715  27.631  0.00  0.00    -0.471 OA
ATOM      8  C   UNL A   1     -22.315   0.382  28.626  0.00  0.00    +0.048 C 
ATOM      9  C   UNL A   1     -24.595   1.210  27.352  0.00  0.00    +0.019 C 
ATOM     10  C   UNL A   1     -20.807  -0.336  28.789  0.00  0.00    +0.025 C 
ATOM     11  N   UNL A   1     -24.330  -0.110  29.282  0.00  0.00    -0.286 N 
ENDROOT
BRANCH   9  12
ATOM     12  C   UNL A   1     -25.688   1.614  26.461  0.00  0.00    +0.039 C 
ATOM     13  C   UNL A   1     -26.250   2.920  26.395  0.00  0.00    +0.077 C 
ATOM     14  C   UNL A   1     -27.438   3.091  25.645  0.00  0.00    +0.107 C 
ATOM     15  N   UNL A   1     -28.075   2.089  25.003  0.00  0.00    -0.208 NA
ATOM     16  C   UNL A   1     -27.543   0.849  25.079  0.00  0.00    +0.253 C 
ATOM     17  C   UNL A   1     -26.354   0.576  25.777  0.00  0.00    +0.193 C 
ATOM     18  F   UNL A   1     -25.860  -0.681  25.795  0.00  0.00    -0.199 F 
BRANCH  13  19
ATOM     19  C   UNL A   1     -25.642   4.093  27.123  0.00  0.00    +0.266 C 
ATOM     20  N   UNL A   1     -25.614   5.252  26.449  0.00  0.00    -0.200 NA
ATOM     21  C   UNL A   1     -25.026   6.479  26.963  0.00  0.00    +0.139 C 
ATOM     22  O   UNL A   1     -25.143   3.966  28.243  0.00  0.00    -0.268 OA
ENDBRANCH  13  19
BRANCH  16  23
ATOM     23  O   UNL A   1     -28.193  -0.208  24.477  0.00  0.00    -0.456 OA
BRANCH  23  24
ATOM     24  C   UNL A   1     -29.460   0.005  23.866  0.00  0.00    +0.243 C 
BRANCH  24  25
ATOM     25  C   UNL A   1     -30.065  -1.377  23.573  0.00  0.00    +0.229 C 
ATOM     26  O   UNL A   1     -30.729  -1.878  24.721  0.00  0.00    -0.216 OA
ENDBRANCH  24  25
ENDBRANCH  23  24
ENDBRANCH  16  23
ENDBRANCH   9  12
BRANCH   1  30
ATOM     27  F   UNL A   1     -21.706   1.832  25.223  0.00  0.00    -0.166 F 
ATOM     28  F   UNL A   1     -23.483   1.134  24.670  0.00  0.00    -0.166 F 
ATOM     29  F   UNL A   1     -23.439   3.082  25.389  0.00  0.00    -0.166 F 
ATOM     30  C   UNL A   1     -22.945   1.861  25.635  0.00  0.00    +0.421 C 
ENDBRANCH   1  30
BRANCH   3  32
ATOM     31  C   UNL A   1     -27.399  -0.376  29.317  0.00  0.00    +0.006 C 
ATOM     32  C   UNL A   1     -26.522   0.843  29.003  0.00  0.00    +0.041 C 
ENDBRANCH   3  32
BRANCH  11  33
ATOM     33  C   UNL A   1     -24.855  -1.012  30.143  0.00  0.00    +0.115 C 
BRANCH  33  34
ATOM     34  C   UNL A   1     -24.973  -2.505  29.788  0.00  0.00    -0.003 C 
ATOM     35  C   UNL A   1     -23.906  -3.173  29.146  0.00  0.00    -0.003 C 
ATOM     36  C   UNL A   1     -23.989  -4.549  28.853  0.00  0.00    -0.000 C 
ATOM     37  C   UNL A   1     -25.137  -5.280  29.205  0.00  0.00    -0.000 C 
ATOM     38  C   UNL A   1     -26.232  -4.611  29.784  0.00  0.00    -0.000 C 
ATOM     39  C   UNL A   1     -26.155  -3.232  30.065  0.00  0.00    -0.003 C 
ENDBRANCH  33  34
BRANCH  33  40
ATOM     40  C   UNL A   1     -25.387  -0.679  31.571  0.00  0.00    +0.095 C 
ATOM     41  C   UNL A   1     -25.189   0.773  32.028  0.00  0.00    +0.021 C 
ATOM     42  C   UNL A   1     -25.336   0.684  33.544  0.00  0.00    +0.020 C 
ATOM     43  C   UNL A   1     -24.829  -0.715  33.905  0.00  0.00    +0.089 C 
ATOM     44  N   UNL A   1     -24.758  -1.481  32.646  0.00  0.00    -0.217 NA
ENDBRANCH  33  40
ENDBRANCH  11  33
TORSDOF 10
