MODEL 925
MODEL 1
REMARK VINA RESULT:    -6.164      0.000      0.000
REMARK INTER + INTRA:          -7.776
REMARK INTER:                  -7.245
REMARK INTRA:                  -0.532
REMARK UNBOUND:                -0.532
REMARK  Name = No_925-gen_results/8p0m/2024-11-27-11-27-31/
REMARK  3 active torsions:
REMARK  status: ('A' for Active; 'I' for Inactive)
REMARK    1  A    between atoms: C_1  and  C_2
REMARK    2  A    between atoms: C_4  and  C_11
REMARK    3  A    between atoms: C_11  and  C_12
REMARK                            x       y       z     vdW  Elec       q    Type
REMARK                         _______ _______ _______ _____ _____    ______ ____
ROOT
ATOM      1  C   UNL A   1     -24.859   1.090  26.362  0.00  0.00    +0.055 A 
ATOM      2  C   UNL A   1     -24.459  -0.063  27.177  0.00  0.00    +0.001 A 
ATOM      3  C   UNL A   1     -23.407   0.063  28.203  0.00  0.00    -0.018 A 
ATOM      4  C   UNL A   1     -22.378   1.005  27.977  0.00  0.00    -0.004 A 
ATOM      5  C   UNL A   1     -22.499   1.927  26.906  0.00  0.00    -0.000 A 
ATOM      6  C   UNL A   1     -23.586   1.902  26.107  0.00  0.00    +0.004 A 
ENDROOT
BRANCH   1   7
ATOM      7  C   UNL A   1     -25.505   0.840  25.568  0.00  0.00    +0.265 C 
ATOM      8  O   UNL A   1     -25.028   0.065  24.499  0.00  0.00    -0.268 OA
ATOM      9  N   UNL A   1     -26.823   1.132  25.199  0.00  0.00    -0.200 NA
ATOM     10  C   UNL A   1     -27.509   0.954  23.940  0.00  0.00    +0.139 C 
ENDBRANCH   1   7
BRANCH   3  11
ATOM     11  C   UNL A   1     -23.182  -0.867  29.269  0.00  0.00    +0.044 C 
ATOM     12  C   UNL A   1     -22.646  -0.457  30.455  0.00  0.00    +0.009 C 
BRANCH  11  13
ATOM     13  C   UNL A   1     -23.464  -2.131  28.917  0.00  0.00    -0.027 C 
ATOM     14  C   UNL A   1     -23.958  -2.967  29.259  0.00  0.00    -0.030 C 
ATOM     15  C   UNL A   1     -24.180  -4.308  28.682  0.00  0.00    +0.030 C 
ENDBRANCH  11  13
ENDBRANCH   3  11
TORSDOF 3
ENDMDL
ENDMDL
