REMARK  Name = outputs/IAG933/test6/raw/output_9260_IAG933_linker_design_.xyz
REMARK  13 active torsions:
REMARK  status: ('A' for Active; 'I' for Inactive)
REMARK    1  A    between atoms: C_1  and  C_2
REMARK    2  A    between atoms: C_1  and  C_8
REMARK    3  A    between atoms: C_1  and  N_35
REMARK    4  A    between atoms: C_13  and  C_34
REMARK    5  A    between atoms: C_14  and  C_15
REMARK    6  A    between atoms: C_21  and  O_22
REMARK    7  A    between atoms: O_22  and  C_23
REMARK    8  A    between atoms: C_23  and  C_24
REMARK    9  A    between atoms: C_29  and  N_35
REMARK   10  A    between atoms: C_30  and  C_38
REMARK   11  A    between atoms: C_30  and  C_43
REMARK   12  A    between atoms: C_31  and  C_37
REMARK   13  A    between atoms: N_35  and  C_43
REMARK                            x       y       z     vdW  Elec       q    Type
REMARK                         _______ _______ _______ _____ _____    ______ ____
ROOT
ATOM      1  C   UNL A   1     -23.165   0.450  28.795  0.00  0.00    +0.196 C 
ATOM      2  C   UNL A   1     -24.604   0.574  28.449  0.00  0.00    +0.146 C 
ATOM      3  C   UNL A   1     -22.655   1.378  28.112  0.00  0.00    +0.118 C 
ATOM      4  O   UNL A   1     -23.189   2.786  26.166  0.00  0.00    -0.287 OA
ATOM      5  C   UNL A   1     -24.687   1.347  27.273  0.00  0.00    +0.041 C 
ATOM      6  C   UNL A   1     -23.489   1.923  27.102  0.00  0.00    +0.198 C 
ATOM      7  O   UNL A   1     -22.437  -0.377  29.609  0.00  0.00    -0.290 OA
ENDROOT
BRANCH   5   8
ATOM      8  C   UNL A   1     -25.688   1.614  26.461  0.00  0.00    +0.039 C 
ATOM      9  C   UNL A   1     -26.250   2.920  26.395  0.00  0.00    +0.076 C 
ATOM     10  C   UNL A   1     -27.438   3.091  25.645  0.00  0.00    +0.107 C 
ATOM     11  N   UNL A   1     -28.075   2.089  25.003  0.00  0.00    -0.208 NA
ATOM     12  C   UNL A   1     -27.543   0.849  25.079  0.00  0.00    +0.253 C 
ATOM     13  C   UNL A   1     -26.354   0.576  25.777  0.00  0.00    +0.193 C 
ATOM     14  F   UNL A   1     -25.860  -0.681  25.795  0.00  0.00    -0.199 F 
BRANCH   9  15
ATOM     15  C   UNL A   1     -25.642   4.093  27.123  0.00  0.00    +0.266 C 
ATOM     16  N   UNL A   1     -25.614   5.252  26.449  0.00  0.00    -0.200 NA
ATOM     17  C   UNL A   1     -25.026   6.479  26.963  0.00  0.00    +0.139 C 
ATOM     18  O   UNL A   1     -25.143   3.966  28.243  0.00  0.00    -0.268 OA
ENDBRANCH   9  15
BRANCH  12  19
ATOM     19  O   UNL A   1     -28.193  -0.208  24.477  0.00  0.00    -0.456 OA
BRANCH  19  20
ATOM     20  C   UNL A   1     -29.460   0.005  23.866  0.00  0.00    +0.243 C 
BRANCH  20  21
ATOM     21  C   UNL A   1     -30.065  -1.377  23.573  0.00  0.00    +0.229 C 
ATOM     22  O   UNL A   1     -30.729  -1.878  24.721  0.00  0.00    -0.216 OA
ENDBRANCH  20  21
ENDBRANCH  19  20
ENDBRANCH  12  19
ENDBRANCH   5   8
BRANCH   3  24
ATOM     23  F   UNL A   1     -20.264   0.902  28.107  0.00  0.00    -0.193 F 
ATOM     24  C   UNL A   1     -21.331   1.325  27.632  0.00  0.00    +0.347 C 
ATOM     25  F   UNL A   1     -20.943   1.876  26.564  0.00  0.00    -0.193 F 
ENDBRANCH   3  24
BRANCH   2  26
ATOM     26  N   UNL A   1     -25.546  -0.080  29.161  0.00  0.00    -0.254 NA
BRANCH  26  27
ATOM     27  C   UNL A   1     -24.855  -1.012  30.143  0.00  0.00    +0.097 C 
BRANCH  27  28
ATOM     28  C   UNL A   1     -24.973  -2.505  29.788  0.00  0.00    -0.006 C 
ATOM     29  C   UNL A   1     -23.906  -3.173  29.146  0.00  0.00    -0.003 C 
ATOM     30  C   UNL A   1     -23.989  -4.549  28.853  0.00  0.00    -0.000 C 
ATOM     31  C   UNL A   1     -25.137  -5.280  29.205  0.00  0.00    -0.000 C 
ATOM     32  C   UNL A   1     -26.232  -4.611  29.784  0.00  0.00    -0.000 C 
ATOM     33  C   UNL A   1     -26.155  -3.232  30.065  0.00  0.00    -0.003 C 
ENDBRANCH  27  28
BRANCH  27  34
ATOM     34  C   UNL A   1     -25.387  -0.679  31.571  0.00  0.00    +0.092 C 
ATOM     35  C   UNL A   1     -25.189   0.773  32.028  0.00  0.00    +0.021 C 
ATOM     36  C   UNL A   1     -25.336   0.684  33.544  0.00  0.00    +0.020 C 
ATOM     37  C   UNL A   1     -24.829  -0.715  33.905  0.00  0.00    +0.089 C 
ATOM     38  N   UNL A   1     -24.758  -1.481  32.646  0.00  0.00    -0.218 NA
ENDBRANCH  27  34
ENDBRANCH  26  27
BRANCH  26  39
ATOM     39  C   UNL A   1     -26.920  -0.173  28.706  0.00  0.00    +0.138 C 
BRANCH  39  40
ATOM     40  C   UNL A   1     -27.986   0.768  29.065  0.00  0.00    +0.166 C 
ATOM     41  O   UNL A   1     -29.145   0.400  28.814  0.00  0.00    -0.295 OA
BRANCH  40  42
ATOM     42  C   UNL A   1     -27.948   2.062  30.025  0.00  0.00    +0.059 C 
ATOM     43  C   UNL A   1     -28.283   3.494  30.415  0.00  0.00    +0.008 C 
ATOM     44  C   UNL A   1     -29.360   2.487  30.499  0.00  0.00    +0.008 C 
ENDBRANCH  40  42
ENDBRANCH  39  40
ENDBRANCH  26  39
ENDBRANCH   2  26
TORSDOF 13
