REMARK  Name = outputs/IAG933/test6/raw/output_9262_IAG933_linker_design_.xyz
REMARK  8 active torsions:
REMARK  status: ('A' for Active; 'I' for Inactive)
REMARK    1  A    between atoms: C_1  and  C_2
REMARK    2  A    between atoms: C_1  and  C_8
REMARK    3  A    between atoms: C_1  and  N_31
REMARK    4  A    between atoms: C_13  and  N_28
REMARK    5  A    between atoms: C_14  and  C_15
REMARK    6  A    between atoms: C_21  and  O_22
REMARK    7  A    between atoms: O_22  and  C_23
REMARK    8  A    between atoms: C_23  and  C_24
REMARK                            x       y       z     vdW  Elec       q    Type
REMARK                         _______ _______ _______ _____ _____    ______ ____
ROOT
ATOM      1  N   UNL A   1     -24.703   1.205  27.326  0.00  0.00    -0.292 N 
ATOM      2  C   UNL A   1     -22.464   1.359  28.174  0.00  0.00    +0.039 C 
ATOM      3  C   UNL A   1     -25.021   0.406  28.422  0.00  0.00    +0.169 C 
ATOM      4  N   UNL A   1     -24.269  -0.152  29.256  0.00  0.00    -0.252 NA
ATOM      5  C   UNL A   1     -23.338   1.369  26.899  0.00  0.00    +0.094 C 
ATOM      6  C   UNL A   1     -22.847   0.238  29.191  0.00  0.00    +0.076 C 
ENDROOT
BRANCH   1   7
ATOM      7  C   UNL A   1     -25.688   1.614  26.461  0.00  0.00    +0.087 C 
ATOM      8  C   UNL A   1     -26.250   2.920  26.395  0.00  0.00    +0.090 C 
ATOM      9  C   UNL A   1     -27.438   3.091  25.645  0.00  0.00    +0.108 C 
ATOM     10  N   UNL A   1     -28.075   2.089  25.003  0.00  0.00    -0.208 NA
ATOM     11  C   UNL A   1     -27.543   0.849  25.079  0.00  0.00    +0.255 C 
ATOM     12  C   UNL A   1     -26.354   0.576  25.777  0.00  0.00    +0.206 C 
ATOM     13  F   UNL A   1     -25.860  -0.681  25.795  0.00  0.00    -0.198 F 
BRANCH   8  14
ATOM     14  C   UNL A   1     -25.642   4.093  27.123  0.00  0.00    +0.268 C 
ATOM     15  N   UNL A   1     -25.614   5.252  26.449  0.00  0.00    -0.200 NA
ATOM     16  C   UNL A   1     -25.026   6.479  26.963  0.00  0.00    +0.139 C 
ATOM     17  O   UNL A   1     -25.143   3.966  28.243  0.00  0.00    -0.268 OA
ENDBRANCH   8  14
BRANCH  11  18
ATOM     18  O   UNL A   1     -28.193  -0.208  24.477  0.00  0.00    -0.456 OA
BRANCH  18  19
ATOM     19  C   UNL A   1     -29.460   0.005  23.866  0.00  0.00    +0.243 C 
BRANCH  19  20
ATOM     20  C   UNL A   1     -30.065  -1.377  23.573  0.00  0.00    +0.229 C 
ATOM     21  O   UNL A   1     -30.729  -1.878  24.721  0.00  0.00    -0.216 OA
ENDBRANCH  19  20
ENDBRANCH  18  19
ENDBRANCH  11  18
ENDBRANCH   1   7
BRANCH   4  22
ATOM     22  C   UNL A   1     -24.855  -1.012  30.143  0.00  0.00    +0.098 C 
BRANCH  22  23
ATOM     23  C   UNL A   1     -24.973  -2.505  29.788  0.00  0.00    -0.006 C 
ATOM     24  C   UNL A   1     -23.906  -3.173  29.146  0.00  0.00    -0.003 C 
ATOM     25  C   UNL A   1     -23.989  -4.549  28.853  0.00  0.00    -0.000 C 
ATOM     26  C   UNL A   1     -25.137  -5.280  29.205  0.00  0.00    -0.000 C 
ATOM     27  C   UNL A   1     -26.232  -4.611  29.784  0.00  0.00    -0.000 C 
ATOM     28  C   UNL A   1     -26.155  -3.232  30.065  0.00  0.00    -0.003 C 
ENDBRANCH  22  23
BRANCH  22  29
ATOM     29  C   UNL A   1     -25.387  -0.679  31.571  0.00  0.00    +0.092 C 
ATOM     30  C   UNL A   1     -25.189   0.773  32.028  0.00  0.00    +0.021 C 
ATOM     31  C   UNL A   1     -25.336   0.684  33.544  0.00  0.00    +0.020 C 
ATOM     32  C   UNL A   1     -24.829  -0.715  33.905  0.00  0.00    +0.089 C 
ATOM     33  N   UNL A   1     -24.758  -1.481  32.646  0.00  0.00    -0.218 NA
ENDBRANCH  22  29
ENDBRANCH   4  22
TORSDOF 8
