REMARK  Name = outputs/IAG933/test6/raw/output_9264_IAG933_linker_design_.xyz
REMARK  15 active torsions:
REMARK  status: ('A' for Active; 'I' for Inactive)
REMARK    1  A    between atoms: C_1  and  C_2
REMARK    2  A    between atoms: C_1  and  C_8
REMARK    3  A    between atoms: C_1  and  N_35
REMARK    4  A    between atoms: C_13  and  C_39
REMARK    5  A    between atoms: C_14  and  C_15
REMARK    6  A    between atoms: C_21  and  O_22
REMARK    7  A    between atoms: O_22  and  C_23
REMARK    8  A    between atoms: C_23  and  C_24
REMARK    9  A    between atoms: O_29  and  C_40
REMARK   10  A    between atoms: O_29  and  C_42
REMARK   11  A    between atoms: C_33  and  C_42
REMARK   12  A    between atoms: C_33  and  C_44
REMARK   13  A    between atoms: C_34  and  C_40
REMARK   14  A    between atoms: C_34  and  C_45
REMARK   15  A    between atoms: C_39  and  C_41
REMARK                            x       y       z     vdW  Elec       q    Type
REMARK                         _______ _______ _______ _____ _____    ______ ____
ROOT
ATOM      1  N   UNL A   1     -25.236  -0.184  29.039  0.00  0.00    -0.262 NA
ATOM      2  C   UNL A   1     -24.971   1.010  27.653  0.00  0.00    +0.091 C 
ATOM      3  C   UNL A   1     -25.967   1.007  28.988  0.00  0.00    +0.134 C 
ENDROOT
BRANCH   2   4
ATOM      4  C   UNL A   1     -25.688   1.614  26.461  0.00  0.00    +0.087 C 
ATOM      5  C   UNL A   1     -26.250   2.920  26.395  0.00  0.00    +0.056 C 
ATOM      6  C   UNL A   1     -27.438   3.091  25.645  0.00  0.00    +0.102 C 
ATOM      7  N   UNL A   1     -28.075   2.089  25.003  0.00  0.00    -0.212 NA
ATOM      8  C   UNL A   1     -27.543   0.849  25.079  0.00  0.00    +0.234 C 
ATOM      9  C   UNL A   1     -26.354   0.576  25.777  0.00  0.00    +0.241 C 
ATOM     10  F   UNL A   1     -25.860  -0.681  25.795  0.00  0.00    -0.227 F 
BRANCH   5  11
ATOM     11  C   UNL A   1     -25.642   4.093  27.123  0.00  0.00    +0.263 C 
ATOM     12  N   UNL A   1     -25.614   5.252  26.449  0.00  0.00    -0.200 NA
ATOM     13  C   UNL A   1     -25.026   6.479  26.963  0.00  0.00    +0.139 C 
ATOM     14  O   UNL A   1     -25.143   3.966  28.243  0.00  0.00    -0.269 OA
ENDBRANCH   5  11
BRANCH   8  15
ATOM     15  O   UNL A   1     -28.193  -0.208  24.477  0.00  0.00    -0.459 OA
BRANCH  15  16
ATOM     16  C   UNL A   1     -29.460   0.005  23.866  0.00  0.00    +0.242 C 
BRANCH  16  17
ATOM     17  C   UNL A   1     -30.065  -1.377  23.573  0.00  0.00    +0.229 C 
ATOM     18  O   UNL A   1     -30.729  -1.878  24.721  0.00  0.00    -0.216 OA
ENDBRANCH  16  17
ENDBRANCH  15  16
ENDBRANCH   8  15
ENDBRANCH   2   4
BRANCH   2  23
ATOM     19  C   UNL A   1     -21.819   1.810  26.333  0.00  0.00    +0.029 C 
ATOM     20  N   UNL A   1     -22.969   0.264  28.265  0.00  0.00    -0.237 NA
ATOM     21  C   UNL A   1     -21.965   0.995  28.579  0.00  0.00    +0.075 C 
ATOM     22  C   UNL A   1     -23.019   1.249  26.092  0.00  0.00    +0.028 C 
ATOM     23  C   UNL A   1     -23.600   0.800  27.270  0.00  0.00    +0.108 C 
ATOM     24  C   UNL A   1     -21.369   1.764  27.625  0.00  0.00    -0.009 C 
ENDBRANCH   2  23
BRANCH   3  26
ATOM     25  O   UNL A   1     -28.191   1.541  29.951  0.00  0.00    -0.292 OA
ATOM     26  C   UNL A   1     -27.562   0.805  29.266  0.00  0.00    +0.196 C 
BRANCH  26  27
ATOM     27  C   UNL A   1     -28.194  -0.303  28.407  0.00  0.00    +0.208 C 
BRANCH  27  28
ATOM     28  O   UNL A   1     -29.304  -0.941  29.202  0.00  0.00    -0.343 OA
BRANCH  28  29
ATOM     29  C   UNL A   1     -29.546  -1.329  30.676  0.00  0.00    +0.177 C 
BRANCH  29  31
ATOM     30  O   UNL A   1     -30.356  -3.251  29.337  0.00  0.00    -0.219 OA
ATOM     31  C   UNL A   1     -30.008  -2.753  30.597  0.00  0.00    +0.200 C 
BRANCH  31  33
ATOM     32  N   UNL A   1     -29.851  -3.099  32.822  0.00  0.00    -0.129 NA
ATOM     33  C   UNL A   1     -29.532  -3.854  31.567  0.00  0.00    +0.145 C 
ENDBRANCH  31  33
ENDBRANCH  29  31
ENDBRANCH  28  29
ENDBRANCH  27  28
ENDBRANCH  26  27
ENDBRANCH   3  26
BRANCH   1  34
ATOM     34  C   UNL A   1     -24.855  -1.012  30.143  0.00  0.00    +0.097 C 
BRANCH  34  35
ATOM     35  C   UNL A   1     -24.973  -2.505  29.788  0.00  0.00    -0.006 C 
ATOM     36  C   UNL A   1     -23.906  -3.173  29.146  0.00  0.00    -0.003 C 
ATOM     37  C   UNL A   1     -23.989  -4.549  28.853  0.00  0.00    -0.000 C 
ATOM     38  C   UNL A   1     -25.137  -5.280  29.205  0.00  0.00    -0.000 C 
ATOM     39  C   UNL A   1     -26.232  -4.611  29.784  0.00  0.00    -0.000 C 
ATOM     40  C   UNL A   1     -26.155  -3.232  30.065  0.00  0.00    -0.003 C 
ENDBRANCH  34  35
BRANCH  34  41
ATOM     41  C   UNL A   1     -25.387  -0.679  31.571  0.00  0.00    +0.092 C 
ATOM     42  C   UNL A   1     -25.189   0.773  32.028  0.00  0.00    +0.021 C 
ATOM     43  C   UNL A   1     -25.336   0.684  33.544  0.00  0.00    +0.020 C 
ATOM     44  C   UNL A   1     -24.829  -0.715  33.905  0.00  0.00    +0.089 C 
ATOM     45  N   UNL A   1     -24.758  -1.481  32.646  0.00  0.00    -0.218 NA
ENDBRANCH  34  41
ENDBRANCH   1  34
TORSDOF 15
