REMARK  Name = outputs/IAG933/test6/raw/output_9266_IAG933_linker_design_.xyz
REMARK  9 active torsions:
REMARK  status: ('A' for Active; 'I' for Inactive)
REMARK    1  A    between atoms: C_1  and  C_2
REMARK    2  A    between atoms: C_1  and  C_8
REMARK    3  A    between atoms: C_1  and  O_37
REMARK    4  A    between atoms: C_13  and  C_30
REMARK    5  A    between atoms: C_14  and  C_15
REMARK    6  A    between atoms: C_21  and  O_22
REMARK    7  A    between atoms: O_22  and  C_23
REMARK    8  A    between atoms: C_23  and  C_24
REMARK    9  A    between atoms: C_31  and  O_37
REMARK                            x       y       z     vdW  Elec       q    Type
REMARK                         _______ _______ _______ _____ _____    ______ ____
ROOT
ATOM      1  C   UNL A   1     -22.062  -0.656  28.860  0.00  0.00    +0.157 C 
ATOM      2  C   UNL A   1     -20.775  -0.248  28.186  0.00  0.00    +0.069 C 
ATOM      3  C   UNL A   1     -24.585   1.372  27.252  0.00  0.00    +0.045 C 
ATOM      4  C   UNL A   1     -24.548   0.760  28.628  0.00  0.00    +0.143 C 
ATOM      5  C   UNL A   1     -22.149   1.450  29.054  0.00  0.00    +0.041 C 
ATOM      6  O   UNL A   1     -23.351   2.425  25.484  0.00  0.00    -0.289 OA
ATOM      7  C   UNL A   1     -23.132   0.562  29.086  0.00  0.00    +0.065 C 
ATOM      8  O   UNL A   1     -22.001  -1.321  30.031  0.00  0.00    -0.223 OA
ATOM      9  F   UNL A   1     -19.995   1.832  27.862  0.00  0.00    -0.237 F 
ATOM     10  C   UNL A   1     -22.074   1.506  26.866  0.00  0.00    +0.251 C 
ATOM     11  C   UNL A   1     -21.067   1.133  27.884  0.00  0.00    +0.173 C 
ATOM     12  F   UNL A   1     -21.619   1.892  25.647  0.00  0.00    -0.226 F 
ATOM     13  C   UNL A   1     -23.349   1.647  26.790  0.00  0.00    +0.206 C 
ENDROOT
BRANCH   3  14
ATOM     14  C   UNL A   1     -25.688   1.614  26.461  0.00  0.00    +0.039 C 
ATOM     15  C   UNL A   1     -26.250   2.920  26.395  0.00  0.00    +0.076 C 
ATOM     16  C   UNL A   1     -27.438   3.091  25.645  0.00  0.00    +0.107 C 
ATOM     17  N   UNL A   1     -28.075   2.089  25.003  0.00  0.00    -0.208 NA
ATOM     18  C   UNL A   1     -27.543   0.849  25.079  0.00  0.00    +0.253 C 
ATOM     19  C   UNL A   1     -26.354   0.576  25.777  0.00  0.00    +0.193 C 
ATOM     20  F   UNL A   1     -25.860  -0.681  25.795  0.00  0.00    -0.199 F 
BRANCH  15  21
ATOM     21  C   UNL A   1     -25.642   4.093  27.123  0.00  0.00    +0.266 C 
ATOM     22  N   UNL A   1     -25.614   5.252  26.449  0.00  0.00    -0.200 NA
ATOM     23  C   UNL A   1     -25.026   6.479  26.963  0.00  0.00    +0.139 C 
ATOM     24  O   UNL A   1     -25.143   3.966  28.243  0.00  0.00    -0.268 OA
ENDBRANCH  15  21
BRANCH  18  25
ATOM     25  O   UNL A   1     -28.193  -0.208  24.477  0.00  0.00    -0.456 OA
BRANCH  25  26
ATOM     26  C   UNL A   1     -29.460   0.005  23.866  0.00  0.00    +0.243 C 
BRANCH  26  27
ATOM     27  C   UNL A   1     -30.065  -1.377  23.573  0.00  0.00    +0.229 C 
ATOM     28  O   UNL A   1     -30.729  -1.878  24.721  0.00  0.00    -0.216 OA
ENDBRANCH  26  27
ENDBRANCH  25  26
ENDBRANCH  18  25
ENDBRANCH   3  14
BRANCH   4  29
ATOM     29  O   UNL A   1     -25.388  -0.255  29.074  0.00  0.00    -0.348 OA
BRANCH  29  30
ATOM     30  C   UNL A   1     -24.855  -1.012  30.143  0.00  0.00    +0.154 C 
BRANCH  30  31
ATOM     31  C   UNL A   1     -24.973  -2.505  29.788  0.00  0.00    +0.006 C 
ATOM     32  C   UNL A   1     -23.906  -3.173  29.146  0.00  0.00    -0.002 C 
ATOM     33  C   UNL A   1     -23.989  -4.549  28.853  0.00  0.00    -0.000 C 
ATOM     34  C   UNL A   1     -25.137  -5.280  29.205  0.00  0.00    -0.000 C 
ATOM     35  C   UNL A   1     -26.232  -4.611  29.784  0.00  0.00    -0.000 C 
ATOM     36  C   UNL A   1     -26.155  -3.232  30.065  0.00  0.00    -0.002 C 
ENDBRANCH  30  31
BRANCH  30  37
ATOM     37  C   UNL A   1     -25.387  -0.679  31.571  0.00  0.00    +0.104 C 
ATOM     38  C   UNL A   1     -25.189   0.773  32.028  0.00  0.00    +0.022 C 
ATOM     39  C   UNL A   1     -25.336   0.684  33.544  0.00  0.00    +0.020 C 
ATOM     40  C   UNL A   1     -24.829  -0.715  33.905  0.00  0.00    +0.089 C 
ATOM     41  N   UNL A   1     -24.758  -1.481  32.646  0.00  0.00    -0.217 NA
ENDBRANCH  30  37
ENDBRANCH  29  30
ENDBRANCH   4  29
TORSDOF 9
