REMARK  Name = outputs/IAG933/test6/raw/output_9269_IAG933_linker_design_.xyz
REMARK  9 active torsions:
REMARK  status: ('A' for Active; 'I' for Inactive)
REMARK    1  A    between atoms: C_1  and  C_2
REMARK    2  A    between atoms: C_13  and  C_31
REMARK    3  A    between atoms: C_14  and  C_15
REMARK    4  A    between atoms: C_21  and  O_22
REMARK    5  A    between atoms: O_22  and  C_23
REMARK    6  A    between atoms: C_23  and  C_24
REMARK    7  A    between atoms: N_28  and  C_30
REMARK    8  A    between atoms: C_29  and  C_40
REMARK    9  A    between atoms: C_36  and  C_38
REMARK                            x       y       z     vdW  Elec       q    Type
REMARK                         _______ _______ _______ _____ _____    ______ ____
ROOT
ATOM      1  C   UNL A   1     -22.831   1.103  28.010  0.00  0.00    +0.098 C 
ATOM      2  C   UNL A   1     -21.375   1.450  27.451  0.00  0.00    +0.022 C 
ATOM      3  C   UNL A   1     -20.946  -0.332  28.774  0.00  0.00    +0.000 C 
ATOM      4  C   UNL A   1     -22.113  -0.313  29.730  0.00  0.00    +0.004 C 
ATOM      5  C   UNL A   1     -20.580   1.012  28.189  0.00  0.00    +0.002 C 
ATOM      6  C   UNL A   1     -23.190   0.069  28.855  0.00  0.00    +0.048 C 
ENDROOT
BRANCH   6  13
ATOM      7  C   UNL A   1     -24.855  -1.012  30.143  0.00  0.00    +0.066 C 
ATOM      8  C   UNL A   1     -25.387  -0.679  31.571  0.00  0.00    +0.082 C 
ATOM      9  C   UNL A   1     -25.189   0.773  32.028  0.00  0.00    +0.048 C 
ATOM     10  C   UNL A   1     -25.336   0.684  33.544  0.00  0.00    +0.023 C 
ATOM     11  C   UNL A   1     -24.829  -0.715  33.905  0.00  0.00    +0.089 C 
ATOM     12  N   UNL A   1     -24.758  -1.481  32.646  0.00  0.00    -0.219 NA
ATOM     13  C   UNL A   1     -24.506   0.247  29.394  0.00  0.00    +0.122 C 
ATOM     14  O   UNL A   1     -24.605   1.619  30.077  0.00  0.00    -0.356 OA
ATOM     15  C   UNL A   1     -24.017   1.614  31.382  0.00  0.00    +0.149 C 
BRANCH   7  16
ATOM     16  C   UNL A   1     -24.973  -2.505  29.788  0.00  0.00    -0.019 C 
ATOM     17  C   UNL A   1     -23.906  -3.173  29.146  0.00  0.00    -0.004 C 
ATOM     18  C   UNL A   1     -23.989  -4.549  28.853  0.00  0.00    -0.000 C 
ATOM     19  C   UNL A   1     -25.137  -5.280  29.205  0.00  0.00    -0.000 C 
ATOM     20  C   UNL A   1     -26.232  -4.611  29.784  0.00  0.00    -0.000 C 
ATOM     21  C   UNL A   1     -26.155  -3.232  30.065  0.00  0.00    -0.004 C 
ENDBRANCH   7  16
BRANCH  15  23
ATOM     22  O   UNL A   1     -24.938   3.613  32.157  0.00  0.00    -0.218 OA
ATOM     23  C   UNL A   1     -23.699   3.043  31.756  0.00  0.00    +0.211 C 
ENDBRANCH  15  23
ENDBRANCH   6  13
BRANCH   1  24
ATOM     24  N   UNL A   1     -23.770   1.938  27.719  0.00  0.00    -0.207 NA
ATOM     25  C   UNL A   1     -24.390   1.552  26.710  0.00  0.00    +0.248 C 
ATOM     26  O   UNL A   1     -23.553   1.080  25.634  0.00  0.00    -0.273 OA
BRANCH  25  27
ATOM     27  C   UNL A   1     -25.688   1.614  26.461  0.00  0.00    +0.148 C 
ATOM     28  C   UNL A   1     -26.250   2.920  26.395  0.00  0.00    +0.064 C 
ATOM     29  C   UNL A   1     -27.438   3.091  25.645  0.00  0.00    +0.103 C 
ATOM     30  N   UNL A   1     -28.075   2.089  25.003  0.00  0.00    -0.212 NA
ATOM     31  C   UNL A   1     -27.543   0.849  25.079  0.00  0.00    +0.235 C 
ATOM     32  C   UNL A   1     -26.354   0.576  25.777  0.00  0.00    +0.249 C 
ATOM     33  F   UNL A   1     -25.860  -0.681  25.795  0.00  0.00    -0.226 F 
BRANCH  28  34
ATOM     34  C   UNL A   1     -25.642   4.093  27.123  0.00  0.00    +0.263 C 
ATOM     35  N   UNL A   1     -25.614   5.252  26.449  0.00  0.00    -0.200 NA
ATOM     36  C   UNL A   1     -25.026   6.479  26.963  0.00  0.00    +0.139 C 
ATOM     37  O   UNL A   1     -25.143   3.966  28.243  0.00  0.00    -0.269 OA
ENDBRANCH  28  34
BRANCH  31  38
ATOM     38  O   UNL A   1     -28.193  -0.208  24.477  0.00  0.00    -0.459 OA
BRANCH  38  39
ATOM     39  C   UNL A   1     -29.460   0.005  23.866  0.00  0.00    +0.242 C 
BRANCH  39  40
ATOM     40  C   UNL A   1     -30.065  -1.377  23.573  0.00  0.00    +0.229 C 
ATOM     41  O   UNL A   1     -30.729  -1.878  24.721  0.00  0.00    -0.216 OA
ENDBRANCH  39  40
ENDBRANCH  38  39
ENDBRANCH  31  38
ENDBRANCH  25  27
ENDBRANCH   1  24
TORSDOF 9
