REMARK  Name = No_927-gen_results/8p0m/2024-11-27-11-27-31/
REMARK  4 active torsions:
REMARK  status: ('A' for Active; 'I' for Inactive)
REMARK    1  A    between atoms: C_2  and  O_15
REMARK    2  A    between atoms: C_3  and  C_8
REMARK    3  A    between atoms: O_15  and  C_17
REMARK    4  A    between atoms: C_17  and  C_18
REMARK                            x       y       z     vdW  Elec       q    Type
REMARK                         _______ _______ _______ _____ _____    ______ ____
ROOT
ATOM      1  C   UNL A   1     -28.016  -0.814  28.878  0.00  0.00    +0.070 A 
ATOM      2  C   UNL A   1     -27.064  -0.119  28.608  0.00  0.00    +0.151 A 
ATOM      3  C   UNL A   1     -26.876   1.133  28.913  0.00  0.00    +0.037 A 
ATOM      4  C   UNL A   1     -27.901   1.807  29.644  0.00  0.00    +0.035 A 
ATOM      5  C   UNL A   1     -29.046  -0.232  29.718  0.00  0.00    +0.170 A 
ATOM      6  C   UNL A   1     -28.940   1.052  30.060  0.00  0.00    +0.168 A 
ATOM      7  F   UNL A   1     -30.038  -1.034  30.072  0.00  0.00    -0.202 F 
ATOM      8  F   UNL A   1     -29.919   1.611  30.795  0.00  0.00    -0.202 F 
ENDROOT
BRANCH   3   9
ATOM      9  C   UNL A   1     -25.663   1.935  28.452  0.00  0.00    +0.005 A 
ATOM     10  C   UNL A   1     -24.933   1.718  27.687  0.00  0.00    +0.030 A 
ATOM     11  C   UNL A   1     -23.704   2.533  27.354  0.00  0.00    +0.140 A 
ATOM     12  C   UNL A   1     -25.476   3.247  29.221  0.00  0.00    +0.000 A 
ATOM     13  C   UNL A   1     -24.560   4.210  28.752  0.00  0.00    +0.002 A 
ATOM     14  C   UNL A   1     -23.609   3.756  27.832  0.00  0.00    +0.030 A 
ATOM     15  F   UNL A   1     -22.862   2.173  26.339  0.00  0.00    -0.204 F 
ENDBRANCH   3   9
BRANCH   2  16
ATOM     16  O   UNL A   1     -25.996  -0.685  27.814  0.00  0.00    -0.421 OA
BRANCH  16  17
ATOM     17  C   UNL A   1     -25.159  -1.624  28.438  0.00  0.00    +0.349 C 
ATOM     18  O   UNL A   1     -25.049  -2.711  27.943  0.00  0.00    -0.244 OA
BRANCH  17  19
ATOM     19  C   UNL A   1     -24.600  -1.301  29.717  0.00  0.00    +0.115 A 
ATOM     20  C   UNL A   1     -24.873  -1.800  30.595  0.00  0.00    +0.202 A 
ATOM     21  C   UNL A   1     -24.266  -1.375  31.952  0.00  0.00    +0.042 A 
ATOM     22  C   UNL A   1     -23.302  -0.367  31.902  0.00  0.00    +0.003 A 
ATOM     23  C   UNL A   1     -23.512  -0.258  29.800  0.00  0.00    +0.010 A 
ATOM     24  C   UNL A   1     -22.866   0.135  30.812  0.00  0.00    +0.000 A 
ATOM     25  O   UNL A   1     -25.850  -2.682  30.701  0.00  0.00    -0.286 OA
ENDBRANCH  17  19
ENDBRANCH  16  17
ENDBRANCH   2  16
TORSDOF 4
