REMARK  Name = outputs/IAG933/test6/raw/output_9275_IAG933_linker_design_.xyz
REMARK  12 active torsions:
REMARK  status: ('A' for Active; 'I' for Inactive)
REMARK    1  A    between atoms: C_1  and  C_2
REMARK    2  A    between atoms: C_1  and  C_8
REMARK    3  A    between atoms: C_9  and  C_31
REMARK    4  A    between atoms: C_13  and  C_41
REMARK    5  A    between atoms: C_14  and  C_15
REMARK    6  A    between atoms: C_21  and  O_22
REMARK    7  A    between atoms: O_22  and  C_23
REMARK    8  A    between atoms: C_23  and  C_24
REMARK    9  A    between atoms: C_28  and  C_36
REMARK   10  A    between atoms: C_30  and  C_41
REMARK   11  A    between atoms: C_31  and  C_35
REMARK   12  A    between atoms: C_31  and  C_36
REMARK                            x       y       z     vdW  Elec       q    Type
REMARK                         _______ _______ _______ _____ _____    ______ ____
ROOT
ATOM      1  C   UNL A   1     -23.124   1.582  28.776  0.00  0.00    +0.103 C 
ATOM      2  C   UNL A   1     -23.590   1.818  27.372  0.00  0.00    +0.137 C 
ATOM      3  C   UNL A   1     -21.251   1.739  27.490  0.00  0.00    +0.234 C 
ATOM      4  N   UNL A   1     -21.752   1.264  28.689  0.00  0.00    -0.187 NA
ATOM      5  O   UNL A   1     -22.338   2.157  26.659  0.00  0.00    -0.337 OA
ENDROOT
BRANCH   1   6
ATOM      6  C   UNL A   1     -23.325   1.799  30.279  0.00  0.00    +0.026 C 
BRANCH   6   7
ATOM      7  C   UNL A   1     -24.685   2.001  31.265  0.00  0.00    +0.043 C 
BRANCH   7  11
ATOM      8  C   UNL A   1     -27.384   3.551  33.074  0.00  0.00    +0.128 C 
ATOM      9  F   UNL A   1     -27.270   5.056  34.842  0.00  0.00    -0.203 F 
ATOM     10  C   UNL A   1     -25.422   4.944  33.336  0.00  0.00    +0.033 C 
ATOM     11  C   UNL A   1     -25.377   3.180  31.751  0.00  0.00    +0.059 C 
ATOM     12  C   UNL A   1     -26.698   4.532  33.736  0.00  0.00    +0.159 C 
ATOM     13  C   UNL A   1     -24.774   4.352  32.261  0.00  0.00    +0.017 C 
ATOM     14  N   UNL A   1     -26.665   3.011  32.027  0.00  0.00    -0.246 NA
ENDBRANCH   7  11
BRANCH   7  16
ATOM     15  C   UNL A   1     -25.387  -0.679  31.571  0.00  0.00    +0.077 C 
ATOM     16  C   UNL A   1     -25.189   0.773  32.028  0.00  0.00    +0.023 C 
ATOM     17  C   UNL A   1     -25.336   0.684  33.544  0.00  0.00    +0.021 C 
ATOM     18  C   UNL A   1     -24.829  -0.715  33.905  0.00  0.00    +0.089 C 
ATOM     19  N   UNL A   1     -24.758  -1.481  32.646  0.00  0.00    -0.219 NA
BRANCH  15  20
ATOM     20  C   UNL A   1     -24.855  -1.012  30.143  0.00  0.00    +0.044 C 
BRANCH  20  21
ATOM     21  C   UNL A   1     -24.973  -2.505  29.788  0.00  0.00    -0.021 C 
ATOM     22  C   UNL A   1     -23.906  -3.173  29.146  0.00  0.00    -0.004 C 
ATOM     23  C   UNL A   1     -23.989  -4.549  28.853  0.00  0.00    -0.000 C 
ATOM     24  C   UNL A   1     -25.137  -5.280  29.205  0.00  0.00    -0.000 C 
ATOM     25  C   UNL A   1     -26.232  -4.611  29.784  0.00  0.00    -0.000 C 
ATOM     26  C   UNL A   1     -26.155  -3.232  30.065  0.00  0.00    -0.004 C 
ENDBRANCH  20  21
ENDBRANCH  15  20
ENDBRANCH   7  16
ENDBRANCH   6   7
ENDBRANCH   1   6
BRANCH   2  27
ATOM     27  C   UNL A   1     -24.549   1.337  26.802  0.00  0.00    +0.060 C 
BRANCH  27  28
ATOM     28  C   UNL A   1     -25.688   1.614  26.461  0.00  0.00    +0.018 C 
ATOM     29  C   UNL A   1     -26.250   2.920  26.395  0.00  0.00    +0.073 C 
ATOM     30  C   UNL A   1     -27.438   3.091  25.645  0.00  0.00    +0.106 C 
ATOM     31  N   UNL A   1     -28.075   2.089  25.003  0.00  0.00    -0.208 NA
ATOM     32  C   UNL A   1     -27.543   0.849  25.079  0.00  0.00    +0.253 C 
ATOM     33  C   UNL A   1     -26.354   0.576  25.777  0.00  0.00    +0.189 C 
ATOM     34  F   UNL A   1     -25.860  -0.681  25.795  0.00  0.00    -0.200 F 
BRANCH  29  35
ATOM     35  C   UNL A   1     -25.642   4.093  27.123  0.00  0.00    +0.266 C 
ATOM     36  N   UNL A   1     -25.614   5.252  26.449  0.00  0.00    -0.200 NA
ATOM     37  C   UNL A   1     -25.026   6.479  26.963  0.00  0.00    +0.139 C 
ATOM     38  O   UNL A   1     -25.143   3.966  28.243  0.00  0.00    -0.268 OA
ENDBRANCH  29  35
BRANCH  32  39
ATOM     39  O   UNL A   1     -28.193  -0.208  24.477  0.00  0.00    -0.456 OA
BRANCH  39  40
ATOM     40  C   UNL A   1     -29.460   0.005  23.866  0.00  0.00    +0.243 C 
BRANCH  40  41
ATOM     41  C   UNL A   1     -30.065  -1.377  23.573  0.00  0.00    +0.229 C 
ATOM     42  O   UNL A   1     -30.729  -1.878  24.721  0.00  0.00    -0.216 OA
ENDBRANCH  40  41
ENDBRANCH  39  40
ENDBRANCH  32  39
ENDBRANCH  27  28
ENDBRANCH   2  27
TORSDOF 12
