REMARK  Name = outputs/IAG933/test6/raw/output_9276_IAG933_linker_design_.xyz
REMARK  14 active torsions:
REMARK  status: ('A' for Active; 'I' for Inactive)
REMARK    1  A    between atoms: C_1  and  C_2
REMARK    2  A    between atoms: C_1  and  C_8
REMARK    3  A    between atoms: C_1  and  N_32
REMARK    4  A    between atoms: C_13  and  N_39
REMARK    5  A    between atoms: C_14  and  C_15
REMARK    6  A    between atoms: C_21  and  O_22
REMARK    7  A    between atoms: O_22  and  C_23
REMARK    8  A    between atoms: C_23  and  C_24
REMARK    9  A    between atoms: C_28  and  N_32
REMARK   10  A    between atoms: C_29  and  C_38
REMARK   11  A    between atoms: C_31  and  N_32
REMARK   12  A    between atoms: C_31  and  C_36
REMARK   13  A    between atoms: C_31  and  N_39
REMARK   14  A    between atoms: C_37  and  C_38
REMARK                            x       y       z     vdW  Elec       q    Type
REMARK                         _______ _______ _______ _____ _____    ______ ____
ROOT
ATOM      1  C   UNL A   1     -23.278   1.847  26.863  0.00  0.00    +0.235 C 
ATOM      2  O   UNL A   1     -23.259   2.616  25.879  0.00  0.00    -0.274 OA
ATOM      3  N   UNL A   1     -24.516   1.205  27.171  0.00  0.00    -0.238 N 
ENDROOT
BRANCH   3   4
ATOM      4  C   UNL A   1     -25.688   1.614  26.461  0.00  0.00    +0.093 C 
ATOM      5  C   UNL A   1     -26.250   2.920  26.395  0.00  0.00    +0.090 C 
ATOM      6  C   UNL A   1     -27.438   3.091  25.645  0.00  0.00    +0.108 C 
ATOM      7  N   UNL A   1     -28.075   2.089  25.003  0.00  0.00    -0.208 NA
ATOM      8  C   UNL A   1     -27.543   0.849  25.079  0.00  0.00    +0.255 C 
ATOM      9  C   UNL A   1     -26.354   0.576  25.777  0.00  0.00    +0.207 C 
ATOM     10  F   UNL A   1     -25.860  -0.681  25.795  0.00  0.00    -0.198 F 
BRANCH   5  11
ATOM     11  C   UNL A   1     -25.642   4.093  27.123  0.00  0.00    +0.268 C 
ATOM     12  N   UNL A   1     -25.614   5.252  26.449  0.00  0.00    -0.200 NA
ATOM     13  C   UNL A   1     -25.026   6.479  26.963  0.00  0.00    +0.139 C 
ATOM     14  O   UNL A   1     -25.143   3.966  28.243  0.00  0.00    -0.268 OA
ENDBRANCH   5  11
BRANCH   8  15
ATOM     15  O   UNL A   1     -28.193  -0.208  24.477  0.00  0.00    -0.456 OA
BRANCH  15  16
ATOM     16  C   UNL A   1     -29.460   0.005  23.866  0.00  0.00    +0.243 C 
BRANCH  16  17
ATOM     17  C   UNL A   1     -30.065  -1.377  23.573  0.00  0.00    +0.229 C 
ATOM     18  O   UNL A   1     -30.729  -1.878  24.721  0.00  0.00    -0.216 OA
ENDBRANCH  16  17
ENDBRANCH  15  16
ENDBRANCH   8  15
ENDBRANCH   3   4
BRANCH   3  19
ATOM     19  C   UNL A   1     -24.693   0.134  28.041  0.00  0.00    +0.199 C 
BRANCH  19  21
ATOM     20  O   UNL A   1     -22.779   0.416  29.708  0.00  0.00    -0.217 OA
ATOM     21  C   UNL A   1     -23.235  -0.061  28.585  0.00  0.00    +0.224 C 
ENDBRANCH  19  21
BRANCH  19  22
ATOM     22  N   UNL A   1     -25.502  -0.277  29.018  0.00  0.00    -0.225 N 
BRANCH  22  23
ATOM     23  C   UNL A   1     -26.826  -0.224  29.066  0.00  0.00    +0.172 C 
ATOM     24  N   UNL A   1     -27.977  -0.218  29.231  0.00  0.00    -0.174 NA
ENDBRANCH  22  23
BRANCH  22  25
ATOM     25  C   UNL A   1     -24.855  -1.012  30.143  0.00  0.00    +0.123 C 
BRANCH  25  26
ATOM     26  C   UNL A   1     -24.973  -2.505  29.788  0.00  0.00    -0.002 C 
ATOM     27  C   UNL A   1     -23.906  -3.173  29.146  0.00  0.00    -0.003 C 
ATOM     28  C   UNL A   1     -23.989  -4.549  28.853  0.00  0.00    -0.000 C 
ATOM     29  C   UNL A   1     -25.137  -5.280  29.205  0.00  0.00    -0.000 C 
ATOM     30  C   UNL A   1     -26.232  -4.611  29.784  0.00  0.00    -0.000 C 
ATOM     31  C   UNL A   1     -26.155  -3.232  30.065  0.00  0.00    -0.003 C 
ENDBRANCH  25  26
BRANCH  25  32
ATOM     32  C   UNL A   1     -25.387  -0.679  31.571  0.00  0.00    +0.096 C 
ATOM     33  C   UNL A   1     -25.189   0.773  32.028  0.00  0.00    +0.021 C 
ATOM     34  C   UNL A   1     -25.336   0.684  33.544  0.00  0.00    +0.020 C 
ATOM     35  C   UNL A   1     -24.829  -0.715  33.905  0.00  0.00    +0.089 C 
ATOM     36  N   UNL A   1     -24.758  -1.481  32.646  0.00  0.00    -0.217 NA
ENDBRANCH  25  32
ENDBRANCH  22  25
ENDBRANCH  19  22
ENDBRANCH   3  19
BRANCH   1  37
ATOM     37  C   UNL A   1     -21.937   1.685  27.588  0.00  0.00    +0.112 C 
BRANCH  37  39
ATOM     38  C   UNL A   1     -20.393  -0.123  28.739  0.00  0.00    -0.004 C 
ATOM     39  C   UNL A   1     -20.823   0.723  27.880  0.00  0.00    -0.017 C 
ENDBRANCH  37  39
ENDBRANCH   1  37
TORSDOF 14
