REMARK  Name = outputs/IAG933/test6/raw/output_9278_IAG933_linker_design_.xyz
REMARK  12 active torsions:
REMARK  status: ('A' for Active; 'I' for Inactive)
REMARK    1  A    between atoms: C_1  and  C_2
REMARK    2  A    between atoms: C_1  and  C_8
REMARK    3  A    between atoms: C_1  and  C_35
REMARK    4  A    between atoms: C_13  and  C_38
REMARK    5  A    between atoms: C_14  and  C_15
REMARK    6  A    between atoms: C_21  and  O_22
REMARK    7  A    between atoms: O_22  and  C_23
REMARK    8  A    between atoms: C_23  and  C_24
REMARK    9  A    between atoms: C_28  and  C_35
REMARK   10  A    between atoms: N_33  and  C_35
REMARK   11  A    between atoms: O_36  and  C_44
REMARK   12  A    between atoms: S_42  and  C_47
REMARK                            x       y       z     vdW  Elec       q    Type
REMARK                         _______ _______ _______ _____ _____    ______ ____
ROOT
ATOM      1  C   UNL A   1     -25.400  -0.228  29.085  0.00  0.00    +0.100 C 
ENDROOT
BRANCH   1   5
ATOM      2  C   UNL A   1     -22.301   1.081  28.179  0.00  0.00    +0.125 C 
ATOM      3  N   UNL A   1     -20.679   1.713  28.001  0.00  0.00    -0.130 NA
ATOM      4  C   UNL A   1     -22.532   0.513  29.612  0.00  0.00    +0.185 C 
ATOM      5  N   UNL A   1     -24.632   0.403  28.273  0.00  0.00    -0.163 NA
ATOM      6  C   UNL A   1     -24.415   1.093  27.109  0.00  0.00    +0.110 C 
ATOM      7  C   UNL A   1     -22.902   1.727  26.991  0.00  0.00    +0.045 C 
ATOM      8  O   UNL A   1     -23.385  -0.057  28.490  0.00  0.00    -0.281 OA
BRANCH   6   9
ATOM      9  C   UNL A   1     -25.688   1.614  26.461  0.00  0.00    +0.033 C 
ATOM     10  C   UNL A   1     -26.250   2.920  26.395  0.00  0.00    +0.074 C 
ATOM     11  C   UNL A   1     -27.438   3.091  25.645  0.00  0.00    +0.106 C 
ATOM     12  N   UNL A   1     -28.075   2.089  25.003  0.00  0.00    -0.208 NA
ATOM     13  C   UNL A   1     -27.543   0.849  25.079  0.00  0.00    +0.253 C 
ATOM     14  C   UNL A   1     -26.354   0.576  25.777  0.00  0.00    +0.190 C 
ATOM     15  F   UNL A   1     -25.860  -0.681  25.795  0.00  0.00    -0.200 F 
BRANCH  10  16
ATOM     16  C   UNL A   1     -25.642   4.093  27.123  0.00  0.00    +0.266 C 
ATOM     17  N   UNL A   1     -25.614   5.252  26.449  0.00  0.00    -0.200 NA
ATOM     18  C   UNL A   1     -25.026   6.479  26.963  0.00  0.00    +0.139 C 
ATOM     19  O   UNL A   1     -25.143   3.966  28.243  0.00  0.00    -0.268 OA
ENDBRANCH  10  16
BRANCH  13  20
ATOM     20  O   UNL A   1     -28.193  -0.208  24.477  0.00  0.00    -0.456 OA
BRANCH  20  21
ATOM     21  C   UNL A   1     -29.460   0.005  23.866  0.00  0.00    +0.243 C 
BRANCH  21  22
ATOM     22  C   UNL A   1     -30.065  -1.377  23.573  0.00  0.00    +0.229 C 
ATOM     23  O   UNL A   1     -30.729  -1.878  24.721  0.00  0.00    -0.216 OA
ENDBRANCH  21  22
ENDBRANCH  20  21
ENDBRANCH  13  20
ENDBRANCH   6   9
ENDBRANCH   1   5
BRANCH   1  24
ATOM     24  C   UNL A   1     -26.896  -0.328  28.861  0.00  0.00    +0.066 C 
ATOM     25  C   UNL A   1     -27.881  -0.191  27.770  0.00  0.00    +0.059 C 
ATOM     26  S   UNL A   1     -27.336   1.161  28.933  0.00  0.00    -0.178 S 
BRANCH  26  33
ATOM     27  N   UNL A   1     -32.412   2.911  26.986  0.00  0.00    -0.130 NA
ATOM     28  C   UNL A   1     -29.686   2.350  29.376  0.00  0.00    +0.041 C 
ATOM     29  C   UNL A   1     -31.065   0.780  27.212  0.00  0.00    +0.022 C 
ATOM     30  C   UNL A   1     -30.572   0.009  28.410  0.00  0.00    +0.012 C 
ATOM     31  C   UNL A   1     -31.312   2.216  27.711  0.00  0.00    +0.119 C 
ATOM     32  C   UNL A   1     -31.275   2.304  29.267  0.00  0.00    +0.134 C 
ATOM     33  C   UNL A   1     -29.237   0.796  29.075  0.00  0.00    +0.042 C 
BRANCH  32  34
ATOM     34  O   UNL A   1     -32.539   2.683  29.768  0.00  0.00    -0.352 OA
ATOM     35  C   UNL A   1     -32.990   3.377  30.898  0.00  0.00    +0.174 C 
ENDBRANCH  32  34
ENDBRANCH  26  33
ENDBRANCH   1  24
BRANCH   1  36
ATOM     36  C   UNL A   1     -24.855  -1.012  30.143  0.00  0.00    +0.056 C 
BRANCH  36  37
ATOM     37  C   UNL A   1     -24.973  -2.505  29.788  0.00  0.00    -0.020 C 
ATOM     38  C   UNL A   1     -23.906  -3.173  29.146  0.00  0.00    -0.004 C 
ATOM     39  C   UNL A   1     -23.989  -4.549  28.853  0.00  0.00    -0.000 C 
ATOM     40  C   UNL A   1     -25.137  -5.280  29.205  0.00  0.00    -0.000 C 
ATOM     41  C   UNL A   1     -26.232  -4.611  29.784  0.00  0.00    -0.000 C 
ATOM     42  C   UNL A   1     -26.155  -3.232  30.065  0.00  0.00    -0.004 C 
ENDBRANCH  36  37
BRANCH  36  43
ATOM     43  C   UNL A   1     -25.387  -0.679  31.571  0.00  0.00    +0.078 C 
ATOM     44  C   UNL A   1     -25.189   0.773  32.028  0.00  0.00    +0.019 C 
ATOM     45  C   UNL A   1     -25.336   0.684  33.544  0.00  0.00    +0.020 C 
ATOM     46  C   UNL A   1     -24.829  -0.715  33.905  0.00  0.00    +0.089 C 
ATOM     47  N   UNL A   1     -24.758  -1.481  32.646  0.00  0.00    -0.219 NA
ENDBRANCH  36  43
ENDBRANCH   1  36
TORSDOF 12
