REMARK  Name = outputs/IAG933/test6/raw/output_9281_IAG933_linker_design_.xyz
REMARK  14 active torsions:
REMARK  status: ('A' for Active; 'I' for Inactive)
REMARK    1  A    between atoms: C_1  and  C_2
REMARK    2  A    between atoms: C_1  and  C_8
REMARK    3  A    between atoms: C_1  and  C_30
REMARK    4  A    between atoms: C_13  and  N_31
REMARK    5  A    between atoms: C_14  and  C_15
REMARK    6  A    between atoms: C_21  and  O_22
REMARK    7  A    between atoms: O_22  and  C_23
REMARK    8  A    between atoms: C_23  and  C_24
REMARK    9  A    between atoms: C_29  and  C_30
REMARK   10  A    between atoms: C_30  and  N_42
REMARK   11  A    between atoms: N_31  and  C_32
REMARK   12  A    between atoms: C_35  and  C_36
REMARK   13  A    between atoms: C_35  and  C_41
REMARK   14  A    between atoms: C_41  and  N_42
REMARK                            x       y       z     vdW  Elec       q    Type
REMARK                         _______ _______ _______ _____ _____    ______ ____
ROOT
ATOM      1  C   UNL A   1     -22.431   0.175  28.874  0.00  0.00    +0.234 A 
ATOM      2  C   UNL A   1     -23.655   0.472  28.535  0.00  0.00    +0.065 A 
ATOM      3  C   UNL A   1     -23.528   1.347  27.430  0.00  0.00    +0.118 A 
ATOM      4  N   UNL A   1     -21.945  -0.640  29.846  0.00  0.00    -0.088 NA
ATOM      5  O   UNL A   1     -21.590   0.739  27.918  0.00  0.00    -0.425 OA
ATOM      6  C   UNL A   1     -22.296   1.472  27.052  0.00  0.00    +0.220 A 
ATOM      7 CL   UNL A   1     -21.684   2.184  25.611  0.00  0.00    -0.041 Cl
ENDROOT
BRANCH   2   8
ATOM      8  C   UNL A   1     -25.011  -0.005  29.075  0.00  0.00    +0.106 C 
BRANCH   8   9
ATOM      9  C   UNL A   1     -24.855  -1.012  30.143  0.00  0.00    +0.059 C 
BRANCH   9  10
ATOM     10  C   UNL A   1     -24.973  -2.505  29.788  0.00  0.00    -0.019 C 
ATOM     11  C   UNL A   1     -23.906  -3.173  29.146  0.00  0.00    -0.004 C 
ATOM     12  C   UNL A   1     -23.989  -4.549  28.853  0.00  0.00    -0.000 C 
ATOM     13  C   UNL A   1     -25.137  -5.280  29.205  0.00  0.00    -0.000 C 
ATOM     14  C   UNL A   1     -26.232  -4.611  29.784  0.00  0.00    -0.000 C 
ATOM     15  C   UNL A   1     -26.155  -3.232  30.065  0.00  0.00    -0.004 C 
ENDBRANCH   9  10
BRANCH   9  16
ATOM     16  C   UNL A   1     -25.387  -0.679  31.571  0.00  0.00    +0.079 C 
ATOM     17  C   UNL A   1     -25.189   0.773  32.028  0.00  0.00    +0.019 C 
ATOM     18  C   UNL A   1     -25.336   0.684  33.544  0.00  0.00    +0.020 C 
ATOM     19  C   UNL A   1     -24.829  -0.715  33.905  0.00  0.00    +0.089 C 
ATOM     20  N   UNL A   1     -24.758  -1.481  32.646  0.00  0.00    -0.219 NA
ENDBRANCH   9  16
ENDBRANCH   8   9
BRANCH   8  21
ATOM     21  N   UNL A   1     -26.183  -0.029  28.668  0.00  0.00    -0.212 NA
BRANCH  21  22
ATOM     22  C   UNL A   1     -27.443  -0.747  28.875  0.00  0.00    +0.124 C 
BRANCH  22  23
ATOM     23  C   UNL A   1     -28.165   0.441  28.315  0.00  0.00    +0.202 C 
ATOM     24  O   UNL A   1     -29.216  -0.155  27.520  0.00  0.00    -0.219 OA
BRANCH  23  26
ATOM     25  O   UNL A   1     -27.446   2.340  29.737  0.00  0.00    -0.217 OA
ATOM     26  C   UNL A   1     -28.054   1.768  28.663  0.00  0.00    +0.216 C 
ENDBRANCH  23  26
ENDBRANCH  22  23
ENDBRANCH  21  22
ENDBRANCH   8  21
ENDBRANCH   2   8
BRANCH   3  27
ATOM     27  N   UNL A   1     -24.601   1.413  27.020  0.00  0.00    -0.206 NA
BRANCH  27  28
ATOM     28  C   UNL A   1     -25.688   1.614  26.461  0.00  0.00    +0.109 C 
ATOM     29  C   UNL A   1     -26.250   2.920  26.395  0.00  0.00    +0.092 C 
ATOM     30  C   UNL A   1     -27.438   3.091  25.645  0.00  0.00    +0.108 C 
ATOM     31  N   UNL A   1     -28.075   2.089  25.003  0.00  0.00    -0.208 NA
ATOM     32  C   UNL A   1     -27.543   0.849  25.079  0.00  0.00    +0.255 C 
ATOM     33  C   UNL A   1     -26.354   0.576  25.777  0.00  0.00    +0.208 C 
ATOM     34  F   UNL A   1     -25.860  -0.681  25.795  0.00  0.00    -0.198 F 
BRANCH  29  35
ATOM     35  C   UNL A   1     -25.642   4.093  27.123  0.00  0.00    +0.268 C 
ATOM     36  N   UNL A   1     -25.614   5.252  26.449  0.00  0.00    -0.200 NA
ATOM     37  C   UNL A   1     -25.026   6.479  26.963  0.00  0.00    +0.139 C 
ATOM     38  O   UNL A   1     -25.143   3.966  28.243  0.00  0.00    -0.268 OA
ENDBRANCH  29  35
BRANCH  32  39
ATOM     39  O   UNL A   1     -28.193  -0.208  24.477  0.00  0.00    -0.456 OA
BRANCH  39  40
ATOM     40  C   UNL A   1     -29.460   0.005  23.866  0.00  0.00    +0.243 C 
BRANCH  40  41
ATOM     41  C   UNL A   1     -30.065  -1.377  23.573  0.00  0.00    +0.229 C 
ATOM     42  O   UNL A   1     -30.729  -1.878  24.721  0.00  0.00    -0.216 OA
ENDBRANCH  40  41
ENDBRANCH  39  40
ENDBRANCH  32  39
ENDBRANCH  27  28
ENDBRANCH   3  27
TORSDOF 14
