REMARK  Name = outputs/IAG933/test6/raw/output_9284_IAG933_linker_design_.xyz
REMARK  12 active torsions:
REMARK  status: ('A' for Active; 'I' for Inactive)
REMARK    1  A    between atoms: C_1  and  C_2
REMARK    2  A    between atoms: C_1  and  C_8
REMARK    3  A    between atoms: C_1  and  C_37
REMARK    4  A    between atoms: C_13  and  C_28
REMARK    5  A    between atoms: C_14  and  C_15
REMARK    6  A    between atoms: C_21  and  O_22
REMARK    7  A    between atoms: O_22  and  C_23
REMARK    8  A    between atoms: C_23  and  C_24
REMARK    9  A    between atoms: C_28  and  C_32
REMARK   10  A    between atoms: C_29  and  N_34
REMARK   11  A    between atoms: C_32  and  C_36
REMARK   12  A    between atoms: C_32  and  C_41
REMARK                            x       y       z     vdW  Elec       q    Type
REMARK                         _______ _______ _______ _____ _____    ______ ____
ROOT
ATOM      1  N   UNL A   1     -25.070   1.302  29.188  0.00  0.00    -0.208 N 
ATOM      2  C   UNL A   1     -23.589   1.137  28.749  0.00  0.00    +0.240 C 
ATOM      3  C   UNL A   1     -25.620  -0.006  29.168  0.00  0.00    +0.240 C 
ATOM      4  O   UNL A   1     -22.784   0.874  29.652  0.00  0.00    -0.274 OA
ATOM      5  O   UNL A   1     -26.579  -0.461  28.474  0.00  0.00    -0.274 OA
ENDROOT
BRANCH   1   6
ATOM      6  C   UNL A   1     -26.258   2.192  29.718  0.00  0.00    +0.061 C 
ATOM      7  C   UNL A   1     -27.680   1.869  29.656  0.00  0.00    +0.015 C 
ATOM      8  C   UNL A   1     -28.628   2.542  30.482  0.00  0.00    +0.001 C 
ATOM      9  C   UNL A   1     -26.918   4.073  31.257  0.00  0.00    +0.001 C 
ATOM     10  C   UNL A   1     -28.273   3.634  31.289  0.00  0.00    +0.000 C 
ATOM     11  C   UNL A   1     -25.926   3.317  30.558  0.00  0.00    +0.015 C 
ENDBRANCH   1   6
BRANCH   3  12
ATOM     12  C   UNL A   1     -24.855  -1.012  30.143  0.00  0.00    +0.116 C 
BRANCH  12  13
ATOM     13  C   UNL A   1     -24.973  -2.505  29.788  0.00  0.00    -0.013 C 
ATOM     14  C   UNL A   1     -23.906  -3.173  29.146  0.00  0.00    -0.004 C 
ATOM     15  C   UNL A   1     -23.989  -4.549  28.853  0.00  0.00    -0.000 C 
ATOM     16  C   UNL A   1     -25.137  -5.280  29.205  0.00  0.00    -0.000 C 
ATOM     17  C   UNL A   1     -26.232  -4.611  29.784  0.00  0.00    -0.000 C 
ATOM     18  C   UNL A   1     -26.155  -3.232  30.065  0.00  0.00    -0.004 C 
ENDBRANCH  12  13
BRANCH  12  19
ATOM     19  C   UNL A   1     -25.387  -0.679  31.571  0.00  0.00    +0.086 C 
ATOM     20  C   UNL A   1     -25.189   0.773  32.028  0.00  0.00    +0.020 C 
ATOM     21  C   UNL A   1     -25.336   0.684  33.544  0.00  0.00    +0.020 C 
ATOM     22  C   UNL A   1     -24.829  -0.715  33.905  0.00  0.00    +0.089 C 
ATOM     23  N   UNL A   1     -24.758  -1.481  32.646  0.00  0.00    -0.219 NA
ENDBRANCH  12  19
ENDBRANCH   3  12
BRANCH   2  24
ATOM     24  C   UNL A   1     -23.265   1.246  27.575  0.00  0.00    +0.144 C 
BRANCH  24  27
ATOM     25  F   UNL A   1     -21.045   2.033  27.551  0.00  0.00    -0.198 F 
ATOM     26  F   UNL A   1     -22.190   2.174  25.695  0.00  0.00    -0.198 F 
ATOM     27  C   UNL A   1     -22.255   1.857  26.809  0.00  0.00    +0.327 C 
ENDBRANCH  24  27
BRANCH  24  28
ATOM     28  C   UNL A   1     -24.284   1.189  26.714  0.00  0.00    +0.023 C 
BRANCH  28  29
ATOM     29  C   UNL A   1     -25.688   1.614  26.461  0.00  0.00    +0.071 C 
ATOM     30  C   UNL A   1     -26.250   2.920  26.395  0.00  0.00    +0.055 C 
ATOM     31  C   UNL A   1     -27.438   3.091  25.645  0.00  0.00    +0.102 C 
ATOM     32  N   UNL A   1     -28.075   2.089  25.003  0.00  0.00    -0.212 NA
ATOM     33  C   UNL A   1     -27.543   0.849  25.079  0.00  0.00    +0.234 C 
ATOM     34  C   UNL A   1     -26.354   0.576  25.777  0.00  0.00    +0.240 C 
ATOM     35  F   UNL A   1     -25.860  -0.681  25.795  0.00  0.00    -0.227 F 
BRANCH  30  36
ATOM     36  C   UNL A   1     -25.642   4.093  27.123  0.00  0.00    +0.262 C 
ATOM     37  N   UNL A   1     -25.614   5.252  26.449  0.00  0.00    -0.200 NA
ATOM     38  C   UNL A   1     -25.026   6.479  26.963  0.00  0.00    +0.139 C 
ATOM     39  O   UNL A   1     -25.143   3.966  28.243  0.00  0.00    -0.269 OA
ENDBRANCH  30  36
BRANCH  33  40
ATOM     40  O   UNL A   1     -28.193  -0.208  24.477  0.00  0.00    -0.459 OA
BRANCH  40  41
ATOM     41  C   UNL A   1     -29.460   0.005  23.866  0.00  0.00    +0.242 C 
BRANCH  41  42
ATOM     42  C   UNL A   1     -30.065  -1.377  23.573  0.00  0.00    +0.229 C 
ATOM     43  O   UNL A   1     -30.729  -1.878  24.721  0.00  0.00    -0.216 OA
ENDBRANCH  41  42
ENDBRANCH  40  41
ENDBRANCH  33  40
ENDBRANCH  28  29
ENDBRANCH  24  28
ENDBRANCH   2  24
TORSDOF 12
