MODEL 928
MODEL 1
REMARK VINA RESULT:    -6.377      0.000      0.000
REMARK INTER + INTRA:          -7.276
REMARK INTER:                  -7.123
REMARK INTRA:                  -0.153
REMARK UNBOUND:                -0.153
REMARK  Name = No_928-gen_results/8p0m/2024-11-27-11-27-31/
REMARK  2 active torsions:
REMARK  status: ('A' for Active; 'I' for Inactive)
REMARK    1  A    between atoms: C_2  and  C_5
REMARK    2  A    between atoms: C_8  and  C_10
REMARK                            x       y       z     vdW  Elec       q    Type
REMARK                         _______ _______ _______ _____ _____    ______ ____
ROOT
ATOM      1  C   UNL A   1     -28.027 -11.910  31.545  0.00  0.00    +0.007 A 
ATOM      2  C   UNL A   1     -28.091 -11.455  32.493  0.00  0.00    +0.080 A 
ATOM      3  C   UNL A   1     -28.847 -11.403  30.513  0.00  0.00    +0.000 A 
ATOM      4  C   UNL A   1     -28.800 -11.857  29.099  0.00  0.00    +0.000 A 
ATOM      5  C   UNL A   1     -29.080 -10.279  32.764  0.00  0.00    +0.007 A 
ATOM      6  C   UNL A   1     -29.733 -10.422  30.820  0.00  0.00    +0.003 A 
ATOM      7  C   UNL A   1     -30.654  -9.904  29.646  0.00  0.00    +0.042 A 
ATOM      8  C   UNL A   1     -29.859  -9.820  31.994  0.00  0.00    +0.000 A 
ATOM      9  C   UNL A   1     -30.998 -10.975  28.633  0.00  0.00    +0.003 A 
ATOM     10  C   UNL A   1     -29.859 -11.741  28.183  0.00  0.00    +0.000 A 
ENDROOT
BRANCH   2  11
ATOM     11  C   UNL A   1     -27.189 -11.860  33.678  0.00  0.00    +0.388 C 
ATOM     12  O   UNL A   1     -26.730 -12.976  33.703  0.00  0.00    -0.241 OA
ATOM     13  O   UNL A   1     -26.928 -11.047  34.572  0.00  0.00    -0.241 OA
ENDBRANCH   2  11
BRANCH   7  14
ATOM     14  C   UNL A   1     -31.225  -8.953  29.578  0.00  0.00    +0.234 C 
ATOM     15  O   UNL A   1     -31.458  -8.394  28.417  0.00  0.00    -0.283 OA
ENDBRANCH   7  14
TORSDOF 2
ENDMDL
ENDMDL
