REMARK  Name = outputs/IAG933/test6/raw/output_9297_IAG933_linker_design_.xyz
REMARK  13 active torsions:
REMARK  status: ('A' for Active; 'I' for Inactive)
REMARK    1  A    between atoms: C_1  and  C_2
REMARK    2  A    between atoms: C_1  and  C_8
REMARK    3  A    between atoms: C_1  and  C_30
REMARK    4  A    between atoms: C_13  and  C_44
REMARK    5  A    between atoms: C_14  and  C_15
REMARK    6  A    between atoms: C_21  and  O_22
REMARK    7  A    between atoms: O_22  and  C_23
REMARK    8  A    between atoms: C_23  and  C_24
REMARK    9  A    between atoms: C_28  and  C_39
REMARK   10  A    between atoms: C_30  and  N_34
REMARK   11  A    between atoms: C_30  and  C_45
REMARK   12  A    between atoms: C_31  and  C_39
REMARK   13  A    between atoms: C_39  and  N_40
REMARK                            x       y       z     vdW  Elec       q    Type
REMARK                         _______ _______ _______ _____ _____    ______ ____
ROOT
ATOM      1  C   UNL A   1     -25.530  -0.038  29.154  0.00  0.00    +0.140 C 
ENDROOT
BRANCH   1   8
ATOM      2  C   UNL A   1     -22.546   1.532  27.668  0.00  0.00    +0.239 C 
ATOM      3  C   UNL A   1     -23.437   1.874  26.774  0.00  0.00    +0.184 C 
ATOM      4  F   UNL A   1     -21.239   1.898  27.192  0.00  0.00    -0.184 F 
ATOM      5  N   UNL A   1     -23.175   0.740  28.769  0.00  0.00    -0.186 NA
ATOM      6  F   UNL A   1     -23.188   2.350  25.631  0.00  0.00    -0.200 F 
ATOM      7  C   UNL A   1     -24.810   1.288  27.301  0.00  0.00    +0.046 C 
ATOM      8  C   UNL A   1     -24.560   0.633  28.410  0.00  0.00    +0.073 C 
BRANCH   7   9
ATOM      9  C   UNL A   1     -25.688   1.614  26.461  0.00  0.00    +0.041 C 
ATOM     10  C   UNL A   1     -26.250   2.920  26.395  0.00  0.00    +0.077 C 
ATOM     11  C   UNL A   1     -27.438   3.091  25.645  0.00  0.00    +0.107 C 
ATOM     12  N   UNL A   1     -28.075   2.089  25.003  0.00  0.00    -0.208 NA
ATOM     13  C   UNL A   1     -27.543   0.849  25.079  0.00  0.00    +0.253 C 
ATOM     14  C   UNL A   1     -26.354   0.576  25.777  0.00  0.00    +0.193 C 
ATOM     15  F   UNL A   1     -25.860  -0.681  25.795  0.00  0.00    -0.199 F 
BRANCH  10  16
ATOM     16  C   UNL A   1     -25.642   4.093  27.123  0.00  0.00    +0.266 C 
ATOM     17  N   UNL A   1     -25.614   5.252  26.449  0.00  0.00    -0.200 NA
ATOM     18  C   UNL A   1     -25.026   6.479  26.963  0.00  0.00    +0.139 C 
ATOM     19  O   UNL A   1     -25.143   3.966  28.243  0.00  0.00    -0.268 OA
ENDBRANCH  10  16
BRANCH  13  20
ATOM     20  O   UNL A   1     -28.193  -0.208  24.477  0.00  0.00    -0.456 OA
BRANCH  20  21
ATOM     21  C   UNL A   1     -29.460   0.005  23.866  0.00  0.00    +0.243 C 
BRANCH  21  22
ATOM     22  C   UNL A   1     -30.065  -1.377  23.573  0.00  0.00    +0.229 C 
ATOM     23  O   UNL A   1     -30.729  -1.878  24.721  0.00  0.00    -0.216 OA
ENDBRANCH  21  22
ENDBRANCH  20  21
ENDBRANCH  13  20
ENDBRANCH   7   9
ENDBRANCH   1   8
BRANCH   1  25
ATOM     24  O   UNL A   1     -29.216  -0.106  27.716  0.00  0.00    -0.249 OA
ATOM     25  N   UNL A   1     -27.142   0.491  29.042  0.00  0.00    -0.183 NA
ATOM     26  N   UNL A   1     -28.698  -1.093  29.568  0.00  0.00    -0.166 NA
ATOM     27  C   UNL A   1     -28.508  -0.247  28.721  0.00  0.00    +0.341 C 
BRANCH  26  28
ATOM     28  C   UNL A   1     -29.846  -1.080  30.477  0.00  0.00    +0.240 C 
BRANCH  28  29
ATOM     29  C   UNL A   1     -29.661  -0.315  31.778  0.00  0.00    +0.293 C 
ATOM     30  O   UNL A   1     -29.183  -0.841  32.765  0.00  0.00    -0.269 OA
ATOM     31  N   UNL A   1     -29.981   0.941  31.774  0.00  0.00    -0.085 NA
ENDBRANCH  28  29
BRANCH  28  32
ATOM     32  C   UNL A   1     -29.773  -2.550  30.643  0.00  0.00    -0.047 C 
ATOM     33  C   UNL A   1     -29.687  -3.746  31.051  0.00  0.00    -0.012 C 
ENDBRANCH  28  32
ENDBRANCH  26  28
ENDBRANCH   1  25
BRANCH   1  34
ATOM     34  C   UNL A   1     -24.855  -1.012  30.143  0.00  0.00    +0.064 C 
BRANCH  34  35
ATOM     35  C   UNL A   1     -24.973  -2.505  29.788  0.00  0.00    -0.019 C 
ATOM     36  C   UNL A   1     -23.906  -3.173  29.146  0.00  0.00    -0.004 C 
ATOM     37  C   UNL A   1     -23.989  -4.549  28.853  0.00  0.00    -0.000 C 
ATOM     38  C   UNL A   1     -25.137  -5.280  29.205  0.00  0.00    -0.000 C 
ATOM     39  C   UNL A   1     -26.232  -4.611  29.784  0.00  0.00    -0.000 C 
ATOM     40  C   UNL A   1     -26.155  -3.232  30.065  0.00  0.00    -0.004 C 
ENDBRANCH  34  35
BRANCH  34  41
ATOM     41  C   UNL A   1     -25.387  -0.679  31.571  0.00  0.00    +0.079 C 
ATOM     42  C   UNL A   1     -25.189   0.773  32.028  0.00  0.00    +0.019 C 
ATOM     43  C   UNL A   1     -25.336   0.684  33.544  0.00  0.00    +0.020 C 
ATOM     44  C   UNL A   1     -24.829  -0.715  33.905  0.00  0.00    +0.089 C 
ATOM     45  N   UNL A   1     -24.758  -1.481  32.646  0.00  0.00    -0.219 NA
ENDBRANCH  34  41
ENDBRANCH   1  34
TORSDOF 13
