REMARK  Name = outputs/IAG933/test6/raw/output_9298_IAG933_linker_design_.xyz
REMARK  9 active torsions:
REMARK  status: ('A' for Active; 'I' for Inactive)
REMARK    1  A    between atoms: C_1  and  C_2
REMARK    2  A    between atoms: C_1  and  C_8
REMARK    3  A    between atoms: C_1  and  C_33
REMARK    4  A    between atoms: C_13  and  N_35
REMARK    5  A    between atoms: C_14  and  C_15
REMARK    6  A    between atoms: C_21  and  O_22
REMARK    7  A    between atoms: O_22  and  C_23
REMARK    8  A    between atoms: C_23  and  C_24
REMARK    9  A    between atoms: C_33  and  C_36
REMARK                            x       y       z     vdW  Elec       q    Type
REMARK                         _______ _______ _______ _____ _____    ______ ____
ROOT
ATOM      1  C   UNL A   1     -21.825   0.911  28.069  0.00  0.00    +0.156 C 
ATOM      2  O   UNL A   1     -21.347   1.957  25.873  0.00  0.00    -0.432 OA
ATOM      3  F   UNL A   1     -22.459  -0.377  29.795  0.00  0.00    -0.201 F 
ATOM      4  C   UNL A   1     -22.145   2.282  24.811  0.00  0.00    +0.430 C 
ATOM      5  C   UNL A   1     -24.257   0.501  28.331  0.00  0.00    +0.090 C 
ATOM      6  C   UNL A   1     -25.241  -0.143  29.064  0.00  0.00    +0.079 C 
ATOM      7  C   UNL A   1     -22.199   1.485  26.819  0.00  0.00    +0.211 C 
ATOM      8  N   UNL A   1     -24.506   1.280  27.168  0.00  0.00    -0.230 N 
ATOM      9  O   UNL A   1     -23.552   2.050  25.236  0.00  0.00    -0.421 OA
ATOM     10  C   UNL A   1     -23.475   1.582  26.466  0.00  0.00    +0.241 C 
ATOM     11  N   UNL A   1     -20.448   0.924  28.428  0.00  0.00    -0.122 NA
ATOM     12  C   UNL A   1     -22.873   0.352  28.758  0.00  0.00    +0.174 C 
ENDROOT
BRANCH   8  13
ATOM     13  C   UNL A   1     -25.688   1.614  26.461  0.00  0.00    +0.096 C 
ATOM     14  C   UNL A   1     -26.250   2.920  26.395  0.00  0.00    +0.091 C 
ATOM     15  C   UNL A   1     -27.438   3.091  25.645  0.00  0.00    +0.108 C 
ATOM     16  N   UNL A   1     -28.075   2.089  25.003  0.00  0.00    -0.208 NA
ATOM     17  C   UNL A   1     -27.543   0.849  25.079  0.00  0.00    +0.255 C 
ATOM     18  C   UNL A   1     -26.354   0.576  25.777  0.00  0.00    +0.207 C 
ATOM     19  F   UNL A   1     -25.860  -0.681  25.795  0.00  0.00    -0.198 F 
BRANCH  14  20
ATOM     20  C   UNL A   1     -25.642   4.093  27.123  0.00  0.00    +0.268 C 
ATOM     21  N   UNL A   1     -25.614   5.252  26.449  0.00  0.00    -0.200 NA
ATOM     22  C   UNL A   1     -25.026   6.479  26.963  0.00  0.00    +0.139 C 
ATOM     23  O   UNL A   1     -25.143   3.966  28.243  0.00  0.00    -0.268 OA
ENDBRANCH  14  20
BRANCH  17  24
ATOM     24  O   UNL A   1     -28.193  -0.208  24.477  0.00  0.00    -0.456 OA
BRANCH  24  25
ATOM     25  C   UNL A   1     -29.460   0.005  23.866  0.00  0.00    +0.243 C 
BRANCH  25  26
ATOM     26  C   UNL A   1     -30.065  -1.377  23.573  0.00  0.00    +0.229 C 
ATOM     27  O   UNL A   1     -30.729  -1.878  24.721  0.00  0.00    -0.216 OA
ENDBRANCH  25  26
ENDBRANCH  24  25
ENDBRANCH  17  24
ENDBRANCH   8  13
BRANCH   6  28
ATOM     28  C   UNL A   1     -26.642   0.151  28.919  0.00  0.00    +0.386 C 
ATOM     29  O   UNL A   1     -27.476  -0.672  28.398  0.00  0.00    -0.241 OA
ATOM     30  O   UNL A   1     -26.941   1.267  29.368  0.00  0.00    -0.241 OA
ENDBRANCH   6  28
BRANCH   6  31
ATOM     31  C   UNL A   1     -24.855  -1.012  30.143  0.00  0.00    +0.068 C 
BRANCH  31  32
ATOM     32  C   UNL A   1     -24.973  -2.505  29.788  0.00  0.00    -0.017 C 
ATOM     33  C   UNL A   1     -23.906  -3.173  29.146  0.00  0.00    -0.004 C 
ATOM     34  C   UNL A   1     -23.989  -4.549  28.853  0.00  0.00    -0.000 C 
ATOM     35  C   UNL A   1     -25.137  -5.280  29.205  0.00  0.00    -0.000 C 
ATOM     36  C   UNL A   1     -26.232  -4.611  29.784  0.00  0.00    -0.000 C 
ATOM     37  C   UNL A   1     -26.155  -3.232  30.065  0.00  0.00    -0.004 C 
ENDBRANCH  31  32
BRANCH  31  38
ATOM     38  C   UNL A   1     -25.387  -0.679  31.571  0.00  0.00    +0.081 C 
ATOM     39  C   UNL A   1     -25.189   0.773  32.028  0.00  0.00    +0.019 C 
ATOM     40  C   UNL A   1     -25.336   0.684  33.544  0.00  0.00    +0.020 C 
ATOM     41  C   UNL A   1     -24.829  -0.715  33.905  0.00  0.00    +0.089 C 
ATOM     42  N   UNL A   1     -24.758  -1.481  32.646  0.00  0.00    -0.219 NA
ENDBRANCH  31  38
ENDBRANCH   6  31
TORSDOF 9
