MODEL 929
MODEL 1
REMARK VINA RESULT:    -6.112      0.000      0.000
REMARK INTER + INTRA:          -6.539
REMARK INTER:                  -6.470
REMARK INTRA:                  -0.069
REMARK UNBOUND:                -0.069
REMARK  Name = No_929-gen_results/8p0m/2024-11-27-11-27-31/
REMARK  1 active torsions:
REMARK  status: ('A' for Active; 'I' for Inactive)
REMARK    1  A    between atoms: C_5  and  C_6
REMARK                            x       y       z     vdW  Elec       q    Type
REMARK                         _______ _______ _______ _____ _____    ______ ____
ROOT
ATOM      1  C   UNL A   1     -30.826  -9.724  29.459  0.00  0.00    +0.099 A 
ATOM      2  C   UNL A   1     -30.120 -10.265  30.279  0.00  0.00    +0.019 A 
ATOM      3  C   UNL A   1     -30.010  -9.845  31.590  0.00  0.00    +0.002 A 
ATOM      4  C   UNL A   1     -29.122 -10.411  32.588  0.00  0.00    +0.008 A 
ATOM      5  C   UNL A   1     -28.292 -11.494  32.224  0.00  0.00    +0.098 A 
ATOM      6  C   UNL A   1     -29.214 -11.395  29.895  0.00  0.00    +0.003 A 
ATOM      7  C   UNL A   1     -28.313 -11.997  30.832  0.00  0.00    +0.008 A 
ATOM      8  N   UNL A   1     -30.818 -10.280  28.197  0.00  0.00    -0.242 NA
ATOM      9  C   UNL A   1     -29.961 -11.182  27.701  0.00  0.00    +0.099 A 
ATOM     10  C   UNL A   1     -29.114 -11.789  28.591  0.00  0.00    +0.021 A 
ENDROOT
BRANCH   5  11
ATOM     11  C   UNL A   1     -27.358 -12.132  33.073  0.00  0.00    +0.477 C 
ATOM     12  N   UNL A   1     -26.418 -12.823  32.604  0.00  0.00    +0.205 NA
ATOM     13  N   UNL A   1     -27.502 -12.199  34.434  0.00  0.00    +0.205 NA
ENDBRANCH   5  11
TORSDOF 1
ENDMDL
ENDMDL
