MODEL 92
MODEL 1
REMARK VINA RESULT:    -6.026      0.000      0.000
REMARK INTER + INTRA:          -6.026
REMARK INTER:                  -6.026
REMARK INTRA:                   0.000
REMARK UNBOUND:                 0.000
REMARK  Name = No_92-gen_results/8p0m/2024-11-27-11-27-31/
REMARK  0 active torsions:
REMARK  status: ('A' for Active; 'I' for Inactive)
REMARK                            x       y       z     vdW  Elec       q    Type
REMARK                         _______ _______ _______ _____ _____    ______ ____
ROOT
ATOM      1  O   UNL A   1     -27.520  -2.042  29.878  0.00  0.00    -0.296 OA
ATOM      2  C   UNL A   1     -26.415  -1.852  29.357  0.00  0.00    +0.155 C 
ATOM      3  C   UNL A   1     -25.860  -1.038  28.786  0.00  0.00    +0.092 C 
ATOM      4  C   UNL A   1     -24.396  -0.898  28.433  0.00  0.00    -0.001 A 
ATOM      5  C   UNL A   1     -23.630  -1.979  28.771  0.00  0.00    -0.024 A 
ATOM      6  C   UNL A   1     -24.202  -3.007  29.466  0.00  0.00    +0.034 C 
ATOM      7  C   UNL A   1     -25.438  -3.069  29.751  0.00  0.00    +0.070 C 
ATOM      8  C   UNL A   1     -23.812   0.207  27.682  0.00  0.00    +0.081 A 
ATOM      9  C   UNL A   1     -22.624   0.786  28.170  0.00  0.00    +0.037 A 
ATOM     10  C   UNL A   1     -21.940   1.756  27.390  0.00  0.00    +0.102 A 
ATOM     11  N   UNL A   1     -22.712   2.165  26.352  0.00  0.00    -0.222 NA
ATOM     12  N   UNL A   1     -24.177   0.841  26.563  0.00  0.00    -0.224 NA
ATOM     13  C   UNL A   1     -23.768   1.684  25.961  0.00  0.00    +0.199 A 
ATOM     14  C   UNL A   1     -21.957   0.075  29.307  0.00  0.00    +0.003 A 
ATOM     15  C   UNL A   1     -22.391  -1.172  29.696  0.00  0.00    -0.004 A 
ENDROOT
TORSDOF 0
ENDMDL
ENDMDL
