REMARK  Name = outputs/IAG933/test6/raw/output_9300_IAG933_linker_design_.xyz
REMARK  9 active torsions:
REMARK  status: ('A' for Active; 'I' for Inactive)
REMARK    1  A    between atoms: C_1  and  C_2
REMARK    2  A    between atoms: C_1  and  C_8
REMARK    3  A    between atoms: C_1  and  N_30
REMARK    4  A    between atoms: C_13  and  N_31
REMARK    5  A    between atoms: C_14  and  C_15
REMARK    6  A    between atoms: C_21  and  O_22
REMARK    7  A    between atoms: O_22  and  C_23
REMARK    8  A    between atoms: C_23  and  C_24
REMARK    9  A    between atoms: C_34  and  O_40
REMARK                            x       y       z     vdW  Elec       q    Type
REMARK                         _______ _______ _______ _____ _____    ______ ____
ROOT
ATOM      1  C   UNL A   1     -22.144   0.591  29.316  0.00  0.00    +0.077 C 
ATOM      2  O   UNL A   1     -23.823   1.902  30.271  0.00  0.00    -0.203 OA
ATOM      3  N   UNL A   1     -24.668   0.020  29.252  0.00  0.00    -0.237 N 
ATOM      4  N   UNL A   1     -25.010   0.975  27.497  0.00  0.00    -0.253 N 
ATOM      5  C   UNL A   1     -23.604   0.928  29.128  0.00  0.00    +0.213 C 
ATOM      6  C   UNL A   1     -25.704   0.160  28.347  0.00  0.00    +0.309 C 
ATOM      7  C   UNL A   1     -22.825   1.832  26.810  0.00  0.00    +0.159 C 
ATOM      8  O   UNL A   1     -26.840  -0.350  28.168  0.00  0.00    -0.252 OA
ATOM      9  C   UNL A   1     -21.182   1.024  28.288  0.00  0.00    -0.024 C 
ATOM     10  C   UNL A   1     -21.479   1.641  27.113  0.00  0.00    +0.000 C 
ATOM     11  C   UNL A   1     -23.824   1.336  27.659  0.00  0.00    +0.154 C 
ENDROOT
BRANCH   4  12
ATOM     12  C   UNL A   1     -25.688   1.614  26.461  0.00  0.00    +0.147 C 
ATOM     13  C   UNL A   1     -26.250   2.920  26.395  0.00  0.00    +0.073 C 
ATOM     14  C   UNL A   1     -27.438   3.091  25.645  0.00  0.00    +0.104 C 
ATOM     15  N   UNL A   1     -28.075   2.089  25.003  0.00  0.00    -0.212 NA
ATOM     16  C   UNL A   1     -27.543   0.849  25.079  0.00  0.00    +0.236 C 
ATOM     17  C   UNL A   1     -26.354   0.576  25.777  0.00  0.00    +0.258 C 
ATOM     18  F   UNL A   1     -25.860  -0.681  25.795  0.00  0.00    -0.225 F 
BRANCH  13  19
ATOM     19  C   UNL A   1     -25.642   4.093  27.123  0.00  0.00    +0.264 C 
ATOM     20  N   UNL A   1     -25.614   5.252  26.449  0.00  0.00    -0.200 NA
ATOM     21  C   UNL A   1     -25.026   6.479  26.963  0.00  0.00    +0.139 C 
ATOM     22  O   UNL A   1     -25.143   3.966  28.243  0.00  0.00    -0.269 OA
ENDBRANCH  13  19
BRANCH  16  23
ATOM     23  O   UNL A   1     -28.193  -0.208  24.477  0.00  0.00    -0.459 OA
BRANCH  23  24
ATOM     24  C   UNL A   1     -29.460   0.005  23.866  0.00  0.00    +0.242 C 
BRANCH  24  25
ATOM     25  C   UNL A   1     -30.065  -1.377  23.573  0.00  0.00    +0.229 C 
ATOM     26  O   UNL A   1     -30.729  -1.878  24.721  0.00  0.00    -0.216 OA
ENDBRANCH  24  25
ENDBRANCH  23  24
ENDBRANCH  16  23
ENDBRANCH   4  12
BRANCH   7  28
ATOM     27  C   UNL A   1     -22.256   2.427  24.614  0.00  0.00    +0.174 C 
ATOM     28  O   UNL A   1     -23.152   2.609  25.723  0.00  0.00    -0.347 OA
ENDBRANCH   7  28
BRANCH   3  29
ATOM     29  C   UNL A   1     -24.855  -1.012  30.143  0.00  0.00    +0.117 C 
BRANCH  29  30
ATOM     30  C   UNL A   1     -24.973  -2.505  29.788  0.00  0.00    -0.003 C 
ATOM     31  C   UNL A   1     -23.906  -3.173  29.146  0.00  0.00    -0.003 C 
ATOM     32  C   UNL A   1     -23.989  -4.549  28.853  0.00  0.00    -0.000 C 
ATOM     33  C   UNL A   1     -25.137  -5.280  29.205  0.00  0.00    -0.000 C 
ATOM     34  C   UNL A   1     -26.232  -4.611  29.784  0.00  0.00    -0.000 C 
ATOM     35  C   UNL A   1     -26.155  -3.232  30.065  0.00  0.00    -0.003 C 
ENDBRANCH  29  30
BRANCH  29  36
ATOM     36  C   UNL A   1     -25.387  -0.679  31.571  0.00  0.00    +0.095 C 
ATOM     37  C   UNL A   1     -25.189   0.773  32.028  0.00  0.00    +0.021 C 
ATOM     38  C   UNL A   1     -25.336   0.684  33.544  0.00  0.00    +0.020 C 
ATOM     39  C   UNL A   1     -24.829  -0.715  33.905  0.00  0.00    +0.089 C 
ATOM     40  N   UNL A   1     -24.758  -1.481  32.646  0.00  0.00    -0.217 NA
ENDBRANCH  29  36
ENDBRANCH   3  29
TORSDOF 9
