REMARK  Name = outputs/IAG933/test6/raw/output_9301_IAG933_linker_design_.xyz
REMARK  13 active torsions:
REMARK  status: ('A' for Active; 'I' for Inactive)
REMARK    1  A    between atoms: C_1  and  C_2
REMARK    2  A    between atoms: C_13  and  O_33
REMARK    3  A    between atoms: C_14  and  C_15
REMARK    4  A    between atoms: C_21  and  O_22
REMARK    5  A    between atoms: O_22  and  C_23
REMARK    6  A    between atoms: C_23  and  C_24
REMARK    7  A    between atoms: C_28  and  N_34
REMARK    8  A    between atoms: C_30  and  O_33
REMARK    9  A    between atoms: C_30  and  C_37
REMARK   10  A    between atoms: N_31  and  N_34
REMARK   11  A    between atoms: N_31  and  C_42
REMARK   12  A    between atoms: C_36  and  C_37
REMARK   13  A    between atoms: C_38  and  C_42
REMARK                            x       y       z     vdW  Elec       q    Type
REMARK                         _______ _______ _______ _____ _____    ______ ____
ROOT
ATOM      1  C   UNL A   1     -24.855  -1.012  30.143  0.00  0.00    +0.096 C 
ATOM      2  C   UNL A   1     -25.387  -0.679  31.571  0.00  0.00    +0.092 C 
ATOM      3  C   UNL A   1     -25.189   0.773  32.028  0.00  0.00    +0.022 C 
ATOM      4  C   UNL A   1     -25.336   0.684  33.544  0.00  0.00    +0.020 C 
ATOM      5  C   UNL A   1     -24.829  -0.715  33.905  0.00  0.00    +0.089 C 
ATOM      6  N   UNL A   1     -24.758  -1.481  32.646  0.00  0.00    -0.218 NA
ATOM      7  C   UNL A   1     -23.497   1.097  30.167  0.00  0.00    +0.076 C 
ATOM      8  C   UNL A   1     -22.689   0.697  29.043  0.00  0.00    +0.107 C 
ATOM      9  C   UNL A   1     -24.374   1.597  31.186  0.00  0.00    +0.037 C 
ATOM     10  N   UNL A   1     -23.807  -0.059  29.748  0.00  0.00    -0.267 NA
ENDROOT
BRANCH   1  11
ATOM     11  C   UNL A   1     -24.973  -2.505  29.788  0.00  0.00    -0.006 C 
ATOM     12  C   UNL A   1     -23.906  -3.173  29.146  0.00  0.00    -0.003 C 
ATOM     13  C   UNL A   1     -23.989  -4.549  28.853  0.00  0.00    -0.000 C 
ATOM     14  C   UNL A   1     -25.137  -5.280  29.205  0.00  0.00    -0.000 C 
ATOM     15  C   UNL A   1     -26.232  -4.611  29.784  0.00  0.00    -0.000 C 
ATOM     16  C   UNL A   1     -26.155  -3.232  30.065  0.00  0.00    -0.003 C 
ENDBRANCH   1  11
BRANCH   8  17
ATOM     17  C   UNL A   1     -22.158   1.550  27.757  0.00  0.00    +0.211 C 
ATOM     18  O   UNL A   1     -21.098   0.885  27.154  0.00  0.00    -0.218 OA
BRANCH  17  19
ATOM     19  C   UNL A   1     -23.126   1.843  26.620  0.00  0.00    +0.240 C 
BRANCH  19  20
ATOM     20  O   UNL A   1     -24.439   1.316  27.040  0.00  0.00    -0.470 OA
BRANCH  20  21
ATOM     21  C   UNL A   1     -25.688   1.614  26.461  0.00  0.00    +0.176 C 
ATOM     22  C   UNL A   1     -26.250   2.920  26.395  0.00  0.00    +0.111 C 
ATOM     23  C   UNL A   1     -27.438   3.091  25.645  0.00  0.00    +0.110 C 
ATOM     24  N   UNL A   1     -28.075   2.089  25.003  0.00  0.00    -0.208 NA
ATOM     25  C   UNL A   1     -27.543   0.849  25.079  0.00  0.00    +0.256 C 
ATOM     26  C   UNL A   1     -26.354   0.576  25.777  0.00  0.00    +0.227 C 
ATOM     27  F   UNL A   1     -25.860  -0.681  25.795  0.00  0.00    -0.196 F 
BRANCH  22  28
ATOM     28  C   UNL A   1     -25.642   4.093  27.123  0.00  0.00    +0.269 C 
ATOM     29  N   UNL A   1     -25.614   5.252  26.449  0.00  0.00    -0.200 NA
ATOM     30  C   UNL A   1     -25.026   6.479  26.963  0.00  0.00    +0.139 C 
ATOM     31  O   UNL A   1     -25.143   3.966  28.243  0.00  0.00    -0.268 OA
ENDBRANCH  22  28
BRANCH  25  32
ATOM     32  O   UNL A   1     -28.193  -0.208  24.477  0.00  0.00    -0.456 OA
BRANCH  32  33
ATOM     33  C   UNL A   1     -29.460   0.005  23.866  0.00  0.00    +0.243 C 
BRANCH  33  34
ATOM     34  C   UNL A   1     -30.065  -1.377  23.573  0.00  0.00    +0.229 C 
ATOM     35  O   UNL A   1     -30.729  -1.878  24.721  0.00  0.00    -0.216 OA
ENDBRANCH  33  34
ENDBRANCH  32  33
ENDBRANCH  25  32
ENDBRANCH  20  21
ENDBRANCH  19  20
ENDBRANCH  17  19
ENDBRANCH   8  17
BRANCH   9  36
ATOM     36  C   UNL A   1     -24.458   3.018  31.404  0.00  0.00    +0.111 C 
BRANCH  36  37
ATOM     37  N   UNL A   1     -25.396   3.652  31.857  0.00  0.00    -0.125 NA
BRANCH  37  38
ATOM     38  N   UNL A   1     -26.167   4.135  30.752  0.00  0.00    -0.053 NA
BRANCH  38  39
ATOM     39  C   UNL A   1     -26.137   5.476  31.010  0.00  0.00    +0.427 C 
ATOM     40  F   UNL A   1     -24.928   5.983  30.733  0.00  0.00    -0.166 F 
ATOM     41  N   UNL A   1     -27.085   6.081  30.089  0.00  0.00    -0.048 NA
ATOM     42  F   UNL A   1     -26.498   5.817  32.181  0.00  0.00    -0.166 F 
ENDBRANCH  38  39
ENDBRANCH  37  38
ENDBRANCH  36  37
ENDBRANCH   9  36
TORSDOF 13
