REMARK  Name = outputs/IAG933/test6/raw/output_9304_IAG933_linker_design_.xyz
REMARK  11 active torsions:
REMARK  status: ('A' for Active; 'I' for Inactive)
REMARK    1  A    between atoms: C_1  and  C_2
REMARK    2  A    between atoms: C_1  and  C_8
REMARK    3  A    between atoms: C_1  and  N_45
REMARK    4  A    between atoms: C_13  and  C_41
REMARK    5  A    between atoms: C_14  and  C_15
REMARK    6  A    between atoms: C_21  and  O_22
REMARK    7  A    between atoms: O_22  and  C_23
REMARK    8  A    between atoms: C_23  and  C_24
REMARK    9  A    between atoms: N_35  and  C_36
REMARK   10  A    between atoms: C_36  and  C_46
REMARK   11  A    between atoms: C_44  and  C_46
REMARK                            x       y       z     vdW  Elec       q    Type
REMARK                         _______ _______ _______ _____ _____    ______ ____
ROOT
ATOM      1  C   UNL A   1     -21.184   0.652  28.520  0.00  0.00    +0.004 C 
ATOM      2  C   UNL A   1     -21.334   1.480  27.388  0.00  0.00    +0.030 C 
ATOM      3  C   UNL A   1     -22.634   1.689  26.894  0.00  0.00    +0.141 C 
ATOM      4  F   UNL A   1     -22.791   2.320  25.678  0.00  0.00    -0.204 F 
ATOM      5  C   UNL A   1     -23.747   0.424  28.693  0.00  0.00    +0.062 A 
ATOM      6  C   UNL A   1     -22.386   0.042  29.101  0.00  0.00    +0.017 C 
ATOM      7  C   UNL A   1     -25.059   1.270  27.556  0.00  0.00    +0.007 A 
ATOM      8  C   UNL A   1     -23.794   1.187  27.606  0.00  0.00    +0.041 A 
ATOM      9  C   UNL A   1     -25.916   1.183  28.816  0.00  0.00    +0.093 A 
ATOM     10  N   UNL A   1     -25.145   0.070  29.202  0.00  0.00    -0.322 N 
ENDROOT
BRANCH   7  11
ATOM     11  C   UNL A   1     -25.688   1.614  26.461  0.00  0.00    +0.094 C 
ATOM     12  C   UNL A   1     -26.250   2.920  26.395  0.00  0.00    +0.059 C 
ATOM     13  C   UNL A   1     -27.438   3.091  25.645  0.00  0.00    +0.102 C 
ATOM     14  N   UNL A   1     -28.075   2.089  25.003  0.00  0.00    -0.212 NA
ATOM     15  C   UNL A   1     -27.543   0.849  25.079  0.00  0.00    +0.234 C 
ATOM     16  C   UNL A   1     -26.354   0.576  25.777  0.00  0.00    +0.244 C 
ATOM     17  F   UNL A   1     -25.860  -0.681  25.795  0.00  0.00    -0.227 F 
BRANCH  12  18
ATOM     18  C   UNL A   1     -25.642   4.093  27.123  0.00  0.00    +0.263 C 
ATOM     19  N   UNL A   1     -25.614   5.252  26.449  0.00  0.00    -0.200 NA
ATOM     20  C   UNL A   1     -25.026   6.479  26.963  0.00  0.00    +0.139 C 
ATOM     21  O   UNL A   1     -25.143   3.966  28.243  0.00  0.00    -0.269 OA
ENDBRANCH  12  18
BRANCH  15  22
ATOM     22  O   UNL A   1     -28.193  -0.208  24.477  0.00  0.00    -0.459 OA
BRANCH  22  23
ATOM     23  C   UNL A   1     -29.460   0.005  23.866  0.00  0.00    +0.242 C 
BRANCH  23  24
ATOM     24  C   UNL A   1     -30.065  -1.377  23.573  0.00  0.00    +0.229 C 
ATOM     25  O   UNL A   1     -30.729  -1.878  24.721  0.00  0.00    -0.216 OA
ENDBRANCH  23  24
ENDBRANCH  22  23
ENDBRANCH  15  22
ENDBRANCH   7  11
BRANCH   9  27
ATOM     26  O   UNL A   1     -28.150   0.396  29.323  0.00  0.00    -0.288 OA
ATOM     27  C   UNL A   1     -27.380   1.343  29.465  0.00  0.00    +0.204 C 
BRANCH  27  28
ATOM     28  C   UNL A   1     -27.925   2.820  30.202  0.00  0.00    +0.144 C 
BRANCH  28  33
ATOM     29  C   UNL A   1     -30.005   3.717  28.999  0.00  0.00    +0.105 C 
ATOM     30  C   UNL A   1     -29.078   6.269  29.685  0.00  0.00    +0.160 C 
ATOM     31  O   UNL A   1     -28.459   5.605  28.595  0.00  0.00    -0.351 OA
ATOM     32  C   UNL A   1     -29.092   4.491  28.020  0.00  0.00    +0.160 C 
ATOM     33  N   UNL A   1     -29.302   3.684  30.329  0.00  0.00    -0.262 NA
ATOM     34  C   UNL A   1     -29.204   5.158  30.815  0.00  0.00    +0.105 C 
ENDBRANCH  28  33
ENDBRANCH  27  28
ENDBRANCH   9  27
BRANCH  10  35
ATOM     35  C   UNL A   1     -24.855  -1.012  30.143  0.00  0.00    +0.124 C 
BRANCH  35  36
ATOM     36  C   UNL A   1     -24.973  -2.505  29.788  0.00  0.00    -0.000 C 
ATOM     37  C   UNL A   1     -23.906  -3.173  29.146  0.00  0.00    -0.002 C 
ATOM     38  C   UNL A   1     -23.989  -4.549  28.853  0.00  0.00    -0.000 C 
ATOM     39  C   UNL A   1     -25.137  -5.280  29.205  0.00  0.00    -0.000 C 
ATOM     40  C   UNL A   1     -26.232  -4.611  29.784  0.00  0.00    -0.000 C 
ATOM     41  C   UNL A   1     -26.155  -3.232  30.065  0.00  0.00    -0.002 C 
ENDBRANCH  35  36
BRANCH  35  42
ATOM     42  C   UNL A   1     -25.387  -0.679  31.571  0.00  0.00    +0.098 C 
ATOM     43  C   UNL A   1     -25.189   0.773  32.028  0.00  0.00    +0.021 C 
ATOM     44  C   UNL A   1     -25.336   0.684  33.544  0.00  0.00    +0.020 C 
ATOM     45  C   UNL A   1     -24.829  -0.715  33.905  0.00  0.00    +0.089 C 
ATOM     46  N   UNL A   1     -24.758  -1.481  32.646  0.00  0.00    -0.217 NA
ENDBRANCH  35  42
ENDBRANCH  10  35
TORSDOF 11
