MODEL 930
MODEL 1
REMARK VINA RESULT:    -5.055      0.000      0.000
REMARK INTER + INTRA:          -5.783
REMARK INTER:                  -5.646
REMARK INTRA:                  -0.137
REMARK UNBOUND:                -0.137
REMARK  Name = No_930-gen_results/8p0m/2024-11-27-11-27-31/
REMARK  2 active torsions:
REMARK  status: ('A' for Active; 'I' for Inactive)
REMARK    1  A    between atoms: C_2  and  C_5
REMARK    2  A    between atoms: C_5  and  C_7
REMARK                            x       y       z     vdW  Elec       q    Type
REMARK                         _______ _______ _______ _____ _____    ______ ____
ROOT
ATOM      1  F   UNL A   1     -10.375 -10.399  18.080  0.00  0.00    -0.170 F 
ATOM      2  C   UNL A   1      -9.261 -10.153  18.173  0.00  0.00    +0.398 C 
ATOM      3  F   UNL A   1      -8.811  -9.540  17.313  0.00  0.00    -0.170 F 
ATOM      4  F   UNL A   1      -8.475 -11.295  18.297  0.00  0.00    -0.170 F 
ENDROOT
BRANCH   2   5
ATOM      5  C   UNL A   1      -9.100  -9.425  19.546  0.00  0.00    +0.095 C 
ATOM      6  C   UNL A   1     -10.047  -9.069  20.324  0.00  0.00    +0.009 C 
BRANCH   5   7
ATOM      7  C   UNL A   1      -7.686  -9.204  19.977  0.00  0.00    +0.009 C 
ATOM      8  C   UNL A   1      -7.027  -8.059  19.665  0.00  0.00    +0.000 C 
ENDBRANCH   5   7
ENDBRANCH   2   5
TORSDOF 2
ENDMDL
ENDMDL
