REMARK  Name = outputs/IAG933/test6/raw/output_9313_IAG933_linker_design_.xyz
REMARK  10 active torsions:
REMARK  status: ('A' for Active; 'I' for Inactive)
REMARK    1  A    between atoms: C_1  and  C_2
REMARK    2  A    between atoms: C_1  and  C_8
REMARK    3  A    between atoms: C_1  and  N_38
REMARK    4  A    between atoms: C_13  and  N_37
REMARK    5  A    between atoms: C_14  and  C_15
REMARK    6  A    between atoms: C_21  and  O_22
REMARK    7  A    between atoms: O_22  and  C_23
REMARK    8  A    between atoms: C_23  and  C_24
REMARK    9  A    between atoms: O_28  and  C_39
REMARK   10  A    between atoms: C_31  and  C_42
REMARK                            x       y       z     vdW  Elec       q    Type
REMARK                         _______ _______ _______ _____ _____    ______ ____
ROOT
ATOM      1  O   UNL A   1     -21.661   1.713  26.929  0.00  0.00    -0.412 OA
ATOM      2  C   UNL A   1     -22.348   0.266  28.807  0.00  0.00    +0.156 C 
ATOM      3  C   UNL A   1     -23.688   0.445  28.518  0.00  0.00    +0.088 C 
ATOM      4  F   UNL A   1     -20.285   1.037  28.330  0.00  0.00    -0.182 F 
ATOM      5  C   UNL A   1     -23.874   1.276  27.528  0.00  0.00    +0.140 C 
ATOM      6  N   UNL A   1     -21.967  -0.648  29.696  0.00  0.00    -0.125 NA
ATOM      7  C   UNL A   1     -21.445   0.994  28.028  0.00  0.00    +0.371 C 
ATOM      8  N   UNL A   1     -25.040   1.226  27.412  0.00  0.00    -0.282 N 
ATOM      9  N   UNL A   1     -24.796  -0.049  29.056  0.00  0.00    -0.288 N 
ATOM     10  C   UNL A   1     -22.915   1.903  26.778  0.00  0.00    +0.351 C 
ATOM     11  C   UNL A   1     -25.952   0.396  28.492  0.00  0.00    +0.151 C 
ENDROOT
BRANCH   8  12
ATOM     12  C   UNL A   1     -25.688   1.614  26.461  0.00  0.00    +0.145 C 
ATOM     13  C   UNL A   1     -26.250   2.920  26.395  0.00  0.00    +0.073 C 
ATOM     14  C   UNL A   1     -27.438   3.091  25.645  0.00  0.00    +0.104 C 
ATOM     15  N   UNL A   1     -28.075   2.089  25.003  0.00  0.00    -0.212 NA
ATOM     16  C   UNL A   1     -27.543   0.849  25.079  0.00  0.00    +0.236 C 
ATOM     17  C   UNL A   1     -26.354   0.576  25.777  0.00  0.00    +0.258 C 
ATOM     18  F   UNL A   1     -25.860  -0.681  25.795  0.00  0.00    -0.225 F 
BRANCH  13  19
ATOM     19  C   UNL A   1     -25.642   4.093  27.123  0.00  0.00    +0.264 C 
ATOM     20  N   UNL A   1     -25.614   5.252  26.449  0.00  0.00    -0.200 NA
ATOM     21  C   UNL A   1     -25.026   6.479  26.963  0.00  0.00    +0.139 C 
ATOM     22  O   UNL A   1     -25.143   3.966  28.243  0.00  0.00    -0.269 OA
ENDBRANCH  13  19
BRANCH  16  23
ATOM     23  O   UNL A   1     -28.193  -0.208  24.477  0.00  0.00    -0.459 OA
BRANCH  23  24
ATOM     24  C   UNL A   1     -29.460   0.005  23.866  0.00  0.00    +0.242 C 
BRANCH  24  25
ATOM     25  C   UNL A   1     -30.065  -1.377  23.573  0.00  0.00    +0.229 C 
ATOM     26  O   UNL A   1     -30.729  -1.878  24.721  0.00  0.00    -0.216 OA
ENDBRANCH  24  25
ENDBRANCH  23  24
ENDBRANCH  16  23
ENDBRANCH   8  12
BRANCH  10  27
ATOM     27  O   UNL A   1     -23.370   2.813  25.933  0.00  0.00    -0.252 OA
ATOM     28  F   UNL A   1     -22.710   2.941  24.792  0.00  0.00    +0.017 F 
ENDBRANCH  10  27
BRANCH  11  29
ATOM     29  C   UNL A   1     -27.320  -0.085  28.648  0.00  0.00    +0.041 C 
ATOM     30  C   UNL A   1     -28.592  -0.520  28.780  0.00  0.00    +0.004 C 
ENDBRANCH  11  29
BRANCH   9  31
ATOM     31  C   UNL A   1     -24.855  -1.012  30.143  0.00  0.00    +0.113 C 
BRANCH  31  32
ATOM     32  C   UNL A   1     -24.973  -2.505  29.788  0.00  0.00    -0.003 C 
ATOM     33  C   UNL A   1     -23.906  -3.173  29.146  0.00  0.00    -0.003 C 
ATOM     34  C   UNL A   1     -23.989  -4.549  28.853  0.00  0.00    -0.000 C 
ATOM     35  C   UNL A   1     -25.137  -5.280  29.205  0.00  0.00    -0.000 C 
ATOM     36  C   UNL A   1     -26.232  -4.611  29.784  0.00  0.00    -0.000 C 
ATOM     37  C   UNL A   1     -26.155  -3.232  30.065  0.00  0.00    -0.003 C 
ENDBRANCH  31  32
BRANCH  31  38
ATOM     38  C   UNL A   1     -25.387  -0.679  31.571  0.00  0.00    +0.095 C 
ATOM     39  C   UNL A   1     -25.189   0.773  32.028  0.00  0.00    +0.021 C 
ATOM     40  C   UNL A   1     -25.336   0.684  33.544  0.00  0.00    +0.020 C 
ATOM     41  C   UNL A   1     -24.829  -0.715  33.905  0.00  0.00    +0.089 C 
ATOM     42  N   UNL A   1     -24.758  -1.481  32.646  0.00  0.00    -0.217 NA
ENDBRANCH  31  38
ENDBRANCH   9  31
TORSDOF 10
