REMARK  Name = outputs/IAG933/test6/raw/output_9316_IAG933_linker_design_.xyz
REMARK  9 active torsions:
REMARK  status: ('A' for Active; 'I' for Inactive)
REMARK    1  A    between atoms: C_1  and  C_2
REMARK    2  A    between atoms: C_1  and  C_8
REMARK    3  A    between atoms: C_1  and  C_38
REMARK    4  A    between atoms: C_13  and  C_39
REMARK    5  A    between atoms: C_14  and  C_15
REMARK    6  A    between atoms: C_21  and  O_22
REMARK    7  A    between atoms: O_22  and  C_23
REMARK    8  A    between atoms: C_23  and  C_24
REMARK    9  A    between atoms: C_33  and  C_39
REMARK                            x       y       z     vdW  Elec       q    Type
REMARK                         _______ _______ _______ _____ _____    ______ ____
ROOT
ATOM      1  C   UNL A   1     -21.931   2.011  28.037  0.00  0.00    +0.105 C 
ATOM      2  C   UNL A   1     -20.682  -0.119  28.489  0.00  0.00    +0.180 C 
ATOM      3  C   UNL A   1     -22.941  -0.208  28.737  0.00  0.00    +0.068 C 
ATOM      4  C   UNL A   1     -23.105   1.151  27.272  0.00  0.00    +0.194 C 
ATOM      5  O   UNL A   1     -19.896   0.945  28.325  0.00  0.00    -0.324 OA
ATOM      6  F   UNL A   1     -23.069   1.902  26.106  0.00  0.00    -0.234 F 
ATOM      7  C   UNL A   1     -21.862  -0.479  28.984  0.00  0.00    +0.193 C 
ATOM      8  F   UNL A   1     -20.796   1.594  26.248  0.00  0.00    -0.204 F 
ATOM      9  C   UNL A   1     -20.686   1.536  27.478  0.00  0.00    +0.281 C 
ATOM     10  C   UNL A   1     -24.076  -0.002  29.388  0.00  0.00    +0.123 C 
ATOM     11  C   UNL A   1     -24.700   1.163  27.535  0.00  0.00    +0.162 C 
ATOM     12  F   UNL A   1     -21.618  -0.465  30.380  0.00  0.00    -0.234 F 
ATOM     13  O   UNL A   1     -25.192   0.151  28.149  0.00  0.00    -0.355 OA
ENDROOT
BRANCH  11  14
ATOM     14  C   UNL A   1     -25.688   1.614  26.461  0.00  0.00    +0.100 C 
ATOM     15  C   UNL A   1     -26.250   2.920  26.395  0.00  0.00    +0.057 C 
ATOM     16  C   UNL A   1     -27.438   3.091  25.645  0.00  0.00    +0.102 C 
ATOM     17  N   UNL A   1     -28.075   2.089  25.003  0.00  0.00    -0.212 NA
ATOM     18  C   UNL A   1     -27.543   0.849  25.079  0.00  0.00    +0.234 C 
ATOM     19  C   UNL A   1     -26.354   0.576  25.777  0.00  0.00    +0.242 C 
ATOM     20  F   UNL A   1     -25.860  -0.681  25.795  0.00  0.00    -0.227 F 
BRANCH  15  21
ATOM     21  C   UNL A   1     -25.642   4.093  27.123  0.00  0.00    +0.263 C 
ATOM     22  N   UNL A   1     -25.614   5.252  26.449  0.00  0.00    -0.200 NA
ATOM     23  C   UNL A   1     -25.026   6.479  26.963  0.00  0.00    +0.139 C 
ATOM     24  O   UNL A   1     -25.143   3.966  28.243  0.00  0.00    -0.269 OA
ENDBRANCH  15  21
BRANCH  18  25
ATOM     25  O   UNL A   1     -28.193  -0.208  24.477  0.00  0.00    -0.459 OA
BRANCH  25  26
ATOM     26  C   UNL A   1     -29.460   0.005  23.866  0.00  0.00    +0.242 C 
BRANCH  26  27
ATOM     27  C   UNL A   1     -30.065  -1.377  23.573  0.00  0.00    +0.229 C 
ATOM     28  O   UNL A   1     -30.729  -1.878  24.721  0.00  0.00    -0.216 OA
ENDBRANCH  26  27
ENDBRANCH  25  26
ENDBRANCH  18  25
ENDBRANCH  11  14
BRANCH  11  29
ATOM     29  C   UNL A   1     -25.194   1.885  29.056  0.00  0.00    +0.223 C 
ATOM     30  F   UNL A   1     -24.202   2.132  30.069  0.00  0.00    -0.232 F 
ENDBRANCH  11  29
BRANCH  10  31
ATOM     31  C   UNL A   1     -24.855  -1.012  30.143  0.00  0.00    +0.066 C 
BRANCH  31  32
ATOM     32  C   UNL A   1     -24.973  -2.505  29.788  0.00  0.00    -0.019 C 
ATOM     33  C   UNL A   1     -23.906  -3.173  29.146  0.00  0.00    -0.004 C 
ATOM     34  C   UNL A   1     -23.989  -4.549  28.853  0.00  0.00    -0.000 C 
ATOM     35  C   UNL A   1     -25.137  -5.280  29.205  0.00  0.00    -0.000 C 
ATOM     36  C   UNL A   1     -26.232  -4.611  29.784  0.00  0.00    -0.000 C 
ATOM     37  C   UNL A   1     -26.155  -3.232  30.065  0.00  0.00    -0.004 C 
ENDBRANCH  31  32
BRANCH  31  38
ATOM     38  C   UNL A   1     -25.387  -0.679  31.571  0.00  0.00    +0.079 C 
ATOM     39  C   UNL A   1     -25.189   0.773  32.028  0.00  0.00    +0.019 C 
ATOM     40  C   UNL A   1     -25.336   0.684  33.544  0.00  0.00    +0.020 C 
ATOM     41  C   UNL A   1     -24.829  -0.715  33.905  0.00  0.00    +0.089 C 
ATOM     42  N   UNL A   1     -24.758  -1.481  32.646  0.00  0.00    -0.219 NA
ENDBRANCH  31  38
ENDBRANCH  10  31
TORSDOF 9
