REMARK  Name = outputs/IAG933/test6/raw/output_9317_IAG933_linker_design_.xyz
REMARK  7 active torsions:
REMARK  status: ('A' for Active; 'I' for Inactive)
REMARK    1  A    between atoms: C_1  and  C_2
REMARK    2  A    between atoms: C_1  and  C_8
REMARK    3  A    between atoms: C_1  and  C_29
REMARK    4  A    between atoms: C_14  and  C_15
REMARK    5  A    between atoms: C_31  and  C_42
REMARK    6  A    between atoms: C_32  and  O_35
REMARK    7  A    between atoms: C_32  and  C_46
REMARK                            x       y       z     vdW  Elec       q    Type
REMARK                         _______ _______ _______ _____ _____    ______ ____
ROOT
ATOM      1  C   UNL A   1     -25.688   1.614  26.461  0.00  0.00    +0.070 C 
ATOM      2  C   UNL A   1     -26.250   2.920  26.395  0.00  0.00    +0.055 C 
ATOM      3  C   UNL A   1     -27.438   3.091  25.645  0.00  0.00    +0.102 C 
ATOM      4  N   UNL A   1     -28.075   2.089  25.003  0.00  0.00    -0.212 NA
ATOM      5  C   UNL A   1     -27.543   0.849  25.079  0.00  0.00    +0.234 C 
ATOM      6  O   UNL A   1     -28.193  -0.208  24.477  0.00  0.00    -0.459 OA
ATOM      7  C   UNL A   1     -29.460   0.005  23.866  0.00  0.00    +0.239 C 
ATOM      8  C   UNL A   1     -30.065  -1.377  23.573  0.00  0.00    +0.189 C 
ATOM      9  O   UNL A   1     -30.729  -1.878  24.721  0.00  0.00    -0.348 OA
ATOM     10  C   UNL A   1     -26.354   0.576  25.777  0.00  0.00    +0.240 C 
ATOM     11  F   UNL A   1     -25.860  -0.681  25.795  0.00  0.00    -0.227 F 
ATOM     12  C   UNL A   1     -30.693   1.918  28.988  0.00  0.00    +0.165 C 
ATOM     13  C   UNL A   1     -25.087  -0.011  28.880  0.00  0.00    +0.028 C 
ATOM     14  C   UNL A   1     -29.190   4.170  29.732  0.00  0.00    +0.121 C 
ATOM     15  N   UNL A   1     -27.254   0.714  29.673  0.00  0.00    -0.204 NA
ATOM     16  C   UNL A   1     -30.032   4.278  28.421  0.00  0.00    +0.161 C 
ATOM     17  C   UNL A   1     -26.612  -0.201  28.763  0.00  0.00    +0.116 C 
ATOM     18  O   UNL A   1     -30.997   3.265  28.587  0.00  0.00    -0.351 OA
ATOM     19  N   UNL A   1     -29.141   2.758  30.566  0.00  0.00    -0.205 NA
ATOM     20  C   UNL A   1     -31.852  -1.312  25.329  0.00  0.00    +0.161 C 
ATOM     21  C   UNL A   1     -24.755   1.278  27.731  0.00  0.00    +0.009 C 
ATOM     22  C   UNL A   1     -28.695   0.531  29.712  0.00  0.00    +0.260 C 
ATOM     23  C   UNL A   1     -31.447   0.762  28.657  0.00  0.00    +0.179 C 
ATOM     24  C   UNL A   1     -31.652  -1.085  26.899  0.00  0.00    +0.121 C 
ATOM     25  O   UNL A   1     -29.226  -0.583  29.661  0.00  0.00    -0.272 OA
ATOM     26  N   UNL A   1     -30.998   0.090  27.476  0.00  0.00    -0.205 NA
ATOM     27  C   UNL A   1     -29.472   1.725  29.759  0.00  0.00    +0.180 C 
ENDROOT
BRANCH   2  28
ATOM     28  C   UNL A   1     -25.642   4.093  27.123  0.00  0.00    +0.262 C 
ATOM     29  N   UNL A   1     -25.614   5.252  26.449  0.00  0.00    -0.200 NA
ATOM     30  C   UNL A   1     -25.026   6.479  26.963  0.00  0.00    +0.139 C 
ATOM     31  O   UNL A   1     -25.143   3.966  28.243  0.00  0.00    -0.269 OA
ENDBRANCH   2  28
BRANCH  21  32
ATOM     32  C   UNL A   1     -23.198   1.135  27.412  0.00  0.00    +0.001 C 
ATOM     33  C   UNL A   1     -22.412   0.879  28.692  0.00  0.00    +0.000 C 
ATOM     34  C   UNL A   1     -22.499   2.110  26.564  0.00  0.00    +0.000 C 
ENDBRANCH  21  32
BRANCH  23  35
ATOM     35  C   UNL A   1     -32.358   0.126  29.581  0.00  0.00    +0.238 C 
ATOM     36  N   UNL A   1     -31.858  -0.503  30.585  0.00  0.00    -0.111 NA
BRANCH  35  37
ATOM     37  O   UNL A   1     -33.757   0.196  29.360  0.00  0.00    -0.457 OA
ATOM     38  C   UNL A   1     -34.825   0.302  30.379  0.00  0.00    +0.254 C 
ENDBRANCH  35  37
ENDBRANCH  23  35
BRANCH  13  39
ATOM     39  C   UNL A   1     -24.855  -1.012  30.143  0.00  0.00    +0.040 C 
BRANCH  39  40
ATOM     40  C   UNL A   1     -24.973  -2.505  29.788  0.00  0.00    -0.021 C 
ATOM     41  C   UNL A   1     -23.906  -3.173  29.146  0.00  0.00    -0.004 C 
ATOM     42  C   UNL A   1     -23.989  -4.549  28.853  0.00  0.00    -0.000 C 
ATOM     43  C   UNL A   1     -25.137  -5.280  29.205  0.00  0.00    -0.000 C 
ATOM     44  C   UNL A   1     -26.232  -4.611  29.784  0.00  0.00    -0.000 C 
ATOM     45  C   UNL A   1     -26.155  -3.232  30.065  0.00  0.00    -0.004 C 
ENDBRANCH  39  40
BRANCH  39  46
ATOM     46  C   UNL A   1     -25.387  -0.679  31.571  0.00  0.00    +0.077 C 
ATOM     47  C   UNL A   1     -25.189   0.773  32.028  0.00  0.00    +0.019 C 
ATOM     48  C   UNL A   1     -25.336   0.684  33.544  0.00  0.00    +0.020 C 
ATOM     49  C   UNL A   1     -24.829  -0.715  33.905  0.00  0.00    +0.089 C 
ATOM     50  N   UNL A   1     -24.758  -1.481  32.646  0.00  0.00    -0.219 NA
ENDBRANCH  39  46
ENDBRANCH  13  39
TORSDOF 7
