MODEL 931
MODEL 1
REMARK VINA RESULT:    -6.271      0.000      0.000
REMARK INTER + INTRA:          -8.490
REMARK INTER:                  -7.737
REMARK INTRA:                  -0.752
REMARK UNBOUND:                -0.752
REMARK  Name = No_931-gen_results/8p0m/2024-11-27-11-27-31/
REMARK  4 active torsions:
REMARK  status: ('A' for Active; 'I' for Inactive)
REMARK    1  A    between atoms: C_1  and  C_2
REMARK    2  A    between atoms: C_1  and  C_8
REMARK    3  A    between atoms: C_5  and  C_11
REMARK    4  A    between atoms: N_10  and  C_15
REMARK                            x       y       z     vdW  Elec       q    Type
REMARK                         _______ _______ _______ _____ _____    ______ ____
ROOT
ATOM      1  C   UNL A   1     -23.049   0.517  29.896  0.00  0.00    +0.112 C 
ENDROOT
BRANCH   1   2
ATOM      2  C   UNL A   1     -23.650  -0.532  29.872  0.00  0.00    -0.013 A 
ATOM      3  C   UNL A   1     -24.840  -0.756  30.562  0.00  0.00    -0.004 A 
ATOM      4  C   UNL A   1     -25.630  -2.002  30.599  0.00  0.00    +0.004 A 
ATOM      5  C   UNL A   1     -25.236  -3.014  29.671  0.00  0.00    +0.059 A 
ATOM      6  C   UNL A   1     -24.072  -2.812  28.924  0.00  0.00    +0.004 A 
ATOM      7  C   UNL A   1     -23.337  -1.679  28.989  0.00  0.00    -0.004 A 
BRANCH   5   8
ATOM      8  C   UNL A   1     -26.020  -4.245  29.672  0.00  0.00    +0.297 C 
ATOM      9  N   UNL A   1     -27.216  -4.498  29.718  0.00  0.00    -0.102 NA
ATOM     10  O   UNL A   1     -25.311  -5.345  29.248  0.00  0.00    -0.264 OA
ENDBRANCH   5   8
ENDBRANCH   1   2
BRANCH   1  11
ATOM     11  C   UNL A   1     -23.973   1.706  30.030  0.00  0.00    +0.234 C 
ATOM     12  O   UNL A   1     -24.230   2.255  30.933  0.00  0.00    -0.274 OA
ATOM     13  N   UNL A   1     -24.595   2.046  28.722  0.00  0.00    -0.257 N 
ATOM     14  C   UNL A   1     -25.543   3.193  28.681  0.00  0.00    +0.120 C 
BRANCH  13  15
ATOM     15  C   UNL A   1     -24.479   1.412  27.475  0.00  0.00    +0.054 A 
ATOM     16  C   UNL A   1     -23.591   1.890  26.406  0.00  0.00    +0.015 A 
ATOM     17  C   UNL A   1     -23.890   1.257  25.279  0.00  0.00    +0.001 A 
ATOM     18  C   UNL A   1     -24.904   0.297  25.085  0.00  0.00    +0.000 A 
ATOM     19  C   UNL A   1     -25.756   0.003  26.102  0.00  0.00    +0.001 A 
ATOM     20  C   UNL A   1     -25.665   0.663  27.241  0.00  0.00    +0.015 A 
ENDBRANCH  13  15
ENDBRANCH   1  11
TORSDOF 4
ENDMDL
ENDMDL
