REMARK  Name = No_932-gen_results/8p0m/2024-11-27-11-27-31/
REMARK  12 active torsions:
REMARK  status: ('A' for Active; 'I' for Inactive)
REMARK    1  A    between atoms: C_1  and  C_2
REMARK    2  A    between atoms: C_1  and  C_8
REMARK    3  A    between atoms: C_5  and  C_15
REMARK    4  A    between atoms: C_8  and  C_9
REMARK    5  A    between atoms: C_8  and  N_19
REMARK    6  A    between atoms: C_13  and  C_22
REMARK    7  A    between atoms: N_19  and  C_20
REMARK    8  A    between atoms: N_19  and  C_21
REMARK    9  A    between atoms: C_21  and  C_25
REMARK   10  A    between atoms: C_25  and  C_26
REMARK   11  A    between atoms: C_27  and  N_28
REMARK   12  A    between atoms: C_32  and  C_33
REMARK                            x       y       z     vdW  Elec       q    Type
REMARK                         _______ _______ _______ _____ _____    ______ ____
ROOT
ATOM      1  C   UNL A   1     -29.210  -0.026  29.343  0.00  0.00    +0.100 C 
ENDROOT
BRANCH   1   2
ATOM      2  C   UNL A   1     -30.049   0.284  28.323  0.00  0.00    -0.004 A 
ATOM      3  C   UNL A   1     -31.102   1.074  28.674  0.00  0.00    -0.003 A 
ATOM      4  C   UNL A   1     -31.972   1.550  27.667  0.00  0.00    -0.001 A 
ATOM      5  C   UNL A   1     -31.724   1.147  26.341  0.00  0.00    -0.004 A 
ATOM      6  C   UNL A   1     -30.649   0.383  25.990  0.00  0.00    -0.023 A 
ATOM      7  C   UNL A   1     -29.807  -0.019  26.958  0.00  0.00    -0.007 A 
BRANCH   6   8
ATOM      8  C   UNL A   1     -30.365  -0.172  24.738  0.00  0.00    +0.022 C 
ATOM      9  C   UNL A   1     -30.866  -1.427  24.397  0.00  0.00    +0.005 C 
ATOM     10  C   UNL A   1     -29.533   0.520  23.803  0.00  0.00    +0.005 C 
ENDBRANCH   6   8
ENDBRANCH   1   2
BRANCH   1  11
ATOM     11  C   UNL A   1     -28.016  -0.814  28.878  0.00  0.00    +0.051 C 
BRANCH  11  12
ATOM     12  C   UNL A   1     -27.064  -0.119  28.608  0.00  0.00    -0.020 A 
ATOM     13  C   UNL A   1     -25.792  -0.430  29.076  0.00  0.00    -0.004 A 
ATOM     14  C   UNL A   1     -24.546   0.349  28.823  0.00  0.00    +0.004 A 
ATOM     15  C   UNL A   1     -24.659   1.420  27.888  0.00  0.00    +0.071 A 
ATOM     16  C   UNL A   1     -25.947   1.681  27.379  0.00  0.00    +0.004 A 
ATOM     17  C   UNL A   1     -27.044   0.974  27.687  0.00  0.00    -0.004 A 
BRANCH  15  18
ATOM     18  C   UNL A   1     -23.484   2.183  27.602  0.00  0.00    +0.419 C 
ATOM     19  F   UNL A   1     -23.526   2.798  26.687  0.00  0.00    -0.166 F 
ATOM     20  F   UNL A   1     -22.349   1.267  27.397  0.00  0.00    -0.166 F 
ATOM     21  F   UNL A   1     -23.100   2.880  28.713  0.00  0.00    -0.166 F 
ENDBRANCH  15  18
ENDBRANCH  11  12
ENDBRANCH   1  11
BRANCH   1  22
ATOM     22  N   UNL A   1     -29.935  -0.742  30.430  0.00  0.00    -0.304 N 
BRANCH  22  23
ATOM     23  C   UNL A   1     -29.608  -0.597  31.678  0.00  0.00    +0.061 C 
ATOM     24  C   UNL A   1     -29.022   0.745  32.054  0.00  0.00    +0.015 C 
BRANCH  24  25
ATOM     25  C   UNL A   1     -28.418   0.840  33.278  0.00  0.00    -0.003 C 
ATOM     26  C   UNL A   1     -28.406  -0.175  34.139  0.00  0.00    -0.026 C 
ATOM     27  C   UNL A   1     -28.910  -1.413  33.827  0.00  0.00    +0.031 C 
ENDBRANCH  24  25
ENDBRANCH  22  23
BRANCH  22  28
ATOM     28  C   UNL A   1     -30.383  -2.060  30.119  0.00  0.00    +0.096 C 
BRANCH  28  29
ATOM     29  C   UNL A   1     -31.355  -2.523  31.044  0.00  0.00    +0.051 C 
BRANCH  29  30
ATOM     30  C   UNL A   1     -32.069  -3.515  30.619  0.00  0.00    +0.016 C 
ATOM     31  C   UNL A   1     -31.948  -3.847  29.403  0.00  0.00    +0.189 C 
BRANCH  31  32
ATOM     32  N   UNL A   1     -32.601  -4.924  28.948  0.00  0.00    -0.058 NA
ATOM     33  C   UNL A   1     -32.435  -5.443  27.648  0.00  0.00    +0.539 C 
ATOM     34  N   UNL A   1     -31.689  -4.781  26.843  0.00  0.00    +0.136 NA
ATOM     35  N   UNL A   1     -33.048  -6.612  27.283  0.00  0.00    +0.136 NA
ENDBRANCH  31  32
ENDBRANCH  29  30
ENDBRANCH  28  29
ENDBRANCH  22  28
ENDBRANCH   1  22
TORSDOF 12
