REMARK  Name = outputs/IAG933/test6/raw/output_9327_IAG933_linker_design_.xyz
REMARK  13 active torsions:
REMARK  status: ('A' for Active; 'I' for Inactive)
REMARK    1  A    between atoms: C_1  and  C_2
REMARK    2  A    between atoms: C_1  and  C_8
REMARK    3  A    between atoms: C_1  and  N_40
REMARK    4  A    between atoms: C_13  and  C_41
REMARK    5  A    between atoms: C_14  and  C_15
REMARK    6  A    between atoms: C_21  and  O_22
REMARK    7  A    between atoms: O_22  and  C_23
REMARK    8  A    between atoms: C_23  and  C_24
REMARK    9  A    between atoms: C_29  and  C_37
REMARK   10  A    between atoms: C_31  and  C_32
REMARK   11  A    between atoms: C_31  and  C_37
REMARK   12  A    between atoms: N_40  and  C_45
REMARK   13  A    between atoms: N_40  and  C_46
REMARK                            x       y       z     vdW  Elec       q    Type
REMARK                         _______ _______ _______ _____ _____    ______ ____
ROOT
ATOM      1  N   UNL A   1     -25.422  -0.143  28.986  0.00  0.00    -0.303 N 
ENDROOT
BRANCH   1   8
ATOM      2  C   UNL A   1     -22.079   2.025  26.733  0.00  0.00    +0.033 C 
ATOM      3  C   UNL A   1     -23.386   2.173  26.320  0.00  0.00    +0.004 C 
ATOM      4  F   UNL A   1     -20.582   0.903  28.032  0.00  0.00    -0.201 F 
ATOM      5  C   UNL A   1     -24.411   1.460  27.060  0.00  0.00    +0.019 C 
ATOM      6  C   UNL A   1     -22.879   0.443  28.522  0.00  0.00    +0.236 C 
ATOM      7  C   UNL A   1     -21.898   1.127  27.821  0.00  0.00    +0.180 C 
ATOM      8  C   UNL A   1     -24.232   0.619  28.206  0.00  0.00    +0.090 C 
ATOM      9  O   UNL A   1     -22.403  -0.405  29.433  0.00  0.00    -0.283 OA
BRANCH   5  10
ATOM     10  C   UNL A   1     -25.688   1.614  26.461  0.00  0.00    +0.039 C 
ATOM     11  C   UNL A   1     -26.250   2.920  26.395  0.00  0.00    +0.077 C 
ATOM     12  C   UNL A   1     -27.438   3.091  25.645  0.00  0.00    +0.107 C 
ATOM     13  N   UNL A   1     -28.075   2.089  25.003  0.00  0.00    -0.208 NA
ATOM     14  C   UNL A   1     -27.543   0.849  25.079  0.00  0.00    +0.253 C 
ATOM     15  C   UNL A   1     -26.354   0.576  25.777  0.00  0.00    +0.193 C 
ATOM     16  F   UNL A   1     -25.860  -0.681  25.795  0.00  0.00    -0.199 F 
BRANCH  11  17
ATOM     17  C   UNL A   1     -25.642   4.093  27.123  0.00  0.00    +0.266 C 
ATOM     18  N   UNL A   1     -25.614   5.252  26.449  0.00  0.00    -0.200 NA
ATOM     19  C   UNL A   1     -25.026   6.479  26.963  0.00  0.00    +0.139 C 
ATOM     20  O   UNL A   1     -25.143   3.966  28.243  0.00  0.00    -0.268 OA
ENDBRANCH  11  17
BRANCH  14  21
ATOM     21  O   UNL A   1     -28.193  -0.208  24.477  0.00  0.00    -0.456 OA
BRANCH  21  22
ATOM     22  C   UNL A   1     -29.460   0.005  23.866  0.00  0.00    +0.243 C 
BRANCH  22  23
ATOM     23  C   UNL A   1     -30.065  -1.377  23.573  0.00  0.00    +0.229 C 
ATOM     24  O   UNL A   1     -30.729  -1.878  24.721  0.00  0.00    -0.216 OA
ENDBRANCH  22  23
ENDBRANCH  21  22
ENDBRANCH  14  21
ENDBRANCH   5  10
ENDBRANCH   1   8
BRANCH   1  27
ATOM     25  C   UNL A   1     -28.309  -0.335  28.686  0.00  0.00    +0.028 C 
ATOM     26  C   UNL A   1     -27.605   1.184  29.010  0.00  0.00    +0.022 C 
ATOM     27  C   UNL A   1     -26.689   0.079  28.517  0.00  0.00    +0.074 C 
BRANCH  25  28
ATOM     28  C   UNL A   1     -29.178   0.331  28.106  0.00  0.00    +0.071 C 
BRANCH  28  30
ATOM     29  O   UNL A   1     -31.210   0.797  28.620  0.00  0.00    -0.291 OA
ATOM     30  C   UNL A   1     -30.209   1.236  28.137  0.00  0.00    +0.173 C 
BRANCH  30  32
ATOM     31  C   UNL A   1     -29.656   3.560  28.787  0.00  0.00    +0.003 C 
ATOM     32  C   UNL A   1     -30.246   2.698  27.786  0.00  0.00    +0.035 C 
ATOM     33  C   UNL A   1     -30.827   3.262  26.591  0.00  0.00    +0.003 C 
ATOM     34  C   UNL A   1     -29.484   4.961  28.505  0.00  0.00    +0.000 C 
ATOM     35  C   UNL A   1     -30.736   4.698  26.366  0.00  0.00    +0.000 C 
ATOM     36  C   UNL A   1     -30.021   5.516  27.310  0.00  0.00    +0.000 C 
ENDBRANCH  30  32
ENDBRANCH  28  30
ENDBRANCH  25  28
ENDBRANCH   1  27
BRANCH   1  37
ATOM     37  C   UNL A   1     -24.855  -1.012  30.143  0.00  0.00    +0.111 C 
BRANCH  37  38
ATOM     38  C   UNL A   1     -24.973  -2.505  29.788  0.00  0.00    -0.003 C 
ATOM     39  C   UNL A   1     -23.906  -3.173  29.146  0.00  0.00    -0.003 C 
ATOM     40  C   UNL A   1     -23.989  -4.549  28.853  0.00  0.00    -0.000 C 
ATOM     41  C   UNL A   1     -25.137  -5.280  29.205  0.00  0.00    -0.000 C 
ATOM     42  C   UNL A   1     -26.232  -4.611  29.784  0.00  0.00    -0.000 C 
ATOM     43  C   UNL A   1     -26.155  -3.232  30.065  0.00  0.00    -0.003 C 
ENDBRANCH  37  38
BRANCH  37  44
ATOM     44  C   UNL A   1     -25.387  -0.679  31.571  0.00  0.00    +0.095 C 
ATOM     45  C   UNL A   1     -25.189   0.773  32.028  0.00  0.00    +0.021 C 
ATOM     46  C   UNL A   1     -25.336   0.684  33.544  0.00  0.00    +0.020 C 
ATOM     47  C   UNL A   1     -24.829  -0.715  33.905  0.00  0.00    +0.089 C 
ATOM     48  N   UNL A   1     -24.758  -1.481  32.646  0.00  0.00    -0.217 NA
ENDBRANCH  37  44
ENDBRANCH   1  37
TORSDOF 13
