REMARK  Name = outputs/IAG933/test6/raw/output_9328_IAG933_linker_design_.xyz
REMARK  13 active torsions:
REMARK  status: ('A' for Active; 'I' for Inactive)
REMARK    1  A    between atoms: C_1  and  C_2
REMARK    2  A    between atoms: C_1  and  C_8
REMARK    3  A    between atoms: C_1  and  C_32
REMARK    4  A    between atoms: C_13  and  C_38
REMARK    5  A    between atoms: C_14  and  C_15
REMARK    6  A    between atoms: C_21  and  O_22
REMARK    7  A    between atoms: O_22  and  C_23
REMARK    8  A    between atoms: C_23  and  C_24
REMARK    9  A    between atoms: C_32  and  C_34
REMARK   10  A    between atoms: C_32  and  C_37
REMARK   11  A    between atoms: C_33  and  C_38
REMARK   12  A    between atoms: C_33  and  C_39
REMARK   13  A    between atoms: C_34  and  C_38
REMARK                            x       y       z     vdW  Elec       q    Type
REMARK                         _______ _______ _______ _____ _____    ______ ____
ROOT
ATOM      1  C   UNL A   1     -24.289   0.995  28.769  0.00  0.00    +0.015 C 
ENDROOT
BRANCH   1   2
ATOM      2  C   UNL A   1     -25.315  -0.112  28.987  0.00  0.00    +0.084 C 
BRANCH   2   7
ATOM      3  O   UNL A   1     -27.669  -0.431  28.639  0.00  0.00    -0.273 OA
ATOM      4  O   UNL A   1     -28.254   3.233  30.542  0.00  0.00    -0.273 OA
ATOM      5  N   UNL A   1     -26.994   1.701  29.316  0.00  0.00    -0.145 NA
ATOM      6  C   UNL A   1     -28.175   2.356  29.718  0.00  0.00    +0.248 C 
ATOM      7  C   UNL A   1     -26.761   0.343  29.003  0.00  0.00    +0.248 C 
ATOM      8  C   UNL A   1     -29.336   2.064  28.905  0.00  0.00    +0.097 C 
ENDBRANCH   2   7
BRANCH   2   9
ATOM      9  C   UNL A   1     -24.855  -1.012  30.143  0.00  0.00    +0.047 C 
BRANCH   9  10
ATOM     10  C   UNL A   1     -24.973  -2.505  29.788  0.00  0.00    -0.021 C 
ATOM     11  C   UNL A   1     -23.906  -3.173  29.146  0.00  0.00    -0.004 C 
ATOM     12  C   UNL A   1     -23.989  -4.549  28.853  0.00  0.00    -0.000 C 
ATOM     13  C   UNL A   1     -25.137  -5.280  29.205  0.00  0.00    -0.000 C 
ATOM     14  C   UNL A   1     -26.232  -4.611  29.784  0.00  0.00    -0.000 C 
ATOM     15  C   UNL A   1     -26.155  -3.232  30.065  0.00  0.00    -0.004 C 
ENDBRANCH   9  10
BRANCH   9  16
ATOM     16  C   UNL A   1     -25.387  -0.679  31.571  0.00  0.00    +0.077 C 
ATOM     17  C   UNL A   1     -25.189   0.773  32.028  0.00  0.00    +0.019 C 
ATOM     18  C   UNL A   1     -25.336   0.684  33.544  0.00  0.00    +0.020 C 
ATOM     19  C   UNL A   1     -24.829  -0.715  33.905  0.00  0.00    +0.089 C 
ATOM     20  N   UNL A   1     -24.758  -1.481  32.646  0.00  0.00    -0.219 NA
ENDBRANCH   9  16
ENDBRANCH   2   9
ENDBRANCH   1   2
BRANCH   1  21
ATOM     21  C   UNL A   1     -24.453   1.327  27.220  0.00  0.00    +0.036 C 
BRANCH  21  22
ATOM     22  C   UNL A   1     -25.688   1.614  26.461  0.00  0.00    +0.016 C 
ATOM     23  C   UNL A   1     -26.250   2.920  26.395  0.00  0.00    +0.073 C 
ATOM     24  C   UNL A   1     -27.438   3.091  25.645  0.00  0.00    +0.106 C 
ATOM     25  N   UNL A   1     -28.075   2.089  25.003  0.00  0.00    -0.208 NA
ATOM     26  C   UNL A   1     -27.543   0.849  25.079  0.00  0.00    +0.253 C 
ATOM     27  C   UNL A   1     -26.354   0.576  25.777  0.00  0.00    +0.189 C 
ATOM     28  F   UNL A   1     -25.860  -0.681  25.795  0.00  0.00    -0.200 F 
BRANCH  23  29
ATOM     29  C   UNL A   1     -25.642   4.093  27.123  0.00  0.00    +0.266 C 
ATOM     30  N   UNL A   1     -25.614   5.252  26.449  0.00  0.00    -0.200 NA
ATOM     31  C   UNL A   1     -25.026   6.479  26.963  0.00  0.00    +0.139 C 
ATOM     32  O   UNL A   1     -25.143   3.966  28.243  0.00  0.00    -0.268 OA
ENDBRANCH  23  29
BRANCH  26  33
ATOM     33  O   UNL A   1     -28.193  -0.208  24.477  0.00  0.00    -0.456 OA
BRANCH  33  34
ATOM     34  C   UNL A   1     -29.460   0.005  23.866  0.00  0.00    +0.243 C 
BRANCH  34  35
ATOM     35  C   UNL A   1     -30.065  -1.377  23.573  0.00  0.00    +0.229 C 
ATOM     36  O   UNL A   1     -30.729  -1.878  24.721  0.00  0.00    -0.216 OA
ENDBRANCH  34  35
ENDBRANCH  33  34
ENDBRANCH  26  33
ENDBRANCH  21  22
BRANCH  21  37
ATOM     37  C   UNL A   1     -23.438   1.256  26.523  0.00  0.00    +0.105 C 
BRANCH  37  40
ATOM     38  O   UNL A   1     -21.292   2.133  26.248  0.00  0.00    -0.259 OA
ATOM     39  F   UNL A   1     -21.597   0.805  27.906  0.00  0.00    -0.164 F 
ATOM     40  C   UNL A   1     -22.112   1.510  26.951  0.00  0.00    +0.311 C 
ENDBRANCH  37  40
ENDBRANCH  21  37
ENDBRANCH   1  21
TORSDOF 13
