MODEL 932
MODEL 1
REMARK VINA RESULT:    -7.437      0.000      0.000
REMARK INTER + INTRA:         -14.899
REMARK INTER:                 -12.655
REMARK INTRA:                  -2.245
REMARK UNBOUND:                -2.245
REMARK  Name = No_932-gen_results/8p0m/2024-11-27-11-27-31/
REMARK  12 active torsions:
REMARK  status: ('A' for Active; 'I' for Inactive)
REMARK    1  A    between atoms: C_1  and  C_2
REMARK    2  A    between atoms: C_1  and  C_8
REMARK    3  A    between atoms: C_5  and  C_15
REMARK    4  A    between atoms: C_8  and  C_9
REMARK    5  A    between atoms: C_8  and  N_19
REMARK    6  A    between atoms: C_13  and  C_22
REMARK    7  A    between atoms: N_19  and  C_20
REMARK    8  A    between atoms: N_19  and  C_21
REMARK    9  A    between atoms: C_21  and  C_25
REMARK   10  A    between atoms: C_25  and  C_26
REMARK   11  A    between atoms: C_27  and  N_28
REMARK   12  A    between atoms: C_32  and  C_33
REMARK                            x       y       z     vdW  Elec       q    Type
REMARK                         _______ _______ _______ _____ _____    ______ ____
ROOT
ATOM      1  C   UNL A   1      -9.752   1.371  35.050  0.00  0.00    +0.100 C 
ENDROOT
BRANCH   1   2
ATOM      2  C   UNL A   1     -10.994   1.588  34.551  0.00  0.00    -0.004 A 
ATOM      3  C   UNL A   1     -11.205   1.071  33.308  0.00  0.00    -0.003 A 
ATOM      4  C   UNL A   1     -12.499   1.141  32.744  0.00  0.00    -0.001 A 
ATOM      5  C   UNL A   1     -13.507   1.783  33.488  0.00  0.00    -0.004 A 
ATOM      6  C   UNL A   1     -13.299   2.270  34.746  0.00  0.00    -0.023 A 
ATOM      7  C   UNL A   1     -12.072   2.150  35.283  0.00  0.00    -0.007 A 
BRANCH   6   8
ATOM      8  C   UNL A   1     -14.179   3.023  35.530  0.00  0.00    +0.022 C 
ATOM      9  C   UNL A   1     -13.838   3.365  36.837  0.00  0.00    +0.005 C 
ATOM     10  C   UNL A   1     -15.452   3.425  35.017  0.00  0.00    +0.005 C 
ENDBRANCH   6   8
ENDBRANCH   1   2
BRANCH   1  11
ATOM     11  C   UNL A   1      -9.665   1.688  36.518  0.00  0.00    +0.051 C 
BRANCH  11  12
ATOM     12  C   UNL A   1     -10.112   0.812  37.221  0.00  0.00    -0.020 A 
ATOM     13  C   UNL A   1     -10.805   1.111  38.389  0.00  0.00    -0.004 A 
ATOM     14  C   UNL A   1     -11.393   0.125  39.341  0.00  0.00    +0.004 A 
ATOM     15  C   UNL A   1     -11.368  -1.238  38.922  0.00  0.00    +0.071 A 
ATOM     16  C   UNL A   1     -10.713  -1.513  37.705  0.00  0.00    +0.004 A 
ATOM     17  C   UNL A   1     -10.154  -0.584  36.915  0.00  0.00    -0.004 A 
BRANCH  15  18
ATOM     18  C   UNL A   1     -11.936  -2.215  39.797  0.00  0.00    +0.419 C 
ATOM     19  F   UNL A   1     -11.219  -2.757  40.437  0.00  0.00    -0.166 F 
ATOM     20  F   UNL A   1     -12.598  -3.258  38.994  0.00  0.00    -0.166 F 
ATOM     21  F   UNL A   1     -12.982  -1.670  40.487  0.00  0.00    -0.166 F 
ENDBRANCH  15  18
ENDBRANCH  11  12
ENDBRANCH   1  11
BRANCH   1  22
ATOM     22  N   UNL A   1      -8.727   2.127  34.276  0.00  0.00    -0.304 N 
BRANCH  22  23
ATOM     23  C   UNL A   1      -7.477   1.778  34.279  0.00  0.00    +0.061 C 
ATOM     24  C   UNL A   1      -7.186   0.370  34.748  0.00  0.00    +0.015 C 
BRANCH  24  25
ATOM     25  C   UNL A   1      -5.882   0.063  35.025  0.00  0.00    -0.003 C 
ATOM     26  C   UNL A   1      -5.405  -1.173  34.892  0.00  0.00    -0.026 C 
ATOM     27  C   UNL A   1      -6.156  -2.202  34.380  0.00  0.00    +0.031 C 
ENDBRANCH  24  25
ENDBRANCH  22  23
BRANCH  22  28
ATOM     28  C   UNL A   1      -8.913   3.539  34.207  0.00  0.00    +0.096 C 
BRANCH  28  29
ATOM     29  C   UNL A   1      -7.964   4.159  33.353  0.00  0.00    +0.051 C 
BRANCH  29  30
ATOM     30  C   UNL A   1      -8.479   4.922  32.444  0.00  0.00    +0.016 C 
ATOM     31  C   UNL A   1      -8.005   6.089  32.318  0.00  0.00    +0.189 C 
BRANCH  31  32
ATOM     32  N   UNL A   1      -8.449   6.876  31.330  0.00  0.00    -0.058 NA
ATOM     33  C   UNL A   1      -7.620   7.388  30.311  0.00  0.00    +0.539 C 
ATOM     34  N   UNL A   1      -6.363   7.157  30.406  0.00  0.00    +0.136 NA
ATOM     35  N   UNL A   1      -8.157   8.094  29.268  0.00  0.00    +0.136 NA
ENDBRANCH  31  32
ENDBRANCH  29  30
ENDBRANCH  28  29
ENDBRANCH  22  28
ENDBRANCH   1  22
TORSDOF 12
ENDMDL
ENDMDL
