REMARK  Name = outputs/IAG933/test6/raw/output_9338_IAG933_linker_design_.xyz
REMARK  12 active torsions:
REMARK  status: ('A' for Active; 'I' for Inactive)
REMARK    1  A    between atoms: C_1  and  C_2
REMARK    2  A    between atoms: C_1  and  C_8
REMARK    3  A    between atoms: C_1  and  C_37
REMARK    4  A    between atoms: C_13  and  C_41
REMARK    5  A    between atoms: C_14  and  C_15
REMARK    6  A    between atoms: C_21  and  O_22
REMARK    7  A    between atoms: O_22  and  C_23
REMARK    8  A    between atoms: C_23  and  C_24
REMARK    9  A    between atoms: C_29  and  N_33
REMARK   10  A    between atoms: N_33  and  C_37
REMARK   11  A    between atoms: N_33  and  C_41
REMARK   12  A    between atoms: C_34  and  C_37
REMARK                            x       y       z     vdW  Elec       q    Type
REMARK                         _______ _______ _______ _____ _____    ______ ____
ROOT
ATOM      1  N   UNL A   1     -24.241   0.275  28.192  0.00  0.00    -0.307 N 
ENDROOT
BRANCH   1   4
ATOM      2  C   UNL A   1     -22.410   2.324  25.727  0.00  0.00    +0.032 C 
ATOM      3  C   UNL A   1     -23.203   1.599  26.821  0.00  0.00    -0.011 C 
ATOM      4  C   UNL A   1     -24.359   1.237  27.191  0.00  0.00    +0.046 C 
BRANCH   4   5
ATOM      5  C   UNL A   1     -25.688   1.614  26.461  0.00  0.00    +0.051 C 
ATOM      6  C   UNL A   1     -26.250   2.920  26.395  0.00  0.00    +0.078 C 
ATOM      7  C   UNL A   1     -27.438   3.091  25.645  0.00  0.00    +0.107 C 
ATOM      8  N   UNL A   1     -28.075   2.089  25.003  0.00  0.00    -0.208 NA
ATOM      9  C   UNL A   1     -27.543   0.849  25.079  0.00  0.00    +0.253 C 
ATOM     10  C   UNL A   1     -26.354   0.576  25.777  0.00  0.00    +0.194 C 
ATOM     11  F   UNL A   1     -25.860  -0.681  25.795  0.00  0.00    -0.199 F 
BRANCH   6  12
ATOM     12  C   UNL A   1     -25.642   4.093  27.123  0.00  0.00    +0.267 C 
ATOM     13  N   UNL A   1     -25.614   5.252  26.449  0.00  0.00    -0.200 NA
ATOM     14  C   UNL A   1     -25.026   6.479  26.963  0.00  0.00    +0.139 C 
ATOM     15  O   UNL A   1     -25.143   3.966  28.243  0.00  0.00    -0.268 OA
ENDBRANCH   6  12
BRANCH   9  16
ATOM     16  O   UNL A   1     -28.193  -0.208  24.477  0.00  0.00    -0.456 OA
BRANCH  16  17
ATOM     17  C   UNL A   1     -29.460   0.005  23.866  0.00  0.00    +0.243 C 
BRANCH  17  18
ATOM     18  C   UNL A   1     -30.065  -1.377  23.573  0.00  0.00    +0.229 C 
ATOM     19  O   UNL A   1     -30.729  -1.878  24.721  0.00  0.00    -0.216 OA
ENDBRANCH  17  18
ENDBRANCH  16  17
ENDBRANCH   9  16
ENDBRANCH   4   5
ENDBRANCH   1   4
BRANCH   1  20
ATOM     20  C   UNL A   1     -22.647   0.203  28.134  0.00  0.00    +0.091 C 
ATOM     21  C   UNL A   1     -21.310   0.963  28.420  0.00  0.00    +0.023 C 
ENDBRANCH   1  20
BRANCH   1  22
ATOM     22  C   UNL A   1     -25.369  -0.073  28.948  0.00  0.00    +0.095 C 
BRANCH  22  27
ATOM     23  O   UNL A   1     -29.614   0.279  31.304  0.00  0.00    -0.156 OA
ATOM     24  C   UNL A   1     -29.924   1.682  29.233  0.00  0.00    +0.097 C 
ATOM     25  N   UNL A   1     -27.605   0.669  30.119  0.00  0.00    -0.155 NA
ATOM     26  S   UNL A   1     -29.107   0.403  30.004  0.00  0.00    -0.008 S 
ATOM     27  C   UNL A   1     -26.916  -0.070  28.917  0.00  0.00    +0.105 C 
ATOM     28  C   UNL A   1     -29.252  -0.669  28.653  0.00  0.00    +0.085 C 
ATOM     29  C   UNL A   1     -28.037  -0.237  27.790  0.00  0.00    +0.034 C 
ENDBRANCH  22  27
BRANCH  22  30
ATOM     30  C   UNL A   1     -24.855  -1.012  30.143  0.00  0.00    +0.058 C 
BRANCH  30  31
ATOM     31  C   UNL A   1     -24.973  -2.505  29.788  0.00  0.00    -0.019 C 
ATOM     32  C   UNL A   1     -23.906  -3.173  29.146  0.00  0.00    -0.004 C 
ATOM     33  C   UNL A   1     -23.989  -4.549  28.853  0.00  0.00    -0.000 C 
ATOM     34  C   UNL A   1     -25.137  -5.280  29.205  0.00  0.00    -0.000 C 
ATOM     35  C   UNL A   1     -26.232  -4.611  29.784  0.00  0.00    -0.000 C 
ATOM     36  C   UNL A   1     -26.155  -3.232  30.065  0.00  0.00    -0.004 C 
ENDBRANCH  30  31
BRANCH  30  37
ATOM     37  C   UNL A   1     -25.387  -0.679  31.571  0.00  0.00    +0.079 C 
ATOM     38  C   UNL A   1     -25.189   0.773  32.028  0.00  0.00    +0.019 C 
ATOM     39  C   UNL A   1     -25.336   0.684  33.544  0.00  0.00    +0.020 C 
ATOM     40  C   UNL A   1     -24.829  -0.715  33.905  0.00  0.00    +0.089 C 
ATOM     41  N   UNL A   1     -24.758  -1.481  32.646  0.00  0.00    -0.219 NA
ENDBRANCH  30  37
ENDBRANCH  22  30
ENDBRANCH   1  22
TORSDOF 12
