MODEL 933
MODEL 1
REMARK VINA RESULT:    -6.746      0.000      0.000
REMARK INTER + INTRA:          -8.314
REMARK INTER:                  -7.929
REMARK INTRA:                  -0.385
REMARK UNBOUND:                -0.385
REMARK  Name = No_933-gen_results/8p0m/2024-11-27-11-27-31/
REMARK  3 active torsions:
REMARK  status: ('A' for Active; 'I' for Inactive)
REMARK    1  A    between atoms: C_2  and  N_7
REMARK    2  A    between atoms: N_7  and  C_8
REMARK    3  A    between atoms: C_8  and  C_9
REMARK                            x       y       z     vdW  Elec       q    Type
REMARK                         _______ _______ _______ _____ _____    ______ ____
ROOT
ATOM      1  N   UNL A   1     -23.971  -0.720  28.796  0.00  0.00    -0.233 NA
ENDROOT
BRANCH   1   3
ATOM      2  C   UNL A   1     -22.581   0.823  28.106  0.00  0.00    +0.016 A 
ATOM      3  C   UNL A   1     -23.462   0.317  27.826  0.00  0.00    +0.066 A 
ATOM      4  C   UNL A   1     -22.091   1.865  27.126  0.00  0.00    +0.001 A 
ATOM      5  C   UNL A   1     -22.887   2.191  26.008  0.00  0.00    +0.000 A 
ATOM      6  C   UNL A   1     -24.478   0.482  26.762  0.00  0.00    +0.016 A 
ATOM      7  C   UNL A   1     -24.065   1.437  25.844  0.00  0.00    +0.001 A 
ENDBRANCH   1   3
BRANCH   1   8
ATOM      8  C   UNL A   1     -23.452  -1.914  28.941  0.00  0.00    +0.139 C 
BRANCH   8   9
ATOM      9  C   UNL A   1     -24.125  -2.858  29.069  0.00  0.00    -0.001 A 
ATOM     10  C   UNL A   1     -24.039  -4.108  28.832  0.00  0.00    -0.003 A 
ATOM     11  C   UNL A   1     -24.946  -5.242  29.052  0.00  0.00    -0.000 A 
ATOM     12  C   UNL A   1     -26.202  -4.878  29.589  0.00  0.00    -0.000 A 
ATOM     13  C   UNL A   1     -26.472  -3.555  29.905  0.00  0.00    -0.000 A 
ATOM     14  C   UNL A   1     -25.574  -2.640  29.701  0.00  0.00    -0.003 A 
ENDBRANCH   8   9
ENDBRANCH   1   8
TORSDOF 3
ENDMDL
ENDMDL
