REMARK  Name = No_934-gen_results/8p0m/2024-11-27-11-27-31/
REMARK  9 active torsions:
REMARK  status: ('A' for Active; 'I' for Inactive)
REMARK    1  A    between atoms: C_1  and  C_2
REMARK    2  A    between atoms: C_1  and  C_8
REMARK    3  A    between atoms: C_5  and  C_10
REMARK    4  A    between atoms: N_9  and  C_17
REMARK    5  A    between atoms: C_18  and  O_26
REMARK    6  A    between atoms: C_19  and  O_24
REMARK    7  A    between atoms: O_24  and  C_27
REMARK    8  A    between atoms: O_26  and  C_33
REMARK    9  A    between atoms: C_28  and  C_29
REMARK                            x       y       z     vdW  Elec       q    Type
REMARK                         _______ _______ _______ _____ _____    ______ ____
ROOT
ATOM      1  C   UNL A   1     -30.616  -1.729  29.627  0.00  0.00    +0.276 C 
ATOM      2  C   UNL A   1     -32.004  -1.480  30.018  0.00  0.00    +0.269 C 
ATOM      3  C   UNL A   1     -32.510  -0.778  29.248  0.00  0.00    +0.278 C 
ATOM      4  C   UNL A   1     -32.249  -0.833  27.859  0.00  0.00    +0.291 C 
ATOM      5  C   UNL A   1     -31.037  -1.221  27.476  0.00  0.00    +0.382 C 
ATOM      6  O   UNL A   1     -30.245  -1.107  28.433  0.00  0.00    -0.427 OA
ATOM      7  O   UNL A   1     -33.339  -1.597  27.110  0.00  0.00    -0.280 OA
ATOM      8  O   UNL A   1     -30.952  -2.240  26.777  0.00  0.00    -0.241 OA
ENDROOT
BRANCH   1  10
ATOM      9  C   UNL A   1     -28.660  -0.460  30.201  0.00  0.00    +0.065 C 
ATOM     10  N   UNL A   1     -29.672  -1.210  30.665  0.00  0.00    -0.238 NA
ATOM     11  C   UNL A   1     -29.822  -1.625  31.789  0.00  0.00    +0.075 C 
ATOM     12  C   UNL A   1     -29.232  -0.908  32.887  0.00  0.00    +0.018 C 
ATOM     13  C   UNL A   1     -28.134  -0.052  32.492  0.00  0.00    +0.003 C 
ATOM     14  C   UNL A   1     -27.765   0.036  31.184  0.00  0.00    +0.017 C 
BRANCH   9  15
ATOM     15  C   UNL A   1     -28.016  -0.814  28.878  0.00  0.00    +0.042 C 
BRANCH  15  16
ATOM     16  C   UNL A   1     -27.064  -0.119  28.608  0.00  0.00    -0.021 A 
ATOM     17  C   UNL A   1     -25.792  -0.430  29.076  0.00  0.00    -0.004 A 
ATOM     18  C   UNL A   1     -24.546   0.349  28.823  0.00  0.00    +0.004 A 
ATOM     19  C   UNL A   1     -24.659   1.420  27.888  0.00  0.00    +0.059 A 
ATOM     20  C   UNL A   1     -25.947   1.681  27.379  0.00  0.00    +0.004 A 
ATOM     21  C   UNL A   1     -27.044   0.974  27.687  0.00  0.00    -0.004 A 
BRANCH  19  22
ATOM     22  C   UNL A   1     -23.450   2.142  27.592  0.00  0.00    +0.297 C 
ATOM     23  N   UNL A   1     -22.515   1.820  27.225  0.00  0.00    -0.102 NA
ATOM     24  O   UNL A   1     -23.772   3.458  27.209  0.00  0.00    -0.264 OA
ENDBRANCH  19  22
ENDBRANCH  15  16
ENDBRANCH   9  15
ENDBRANCH   1  10
BRANCH   3  25
ATOM     25  O   UNL A   1     -32.384   0.655  29.660  0.00  0.00    -0.464 OA
BRANCH  25  26
ATOM     26  C   UNL A   1     -33.397   1.477  29.987  0.00  0.00    +0.178 C 
ATOM     27  C   UNL A   1     -33.297   2.459  30.279  0.00  0.00    +0.099 C 
BRANCH  27  28
ATOM     28  C   UNL A   1     -31.917   3.143  30.475  0.00  0.00    +0.268 C 
ATOM     29  N   UNL A   1     -31.512   4.208  31.151  0.00  0.00    -0.200 NA
ATOM     30  C   UNL A   1     -30.265   4.562  31.276  0.00  0.00    +0.139 C 
ATOM     31  O   UNL A   1     -30.913   2.570  29.914  0.00  0.00    -0.268 OA
ENDBRANCH  27  28
ENDBRANCH  25  26
ENDBRANCH   3  25
BRANCH   2  32
ATOM     32  O   UNL A   1     -32.578  -2.824  30.165  0.00  0.00    -0.467 OA
BRANCH  32  33
ATOM     33  C   UNL A   1     -32.956  -3.303  31.375  0.00  0.00    +0.168 C 
ATOM     34  C   UNL A   1     -33.148  -4.641  31.350  0.00  0.00    +0.014 C 
ATOM     35  C   UNL A   1     -33.450  -5.172  32.560  0.00  0.00    +0.034 C 
ENDBRANCH  32  33
ENDBRANCH   2  32
TORSDOF 9
