REMARK  Name = outputs/IAG933/test6/raw/output_9346_IAG933_linker_design_.xyz
REMARK  14 active torsions:
REMARK  status: ('A' for Active; 'I' for Inactive)
REMARK    1  A    between atoms: C_1  and  C_2
REMARK    2  A    between atoms: C_1  and  C_8
REMARK    3  A    between atoms: C_1  and  C_42
REMARK    4  A    between atoms: C_13  and  N_43
REMARK    5  A    between atoms: C_14  and  C_15
REMARK    6  A    between atoms: C_21  and  O_22
REMARK    7  A    between atoms: O_22  and  C_23
REMARK    8  A    between atoms: C_23  and  C_24
REMARK    9  A    between atoms: C_28  and  C_32
REMARK   10  A    between atoms: C_28  and  C_42
REMARK   11  A    between atoms: C_30  and  C_42
REMARK   12  A    between atoms: C_37  and  C_39
REMARK   13  A    between atoms: C_38  and  C_39
REMARK   14  A    between atoms: C_39  and  C_45
REMARK                            x       y       z     vdW  Elec       q    Type
REMARK                         _______ _______ _______ _____ _____    ______ ____
ROOT
ATOM      1  C   UNL A   1     -24.564   0.669  28.409  0.00  0.00    +0.156 C 
ATOM      2  C   UNL A   1     -23.385   1.768  26.567  0.00  0.00    +0.150 C 
ATOM      3  N   UNL A   1     -22.275   1.548  28.679  0.00  0.00    -0.170 NA
ATOM      4  F   UNL A   1     -20.963   1.822  26.893  0.00  0.00    -0.211 F 
ATOM      5  C   UNL A   1     -23.299   0.669  28.999  0.00  0.00    +0.262 C 
ATOM      6  N   UNL A   1     -24.577   1.381  27.249  0.00  0.00    -0.295 N 
ATOM      7  O   UNL A   1     -22.874  -0.244  29.762  0.00  0.00    -0.272 OA
ATOM      8  C   UNL A   1     -22.258   1.550  27.318  0.00  0.00    +0.275 C 
ENDROOT
BRANCH   6   9
ATOM      9  C   UNL A   1     -25.688   1.614  26.461  0.00  0.00    +0.087 C 
ATOM     10  C   UNL A   1     -26.250   2.920  26.395  0.00  0.00    +0.090 C 
ATOM     11  C   UNL A   1     -27.438   3.091  25.645  0.00  0.00    +0.108 C 
ATOM     12  N   UNL A   1     -28.075   2.089  25.003  0.00  0.00    -0.208 NA
ATOM     13  C   UNL A   1     -27.543   0.849  25.079  0.00  0.00    +0.255 C 
ATOM     14  C   UNL A   1     -26.354   0.576  25.777  0.00  0.00    +0.206 C 
ATOM     15  F   UNL A   1     -25.860  -0.681  25.795  0.00  0.00    -0.198 F 
BRANCH  10  16
ATOM     16  C   UNL A   1     -25.642   4.093  27.123  0.00  0.00    +0.268 C 
ATOM     17  N   UNL A   1     -25.614   5.252  26.449  0.00  0.00    -0.200 NA
ATOM     18  C   UNL A   1     -25.026   6.479  26.963  0.00  0.00    +0.139 C 
ATOM     19  O   UNL A   1     -25.143   3.966  28.243  0.00  0.00    -0.268 OA
ENDBRANCH  10  16
BRANCH  13  20
ATOM     20  O   UNL A   1     -28.193  -0.208  24.477  0.00  0.00    -0.456 OA
BRANCH  20  21
ATOM     21  C   UNL A   1     -29.460   0.005  23.866  0.00  0.00    +0.243 C 
BRANCH  21  22
ATOM     22  C   UNL A   1     -30.065  -1.377  23.573  0.00  0.00    +0.229 C 
ATOM     23  O   UNL A   1     -30.729  -1.878  24.721  0.00  0.00    -0.216 OA
ENDBRANCH  21  22
ENDBRANCH  20  21
ENDBRANCH  13  20
ENDBRANCH   6   9
BRANCH   1  24
ATOM     24  C   UNL A   1     -25.608  -0.021  29.088  0.00  0.00    +0.053 C 
BRANCH  24  25
ATOM     25  C   UNL A   1     -27.080   0.447  29.176  0.00  0.00    -0.013 C 
ATOM     26  C   UNL A   1     -27.596   1.430  30.011  0.00  0.00    -0.022 C 
BRANCH  25  27
ATOM     27  C   UNL A   1     -28.160  -0.140  28.241  0.00  0.00    +0.204 C 
ATOM     28  O   UNL A   1     -29.463  -0.699  28.607  0.00  0.00    -0.215 OA
ENDBRANCH  25  27
BRANCH  26  29
ATOM     29  C   UNL A   1     -28.954   1.784  30.328  0.00  0.00    +0.112 C 
BRANCH  29  32
ATOM     30  O   UNL A   1     -29.593  -0.241  31.549  0.00  0.00    -0.296 OA
ATOM     31  C   UNL A   1     -31.390   1.145  30.811  0.00  0.00    +0.073 C 
ATOM     32  C   UNL A   1     -29.910   0.808  30.964  0.00  0.00    +0.157 C 
ENDBRANCH  29  32
BRANCH  29  34
ATOM     33  O   UNL A   1     -27.886   3.991  30.228  0.00  0.00    -0.220 OA
ATOM     34  C   UNL A   1     -29.101   3.294  30.655  0.00  0.00    +0.194 C 
ENDBRANCH  29  34
ENDBRANCH  26  29
ENDBRANCH  24  25
BRANCH  24  35
ATOM     35  C   UNL A   1     -24.855  -1.012  30.143  0.00  0.00    +0.044 C 
BRANCH  35  36
ATOM     36  C   UNL A   1     -24.973  -2.505  29.788  0.00  0.00    -0.021 C 
ATOM     37  C   UNL A   1     -23.906  -3.173  29.146  0.00  0.00    -0.004 C 
ATOM     38  C   UNL A   1     -23.989  -4.549  28.853  0.00  0.00    -0.000 C 
ATOM     39  C   UNL A   1     -25.137  -5.280  29.205  0.00  0.00    -0.000 C 
ATOM     40  C   UNL A   1     -26.232  -4.611  29.784  0.00  0.00    -0.000 C 
ATOM     41  C   UNL A   1     -26.155  -3.232  30.065  0.00  0.00    -0.004 C 
ENDBRANCH  35  36
BRANCH  35  42
ATOM     42  C   UNL A   1     -25.387  -0.679  31.571  0.00  0.00    +0.077 C 
ATOM     43  C   UNL A   1     -25.189   0.773  32.028  0.00  0.00    +0.019 C 
ATOM     44  C   UNL A   1     -25.336   0.684  33.544  0.00  0.00    +0.020 C 
ATOM     45  C   UNL A   1     -24.829  -0.715  33.905  0.00  0.00    +0.089 C 
ATOM     46  N   UNL A   1     -24.758  -1.481  32.646  0.00  0.00    -0.219 NA
ENDBRANCH  35  42
ENDBRANCH  24  35
ENDBRANCH   1  24
TORSDOF 14
