REMARK  Name = outputs/IAG933/test6/raw/output_9349_IAG933_linker_design_.xyz
REMARK  12 active torsions:
REMARK  status: ('A' for Active; 'I' for Inactive)
REMARK    1  A    between atoms: C_1  and  C_2
REMARK    2  A    between atoms: C_1  and  C_8
REMARK    3  A    between atoms: C_1  and  C_49
REMARK    4  A    between atoms: C_13  and  C_35
REMARK    5  A    between atoms: C_14  and  C_15
REMARK    6  A    between atoms: C_15  and  O_18
REMARK    7  A    between atoms: O_18  and  C_33
REMARK    8  A    between atoms: C_21  and  O_22
REMARK    9  A    between atoms: O_22  and  C_23
REMARK   10  A    between atoms: C_23  and  C_24
REMARK   11  A    between atoms: C_31  and  C_45
REMARK   12  A    between atoms: C_45  and  C_53
REMARK                            x       y       z     vdW  Elec       q    Type
REMARK                         _______ _______ _______ _____ _____    ______ ____
ROOT
ATOM      1  C   UNL A   1     -25.688   1.614  26.461  0.00  0.00    +0.052 C 
ATOM      2  C   UNL A   1     -26.250   2.920  26.395  0.00  0.00    +0.075 C 
ATOM      3  C   UNL A   1     -27.438   3.091  25.645  0.00  0.00    +0.107 C 
ATOM      4  N   UNL A   1     -28.075   2.089  25.003  0.00  0.00    -0.208 NA
ATOM      5  C   UNL A   1     -27.543   0.849  25.079  0.00  0.00    +0.253 C 
ATOM      6  C   UNL A   1     -26.354   0.576  25.777  0.00  0.00    +0.194 C 
ATOM      7  F   UNL A   1     -25.860  -0.681  25.795  0.00  0.00    -0.199 F 
ENDROOT
BRANCH   1   9
ATOM      8  F   UNL A   1     -21.018   1.878  27.059  0.00  0.00    -0.188 F 
ATOM      9  C   UNL A   1     -24.546   1.314  27.245  0.00  0.00    +0.056 C 
ATOM     10  C   UNL A   1     -24.901   0.389  28.222  0.00  0.00    +0.011 C 
ATOM     11  C   UNL A   1     -22.196   1.532  27.610  0.00  0.00    +0.196 C 
ATOM     12  C   UNL A   1     -24.227  -0.071  29.302  0.00  0.00    -0.016 C 
ATOM     13  C   UNL A   1     -22.927   0.294  29.621  0.00  0.00    -0.000 C 
ATOM     14  C   UNL A   1     -23.194   2.044  25.424  0.00  0.00    +0.119 C 
ATOM     15  C   UNL A   1     -22.079   1.014  28.843  0.00  0.00    +0.045 C 
ATOM     16  N   UNL A   1     -23.346   1.681  26.834  0.00  0.00    -0.263 N 
BRANCH  12  17
ATOM     17  C   UNL A   1     -24.855  -1.012  30.143  0.00  0.00    +0.061 C 
BRANCH  17  18
ATOM     18  C   UNL A   1     -24.973  -2.505  29.788  0.00  0.00    -0.017 C 
ATOM     19  C   UNL A   1     -23.906  -3.173  29.146  0.00  0.00    -0.004 C 
ATOM     20  C   UNL A   1     -23.989  -4.549  28.853  0.00  0.00    -0.000 C 
ATOM     21  C   UNL A   1     -25.137  -5.280  29.205  0.00  0.00    -0.000 C 
ATOM     22  C   UNL A   1     -26.232  -4.611  29.784  0.00  0.00    -0.000 C 
ATOM     23  C   UNL A   1     -26.155  -3.232  30.065  0.00  0.00    -0.004 C 
ENDBRANCH  17  18
BRANCH  17  24
ATOM     24  C   UNL A   1     -25.387  -0.679  31.571  0.00  0.00    +0.081 C 
ATOM     25  C   UNL A   1     -25.189   0.773  32.028  0.00  0.00    +0.019 C 
ATOM     26  C   UNL A   1     -25.336   0.684  33.544  0.00  0.00    +0.020 C 
ATOM     27  C   UNL A   1     -24.829  -0.715  33.905  0.00  0.00    +0.089 C 
ATOM     28  N   UNL A   1     -24.758  -1.481  32.646  0.00  0.00    -0.219 NA
ENDBRANCH  17  24
ENDBRANCH  12  17
ENDBRANCH   1   9
BRANCH   2  29
ATOM     29  C   UNL A   1     -25.642   4.093  27.123  0.00  0.00    +0.222 C 
ATOM     30  N   UNL A   1     -25.614   5.252  26.449  0.00  0.00    -0.236 NA
ATOM     31  C   UNL A   1     -25.026   6.479  26.963  0.00  0.00    +0.155 C 
BRANCH  29  32
ATOM     32  O   UNL A   1     -25.143   3.966  28.243  0.00  0.00    -0.464 OA
BRANCH  32  34
ATOM     33  C   UNL A   1     -24.863   4.918  30.351  0.00  0.00    +0.049 C 
ATOM     34  C   UNL A   1     -25.800   3.799  29.533  0.00  0.00    +0.168 C 
ATOM     35  C   UNL A   1     -25.537   3.768  30.982  0.00  0.00    +0.048 C 
BRANCH  33  36
ATOM     36  C   UNL A   1     -25.705   6.082  30.431  0.00  0.00    +0.047 C 
BRANCH  36  51
ATOM     37  C   UNL A   1     -29.440   4.786  30.961  0.00  0.00    +0.019 C 
ATOM     38  C   UNL A   1     -24.485   5.706  32.834  0.00  0.00    +0.027 C 
ATOM     39  C   UNL A   1     -28.958   1.006  31.538  0.00  0.00    +0.044 C 
ATOM     40  C   UNL A   1     -29.158   3.650  30.562  0.00  0.00    +0.005 C 
ATOM     41  N   UNL A   1     -26.607   6.508  33.694  0.00  0.00    -0.305 N 
ATOM     42  C   UNL A   1     -28.784   5.550  31.849  0.00  0.00    +0.082 C 
ATOM     43  C   UNL A   1     -29.558   4.080  33.748  0.00  0.00    +0.040 C 
ATOM     44  C   UNL A   1     -28.781   5.378  33.161  0.00  0.00    +0.035 C 
ATOM     45  C   UNL A   1     -29.056   2.527  31.610  0.00  0.00    +0.038 C 
ATOM     46  C   UNL A   1     -25.896   7.381  35.835  0.00  0.00    +0.021 C 
ATOM     47  N   UNL A   1     -27.997   6.405  31.215  0.00  0.00    -0.252 NA
ATOM     48  C   UNL A   1     -25.578   7.328  34.268  0.00  0.00    +0.073 C 
ATOM     49  C   UNL A   1     -25.941   6.080  32.526  0.00  0.00    +0.109 C 
ATOM     50  C   UNL A   1     -24.172   6.705  34.006  0.00  0.00    +0.022 C 
ATOM     51  C   UNL A   1     -26.650   6.199  31.336  0.00  0.00    +0.055 C 
ATOM     52  C   UNL A   1     -29.659   0.475  32.772  0.00  0.00    +0.180 C 
ATOM     53  C   UNL A   1     -29.667   2.748  32.921  0.00  0.00    +0.145 C 
ATOM     54  O   UNL A   1     -30.033   1.551  33.581  0.00  0.00    -0.450 OA
ATOM     55  C   UNL A   1     -27.985   6.270  33.970  0.00  0.00    +0.063 C 
ENDBRANCH  36  51
ENDBRANCH  33  36
ENDBRANCH  32  34
ENDBRANCH  29  32
ENDBRANCH   2  29
BRANCH   5  56
ATOM     56  O   UNL A   1     -28.193  -0.208  24.477  0.00  0.00    -0.456 OA
BRANCH  56  57
ATOM     57  C   UNL A   1     -29.460   0.005  23.866  0.00  0.00    +0.243 C 
BRANCH  57  58
ATOM     58  C   UNL A   1     -30.065  -1.377  23.573  0.00  0.00    +0.229 C 
ATOM     59  O   UNL A   1     -30.729  -1.878  24.721  0.00  0.00    -0.216 OA
ENDBRANCH  57  58
ENDBRANCH  56  57
ENDBRANCH   5  56
TORSDOF 12
