MODEL 934
MODEL 1
REMARK VINA RESULT:    -7.261      0.000      0.000
REMARK INTER + INTRA:         -12.721
REMARK INTER:                 -11.081
REMARK INTRA:                  -1.640
REMARK UNBOUND:                -1.640
REMARK  Name = No_934-gen_results/8p0m/2024-11-27-11-27-31/
REMARK  9 active torsions:
REMARK  status: ('A' for Active; 'I' for Inactive)
REMARK    1  A    between atoms: C_1  and  C_2
REMARK    2  A    between atoms: C_1  and  C_8
REMARK    3  A    between atoms: C_5  and  C_10
REMARK    4  A    between atoms: N_9  and  C_17
REMARK    5  A    between atoms: C_18  and  O_26
REMARK    6  A    between atoms: C_19  and  O_24
REMARK    7  A    between atoms: O_24  and  C_27
REMARK    8  A    between atoms: O_26  and  C_33
REMARK    9  A    between atoms: C_28  and  C_29
REMARK                            x       y       z     vdW  Elec       q    Type
REMARK                         _______ _______ _______ _____ _____    ______ ____
ROOT
ATOM      1  C   UNL A   1     -25.320  -0.460  27.902  0.00  0.00    +0.276 C 
ATOM      2  C   UNL A   1     -24.725  -1.413  28.839  0.00  0.00    +0.269 C 
ATOM      3  C   UNL A   1     -25.150  -1.237  29.902  0.00  0.00    +0.278 C 
ATOM      4  C   UNL A   1     -26.493  -0.868  30.150  0.00  0.00    +0.291 C 
ATOM      5  C   UNL A   1     -27.110  -0.139  29.226  0.00  0.00    +0.382 C 
ATOM      6  O   UNL A   1     -26.261   0.393  28.483  0.00  0.00    -0.427 OA
ATOM      7  O   UNL A   1     -27.340  -2.069  30.567  0.00  0.00    -0.280 OA
ATOM      8  O   UNL A   1     -28.121  -0.618  28.694  0.00  0.00    -0.241 OA
ENDROOT
BRANCH   1  10
ATOM      9  C   UNL A   1     -24.577   0.974  26.125  0.00  0.00    +0.065 C 
ATOM     10  N   UNL A   1     -24.272   0.432  27.315  0.00  0.00    -0.238 NA
ATOM     11  C   UNL A   1     -23.209   0.466  27.886  0.00  0.00    +0.075 C 
ATOM     12  C   UNL A   1     -22.308   1.556  27.627  0.00  0.00    +0.018 C 
ATOM     13  C   UNL A   1     -22.560   2.225  26.369  0.00  0.00    +0.003 C 
ATOM     14  C   UNL A   1     -23.586   1.823  25.568  0.00  0.00    +0.017 C 
BRANCH   9  15
ATOM     15  C   UNL A   1     -25.358   0.163  25.115  0.00  0.00    +0.042 C 
BRANCH  15  16
ATOM     16  C   UNL A   1     -26.403   0.679  24.792  0.00  0.00    -0.021 A 
ATOM     17  C   UNL A   1     -27.378  -0.038  24.107  0.00  0.00    -0.004 A 
ATOM     18  C   UNL A   1     -28.696   0.484  23.647  0.00  0.00    +0.004 A 
ATOM     19  C   UNL A   1     -29.037   1.796  24.092  0.00  0.00    +0.059 A 
ATOM     20  C   UNL A   1     -28.059   2.484  24.837  0.00  0.00    +0.004 A 
ATOM     21  C   UNL A   1     -26.864   1.977  25.176  0.00  0.00    -0.004 A 
BRANCH  19  22
ATOM     22  C   UNL A   1     -30.332   2.288  23.703  0.00  0.00    +0.297 C 
ATOM     23  N   UNL A   1     -30.711   3.268  23.619  0.00  0.00    -0.102 NA
ATOM     24  O   UNL A   1     -30.923   1.386  22.797  0.00  0.00    -0.264 OA
ENDBRANCH  19  22
ENDBRANCH  15  16
ENDBRANCH   9  15
ENDBRANCH   1  10
BRANCH   3  25
ATOM     25  O   UNL A   1     -24.287  -0.292  30.679  0.00  0.00    -0.464 OA
BRANCH  25  26
ATOM     26  C   UNL A   1     -24.326  -0.096  32.009  0.00  0.00    +0.178 C 
ATOM     27  C   UNL A   1     -24.561   0.792  32.474  0.00  0.00    +0.099 C 
BRANCH  27  28
ATOM     28  C   UNL A   1     -24.833   2.106  31.691  0.00  0.00    +0.268 C 
ATOM     29  N   UNL A   1     -25.922   2.647  31.164  0.00  0.00    -0.200 NA
ATOM     30  C   UNL A   1     -25.960   3.834  30.628  0.00  0.00    +0.139 C 
ATOM     31  O   UNL A   1     -23.828   2.889  31.527  0.00  0.00    -0.268 OA
ENDBRANCH  27  28
ENDBRANCH  25  26
ENDBRANCH   3  25
BRANCH   2  32
ATOM     32  O   UNL A   1     -24.988  -2.723  28.230  0.00  0.00    -0.467 OA
BRANCH  32  33
ATOM     33  C   UNL A   1     -24.365  -3.844  28.667  0.00  0.00    +0.168 C 
ATOM     34  C   UNL A   1     -25.243  -4.833  28.946  0.00  0.00    +0.014 C 
ATOM     35  C   UNL A   1     -24.655  -5.999  29.311  0.00  0.00    +0.034 C 
ENDBRANCH  32  33
ENDBRANCH   2  32
TORSDOF 9
ENDMDL
ENDMDL
