REMARK  Name = No_935-gen_results/8p0m/2024-11-27-11-27-31/
REMARK  5 active torsions:
REMARK  status: ('A' for Active; 'I' for Inactive)
REMARK    1  A    between atoms: C_2  and  C_8
REMARK    2  A    between atoms: C_6  and  O_12
REMARK    3  A    between atoms: O_12  and  C_13
REMARK    4  A    between atoms: C_14  and  C_15
REMARK    5  A    between atoms: C_16  and  C_17
REMARK                            x       y       z     vdW  Elec       q    Type
REMARK                         _______ _______ _______ _____ _____    ______ ____
ROOT
ATOM      1  C   UNL A   1     -28.016  -0.814  28.878  0.00  0.00    +0.022 A 
ATOM      2  C   UNL A   1     -28.469  -0.785  29.829  0.00  0.00    +0.116 A 
ATOM      3  C   UNL A   1     -26.546  -0.876  28.850  0.00  0.00    +0.069 A 
ATOM      4  C   UNL A   1     -25.804  -1.032  30.057  0.00  0.00    +0.071 A 
ATOM      5  C   UNL A   1     -26.537  -1.039  31.217  0.00  0.00    +0.051 A 
ATOM      6  C   UNL A   1     -27.884  -0.953  31.186  0.00  0.00    +0.165 A 
ATOM      7 CL   UNL A   1     -24.139  -1.118  30.046  0.00  0.00    -0.081 Cl
ATOM      8 CL   UNL A   1     -25.549  -0.813  27.397  0.00  0.00    -0.081 Cl
ENDROOT
BRANCH   2   9
ATOM      9  C   UNL A   1     -30.061  -0.643  29.730  0.00  0.00    +0.391 C 
ATOM     10  O   UNL A   1     -30.618   0.286  30.398  0.00  0.00    -0.240 OA
ATOM     11  O   UNL A   1     -30.665  -1.476  29.081  0.00  0.00    -0.240 OA
ENDBRANCH   2   9
BRANCH   6  12
ATOM     12  O   UNL A   1     -28.619  -1.000  32.307  0.00  0.00    -0.405 OA
BRANCH  12  13
ATOM     13  C   UNL A   1     -28.172  -0.336  33.341  0.00  0.00    +0.122 C 
ATOM     14  C   UNL A   1     -27.689   0.803  33.389  0.00  0.00    -0.021 C 
BRANCH  14  15
ATOM     15  C   UNL A   1     -28.550   1.830  33.682  0.00  0.00    +0.053 C 
ATOM     16  C   UNL A   1     -28.838   2.641  33.005  0.00  0.00    +0.009 C 
BRANCH  16  17
ATOM     17  C   UNL A   1     -27.933   3.119  31.918  0.00  0.00    -0.004 C 
ATOM     18  C   UNL A   1     -26.712   2.380  31.865  0.00  0.00    -0.026 C 
ATOM     19  C   UNL A   1     -25.644   2.772  30.964  0.00  0.00    +0.031 C 
ENDBRANCH  16  17
ENDBRANCH  14  15
ENDBRANCH  12  13
ENDBRANCH   6  12
TORSDOF 5
