REMARK  Name = outputs/IAG933/test6/raw/output_9353_IAG933_linker_design_.xyz
REMARK  10 active torsions:
REMARK  status: ('A' for Active; 'I' for Inactive)
REMARK    1  A    between atoms: C_1  and  C_2
REMARK    2  A    between atoms: C_1  and  C_8
REMARK    3  A    between atoms: C_1  and  N_41
REMARK    4  A    between atoms: C_13  and  N_36
REMARK    5  A    between atoms: C_14  and  C_15
REMARK    6  A    between atoms: C_21  and  O_22
REMARK    7  A    between atoms: O_22  and  C_23
REMARK    8  A    between atoms: C_23  and  C_24
REMARK    9  A    between atoms: C_31  and  O_43
REMARK   10  A    between atoms: O_43  and  C_45
REMARK                            x       y       z     vdW  Elec       q    Type
REMARK                         _______ _______ _______ _____ _____    ______ ____
ROOT
ATOM      1  C   UNL A   1     -22.904   2.328  26.044  0.00  0.00    +0.183 C 
ATOM      2  O   UNL A   1     -22.180  -0.229  29.835  0.00  0.00    -0.270 OA
ATOM      3  C   UNL A   1     -23.077   0.194  29.062  0.00  0.00    +0.252 C 
ATOM      4  C   UNL A   1     -23.573   1.483  27.094  0.00  0.00    +0.062 C 
ATOM      5  N   UNL A   1     -24.896   1.191  27.365  0.00  0.00    -0.254 N 
ATOM      6  C   UNL A   1     -22.587   1.012  27.875  0.00  0.00    +0.073 C 
ATOM      7  O   UNL A   1     -21.569   2.147  26.214  0.00  0.00    -0.343 OA
ATOM      8  N   UNL A   1     -24.455  -0.029  29.196  0.00  0.00    -0.223 N 
ATOM      9  C   UNL A   1     -21.392   1.502  27.460  0.00  0.00    +0.175 C 
ATOM     10  C   UNL A   1     -25.386   0.595  28.418  0.00  0.00    +0.336 C 
ENDROOT
BRANCH   5  11
ATOM     11  C   UNL A   1     -25.688   1.614  26.461  0.00  0.00    +0.147 C 
ATOM     12  C   UNL A   1     -26.250   2.920  26.395  0.00  0.00    +0.073 C 
ATOM     13  C   UNL A   1     -27.438   3.091  25.645  0.00  0.00    +0.104 C 
ATOM     14  N   UNL A   1     -28.075   2.089  25.003  0.00  0.00    -0.212 NA
ATOM     15  C   UNL A   1     -27.543   0.849  25.079  0.00  0.00    +0.236 C 
ATOM     16  C   UNL A   1     -26.354   0.576  25.777  0.00  0.00    +0.258 C 
ATOM     17  F   UNL A   1     -25.860  -0.681  25.795  0.00  0.00    -0.225 F 
BRANCH  12  18
ATOM     18  C   UNL A   1     -25.642   4.093  27.123  0.00  0.00    +0.264 C 
ATOM     19  N   UNL A   1     -25.614   5.252  26.449  0.00  0.00    -0.200 NA
ATOM     20  C   UNL A   1     -25.026   6.479  26.963  0.00  0.00    +0.139 C 
ATOM     21  O   UNL A   1     -25.143   3.966  28.243  0.00  0.00    -0.269 OA
ENDBRANCH  12  18
BRANCH  15  22
ATOM     22  O   UNL A   1     -28.193  -0.208  24.477  0.00  0.00    -0.459 OA
BRANCH  22  23
ATOM     23  C   UNL A   1     -29.460   0.005  23.866  0.00  0.00    +0.242 C 
BRANCH  23  24
ATOM     24  C   UNL A   1     -30.065  -1.377  23.573  0.00  0.00    +0.229 C 
ATOM     25  O   UNL A   1     -30.729  -1.878  24.721  0.00  0.00    -0.216 OA
ENDBRANCH  23  24
ENDBRANCH  22  23
ENDBRANCH  15  22
ENDBRANCH   5  11
BRANCH   8  26
ATOM     26  C   UNL A   1     -24.855  -1.012  30.143  0.00  0.00    +0.119 C 
BRANCH  26  27
ATOM     27  C   UNL A   1     -24.973  -2.505  29.788  0.00  0.00    -0.003 C 
ATOM     28  C   UNL A   1     -23.906  -3.173  29.146  0.00  0.00    -0.003 C 
ATOM     29  C   UNL A   1     -23.989  -4.549  28.853  0.00  0.00    -0.000 C 
ATOM     30  C   UNL A   1     -25.137  -5.280  29.205  0.00  0.00    -0.000 C 
ATOM     31  C   UNL A   1     -26.232  -4.611  29.784  0.00  0.00    -0.000 C 
ATOM     32  C   UNL A   1     -26.155  -3.232  30.065  0.00  0.00    -0.003 C 
ENDBRANCH  26  27
BRANCH  26  33
ATOM     33  C   UNL A   1     -25.387  -0.679  31.571  0.00  0.00    +0.095 C 
ATOM     34  C   UNL A   1     -25.189   0.773  32.028  0.00  0.00    +0.021 C 
ATOM     35  C   UNL A   1     -25.336   0.684  33.544  0.00  0.00    +0.020 C 
ATOM     36  C   UNL A   1     -24.829  -0.715  33.905  0.00  0.00    +0.089 C 
ATOM     37  N   UNL A   1     -24.758  -1.481  32.646  0.00  0.00    -0.217 NA
ENDBRANCH  26  33
ENDBRANCH   8  26
BRANCH  10  38
ATOM     38  O   UNL A   1     -26.783   0.556  28.725  0.00  0.00    -0.441 OA
BRANCH  38  40
ATOM     39  C   UNL A   1     -29.042   1.133  29.145  0.00  0.00    +0.211 C 
ATOM     40  C   UNL A   1     -27.744   1.575  29.240  0.00  0.00    +0.177 C 
ATOM     41  C   UNL A   1     -27.268   2.572  30.122  0.00  0.00    +0.040 C 
ATOM     42  C   UNL A   1     -30.203   1.762  29.730  0.00  0.00    +0.098 C 
ATOM     43  O   UNL A   1     -29.239  -0.008  28.499  0.00  0.00    -0.288 OA
ATOM     44  C   UNL A   1     -27.879   3.146  31.258  0.00  0.00    +0.003 C 
ATOM     45  C   UNL A   1     -29.246   3.242  31.538  0.00  0.00    -0.004 C 
ATOM     46  C   UNL A   1     -30.292   2.735  30.738  0.00  0.00    -0.018 C 
ENDBRANCH  38  40
ENDBRANCH  10  38
TORSDOF 10
