REMARK  Name = outputs/IAG933/test6/raw/output_9355_IAG933_linker_design_.xyz
REMARK  11 active torsions:
REMARK  status: ('A' for Active; 'I' for Inactive)
REMARK    1  A    between atoms: C_1  and  C_2
REMARK    2  A    between atoms: C_1  and  C_8
REMARK    3  A    between atoms: C_1  and  C_29
REMARK    4  A    between atoms: C_13  and  C_32
REMARK    5  A    between atoms: C_14  and  C_15
REMARK    6  A    between atoms: C_21  and  O_22
REMARK    7  A    between atoms: O_22  and  C_23
REMARK    8  A    between atoms: C_23  and  C_24
REMARK    9  A    between atoms: C_30  and  N_35
REMARK   10  A    between atoms: O_37  and  N_40
REMARK   11  A    between atoms: O_37  and  S_42
REMARK                            x       y       z     vdW  Elec       q    Type
REMARK                         _______ _______ _______ _____ _____    ______ ____
ROOT
ATOM      1  N   UNL A   1     -21.601   0.463  29.183  0.00  0.00    -0.124 NA
ATOM      2  C   UNL A   1     -23.560   1.185  27.906  0.00  0.00    +0.196 C 
ATOM      3  C   UNL A   1     -23.365   2.118  25.679  0.00  0.00    -0.000 C 
ATOM      4  C   UNL A   1     -24.208   1.629  26.715  0.00  0.00    +0.027 C 
ATOM      5  C   UNL A   1     -21.955   2.089  25.812  0.00  0.00    +0.001 C 
ATOM      6  C   UNL A   1     -21.328   1.534  26.955  0.00  0.00    +0.022 C 
ATOM      7  C   UNL A   1     -22.138   1.064  28.006  0.00  0.00    +0.130 C 
ENDROOT
BRANCH   4   8
ATOM      8  C   UNL A   1     -25.688   1.614  26.461  0.00  0.00    +0.096 C 
ATOM      9  C   UNL A   1     -26.250   2.920  26.395  0.00  0.00    +0.059 C 
ATOM     10  C   UNL A   1     -27.438   3.091  25.645  0.00  0.00    +0.102 C 
ATOM     11  N   UNL A   1     -28.075   2.089  25.003  0.00  0.00    -0.212 NA
ATOM     12  C   UNL A   1     -27.543   0.849  25.079  0.00  0.00    +0.234 C 
ATOM     13  C   UNL A   1     -26.354   0.576  25.777  0.00  0.00    +0.244 C 
ATOM     14  F   UNL A   1     -25.860  -0.681  25.795  0.00  0.00    -0.227 F 
BRANCH   9  15
ATOM     15  C   UNL A   1     -25.642   4.093  27.123  0.00  0.00    +0.263 C 
ATOM     16  N   UNL A   1     -25.614   5.252  26.449  0.00  0.00    -0.200 NA
ATOM     17  C   UNL A   1     -25.026   6.479  26.963  0.00  0.00    +0.139 C 
ATOM     18  O   UNL A   1     -25.143   3.966  28.243  0.00  0.00    -0.269 OA
ENDBRANCH   9  15
BRANCH  12  19
ATOM     19  O   UNL A   1     -28.193  -0.208  24.477  0.00  0.00    -0.459 OA
BRANCH  19  20
ATOM     20  C   UNL A   1     -29.460   0.005  23.866  0.00  0.00    +0.242 C 
BRANCH  20  21
ATOM     21  C   UNL A   1     -30.065  -1.377  23.573  0.00  0.00    +0.229 C 
ATOM     22  O   UNL A   1     -30.729  -1.878  24.721  0.00  0.00    -0.216 OA
ENDBRANCH  20  21
ENDBRANCH  19  20
ENDBRANCH  12  19
ENDBRANCH   4   8
BRANCH   2  24
ATOM     23  C   UNL A   1     -25.236  -0.123  28.982  0.00  0.00    +0.395 C 
ATOM     24  N   UNL A   1     -24.221   0.871  29.034  0.00  0.00    -0.005 NA
ATOM     25  N   UNL A   1     -26.552   0.078  28.645  0.00  0.00    +0.179 NA
BRANCH  23  26
ATOM     26  C   UNL A   1     -24.855  -1.012  30.143  0.00  0.00    +0.152 C 
BRANCH  26  27
ATOM     27  C   UNL A   1     -24.973  -2.505  29.788  0.00  0.00    -0.009 C 
ATOM     28  C   UNL A   1     -23.906  -3.173  29.146  0.00  0.00    -0.004 C 
ATOM     29  C   UNL A   1     -23.989  -4.549  28.853  0.00  0.00    -0.000 C 
ATOM     30  C   UNL A   1     -25.137  -5.280  29.205  0.00  0.00    -0.000 C 
ATOM     31  C   UNL A   1     -26.232  -4.611  29.784  0.00  0.00    -0.000 C 
ATOM     32  C   UNL A   1     -26.155  -3.232  30.065  0.00  0.00    -0.004 C 
ENDBRANCH  26  27
BRANCH  26  33
ATOM     33  C   UNL A   1     -25.387  -0.679  31.571  0.00  0.00    +0.089 C 
ATOM     34  C   UNL A   1     -25.189   0.773  32.028  0.00  0.00    +0.020 C 
ATOM     35  C   UNL A   1     -25.336   0.684  33.544  0.00  0.00    +0.020 C 
ATOM     36  C   UNL A   1     -24.829  -0.715  33.905  0.00  0.00    +0.089 C 
ATOM     37  N   UNL A   1     -24.758  -1.481  32.646  0.00  0.00    -0.218 NA
ENDBRANCH  26  33
ENDBRANCH  23  26
BRANCH  25  38
ATOM     38  O   UNL A   1     -27.480  -0.080  29.580  0.00  0.00    -0.159 OA
BRANCH  38  42
ATOM     39  O   UNL A   1     -29.887   0.578  29.939  0.00  0.00    -0.271 OA
ATOM     40  O   UNL A   1     -29.263  -1.765  29.626  0.00  0.00    -0.271 OA
ATOM     41  O   UNL A   1     -29.183  -0.085  27.768  0.00  0.00    -0.271 OA
ATOM     42  S   UNL A   1     -28.919  -0.314  29.232  0.00  0.00    +0.001 S 
ENDBRANCH  38  42
ENDBRANCH  25  38
ENDBRANCH   2  24
TORSDOF 11
