REMARK  Name = outputs/IAG933/test6/raw/output_9358_IAG933_linker_design_.xyz
REMARK  14 active torsions:
REMARK  status: ('A' for Active; 'I' for Inactive)
REMARK    1  A    between atoms: C_1  and  C_2
REMARK    2  A    between atoms: C_1  and  C_8
REMARK    3  A    between atoms: C_9  and  C_35
REMARK    4  A    between atoms: C_13  and  N_34
REMARK    5  A    between atoms: C_14  and  C_15
REMARK    6  A    between atoms: C_21  and  O_22
REMARK    7  A    between atoms: O_22  and  C_23
REMARK    8  A    between atoms: C_23  and  C_24
REMARK    9  A    between atoms: C_28  and  C_35
REMARK   10  A    between atoms: C_28  and  C_36
REMARK   11  A    between atoms: N_33  and  C_35
REMARK   12  A    between atoms: N_33  and  C_40
REMARK   13  A    between atoms: N_34  and  C_40
REMARK   14  A    between atoms: N_34  and  C_41
REMARK                            x       y       z     vdW  Elec       q    Type
REMARK                         _______ _______ _______ _____ _____    ______ ____
ROOT
ATOM      1  N   UNL A   1     -24.525   1.631  29.513  0.00  0.00    -0.201 NA
ENDROOT
BRANCH   1   3
ATOM      2  C   UNL A   1     -22.372   1.601  28.535  0.00  0.00    +0.041 C 
ATOM      3  C   UNL A   1     -23.895   1.629  28.343  0.00  0.00    +0.147 C 
BRANCH   3   4
ATOM      4  N   UNL A   1     -24.382   1.231  27.014  0.00  0.00    -0.293 N 
BRANCH   4   5
ATOM      5  C   UNL A   1     -25.688   1.614  26.461  0.00  0.00    +0.087 C 
ATOM      6  C   UNL A   1     -26.250   2.920  26.395  0.00  0.00    +0.090 C 
ATOM      7  C   UNL A   1     -27.438   3.091  25.645  0.00  0.00    +0.108 C 
ATOM      8  N   UNL A   1     -28.075   2.089  25.003  0.00  0.00    -0.208 NA
ATOM      9  C   UNL A   1     -27.543   0.849  25.079  0.00  0.00    +0.255 C 
ATOM     10  C   UNL A   1     -26.354   0.576  25.777  0.00  0.00    +0.206 C 
ATOM     11  F   UNL A   1     -25.860  -0.681  25.795  0.00  0.00    -0.198 F 
BRANCH   6  12
ATOM     12  C   UNL A   1     -25.642   4.093  27.123  0.00  0.00    +0.268 C 
ATOM     13  N   UNL A   1     -25.614   5.252  26.449  0.00  0.00    -0.200 NA
ATOM     14  C   UNL A   1     -25.026   6.479  26.963  0.00  0.00    +0.139 C 
ATOM     15  O   UNL A   1     -25.143   3.966  28.243  0.00  0.00    -0.268 OA
ENDBRANCH   6  12
BRANCH   9  16
ATOM     16  O   UNL A   1     -28.193  -0.208  24.477  0.00  0.00    -0.456 OA
BRANCH  16  17
ATOM     17  C   UNL A   1     -29.460   0.005  23.866  0.00  0.00    +0.243 C 
BRANCH  17  18
ATOM     18  C   UNL A   1     -30.065  -1.377  23.573  0.00  0.00    +0.229 C 
ATOM     19  O   UNL A   1     -30.729  -1.878  24.721  0.00  0.00    -0.216 OA
ENDBRANCH  17  18
ENDBRANCH  16  17
ENDBRANCH   9  16
ENDBRANCH   4   5
BRANCH   4  21
ATOM     20  C   UNL A   1     -22.694   2.622  25.473  0.00  0.00    +0.023 C 
ATOM     21  C   UNL A   1     -23.353   1.351  25.895  0.00  0.00    +0.092 C 
ENDBRANCH   4  21
ENDBRANCH   3   4
ENDBRANCH   1   3
BRANCH   1  22
ATOM     22  C   UNL A   1     -25.569   1.953  31.021  0.00  0.00    +0.078 C 
BRANCH  22  24
ATOM     23  C   UNL A   1     -25.387  -0.679  31.571  0.00  0.00    +0.079 C 
ATOM     24  C   UNL A   1     -25.189   0.773  32.028  0.00  0.00    +0.034 C 
ATOM     25  C   UNL A   1     -25.336   0.684  33.544  0.00  0.00    +0.022 C 
ATOM     26  C   UNL A   1     -24.829  -0.715  33.905  0.00  0.00    +0.089 C 
ATOM     27  N   UNL A   1     -24.758  -1.481  32.646  0.00  0.00    -0.219 NA
BRANCH  23  28
ATOM     28  C   UNL A   1     -24.855  -1.012  30.143  0.00  0.00    +0.044 C 
BRANCH  28  29
ATOM     29  C   UNL A   1     -24.973  -2.505  29.788  0.00  0.00    -0.021 C 
ATOM     30  C   UNL A   1     -23.906  -3.173  29.146  0.00  0.00    -0.004 C 
ATOM     31  C   UNL A   1     -23.989  -4.549  28.853  0.00  0.00    -0.000 C 
ATOM     32  C   UNL A   1     -25.137  -5.280  29.205  0.00  0.00    -0.000 C 
ATOM     33  C   UNL A   1     -26.232  -4.611  29.784  0.00  0.00    -0.000 C 
ATOM     34  C   UNL A   1     -26.155  -3.232  30.065  0.00  0.00    -0.004 C 
ENDBRANCH  28  29
ENDBRANCH  23  28
ENDBRANCH  22  24
BRANCH  22  35
ATOM     35  C   UNL A   1     -25.305   3.035  31.498  0.00  0.00    +0.047 C 
BRANCH  35  39
ATOM     36  C   UNL A   1     -26.166   5.778  33.712  0.00  0.00    +0.005 C 
ATOM     37  C   UNL A   1     -24.843   5.338  34.291  0.00  0.00    +0.032 C 
ATOM     38  C   UNL A   1     -23.733   5.138  33.233  0.00  0.00    +0.142 C 
ATOM     39  C   UNL A   1     -25.476   4.523  31.533  0.00  0.00    +0.117 C 
ATOM     40  C   UNL A   1     -26.584   5.008  32.442  0.00  0.00    +0.030 C 
ATOM     41  O   UNL A   1     -24.223   5.333  31.834  0.00  0.00    -0.356 OA
ENDBRANCH  35  39
ENDBRANCH  22  35
ENDBRANCH   1  22
TORSDOF 14
