REMARK  Name = outputs/IAG933/test6/raw/output_9360_IAG933_linker_design_.xyz
REMARK  14 active torsions:
REMARK  status: ('A' for Active; 'I' for Inactive)
REMARK    1  A    between atoms: C_1  and  C_2
REMARK    2  A    between atoms: C_1  and  C_8
REMARK    3  A    between atoms: C_1  and  C_29
REMARK    4  A    between atoms: C_13  and  C_33
REMARK    5  A    between atoms: C_14  and  C_15
REMARK    6  A    between atoms: C_21  and  O_22
REMARK    7  A    between atoms: O_22  and  C_23
REMARK    8  A    between atoms: C_23  and  C_24
REMARK    9  A    between atoms: C_29  and  C_33
REMARK   10  A    between atoms: C_29  and  C_40
REMARK   11  A    between atoms: C_30  and  C_36
REMARK   12  A    between atoms: C_33  and  C_34
REMARK   13  A    between atoms: C_36  and  C_41
REMARK   14  A    between atoms: C_40  and  C_41
REMARK                            x       y       z     vdW  Elec       q    Type
REMARK                         _______ _______ _______ _____ _____    ______ ____
ROOT
ATOM      1  C   UNL A   1     -24.746   0.046  28.931  0.00  0.00    +0.010 C 
ENDROOT
BRANCH   1   2
ATOM      2  C   UNL A   1     -24.855  -1.012  30.143  0.00  0.00    +0.039 C 
BRANCH   2   3
ATOM      3  C   UNL A   1     -24.973  -2.505  29.788  0.00  0.00    -0.021 C 
ATOM      4  C   UNL A   1     -23.906  -3.173  29.146  0.00  0.00    -0.004 C 
ATOM      5  C   UNL A   1     -23.989  -4.549  28.853  0.00  0.00    -0.000 C 
ATOM      6  C   UNL A   1     -25.137  -5.280  29.205  0.00  0.00    -0.000 C 
ATOM      7  C   UNL A   1     -26.232  -4.611  29.784  0.00  0.00    -0.000 C 
ATOM      8  C   UNL A   1     -26.155  -3.232  30.065  0.00  0.00    -0.004 C 
ENDBRANCH   2   3
BRANCH   2   9
ATOM      9  C   UNL A   1     -25.387  -0.679  31.571  0.00  0.00    +0.077 C 
ATOM     10  C   UNL A   1     -25.189   0.773  32.028  0.00  0.00    +0.019 C 
ATOM     11  C   UNL A   1     -25.336   0.684  33.544  0.00  0.00    +0.020 C 
ATOM     12  C   UNL A   1     -24.829  -0.715  33.905  0.00  0.00    +0.089 C 
ATOM     13  N   UNL A   1     -24.758  -1.481  32.646  0.00  0.00    -0.219 NA
ENDBRANCH   2   9
ENDBRANCH   1   2
BRANCH   1  14
ATOM     14  C   UNL A   1     -24.523   1.195  27.454  0.00  0.00    +0.025 C 
BRANCH  14  15
ATOM     15  C   UNL A   1     -25.688   1.614  26.461  0.00  0.00    +0.016 C 
ATOM     16  C   UNL A   1     -26.250   2.920  26.395  0.00  0.00    +0.073 C 
ATOM     17  C   UNL A   1     -27.438   3.091  25.645  0.00  0.00    +0.106 C 
ATOM     18  N   UNL A   1     -28.075   2.089  25.003  0.00  0.00    -0.208 NA
ATOM     19  C   UNL A   1     -27.543   0.849  25.079  0.00  0.00    +0.253 C 
ATOM     20  C   UNL A   1     -26.354   0.576  25.777  0.00  0.00    +0.189 C 
ATOM     21  F   UNL A   1     -25.860  -0.681  25.795  0.00  0.00    -0.200 F 
BRANCH  16  22
ATOM     22  C   UNL A   1     -25.642   4.093  27.123  0.00  0.00    +0.266 C 
ATOM     23  N   UNL A   1     -25.614   5.252  26.449  0.00  0.00    -0.200 NA
ATOM     24  C   UNL A   1     -25.026   6.479  26.963  0.00  0.00    +0.139 C 
ATOM     25  O   UNL A   1     -25.143   3.966  28.243  0.00  0.00    -0.268 OA
ENDBRANCH  16  22
BRANCH  19  26
ATOM     26  O   UNL A   1     -28.193  -0.208  24.477  0.00  0.00    -0.456 OA
BRANCH  26  27
ATOM     27  C   UNL A   1     -29.460   0.005  23.866  0.00  0.00    +0.243 C 
BRANCH  27  28
ATOM     28  C   UNL A   1     -30.065  -1.377  23.573  0.00  0.00    +0.229 C 
ATOM     29  O   UNL A   1     -30.729  -1.878  24.721  0.00  0.00    -0.216 OA
ENDBRANCH  27  28
ENDBRANCH  26  27
ENDBRANCH  19  26
ENDBRANCH  14  15
BRANCH  14  30
ATOM     30  C   UNL A   1     -23.090   1.718  27.245  0.00  0.00    +0.004 C 
ATOM     31  C   UNL A   1     -22.747   2.170  25.831  0.00  0.00    +0.000 C 
ATOM     32  C   UNL A   1     -21.795   1.363  27.984  0.00  0.00    +0.000 C 
ENDBRANCH  14  30
ENDBRANCH   1  14
BRANCH   1  33
ATOM     33  C   UNL A   1     -25.835   1.016  29.289  0.00  0.00    +0.003 C 
BRANCH  33  34
ATOM     34  C   UNL A   1     -27.224   0.414  29.227  0.00  0.00    +0.033 C 
BRANCH  34  36
ATOM     35  O   UNL A   1     -29.198  -0.850  29.153  0.00  0.00    -0.223 OA
ATOM     36  C   UNL A   1     -28.639   0.438  29.548  0.00  0.00    +0.152 C 
BRANCH  36  38
ATOM     37  C   UNL A   1     -29.427   4.126  28.533  0.00  0.00    +0.033 C 
ATOM     38  C   UNL A   1     -29.465   1.617  29.108  0.00  0.00    +0.031 C 
ATOM     39  O   UNL A   1     -31.681   5.074  27.948  0.00  0.00    -0.223 OA
ATOM     40  C   UNL A   1     -30.605   1.315  28.128  0.00  0.00    +0.005 C 
ATOM     41  C   UNL A   1     -31.545   2.608  28.248  0.00  0.00    +0.033 C 
ATOM     42  C   UNL A   1     -29.229   2.893  29.446  0.00  0.00    +0.005 C 
ATOM     43  C   UNL A   1     -30.850   4.004  27.759  0.00  0.00    +0.152 C 
ATOM     44  C   UNL A   1     -28.121   3.085  30.567  0.00  0.00    +0.000 C 
ENDBRANCH  36  38
ENDBRANCH  34  36
ENDBRANCH  33  34
ENDBRANCH   1  33
TORSDOF 14
