REMARK  Name = outputs/IAG933/test6/raw/output_9368_IAG933_linker_design_.xyz
REMARK  16 active torsions:
REMARK  status: ('A' for Active; 'I' for Inactive)
REMARK    1  A    between atoms: C_1  and  C_2
REMARK    2  A    between atoms: C_1  and  C_8
REMARK    3  A    between atoms: C_1  and  N_35
REMARK    4  A    between atoms: C_13  and  N_38
REMARK    5  A    between atoms: C_14  and  C_15
REMARK    6  A    between atoms: C_21  and  O_22
REMARK    7  A    between atoms: O_22  and  C_23
REMARK    8  A    between atoms: C_23  and  C_24
REMARK    9  A    between atoms: CA_29  and  C_31
REMARK   10  A    between atoms: CA_29  and  C_32
REMARK   11  A    between atoms: CA_29  and  N_38
REMARK   12  A    between atoms: C_31  and  C_39
REMARK   13  A    between atoms: C_33  and  C_39
REMARK   14  A    between atoms: C_33  and  C_40
REMARK   15  A    between atoms: C_34  and  C_40
REMARK   16  A    between atoms: N_35  and  C_39
REMARK                            x       y       z     vdW  Elec       q    Type
REMARK                         _______ _______ _______ _____ _____    ______ ____
ROOT
ATOM      1  F   UNL A   1     -21.340   1.361  28.519  0.00  0.00    -0.234 F 
ATOM      2  C   UNL A   1     -22.816   1.332  28.336  0.00  0.00    +0.199 C 
ENDROOT
BRANCH   2   3
ATOM      3  CA  UNL A   1     -23.424   1.863  27.163  0.00  0.00    +0.159 C 
BRANCH   3   4
ATOM      4  C   UNL A   1     -23.151   1.804  25.775  0.00  0.00    +0.206 C 
ATOM      5  O   UNL A   1     -21.861   2.288  25.960  0.00  0.00    -0.218 OA
ENDBRANCH   3   4
BRANCH   3   6
ATOM      6  N   UNL A   1     -24.472   1.284  27.083  0.00  0.00    -0.231 NA
BRANCH   6   7
ATOM      7  C   UNL A   1     -25.688   1.614  26.461  0.00  0.00    +0.103 C 
ATOM      8  C   UNL A   1     -26.250   2.920  26.395  0.00  0.00    +0.091 C 
ATOM      9  C   UNL A   1     -27.438   3.091  25.645  0.00  0.00    +0.108 C 
ATOM     10  N   UNL A   1     -28.075   2.089  25.003  0.00  0.00    -0.208 NA
ATOM     11  C   UNL A   1     -27.543   0.849  25.079  0.00  0.00    +0.255 C 
ATOM     12  C   UNL A   1     -26.354   0.576  25.777  0.00  0.00    +0.208 C 
ATOM     13  F   UNL A   1     -25.860  -0.681  25.795  0.00  0.00    -0.198 F 
BRANCH   8  14
ATOM     14  C   UNL A   1     -25.642   4.093  27.123  0.00  0.00    +0.268 C 
ATOM     15  N   UNL A   1     -25.614   5.252  26.449  0.00  0.00    -0.200 NA
ATOM     16  C   UNL A   1     -25.026   6.479  26.963  0.00  0.00    +0.139 C 
ATOM     17  O   UNL A   1     -25.143   3.966  28.243  0.00  0.00    -0.268 OA
ENDBRANCH   8  14
BRANCH  11  18
ATOM     18  O   UNL A   1     -28.193  -0.208  24.477  0.00  0.00    -0.456 OA
BRANCH  18  19
ATOM     19  C   UNL A   1     -29.460   0.005  23.866  0.00  0.00    +0.243 C 
BRANCH  19  20
ATOM     20  C   UNL A   1     -30.065  -1.377  23.573  0.00  0.00    +0.229 C 
ATOM     21  O   UNL A   1     -30.729  -1.878  24.721  0.00  0.00    -0.216 OA
ENDBRANCH  19  20
ENDBRANCH  18  19
ENDBRANCH  11  18
ENDBRANCH   6   7
ENDBRANCH   3   6
ENDBRANCH   2   3
BRANCH   2  22
ATOM     22  C   UNL A   1     -23.916   1.139  29.347  0.00  0.00    +0.108 C 
BRANCH  22  23
ATOM     23  C   UNL A   1     -23.407   2.288  30.622  0.00  0.00    +0.025 C 
BRANCH  23  24
ATOM     24  C   UNL A   1     -23.700   3.626  31.386  0.00  0.00    +0.024 C 
BRANCH  24  26
ATOM     25  C   UNL A   1     -26.262   3.779  31.404  0.00  0.00    +0.026 C 
ATOM     26  C   UNL A   1     -25.056   4.036  31.994  0.00  0.00    -0.044 C 
ATOM     27  C   UNL A   1     -24.910   4.738  33.154  0.00  0.00    -0.009 C 
ENDBRANCH  24  26
ENDBRANCH  23  24
ENDBRANCH  22  23
BRANCH  22  28
ATOM     28  N   UNL A   1     -24.500  -0.196  29.013  0.00  0.00    -0.212 NA
BRANCH  28  29
ATOM     29  C   UNL A   1     -24.855  -1.012  30.143  0.00  0.00    +0.111 C 
BRANCH  29  30
ATOM     30  C   UNL A   1     -24.973  -2.505  29.788  0.00  0.00    -0.005 C 
ATOM     31  C   UNL A   1     -23.906  -3.173  29.146  0.00  0.00    -0.003 C 
ATOM     32  C   UNL A   1     -23.989  -4.549  28.853  0.00  0.00    -0.000 C 
ATOM     33  C   UNL A   1     -25.137  -5.280  29.205  0.00  0.00    -0.000 C 
ATOM     34  C   UNL A   1     -26.232  -4.611  29.784  0.00  0.00    -0.000 C 
ATOM     35  C   UNL A   1     -26.155  -3.232  30.065  0.00  0.00    -0.003 C 
ENDBRANCH  29  30
BRANCH  29  36
ATOM     36  C   UNL A   1     -25.387  -0.679  31.571  0.00  0.00    +0.093 C 
ATOM     37  C   UNL A   1     -25.189   0.773  32.028  0.00  0.00    +0.021 C 
ATOM     38  C   UNL A   1     -25.336   0.684  33.544  0.00  0.00    +0.020 C 
ATOM     39  C   UNL A   1     -24.829  -0.715  33.905  0.00  0.00    +0.089 C 
ATOM     40  N   UNL A   1     -24.758  -1.481  32.646  0.00  0.00    -0.218 NA
ENDBRANCH  29  36
ENDBRANCH  28  29
ENDBRANCH  22  28
ENDBRANCH   2  22
TORSDOF 16
