MODEL 936
MODEL 1
REMARK VINA RESULT:    -7.623      0.000      0.000
REMARK INTER + INTRA:         -14.423
REMARK INTER:                 -12.525
REMARK INTRA:                  -1.898
REMARK UNBOUND:                -1.898
REMARK  Name = No_936-gen_results/8p0m/2024-11-27-11-27-31/
REMARK  11 active torsions:
REMARK  status: ('A' for Active; 'I' for Inactive)
REMARK    1  A    between atoms: C_3  and  C_9
REMARK    2  A    between atoms: C_6  and  O_8
REMARK    3  A    between atoms: O_8  and  C_15
REMARK    4  A    between atoms: C_15  and  C_16
REMARK    5  A    between atoms: C_16  and  C_17
REMARK    6  A    between atoms: N_20  and  C_21
REMARK    7  A    between atoms: C_21  and  C_22
REMARK    8  A    between atoms: C_22  and  C_23
REMARK    9  A    between atoms: C_23  and  C_24
REMARK   10  A    between atoms: C_23  and  C_25
REMARK   11  A    between atoms: C_25  and  C_27
REMARK                            x       y       z     vdW  Elec       q    Type
REMARK                         _______ _______ _______ _____ _____    ______ ____
ROOT
ATOM      1  C   UNL A   1     -23.894   1.101  26.935  0.00  0.00    +0.123 C 
ATOM      2  N   UNL A   1     -23.090   0.577  27.855  0.00  0.00    -0.271 NA
ENDROOT
BRANCH   1   3
ATOM      3  C   UNL A   1     -24.619   0.472  26.025  0.00  0.00    +0.278 C 
ATOM      4 CL   UNL A   1     -24.649   0.320  24.799  0.00  0.00    -0.071 Cl
ATOM      5  F   UNL A   1     -24.976  -0.820  26.612  0.00  0.00    -0.213 F 
ENDBRANCH   1   3
BRANCH   1   6
ATOM      6  C   UNL A   1     -24.220   2.436  27.121  0.00  0.00    +0.250 C 
BRANCH   6   7
ATOM      7  O   UNL A   1     -25.454   2.590  27.730  0.00  0.00    -0.469 OA
BRANCH   7  13
ATOM      8  C   UNL A   1     -27.714   1.706  27.260  0.00  0.00    +0.048 A 
ATOM      9  C   UNL A   1     -28.724   1.710  26.596  0.00  0.00    +0.061 A 
ATOM     10  C   UNL A   1     -28.820   2.477  25.440  0.00  0.00    +0.011 A 
ATOM     11  C   UNL A   1     -27.736   3.327  25.022  0.00  0.00    +0.004 A 
ATOM     12  C   UNL A   1     -26.615   3.280  25.861  0.00  0.00    +0.037 A 
ATOM     13  C   UNL A   1     -26.580   2.551  26.953  0.00  0.00    +0.140 A 
ATOM     14 CL   UNL A   1     -30.125   0.798  26.969  0.00  0.00    -0.082 Cl
BRANCH  10  15
ATOM     15  C   UNL A   1     -30.034   2.527  24.509  0.00  0.00    -0.003 A 
ATOM     16  C   UNL A   1     -30.073   1.581  23.485  0.00  0.00    -0.022 A 
ATOM     17  C   UNL A   1     -31.194   1.593  22.599  0.00  0.00    -0.004 A 
ATOM     18  C   UNL A   1     -32.093   2.700  22.668  0.00  0.00    -0.000 A 
ATOM     19  C   UNL A   1     -31.951   3.685  23.561  0.00  0.00    -0.000 A 
ATOM     20  C   UNL A   1     -30.931   3.589  24.492  0.00  0.00    -0.000 A 
ATOM     21  C   UNL A   1     -29.210   0.364  23.428  0.00  0.00    +0.031 C 
ENDBRANCH  10  15
ENDBRANCH   7  13
ENDBRANCH   6   7
ENDBRANCH   1   6
BRANCH   2  22
ATOM     22  C   UNL A   1     -22.914   0.944  29.089  0.00  0.00    +0.126 C 
BRANCH  22  23
ATOM     23  C   UNL A   1     -22.596  -0.240  30.012  0.00  0.00    +0.038 C 
BRANCH  23  24
ATOM     24  C   UNL A   1     -23.688  -0.772  30.648  0.00  0.00    +0.110 C 
BRANCH  24  25
ATOM     25  C   UNL A   1     -23.727  -0.937  31.971  0.00  0.00    +0.365 C 
ATOM     26  O   UNL A   1     -24.778  -0.909  32.504  0.00  0.00    -0.246 OA
ATOM     27  O   UNL A   1     -22.601  -1.264  32.603  0.00  0.00    -0.246 OA
ENDBRANCH  24  25
BRANCH  24  28
ATOM     28  C   UNL A   1     -24.879  -1.140  29.914  0.00  0.00    +0.040 C 
BRANCH  28  29
ATOM     29  C   UNL A   1     -24.988  -2.562  29.633  0.00  0.00    +0.006 A 
ATOM     30  C   UNL A   1     -26.114  -3.364  30.037  0.00  0.00    +0.136 A 
ATOM     31  C   UNL A   1     -26.204  -4.695  29.666  0.00  0.00    +0.029 A 
ATOM     32  C   UNL A   1     -25.125  -5.285  28.931  0.00  0.00    +0.002 A 
ATOM     33  C   UNL A   1     -23.994  -4.506  28.593  0.00  0.00    -0.000 A 
ATOM     34  C   UNL A   1     -23.951  -3.277  28.885  0.00  0.00    -0.002 A 
ATOM     35  F   UNL A   1     -26.989  -2.725  30.613  0.00  0.00    -0.204 F 
ENDBRANCH  28  29
ENDBRANCH  24  28
ENDBRANCH  23  24
ENDBRANCH  22  23
ENDBRANCH   2  22
TORSDOF 11
ENDMDL
ENDMDL
