REMARK  Name = outputs/IAG933/test6/raw/output_9373_IAG933_linker_design_.xyz
REMARK  14 active torsions:
REMARK  status: ('A' for Active; 'I' for Inactive)
REMARK    1  A    between atoms: C_1  and  C_2
REMARK    2  A    between atoms: C_1  and  C_8
REMARK    3  A    between atoms: C_1  and  N_40
REMARK    4  A    between atoms: C_13  and  N_41
REMARK    5  A    between atoms: C_14  and  C_15
REMARK    6  A    between atoms: C_21  and  O_22
REMARK    7  A    between atoms: O_22  and  C_23
REMARK    8  A    between atoms: C_23  and  C_24
REMARK    9  A    between atoms: C_28  and  N_40
REMARK   10  A    between atoms: C_28  and  N_41
REMARK   11  A    between atoms: C_29  and  C_43
REMARK   12  A    between atoms: C_35  and  C_46
REMARK   13  A    between atoms: N_41  and  C_43
REMARK   14  A    between atoms: N_44  and  C_46
REMARK                            x       y       z     vdW  Elec       q    Type
REMARK                         _______ _______ _______ _____ _____    ______ ____
ROOT
ATOM      1  C   UNL A   1     -26.986  -0.135  29.052  0.00  0.00    +0.325 C 
ATOM      2  O   UNL A   1     -27.545  -1.035  29.282  0.00  0.00    -0.251 OA
ATOM      3  N   UNL A   1     -25.492  -0.135  29.138  0.00  0.00    -0.242 N 
ATOM      4  N   UNL A   1     -27.947   0.967  28.960  0.00  0.00    -0.184 NA
ENDROOT
BRANCH   3   5
ATOM      5  C   UNL A   1     -24.855  -1.012  30.143  0.00  0.00    +0.117 C 
BRANCH   5   6
ATOM      6  C   UNL A   1     -24.973  -2.505  29.788  0.00  0.00    -0.003 C 
ATOM      7  C   UNL A   1     -23.906  -3.173  29.146  0.00  0.00    -0.003 C 
ATOM      8  C   UNL A   1     -23.989  -4.549  28.853  0.00  0.00    -0.000 C 
ATOM      9  C   UNL A   1     -25.137  -5.280  29.205  0.00  0.00    -0.000 C 
ATOM     10  C   UNL A   1     -26.232  -4.611  29.784  0.00  0.00    -0.000 C 
ATOM     11  C   UNL A   1     -26.155  -3.232  30.065  0.00  0.00    -0.003 C 
ENDBRANCH   5   6
BRANCH   5  12
ATOM     12  C   UNL A   1     -25.387  -0.679  31.571  0.00  0.00    +0.095 C 
ATOM     13  C   UNL A   1     -25.189   0.773  32.028  0.00  0.00    +0.021 C 
ATOM     14  C   UNL A   1     -25.336   0.684  33.544  0.00  0.00    +0.020 C 
ATOM     15  C   UNL A   1     -24.829  -0.715  33.905  0.00  0.00    +0.089 C 
ATOM     16  N   UNL A   1     -24.758  -1.481  32.646  0.00  0.00    -0.217 NA
ENDBRANCH   5  12
ENDBRANCH   3   5
BRANCH   3  17
ATOM     17  C   UNL A   1     -24.701   0.964  28.612  0.00  0.00    +0.192 C 
BRANCH  17  18
ATOM     18  N   UNL A   1     -24.624   1.328  27.163  0.00  0.00    -0.290 N 
BRANCH  18  19
ATOM     19  C   UNL A   1     -25.688   1.614  26.461  0.00  0.00    +0.087 C 
ATOM     20  C   UNL A   1     -26.250   2.920  26.395  0.00  0.00    +0.090 C 
ATOM     21  C   UNL A   1     -27.438   3.091  25.645  0.00  0.00    +0.108 C 
ATOM     22  N   UNL A   1     -28.075   2.089  25.003  0.00  0.00    -0.208 NA
ATOM     23  C   UNL A   1     -27.543   0.849  25.079  0.00  0.00    +0.255 C 
ATOM     24  C   UNL A   1     -26.354   0.576  25.777  0.00  0.00    +0.206 C 
ATOM     25  F   UNL A   1     -25.860  -0.681  25.795  0.00  0.00    -0.198 F 
BRANCH  20  26
ATOM     26  C   UNL A   1     -25.642   4.093  27.123  0.00  0.00    +0.268 C 
ATOM     27  N   UNL A   1     -25.614   5.252  26.449  0.00  0.00    -0.200 NA
ATOM     28  C   UNL A   1     -25.026   6.479  26.963  0.00  0.00    +0.139 C 
ATOM     29  O   UNL A   1     -25.143   3.966  28.243  0.00  0.00    -0.268 OA
ENDBRANCH  20  26
BRANCH  23  30
ATOM     30  O   UNL A   1     -28.193  -0.208  24.477  0.00  0.00    -0.456 OA
BRANCH  30  31
ATOM     31  C   UNL A   1     -29.460   0.005  23.866  0.00  0.00    +0.243 C 
BRANCH  31  32
ATOM     32  C   UNL A   1     -30.065  -1.377  23.573  0.00  0.00    +0.229 C 
ATOM     33  O   UNL A   1     -30.729  -1.878  24.721  0.00  0.00    -0.216 OA
ENDBRANCH  31  32
ENDBRANCH  30  31
ENDBRANCH  23  30
ENDBRANCH  18  19
BRANCH  18  35
ATOM     34  C   UNL A   1     -23.078   2.205  25.309  0.00  0.00    +0.021 C 
ATOM     35  C   UNL A   1     -23.297   1.384  26.575  0.00  0.00    +0.074 C 
BRANCH  35  36
ATOM     36  C   UNL A   1     -22.308   1.834  27.652  0.00  0.00    +0.020 C 
ATOM     37  C   UNL A   1     -20.889   1.760  27.109  0.00  0.00    +0.002 C 
ENDBRANCH  35  36
ENDBRANCH  18  35
ENDBRANCH  17  18
ENDBRANCH   3  17
BRANCH   4  38
ATOM     38  C   UNL A   1     -29.319   0.931  29.632  0.00  0.00    +0.143 C 
BRANCH  38  42
ATOM     39  C   UNL A   1     -28.853   3.308  29.633  0.00  0.00    +0.032 C 
ATOM     40  C   UNL A   1     -31.580   2.189  26.591  0.00  0.00    +0.117 C 
ATOM     41  C   UNL A   1     -31.764   4.434  25.607  0.00  0.00    +0.113 C 
ATOM     42  C   UNL A   1     -30.271   1.718  28.680  0.00  0.00    -0.006 C 
ATOM     43  C   UNL A   1     -30.400   3.979  27.712  0.00  0.00    +0.057 C 
ATOM     44  N   UNL A   1     -31.226   3.530  26.676  0.00  0.00    -0.301 N 
ATOM     45  C   UNL A   1     -29.939   3.042  28.678  0.00  0.00    -0.010 C 
ATOM     46  C   UNL A   1     -31.140   1.274  27.587  0.00  0.00    -0.008 C 
ENDBRANCH  38  42
ENDBRANCH   4  38
TORSDOF 14
