REMARK  Name = outputs/IAG933/test6/raw/output_9375_IAG933_linker_design_.xyz
REMARK  14 active torsions:
REMARK  status: ('A' for Active; 'I' for Inactive)
REMARK    1  A    between atoms: C_1  and  C_2
REMARK    2  A    between atoms: C_1  and  C_8
REMARK    3  A    between atoms: C_1  and  N_29
REMARK    4  A    between atoms: C_13  and  C_33
REMARK    5  A    between atoms: C_14  and  C_15
REMARK    6  A    between atoms: C_21  and  O_22
REMARK    7  A    between atoms: O_22  and  C_23
REMARK    8  A    between atoms: C_23  and  C_24
REMARK    9  A    between atoms: O_31  and  C_32
REMARK   10  A    between atoms: O_31  and  C_39
REMARK   11  A    between atoms: C_36  and  C_41
REMARK   12  A    between atoms: O_37  and  C_39
REMARK   13  A    between atoms: O_37  and  C_41
REMARK   14  A    between atoms: C_41  and  C_42
REMARK                            x       y       z     vdW  Elec       q    Type
REMARK                         _______ _______ _______ _____ _____    ______ ____
ROOT
ATOM      1  C   UNL A   1     -25.901   0.412  28.706  0.00  0.00    +0.245 C 
ATOM      2  N   UNL A   1     -24.761  -0.083  29.028  0.00  0.00    -0.269 N 
ATOM      3  O   UNL A   1     -27.051   0.530  29.049  0.00  0.00    -0.270 OA
ATOM      4  C   UNL A   1     -24.875   1.129  27.363  0.00  0.00    +0.035 C 
ATOM      5  C   UNL A   1     -23.542   0.471  28.474  0.00  0.00    +0.119 C 
ATOM      6  C   UNL A   1     -23.732   1.167  27.522  0.00  0.00    +0.011 C 
ENDROOT
BRANCH   4   7
ATOM      7  C   UNL A   1     -25.688   1.614  26.461  0.00  0.00    +0.096 C 
ATOM      8  C   UNL A   1     -26.250   2.920  26.395  0.00  0.00    +0.059 C 
ATOM      9  C   UNL A   1     -27.438   3.091  25.645  0.00  0.00    +0.102 C 
ATOM     10  N   UNL A   1     -28.075   2.089  25.003  0.00  0.00    -0.212 NA
ATOM     11  C   UNL A   1     -27.543   0.849  25.079  0.00  0.00    +0.234 C 
ATOM     12  C   UNL A   1     -26.354   0.576  25.777  0.00  0.00    +0.244 C 
ATOM     13  F   UNL A   1     -25.860  -0.681  25.795  0.00  0.00    -0.227 F 
BRANCH   8  14
ATOM     14  C   UNL A   1     -25.642   4.093  27.123  0.00  0.00    +0.263 C 
ATOM     15  N   UNL A   1     -25.614   5.252  26.449  0.00  0.00    -0.200 NA
ATOM     16  C   UNL A   1     -25.026   6.479  26.963  0.00  0.00    +0.139 C 
ATOM     17  O   UNL A   1     -25.143   3.966  28.243  0.00  0.00    -0.269 OA
ENDBRANCH   8  14
BRANCH  11  18
ATOM     18  O   UNL A   1     -28.193  -0.208  24.477  0.00  0.00    -0.459 OA
BRANCH  18  19
ATOM     19  C   UNL A   1     -29.460   0.005  23.866  0.00  0.00    +0.242 C 
BRANCH  19  20
ATOM     20  C   UNL A   1     -30.065  -1.377  23.573  0.00  0.00    +0.229 C 
ATOM     21  O   UNL A   1     -30.729  -1.878  24.721  0.00  0.00    -0.216 OA
ENDBRANCH  19  20
ENDBRANCH  18  19
ENDBRANCH  11  18
ENDBRANCH   4   7
BRANCH   2  22
ATOM     22  C   UNL A   1     -24.855  -1.012  30.143  0.00  0.00    +0.114 C 
BRANCH  22  23
ATOM     23  C   UNL A   1     -24.973  -2.505  29.788  0.00  0.00    -0.003 C 
ATOM     24  C   UNL A   1     -23.906  -3.173  29.146  0.00  0.00    -0.003 C 
ATOM     25  C   UNL A   1     -23.989  -4.549  28.853  0.00  0.00    -0.000 C 
ATOM     26  C   UNL A   1     -25.137  -5.280  29.205  0.00  0.00    -0.000 C 
ATOM     27  C   UNL A   1     -26.232  -4.611  29.784  0.00  0.00    -0.000 C 
ATOM     28  C   UNL A   1     -26.155  -3.232  30.065  0.00  0.00    -0.003 C 
ENDBRANCH  22  23
BRANCH  22  29
ATOM     29  C   UNL A   1     -25.387  -0.679  31.571  0.00  0.00    +0.095 C 
ATOM     30  C   UNL A   1     -25.189   0.773  32.028  0.00  0.00    +0.021 C 
ATOM     31  C   UNL A   1     -25.336   0.684  33.544  0.00  0.00    +0.020 C 
ATOM     32  C   UNL A   1     -24.829  -0.715  33.905  0.00  0.00    +0.089 C 
ATOM     33  N   UNL A   1     -24.758  -1.481  32.646  0.00  0.00    -0.217 NA
ENDBRANCH  22  29
ENDBRANCH   2  22
BRANCH   6  34
ATOM     34  C   UNL A   1     -22.613   1.858  26.910  0.00  0.00    +0.202 C 
BRANCH  34  35
ATOM     35  C   UNL A   1     -23.181   2.754  26.005  0.00  0.00    +0.241 C 
ATOM     36  O   UNL A   1     -23.073   2.994  24.857  0.00  0.00    -0.285 OA
ENDBRANCH  34  35
BRANCH  34  37
ATOM     37  O   UNL A   1     -21.343   1.750  26.723  0.00  0.00    -0.317 OA
BRANCH  37  38
ATOM     38  C   UNL A   1     -20.227   1.580  27.381  0.00  0.00    +0.298 C 
BRANCH  38  39
ATOM     39  O   UNL A   1     -19.919   0.604  28.329  0.00  0.00    -0.285 OA
BRANCH  39  40
ATOM     40  C   UNL A   1     -20.863  -0.097  28.872  0.00  0.00    +0.368 C 
ATOM     41  O   UNL A   1     -22.118   0.330  29.041  0.00  0.00    -0.215 OA
ATOM     42  N   UNL A   1     -21.746  -0.551  29.667  0.00  0.00    -0.018 NA
ENDBRANCH  39  40
ENDBRANCH  38  39
ENDBRANCH  37  38
ENDBRANCH  34  37
ENDBRANCH   6  34
TORSDOF 14
