REMARK  Name = outputs/IAG933/test6/raw/output_9376_IAG933_linker_design_.xyz
REMARK  12 active torsions:
REMARK  status: ('A' for Active; 'I' for Inactive)
REMARK    1  A    between atoms: C_1  and  C_2
REMARK    2  A    between atoms: C_1  and  C_8
REMARK    3  A    between atoms: C_1  and  N_37
REMARK    4  A    between atoms: C_13  and  C_30
REMARK    5  A    between atoms: C_14  and  C_15
REMARK    6  A    between atoms: C_21  and  O_22
REMARK    7  A    between atoms: O_22  and  C_23
REMARK    8  A    between atoms: C_23  and  C_24
REMARK    9  A    between atoms: C_32  and  C_41
REMARK   10  A    between atoms: C_32  and  C_44
REMARK   11  A    between atoms: C_33  and  N_37
REMARK   12  A    between atoms: N_37  and  C_42
REMARK                            x       y       z     vdW  Elec       q    Type
REMARK                         _______ _______ _______ _____ _____    ______ ____
ROOT
ATOM      1  C   UNL A   1     -22.162   1.210  27.814  0.00  0.00    +0.130 A 
ATOM      2  N   UNL A   1     -20.886   1.493  27.814  0.00  0.00    -0.120 NA
ATOM      3  C   UNL A   1     -24.414   1.277  27.216  0.00  0.00    +0.035 A 
ATOM      4 CL   UNL A   1     -22.737   2.531  25.447  0.00  0.00    -0.080 Cl
ATOM      5  C   UNL A   1     -24.541   0.468  28.345  0.00  0.00    +0.091 A 
ATOM      6  C   UNL A   1     -23.127   1.668  26.857  0.00  0.00    +0.082 A 
ATOM      7  S   UNL A   1     -22.786   0.173  28.978  0.00  0.00    -0.053 S 
ENDROOT
BRANCH   3   8
ATOM      8  C   UNL A   1     -25.688   1.614  26.461  0.00  0.00    +0.041 C 
ATOM      9  C   UNL A   1     -26.250   2.920  26.395  0.00  0.00    +0.077 C 
ATOM     10  C   UNL A   1     -27.438   3.091  25.645  0.00  0.00    +0.107 C 
ATOM     11  N   UNL A   1     -28.075   2.089  25.003  0.00  0.00    -0.208 NA
ATOM     12  C   UNL A   1     -27.543   0.849  25.079  0.00  0.00    +0.253 C 
ATOM     13  C   UNL A   1     -26.354   0.576  25.777  0.00  0.00    +0.193 C 
ATOM     14  F   UNL A   1     -25.860  -0.681  25.795  0.00  0.00    -0.199 F 
BRANCH   9  15
ATOM     15  C   UNL A   1     -25.642   4.093  27.123  0.00  0.00    +0.266 C 
ATOM     16  N   UNL A   1     -25.614   5.252  26.449  0.00  0.00    -0.200 NA
ATOM     17  C   UNL A   1     -25.026   6.479  26.963  0.00  0.00    +0.139 C 
ATOM     18  O   UNL A   1     -25.143   3.966  28.243  0.00  0.00    -0.268 OA
ENDBRANCH   9  15
BRANCH  12  19
ATOM     19  O   UNL A   1     -28.193  -0.208  24.477  0.00  0.00    -0.456 OA
BRANCH  19  20
ATOM     20  C   UNL A   1     -29.460   0.005  23.866  0.00  0.00    +0.243 C 
BRANCH  20  21
ATOM     21  C   UNL A   1     -30.065  -1.377  23.573  0.00  0.00    +0.229 C 
ATOM     22  O   UNL A   1     -30.729  -1.878  24.721  0.00  0.00    -0.216 OA
ENDBRANCH  20  21
ENDBRANCH  19  20
ENDBRANCH  12  19
ENDBRANCH   3   8
BRANCH   5  23
ATOM     23  N   UNL A   1     -25.583  -0.238  29.134  0.00  0.00    -0.238 N 
BRANCH  23  25
ATOM     24  C   UNL A   1     -28.143  -0.834  29.292  0.00  0.00    -0.069 C 
ATOM     25  C   UNL A   1     -27.005  -0.437  29.050  0.00  0.00    +0.005 C 
BRANCH  24  26
ATOM     26  C   UNL A   1     -29.302  -1.292  29.621  0.00  0.00    +0.099 C 
BRANCH  26  32
ATOM     27  C   UNL A   1     -31.829  -2.581  29.245  0.00  0.00    +0.171 C 
ATOM     28  O   UNL A   1     -31.388  -3.271  30.386  0.00  0.00    -0.256 OA
ATOM     29  O   UNL A   1     -29.352  -3.287  31.435  0.00  0.00    -0.091 OA
ATOM     30  N   UNL A   1     -30.430  -2.445  31.268  0.00  0.00    -0.019 NA
ATOM     31  C   UNL A   1     -31.851  -1.176  29.830  0.00  0.00    +0.056 C 
ATOM     32  C   UNL A   1     -30.433  -1.178  30.536  0.00  0.00    +0.131 C 
ENDBRANCH  26  32
ENDBRANCH  24  26
ENDBRANCH  23  25
BRANCH  23  33
ATOM     33  C   UNL A   1     -24.855  -1.012  30.143  0.00  0.00    +0.124 C 
BRANCH  33  34
ATOM     34  C   UNL A   1     -24.973  -2.505  29.788  0.00  0.00    -0.002 C 
ATOM     35  C   UNL A   1     -23.906  -3.173  29.146  0.00  0.00    -0.003 C 
ATOM     36  C   UNL A   1     -23.989  -4.549  28.853  0.00  0.00    -0.000 C 
ATOM     37  C   UNL A   1     -25.137  -5.280  29.205  0.00  0.00    -0.000 C 
ATOM     38  C   UNL A   1     -26.232  -4.611  29.784  0.00  0.00    -0.000 C 
ATOM     39  C   UNL A   1     -26.155  -3.232  30.065  0.00  0.00    -0.003 C 
ENDBRANCH  33  34
BRANCH  33  40
ATOM     40  C   UNL A   1     -25.387  -0.679  31.571  0.00  0.00    +0.096 C 
ATOM     41  C   UNL A   1     -25.189   0.773  32.028  0.00  0.00    +0.021 C 
ATOM     42  C   UNL A   1     -25.336   0.684  33.544  0.00  0.00    +0.020 C 
ATOM     43  C   UNL A   1     -24.829  -0.715  33.905  0.00  0.00    +0.089 C 
ATOM     44  N   UNL A   1     -24.758  -1.481  32.646  0.00  0.00    -0.217 NA
ENDBRANCH  33  40
ENDBRANCH  23  33
ENDBRANCH   5  23
TORSDOF 12
