REMARK  Name = outputs/IAG933/test6/raw/output_9377_IAG933_linker_design_.xyz
REMARK  8 active torsions:
REMARK  status: ('A' for Active; 'I' for Inactive)
REMARK    1  A    between atoms: C_1  and  C_2
REMARK    2  A    between atoms: C_1  and  C_8
REMARK    3  A    between atoms: C_1  and  N_28
REMARK    4  A    between atoms: C_13  and  C_30
REMARK    5  A    between atoms: C_14  and  C_15
REMARK    6  A    between atoms: C_21  and  O_22
REMARK    7  A    between atoms: O_22  and  C_23
REMARK    8  A    between atoms: C_23  and  C_24
REMARK                            x       y       z     vdW  Elec       q    Type
REMARK                         _______ _______ _______ _____ _____    ______ ____
ROOT
ATOM      1  N   UNL A   1     -24.251  -0.095  29.143  0.00  0.00    -0.239 N 
ATOM      2  O   UNL A   1     -22.140  -0.793  29.579  0.00  0.00    -0.262 OA
ATOM      3  C   UNL A   1     -24.661   1.272  27.250  0.00  0.00    +0.170 C 
ATOM      4  C   UNL A   1     -21.580   0.879  28.159  0.00  0.00    +0.404 C 
ATOM      5  O   UNL A   1     -27.288   0.323  28.826  0.00  0.00    -0.230 OA
ATOM      6  O   UNL A   1     -20.405   0.647  28.373  0.00  0.00    -0.239 OA
ATOM      7  N   UNL A   1     -23.637   1.413  26.590  0.00  0.00    -0.159 NA
ATOM      8  C   UNL A   1     -26.344   0.316  28.642  0.00  0.00    +0.146 C 
ATOM      9  O   UNL A   1     -22.599   2.936  25.435  0.00  0.00    -0.224 OA
ATOM     10  C   UNL A   1     -24.943   0.492  28.310  0.00  0.00    +0.132 C 
ATOM     11  O   UNL A   1     -21.505   1.907  27.152  0.00  0.00    -0.370 OA
ATOM     12  C   UNL A   1     -22.600   0.138  28.964  0.00  0.00    +0.330 C 
ATOM     13  C   UNL A   1     -22.565   2.081  26.347  0.00  0.00    +0.429 C 
ENDROOT
BRANCH   3  14
ATOM     14  C   UNL A   1     -25.688   1.614  26.461  0.00  0.00    +0.042 C 
ATOM     15  C   UNL A   1     -26.250   2.920  26.395  0.00  0.00    +0.075 C 
ATOM     16  C   UNL A   1     -27.438   3.091  25.645  0.00  0.00    +0.106 C 
ATOM     17  N   UNL A   1     -28.075   2.089  25.003  0.00  0.00    -0.208 NA
ATOM     18  C   UNL A   1     -27.543   0.849  25.079  0.00  0.00    +0.253 C 
ATOM     19  C   UNL A   1     -26.354   0.576  25.777  0.00  0.00    +0.191 C 
ATOM     20  F   UNL A   1     -25.860  -0.681  25.795  0.00  0.00    -0.200 F 
BRANCH  15  21
ATOM     21  C   UNL A   1     -25.642   4.093  27.123  0.00  0.00    +0.266 C 
ATOM     22  N   UNL A   1     -25.614   5.252  26.449  0.00  0.00    -0.200 NA
ATOM     23  C   UNL A   1     -25.026   6.479  26.963  0.00  0.00    +0.139 C 
ATOM     24  O   UNL A   1     -25.143   3.966  28.243  0.00  0.00    -0.268 OA
ENDBRANCH  15  21
BRANCH  18  25
ATOM     25  O   UNL A   1     -28.193  -0.208  24.477  0.00  0.00    -0.456 OA
BRANCH  25  26
ATOM     26  C   UNL A   1     -29.460   0.005  23.866  0.00  0.00    +0.243 C 
BRANCH  26  27
ATOM     27  C   UNL A   1     -30.065  -1.377  23.573  0.00  0.00    +0.229 C 
ATOM     28  O   UNL A   1     -30.729  -1.878  24.721  0.00  0.00    -0.216 OA
ENDBRANCH  26  27
ENDBRANCH  25  26
ENDBRANCH  18  25
ENDBRANCH   3  14
BRANCH   1  29
ATOM     29  C   UNL A   1     -24.855  -1.012  30.143  0.00  0.00    +0.119 C 
BRANCH  29  30
ATOM     30  C   UNL A   1     -24.973  -2.505  29.788  0.00  0.00    -0.003 C 
ATOM     31  C   UNL A   1     -23.906  -3.173  29.146  0.00  0.00    -0.003 C 
ATOM     32  C   UNL A   1     -23.989  -4.549  28.853  0.00  0.00    -0.000 C 
ATOM     33  C   UNL A   1     -25.137  -5.280  29.205  0.00  0.00    -0.000 C 
ATOM     34  C   UNL A   1     -26.232  -4.611  29.784  0.00  0.00    -0.000 C 
ATOM     35  C   UNL A   1     -26.155  -3.232  30.065  0.00  0.00    -0.003 C 
ENDBRANCH  29  30
BRANCH  29  36
ATOM     36  C   UNL A   1     -25.387  -0.679  31.571  0.00  0.00    +0.096 C 
ATOM     37  C   UNL A   1     -25.189   0.773  32.028  0.00  0.00    +0.021 C 
ATOM     38  C   UNL A   1     -25.336   0.684  33.544  0.00  0.00    +0.020 C 
ATOM     39  C   UNL A   1     -24.829  -0.715  33.905  0.00  0.00    +0.089 C 
ATOM     40  N   UNL A   1     -24.758  -1.481  32.646  0.00  0.00    -0.217 NA
ENDBRANCH  29  36
ENDBRANCH   1  29
TORSDOF 8
