REMARK  Name = outputs/IAG933/test6/raw/output_9378_IAG933_linker_design_.xyz
REMARK  12 active torsions:
REMARK  status: ('A' for Active; 'I' for Inactive)
REMARK    1  A    between atoms: C_1  and  C_2
REMARK    2  A    between atoms: C_1  and  C_8
REMARK    3  A    between atoms: C_1  and  N_32
REMARK    4  A    between atoms: C_13  and  C_46
REMARK    5  A    between atoms: C_14  and  C_15
REMARK    6  A    between atoms: C_21  and  O_22
REMARK    7  A    between atoms: O_22  and  C_23
REMARK    8  A    between atoms: C_23  and  C_24
REMARK    9  A    between atoms: C_29  and  C_37
REMARK   10  A    between atoms: C_29  and  N_41
REMARK   11  A    between atoms: N_32  and  C_37
REMARK   12  A    between atoms: O_33  and  C_36
REMARK                            x       y       z     vdW  Elec       q    Type
REMARK                         _______ _______ _______ _____ _____    ______ ____
ROOT
ATOM      1  C   UNL A   1     -21.416   1.444  27.422  0.00  0.00    +0.052 C 
ATOM      2  N   UNL A   1     -25.442  -0.095  29.151  0.00  0.00    -0.187 N 
ATOM      3  C   UNL A   1     -22.170   1.998  26.384  0.00  0.00    +0.099 C 
ATOM      4  C   UNL A   1     -21.887   0.607  28.362  0.00  0.00    +0.291 C 
ATOM      5  N   UNL A   1     -23.129   0.129  28.737  0.00  0.00    -0.059 NA
ATOM      6  N   UNL A   1     -23.436   2.029  26.324  0.00  0.00    -0.236 NA
ATOM      7  C   UNL A   1     -24.373   0.498  28.314  0.00  0.00    +0.337 C 
ATOM      8  C   UNL A   1     -24.390   1.363  27.041  0.00  0.00    +0.165 C 
ENDROOT
BRANCH   8   9
ATOM      9  C   UNL A   1     -25.688   1.614  26.461  0.00  0.00    +0.063 C 
ATOM     10  C   UNL A   1     -26.250   2.920  26.395  0.00  0.00    +0.078 C 
ATOM     11  C   UNL A   1     -27.438   3.091  25.645  0.00  0.00    +0.107 C 
ATOM     12  N   UNL A   1     -28.075   2.089  25.003  0.00  0.00    -0.208 NA
ATOM     13  C   UNL A   1     -27.543   0.849  25.079  0.00  0.00    +0.253 C 
ATOM     14  C   UNL A   1     -26.354   0.576  25.777  0.00  0.00    +0.195 C 
ATOM     15  F   UNL A   1     -25.860  -0.681  25.795  0.00  0.00    -0.199 F 
BRANCH  10  16
ATOM     16  C   UNL A   1     -25.642   4.093  27.123  0.00  0.00    +0.267 C 
ATOM     17  N   UNL A   1     -25.614   5.252  26.449  0.00  0.00    -0.200 NA
ATOM     18  C   UNL A   1     -25.026   6.479  26.963  0.00  0.00    +0.139 C 
ATOM     19  O   UNL A   1     -25.143   3.966  28.243  0.00  0.00    -0.268 OA
ENDBRANCH  10  16
BRANCH  13  20
ATOM     20  O   UNL A   1     -28.193  -0.208  24.477  0.00  0.00    -0.456 OA
BRANCH  20  21
ATOM     21  C   UNL A   1     -29.460   0.005  23.866  0.00  0.00    +0.243 C 
BRANCH  21  22
ATOM     22  C   UNL A   1     -30.065  -1.377  23.573  0.00  0.00    +0.229 C 
ATOM     23  O   UNL A   1     -30.729  -1.878  24.721  0.00  0.00    -0.216 OA
ENDBRANCH  21  22
ENDBRANCH  20  21
ENDBRANCH  13  20
ENDBRANCH   8   9
BRANCH   2  24
ATOM     24  C   UNL A   1     -24.855  -1.012  30.143  0.00  0.00    +0.199 C 
BRANCH  24  25
ATOM     25  C   UNL A   1     -24.973  -2.505  29.788  0.00  0.00    +0.021 C 
ATOM     26  C   UNL A   1     -23.906  -3.173  29.146  0.00  0.00    -0.000 C 
ATOM     27  C   UNL A   1     -23.989  -4.549  28.853  0.00  0.00    -0.000 C 
ATOM     28  C   UNL A   1     -25.137  -5.280  29.205  0.00  0.00    -0.000 C 
ATOM     29  C   UNL A   1     -26.232  -4.611  29.784  0.00  0.00    -0.000 C 
ATOM     30  C   UNL A   1     -26.155  -3.232  30.065  0.00  0.00    -0.000 C 
ENDBRANCH  24  25
BRANCH  24  31
ATOM     31  C   UNL A   1     -25.387  -0.679  31.571  0.00  0.00    +0.120 C 
ATOM     32  C   UNL A   1     -25.189   0.773  32.028  0.00  0.00    +0.023 C 
ATOM     33  C   UNL A   1     -25.336   0.684  33.544  0.00  0.00    +0.020 C 
ATOM     34  C   UNL A   1     -24.829  -0.715  33.905  0.00  0.00    +0.089 C 
ATOM     35  N   UNL A   1     -24.758  -1.481  32.646  0.00  0.00    -0.215 NA
ENDBRANCH  24  31
ENDBRANCH   2  24
BRANCH   2  36
ATOM     36  C   UNL A   1     -26.820  -0.002  28.935  0.00  0.00    +0.220 C 
BRANCH  36  37
ATOM     37  C   UNL A   1     -27.728   1.096  29.449  0.00  0.00    +0.124 C 
BRANCH  37  42
ATOM     38  C   UNL A   1     -30.076   1.974  29.129  0.00  0.00    +0.077 C 
ATOM     39  C   UNL A   1     -30.475   0.380  26.771  0.00  0.00    +0.162 C 
ATOM     40  C   UNL A   1     -29.156   0.255  27.517  0.00  0.00    +0.105 C 
ATOM     41  C   UNL A   1     -31.817  -0.011  28.638  0.00  0.00    +0.237 C 
ATOM     42  N   UNL A   1     -29.120   0.871  28.903  0.00  0.00    -0.267 NA
ATOM     43  C   UNL A   1     -31.516   1.393  29.274  0.00  0.00    +0.079 C 
ATOM     44  O   UNL A   1     -31.435  -0.267  27.234  0.00  0.00    -0.329 OA
BRANCH  41  45
ATOM     45  O   UNL A   1     -33.208  -0.380  28.672  0.00  0.00    -0.328 OA
ATOM     46  C   UNL A   1     -33.348  -1.793  28.645  0.00  0.00    +0.177 C 
ENDBRANCH  41  45
ENDBRANCH  37  42
ENDBRANCH  36  37
ENDBRANCH   2  36
TORSDOF 12
