MODEL 937
MODEL 1
REMARK VINA RESULT:    -6.810      0.000      0.000
REMARK INTER + INTRA:          -8.002
REMARK INTER:                  -8.005
REMARK INTRA:                   0.002
REMARK UNBOUND:                 0.002
REMARK  Name = No_937-gen_results/8p0m/2024-11-27-11-27-31/
REMARK  3 active torsions:
REMARK  status: ('A' for Active; 'I' for Inactive)
REMARK    1  A    between atoms: C_6  and  C_15
REMARK    2  A    between atoms: C_8  and  C_12
REMARK    3  A    between atoms: C_11  and  O_18
REMARK                            x       y       z     vdW  Elec       q    Type
REMARK                         _______ _______ _______ _____ _____    ______ ____
ROOT
ATOM      1  C   UNL A   1     -23.290   0.962  27.497  0.00  0.00    +0.009 A 
ATOM      2  C   UNL A   1     -23.760   0.015  28.084  0.00  0.00    +0.031 A 
ATOM      3  C   UNL A   1     -24.882  -0.686  27.643  0.00  0.00    -0.015 A 
ATOM      4  C   UNL A   1     -25.571  -0.236  26.449  0.00  0.00    -0.004 A 
ATOM      5  C   UNL A   1     -25.007   0.870  25.815  0.00  0.00    +0.006 A 
ATOM      6  C   UNL A   1     -23.948   1.481  26.309  0.00  0.00    +0.080 A 
ATOM      7  C   UNL A   1     -25.522  -1.868  28.304  0.00  0.00    +0.054 C 
ATOM      8  C   UNL A   1     -24.875  -2.605  29.162  0.00  0.00    +0.026 C 
ATOM      9  C   UNL A   1     -23.960  -2.644  29.708  0.00  0.00    +0.000 C 
ATOM     10  C   UNL A   1     -22.945  -1.630  29.449  0.00  0.00    +0.036 C 
ATOM     11  C   UNL A   1     -22.996  -0.561  28.767  0.00  0.00    +0.138 C 
ENDROOT
BRANCH   8  12
ATOM     12  C   UNL A   1     -25.962  -3.837  29.521  0.00  0.00    +0.338 C 
ATOM     13  F   UNL A   1     -26.933  -3.510  30.243  0.00  0.00    -0.194 F 
ATOM     14  F   UNL A   1     -25.591  -5.010  29.554  0.00  0.00    -0.194 F 
ENDBRANCH   8  12
BRANCH   6  15
ATOM     15  C   UNL A   1     -23.417   2.710  25.640  0.00  0.00    +0.388 C 
ATOM     16  O   UNL A   1     -22.470   2.609  24.848  0.00  0.00    -0.241 OA
ATOM     17  O   UNL A   1     -24.178   3.732  25.494  0.00  0.00    -0.241 OA
ENDBRANCH   6  15
BRANCH  11  18
ATOM     18  O   UNL A   1     -21.792   0.229  29.025  0.00  0.00    -0.471 OA
ATOM     19  C   UNL A   1     -20.600  -0.295  28.723  0.00  0.00    +0.253 C 
ENDBRANCH  11  18
TORSDOF 3
ENDMDL
ENDMDL
