REMARK  Name = outputs/IAG933/test6/raw/output_9382_IAG933_linker_design_.xyz
REMARK  13 active torsions:
REMARK  status: ('A' for Active; 'I' for Inactive)
REMARK    1  A    between atoms: C_1  and  C_2
REMARK    2  A    between atoms: C_1  and  C_8
REMARK    3  A    between atoms: C_1  and  C_35
REMARK    4  A    between atoms: C_13  and  C_31
REMARK    5  A    between atoms: C_14  and  C_15
REMARK    6  A    between atoms: C_21  and  O_22
REMARK    7  A    between atoms: O_22  and  C_23
REMARK    8  A    between atoms: C_23  and  C_24
REMARK    9  A    between atoms: C_31  and  C_35
REMARK   10  A    between atoms: C_31  and  C_36
REMARK   11  A    between atoms: C_33  and  C_35
REMARK   12  A    between atoms: C_37  and  O_41
REMARK   13  A    between atoms: N_40  and  O_42
REMARK                            x       y       z     vdW  Elec       q    Type
REMARK                         _______ _______ _______ _____ _____    ______ ____
ROOT
ATOM      1  C   UNL A   1     -24.855   1.091  27.647  0.00  0.00    +0.021 C 
ENDROOT
BRANCH   1   2
ATOM      2  C   UNL A   1     -25.688   1.614  26.461  0.00  0.00    +0.071 C 
ATOM      3  C   UNL A   1     -26.250   2.920  26.395  0.00  0.00    +0.055 C 
ATOM      4  C   UNL A   1     -27.438   3.091  25.645  0.00  0.00    +0.102 C 
ATOM      5  N   UNL A   1     -28.075   2.089  25.003  0.00  0.00    -0.212 NA
ATOM      6  C   UNL A   1     -27.543   0.849  25.079  0.00  0.00    +0.234 C 
ATOM      7  C   UNL A   1     -26.354   0.576  25.777  0.00  0.00    +0.240 C 
ATOM      8  F   UNL A   1     -25.860  -0.681  25.795  0.00  0.00    -0.227 F 
BRANCH   3   9
ATOM      9  C   UNL A   1     -25.642   4.093  27.123  0.00  0.00    +0.262 C 
ATOM     10  N   UNL A   1     -25.614   5.252  26.449  0.00  0.00    -0.200 NA
ATOM     11  C   UNL A   1     -25.026   6.479  26.963  0.00  0.00    +0.139 C 
ATOM     12  O   UNL A   1     -25.143   3.966  28.243  0.00  0.00    -0.269 OA
ENDBRANCH   3   9
BRANCH   6  13
ATOM     13  O   UNL A   1     -28.193  -0.208  24.477  0.00  0.00    -0.459 OA
BRANCH  13  14
ATOM     14  C   UNL A   1     -29.460   0.005  23.866  0.00  0.00    +0.242 C 
BRANCH  14  15
ATOM     15  C   UNL A   1     -30.065  -1.377  23.573  0.00  0.00    +0.229 C 
ATOM     16  O   UNL A   1     -30.729  -1.878  24.721  0.00  0.00    -0.216 OA
ENDBRANCH  14  15
ENDBRANCH  13  14
ENDBRANCH   6  13
ENDBRANCH   1   2
BRANCH   1  21
ATOM     17  O   UNL A   1     -22.643   1.173  30.072  0.00  0.00    -0.223 OA
ATOM     18  C   UNL A   1     -22.610   0.622  28.684  0.00  0.00    +0.154 C 
ATOM     19  C   UNL A   1     -21.227   0.765  27.868  0.00  0.00    +0.035 C 
ATOM     20  C   UNL A   1     -21.313   2.103  27.458  0.00  0.00    +0.032 C 
ATOM     21  C   UNL A   1     -23.574   1.452  27.794  0.00  0.00    +0.059 C 
ATOM     22  C   UNL A   1     -22.733   2.523  27.183  0.00  0.00    +0.118 C 
BRANCH  22  24
ATOM     23  C   UNL A   1     -23.337   2.952  24.890  0.00  0.00    +0.174 C 
ATOM     24  O   UNL A   1     -22.880   1.941  25.605  0.00  0.00    -0.353 OA
ENDBRANCH  22  24
ENDBRANCH   1  21
BRANCH   1  25
ATOM     25  C   UNL A   1     -25.220  -0.071  28.921  0.00  0.00    +0.086 C 
BRANCH  25  26
ATOM     26  C   UNL A   1     -26.699   0.192  28.966  0.00  0.00    +0.267 C 
ATOM     27  O   UNL A   1     -27.510  -0.613  28.571  0.00  0.00    -0.271 OA
ATOM     28  N   UNL A   1     -26.976   1.331  29.531  0.00  0.00    -0.062 NA
BRANCH  28  30
ATOM     29  C   UNL A   1     -29.155   2.178  29.862  0.00  0.00    +0.208 C 
ATOM     30  O   UNL A   1     -28.017   1.494  30.440  0.00  0.00    -0.241 OA
ENDBRANCH  28  30
ENDBRANCH  25  26
BRANCH  25  31
ATOM     31  C   UNL A   1     -24.855  -1.012  30.143  0.00  0.00    +0.047 C 
BRANCH  31  32
ATOM     32  C   UNL A   1     -24.973  -2.505  29.788  0.00  0.00    -0.021 C 
ATOM     33  C   UNL A   1     -23.906  -3.173  29.146  0.00  0.00    -0.004 C 
ATOM     34  C   UNL A   1     -23.989  -4.549  28.853  0.00  0.00    -0.000 C 
ATOM     35  C   UNL A   1     -25.137  -5.280  29.205  0.00  0.00    -0.000 C 
ATOM     36  C   UNL A   1     -26.232  -4.611  29.784  0.00  0.00    -0.000 C 
ATOM     37  C   UNL A   1     -26.155  -3.232  30.065  0.00  0.00    -0.004 C 
ENDBRANCH  31  32
BRANCH  31  38
ATOM     38  C   UNL A   1     -25.387  -0.679  31.571  0.00  0.00    +0.077 C 
ATOM     39  C   UNL A   1     -25.189   0.773  32.028  0.00  0.00    +0.019 C 
ATOM     40  C   UNL A   1     -25.336   0.684  33.544  0.00  0.00    +0.020 C 
ATOM     41  C   UNL A   1     -24.829  -0.715  33.905  0.00  0.00    +0.089 C 
ATOM     42  N   UNL A   1     -24.758  -1.481  32.646  0.00  0.00    -0.219 NA
ENDBRANCH  31  38
ENDBRANCH  25  31
ENDBRANCH   1  25
TORSDOF 13
