REMARK  Name = outputs/IAG933/test6/raw/output_9385_IAG933_linker_design_.xyz
REMARK  21 active torsions:
REMARK  status: ('A' for Active; 'I' for Inactive)
REMARK    1  A    between atoms: C_1  and  C_2
REMARK    2  A    between atoms: C_1  and  C_8
REMARK    3  A    between atoms: C_1  and  N_35
REMARK    4  A    between atoms: C_13  and  C_32
REMARK    5  A    between atoms: C_14  and  C_15
REMARK    6  A    between atoms: C_21  and  O_22
REMARK    7  A    between atoms: O_22  and  C_23
REMARK    8  A    between atoms: C_23  and  C_24
REMARK    9  A    between atoms: C_28  and  C_39
REMARK   10  A    between atoms: C_28  and  O_40
REMARK   11  A    between atoms: C_32  and  O_34
REMARK   12  A    between atoms: C_32  and  C_37
REMARK   13  A    between atoms: O_34  and  C_44
REMARK   14  A    between atoms: N_35  and  C_41
REMARK   15  A    between atoms: N_35  and  C_44
REMARK   16  A    between atoms: C_36  and  O_42
REMARK   17  A    between atoms: C_36  and  C_45
REMARK   18  A    between atoms: C_38  and  C_45
REMARK   19  A    between atoms: C_39  and  C_41
REMARK   20  A    between atoms: O_40  and  P_43
REMARK   21  A    between atoms: O_42  and  P_43
REMARK                            x       y       z     vdW  Elec       q    Type
REMARK                         _______ _______ _______ _____ _____    ______ ____
ROOT
ATOM      1  N   UNL A   1     -25.657  -0.228  29.211  0.00  0.00    -0.244 NA
ENDROOT
BRANCH   1   2
ATOM      2  C   UNL A   1     -24.983  -0.206  27.988  0.00  0.00    +0.220 C 
BRANCH   2   3
ATOM      3  O   UNL A   1     -24.099   0.647  28.153  0.00  0.00    -0.335 OA
BRANCH   3   4
ATOM      4  C   UNL A   1     -24.325   1.476  27.075  0.00  0.00    +0.142 C 
BRANCH   4   5
ATOM      5  C   UNL A   1     -25.688   1.614  26.461  0.00  0.00    +0.043 C 
ATOM      6  C   UNL A   1     -26.250   2.920  26.395  0.00  0.00    +0.075 C 
ATOM      7  C   UNL A   1     -27.438   3.091  25.645  0.00  0.00    +0.106 C 
ATOM      8  N   UNL A   1     -28.075   2.089  25.003  0.00  0.00    -0.208 NA
ATOM      9  C   UNL A   1     -27.543   0.849  25.079  0.00  0.00    +0.253 C 
ATOM     10  C   UNL A   1     -26.354   0.576  25.777  0.00  0.00    +0.191 C 
ATOM     11  F   UNL A   1     -25.860  -0.681  25.795  0.00  0.00    -0.200 F 
BRANCH   6  12
ATOM     12  C   UNL A   1     -25.642   4.093  27.123  0.00  0.00    +0.266 C 
ATOM     13  N   UNL A   1     -25.614   5.252  26.449  0.00  0.00    -0.200 NA
ATOM     14  C   UNL A   1     -25.026   6.479  26.963  0.00  0.00    +0.139 C 
ATOM     15  O   UNL A   1     -25.143   3.966  28.243  0.00  0.00    -0.268 OA
ENDBRANCH   6  12
BRANCH   9  16
ATOM     16  O   UNL A   1     -28.193  -0.208  24.477  0.00  0.00    -0.456 OA
BRANCH  16  17
ATOM     17  C   UNL A   1     -29.460   0.005  23.866  0.00  0.00    +0.243 C 
BRANCH  17  18
ATOM     18  C   UNL A   1     -30.065  -1.377  23.573  0.00  0.00    +0.229 C 
ATOM     19  O   UNL A   1     -30.729  -1.878  24.721  0.00  0.00    -0.216 OA
ENDBRANCH  17  18
ENDBRANCH  16  17
ENDBRANCH   9  16
ENDBRANCH   4   5
BRANCH   4  21
ATOM     20  C   UNL A   1     -21.698   1.760  27.218  0.00  0.00    +0.003 C 
ATOM     21  C   UNL A   1     -22.971   1.890  26.338  0.00  0.00    +0.034 C 
ENDBRANCH   4  21
ENDBRANCH   3   4
ENDBRANCH   2   3
ENDBRANCH   1   2
BRANCH   1  22
ATOM     22  C   UNL A   1     -27.232  -0.227  29.383  0.00  0.00    +0.077 C 
BRANCH  22  23
ATOM     23  C   UNL A   1     -28.108   0.421  28.727  0.00  0.00    +0.050 C 
BRANCH  23  24
ATOM     24  C   UNL A   1     -29.427   0.827  29.474  0.00  0.00    +0.153 C 
BRANCH  24  25
ATOM     25  O   UNL A   1     -29.903  -0.432  29.938  0.00  0.00    -0.294 OA
BRANCH  25  28
ATOM     26  O   UNL A   1     -30.915  -0.447  27.469  0.00  0.00    -0.258 OA
ATOM     27  C   UNL A   1     -32.364  -0.040  29.597  0.00  0.00    +0.129 C 
ATOM     28  P   UNL A   1     -31.057  -0.915  28.874  0.00  0.00    +0.344 P 
BRANCH  28  29
ATOM     29  O   UNL A   1     -31.358  -2.514  29.101  0.00  0.00    -0.294 OA
BRANCH  29  30
ATOM     30  C   UNL A   1     -30.393  -3.497  29.470  0.00  0.00    +0.151 C 
BRANCH  30  31
ATOM     31  C   UNL A   1     -30.962  -4.906  29.486  0.00  0.00    +0.033 C 
BRANCH  31  33
ATOM     32  C   UNL A   1     -33.008  -5.220  28.073  0.00  0.00    +0.000 C 
ATOM     33  C   UNL A   1     -31.476  -5.327  28.158  0.00  0.00    +0.003 C 
ENDBRANCH  31  33
ENDBRANCH  30  31
ENDBRANCH  29  30
ENDBRANCH  28  29
ENDBRANCH  25  28
ENDBRANCH  24  25
ENDBRANCH  23  24
ENDBRANCH  22  23
ENDBRANCH   1  22
BRANCH   1  34
ATOM     34  C   UNL A   1     -24.855  -1.012  30.143  0.00  0.00    +0.098 C 
BRANCH  34  35
ATOM     35  C   UNL A   1     -24.973  -2.505  29.788  0.00  0.00    -0.006 C 
ATOM     36  C   UNL A   1     -23.906  -3.173  29.146  0.00  0.00    -0.003 C 
ATOM     37  C   UNL A   1     -23.989  -4.549  28.853  0.00  0.00    -0.000 C 
ATOM     38  C   UNL A   1     -25.137  -5.280  29.205  0.00  0.00    -0.000 C 
ATOM     39  C   UNL A   1     -26.232  -4.611  29.784  0.00  0.00    -0.000 C 
ATOM     40  C   UNL A   1     -26.155  -3.232  30.065  0.00  0.00    -0.003 C 
ENDBRANCH  34  35
BRANCH  34  41
ATOM     41  C   UNL A   1     -25.387  -0.679  31.571  0.00  0.00    +0.092 C 
ATOM     42  C   UNL A   1     -25.189   0.773  32.028  0.00  0.00    +0.021 C 
ATOM     43  C   UNL A   1     -25.336   0.684  33.544  0.00  0.00    +0.020 C 
ATOM     44  C   UNL A   1     -24.829  -0.715  33.905  0.00  0.00    +0.089 C 
ATOM     45  N   UNL A   1     -24.758  -1.481  32.646  0.00  0.00    -0.218 NA
ENDBRANCH  34  41
ENDBRANCH   1  34
TORSDOF 21
