REMARK  Name = outputs/IAG933/test6/raw/output_9390_IAG933_linker_design_.xyz
REMARK  10 active torsions:
REMARK  status: ('A' for Active; 'I' for Inactive)
REMARK    1  A    between atoms: C_1  and  C_2
REMARK    2  A    between atoms: C_1  and  C_8
REMARK    3  A    between atoms: C_1  and  N_35
REMARK    4  A    between atoms: C_13  and  C_32
REMARK    5  A    between atoms: C_14  and  C_15
REMARK    6  A    between atoms: C_21  and  O_22
REMARK    7  A    between atoms: O_22  and  C_23
REMARK    8  A    between atoms: C_23  and  C_24
REMARK    9  A    between atoms: C_33  and  N_35
REMARK   10  A    between atoms: N_35  and  C_40
REMARK                            x       y       z     vdW  Elec       q    Type
REMARK                         _______ _______ _______ _____ _____    ______ ____
ROOT
ATOM      1  N   UNL A   1     -25.489   0.067  29.054  0.00  0.00    -0.295 N 
ENDROOT
BRANCH   1   3
ATOM      2  O   UNL A   1     -30.947   0.281  26.580  0.00  0.00    -0.292 OA
ATOM      3  C   UNL A   1     -26.909   0.345  28.970  0.00  0.00    +0.152 C 
ATOM      4  N   UNL A   1     -27.376   1.727  29.338  0.00  0.00    -0.230 NA
ATOM      5  C   UNL A   1     -30.640   2.214  27.961  0.00  0.00    +0.016 C 
ATOM      6  C   UNL A   1     -30.314   0.903  27.590  0.00  0.00    +0.171 C 
ATOM      7  C   UNL A   1     -27.571   3.941  31.858  0.00  0.00    +0.170 C 
ATOM      8  C   UNL A   1     -30.164   3.044  29.056  0.00  0.00    +0.055 C 
ATOM      9  C   UNL A   1     -28.994   3.689  31.429  0.00  0.00    +0.002 C 
ATOM     10  C   UNL A   1     -28.294   0.946  29.145  0.00  0.00    +0.102 C 
ATOM     11  O   UNL A   1     -26.677   3.392  30.902  0.00  0.00    -0.332 OA
ATOM     12  C   UNL A   1     -27.102   2.082  30.772  0.00  0.00    +0.222 C 
ATOM     13  C   UNL A   1     -29.186   0.308  28.305  0.00  0.00    +0.088 C 
ATOM     14  C   UNL A   1     -29.237   3.290  30.076  0.00  0.00    -0.023 C 
ENDBRANCH   1   3
BRANCH   1  20
ATOM     15 CL   UNL A   1     -22.739   2.439  25.291  0.00  0.00    -0.107 Cl
ATOM     16  C   UNL A   1     -23.149   1.630  26.802  0.00  0.00    +0.134 C 
ATOM     17  O   UNL A   1     -21.020   1.600  27.884  0.00  0.00    -0.221 OA
ATOM     18  C   UNL A   1     -24.442   1.235  27.262  0.00  0.00    +0.007 C 
ATOM     19  C   UNL A   1     -22.954   0.280  28.744  0.00  0.00    +0.075 C 
ATOM     20  C   UNL A   1     -24.312   0.504  28.411  0.00  0.00    +0.026 C 
ATOM     21  C   UNL A   1     -22.283   1.168  27.776  0.00  0.00    +0.177 C 
BRANCH  18  22
ATOM     22  C   UNL A   1     -25.688   1.614  26.461  0.00  0.00    +0.036 C 
ATOM     23  C   UNL A   1     -26.250   2.920  26.395  0.00  0.00    +0.076 C 
ATOM     24  C   UNL A   1     -27.438   3.091  25.645  0.00  0.00    +0.107 C 
ATOM     25  N   UNL A   1     -28.075   2.089  25.003  0.00  0.00    -0.208 NA
ATOM     26  C   UNL A   1     -27.543   0.849  25.079  0.00  0.00    +0.253 C 
ATOM     27  C   UNL A   1     -26.354   0.576  25.777  0.00  0.00    +0.193 C 
ATOM     28  F   UNL A   1     -25.860  -0.681  25.795  0.00  0.00    -0.199 F 
BRANCH  23  29
ATOM     29  C   UNL A   1     -25.642   4.093  27.123  0.00  0.00    +0.266 C 
ATOM     30  N   UNL A   1     -25.614   5.252  26.449  0.00  0.00    -0.200 NA
ATOM     31  C   UNL A   1     -25.026   6.479  26.963  0.00  0.00    +0.139 C 
ATOM     32  O   UNL A   1     -25.143   3.966  28.243  0.00  0.00    -0.268 OA
ENDBRANCH  23  29
BRANCH  26  33
ATOM     33  O   UNL A   1     -28.193  -0.208  24.477  0.00  0.00    -0.456 OA
BRANCH  33  34
ATOM     34  C   UNL A   1     -29.460   0.005  23.866  0.00  0.00    +0.243 C 
BRANCH  34  35
ATOM     35  C   UNL A   1     -30.065  -1.377  23.573  0.00  0.00    +0.229 C 
ATOM     36  O   UNL A   1     -30.729  -1.878  24.721  0.00  0.00    -0.216 OA
ENDBRANCH  34  35
ENDBRANCH  33  34
ENDBRANCH  26  33
ENDBRANCH  18  22
ENDBRANCH   1  20
BRANCH   1  37
ATOM     37  C   UNL A   1     -24.855  -1.012  30.143  0.00  0.00    +0.112 C 
BRANCH  37  38
ATOM     38  C   UNL A   1     -24.973  -2.505  29.788  0.00  0.00    -0.003 C 
ATOM     39  C   UNL A   1     -23.906  -3.173  29.146  0.00  0.00    -0.003 C 
ATOM     40  C   UNL A   1     -23.989  -4.549  28.853  0.00  0.00    -0.000 C 
ATOM     41  C   UNL A   1     -25.137  -5.280  29.205  0.00  0.00    -0.000 C 
ATOM     42  C   UNL A   1     -26.232  -4.611  29.784  0.00  0.00    -0.000 C 
ATOM     43  C   UNL A   1     -26.155  -3.232  30.065  0.00  0.00    -0.003 C 
ENDBRANCH  37  38
BRANCH  37  44
ATOM     44  C   UNL A   1     -25.387  -0.679  31.571  0.00  0.00    +0.095 C 
ATOM     45  C   UNL A   1     -25.189   0.773  32.028  0.00  0.00    +0.021 C 
ATOM     46  C   UNL A   1     -25.336   0.684  33.544  0.00  0.00    +0.020 C 
ATOM     47  C   UNL A   1     -24.829  -0.715  33.905  0.00  0.00    +0.089 C 
ATOM     48  N   UNL A   1     -24.758  -1.481  32.646  0.00  0.00    -0.217 NA
ENDBRANCH  37  44
ENDBRANCH   1  37
TORSDOF 10
