REMARK  Name = outputs/IAG933/test6/raw/output_9391_IAG933_linker_design_.xyz
REMARK  8 active torsions:
REMARK  status: ('A' for Active; 'I' for Inactive)
REMARK    1  A    between atoms: C_1  and  C_2
REMARK    2  A    between atoms: C_1  and  C_8
REMARK    3  A    between atoms: C_1  and  C_32
REMARK    4  A    between atoms: C_13  and  C_42
REMARK    5  A    between atoms: C_14  and  C_15
REMARK    6  A    between atoms: C_21  and  O_22
REMARK    7  A    between atoms: O_22  and  C_23
REMARK    8  A    between atoms: C_23  and  C_24
REMARK                            x       y       z     vdW  Elec       q    Type
REMARK                         _______ _______ _______ _____ _____    ______ ____
ROOT
ATOM      1  C   UNL A   1     -23.265   1.402  27.203  0.00  0.00    +0.062 C 
ATOM      2  C   UNL A   1     -22.767   2.249  26.149  0.00  0.00    +0.337 C 
ATOM      3  O   UNL A   1     -22.948  -0.615  29.099  0.00  0.00    -0.345 OA
ATOM      4  C   UNL A   1     -20.855   1.471  27.148  0.00  0.00    +0.176 C 
ATOM      5  C   UNL A   1     -24.141  -0.210  29.048  0.00  0.00    +0.182 C 
ATOM      6  O   UNL A   1     -21.390   2.238  26.066  0.00  0.00    -0.449 OA
ATOM      7  C   UNL A   1     -21.036   0.058  28.907  0.00  0.00    +0.189 C 
ATOM      8  O   UNL A   1     -20.352  -0.572  27.901  0.00  0.00    -0.220 OA
ATOM      9  C   UNL A   1     -25.164   0.301  28.389  0.00  0.00    +0.200 C 
ATOM     10  C   UNL A   1     -19.462   1.782  27.698  0.00  0.00    +0.048 C 
ATOM     11  O   UNL A   1     -23.400   2.922  25.399  0.00  0.00    -0.245 OA
ATOM     12  C   UNL A   1     -22.262  -0.146  29.993  0.00  0.00    +0.176 C 
ATOM     13  C   UNL A   1     -21.976   1.078  28.048  0.00  0.00    +0.102 C 
ATOM     14  O   UNL A   1     -26.404   0.213  28.663  0.00  0.00    -0.289 OA
ATOM     15  C   UNL A   1     -24.658   0.997  27.336  0.00  0.00    +0.042 C 
ENDROOT
BRANCH  15  16
ATOM     16  C   UNL A   1     -25.688   1.614  26.461  0.00  0.00    +0.041 C 
ATOM     17  C   UNL A   1     -26.250   2.920  26.395  0.00  0.00    +0.077 C 
ATOM     18  C   UNL A   1     -27.438   3.091  25.645  0.00  0.00    +0.107 C 
ATOM     19  N   UNL A   1     -28.075   2.089  25.003  0.00  0.00    -0.208 NA
ATOM     20  C   UNL A   1     -27.543   0.849  25.079  0.00  0.00    +0.253 C 
ATOM     21  C   UNL A   1     -26.354   0.576  25.777  0.00  0.00    +0.193 C 
ATOM     22  F   UNL A   1     -25.860  -0.681  25.795  0.00  0.00    -0.199 F 
BRANCH  17  23
ATOM     23  C   UNL A   1     -25.642   4.093  27.123  0.00  0.00    +0.266 C 
ATOM     24  N   UNL A   1     -25.614   5.252  26.449  0.00  0.00    -0.200 NA
ATOM     25  C   UNL A   1     -25.026   6.479  26.963  0.00  0.00    +0.139 C 
ATOM     26  O   UNL A   1     -25.143   3.966  28.243  0.00  0.00    -0.268 OA
ENDBRANCH  17  23
BRANCH  20  27
ATOM     27  O   UNL A   1     -28.193  -0.208  24.477  0.00  0.00    -0.456 OA
BRANCH  27  28
ATOM     28  C   UNL A   1     -29.460   0.005  23.866  0.00  0.00    +0.243 C 
BRANCH  28  29
ATOM     29  C   UNL A   1     -30.065  -1.377  23.573  0.00  0.00    +0.229 C 
ATOM     30  O   UNL A   1     -30.729  -1.878  24.721  0.00  0.00    -0.216 OA
ENDBRANCH  28  29
ENDBRANCH  27  28
ENDBRANCH  20  27
ENDBRANCH  15  16
BRANCH   5  31
ATOM     31  C   UNL A   1     -24.855  -1.012  30.143  0.00  0.00    +0.073 C 
BRANCH  31  32
ATOM     32  C   UNL A   1     -24.973  -2.505  29.788  0.00  0.00    -0.018 C 
ATOM     33  C   UNL A   1     -23.906  -3.173  29.146  0.00  0.00    -0.004 C 
ATOM     34  C   UNL A   1     -23.989  -4.549  28.853  0.00  0.00    -0.000 C 
ATOM     35  C   UNL A   1     -25.137  -5.280  29.205  0.00  0.00    -0.000 C 
ATOM     36  C   UNL A   1     -26.232  -4.611  29.784  0.00  0.00    -0.000 C 
ATOM     37  C   UNL A   1     -26.155  -3.232  30.065  0.00  0.00    -0.004 C 
ENDBRANCH  31  32
BRANCH  31  38
ATOM     38  C   UNL A   1     -25.387  -0.679  31.571  0.00  0.00    +0.080 C 
ATOM     39  C   UNL A   1     -25.189   0.773  32.028  0.00  0.00    +0.019 C 
ATOM     40  C   UNL A   1     -25.336   0.684  33.544  0.00  0.00    +0.020 C 
ATOM     41  C   UNL A   1     -24.829  -0.715  33.905  0.00  0.00    +0.089 C 
ATOM     42  N   UNL A   1     -24.758  -1.481  32.646  0.00  0.00    -0.219 NA
ENDBRANCH  31  38
ENDBRANCH   5  31
TORSDOF 8
