MODEL 939
MODEL 1
REMARK VINA RESULT:    -6.546      0.000      0.000
REMARK INTER + INTRA:          -6.546
REMARK INTER:                  -6.546
REMARK INTRA:                   0.000
REMARK UNBOUND:                 0.000
REMARK  Name = No_939-gen_results/8p0m/2024-11-27-11-27-31/
REMARK  0 active torsions:
REMARK  status: ('A' for Active; 'I' for Inactive)
REMARK                            x       y       z     vdW  Elec       q    Type
REMARK                         _______ _______ _______ _____ _____    ______ ____
ROOT
ATOM      1  C   UNL A   1     -26.098  -2.457  30.440  0.00  0.00    -0.003 A 
ATOM      2  C   UNL A   1     -25.232  -1.647  30.204  0.00  0.00    -0.016 A 
ATOM      3  C   UNL A   1     -24.043  -1.919  29.549  0.00  0.00    -0.024 A 
ATOM      4  C   UNL A   1     -23.844  -3.256  29.094  0.00  0.00    +0.007 A 
ATOM      5  C   UNL A   1     -24.890  -4.095  29.242  0.00  0.00    +0.057 A 
ATOM      6  C   UNL A   1     -26.031  -3.703  29.813  0.00  0.00    +0.011 A 
ATOM      7 CL   UNL A   1     -24.878  -5.666  28.631  0.00  0.00    -0.082 Cl
ATOM      8  C   UNL A   1     -25.260  -0.182  30.818  0.00  0.00    +0.080 C 
ATOM      9  S   UNL A   1     -25.921   0.192  31.927  0.00  0.00    -0.110 S 
ATOM     10  C   UNL A   1     -25.288   1.646  32.218  0.00  0.00    +0.027 C 
ATOM     11  C   UNL A   1     -24.318   1.846  31.288  0.00  0.00    -0.016 C 
ATOM     12  C   UNL A   1     -24.224   0.743  30.450  0.00  0.00    +0.067 C 
ATOM     13  C   UNL A   1     -23.197   0.695  29.408  0.00  0.00    +0.139 C 
ATOM     14  F   UNL A   1     -22.795   1.706  29.222  0.00  0.00    -0.240 F 
ATOM     15  C   UNL A   1     -23.830   0.206  28.071  0.00  0.00    +0.038 C 
ATOM     16  C   UNL A   1     -22.040  -0.290  29.731  0.00  0.00    +0.036 C 
ATOM     17  C   UNL A   1     -23.994  -1.251  28.182  0.00  0.00    +0.029 C 
ENDROOT
TORSDOF 0
ENDMDL
ENDMDL
