REMARK  Name = outputs/IAG933/test6/raw/output_9404_IAG933_linker_design_.xyz
REMARK  13 active torsions:
REMARK  status: ('A' for Active; 'I' for Inactive)
REMARK    1  A    between atoms: C_1  and  C_2
REMARK    2  A    between atoms: C_13  and  N_41
REMARK    3  A    between atoms: C_14  and  C_15
REMARK    4  A    between atoms: C_21  and  O_22
REMARK    5  A    between atoms: O_22  and  C_23
REMARK    6  A    between atoms: C_23  and  C_24
REMARK    7  A    between atoms: C_29  and  C_32
REMARK    8  A    between atoms: C_30  and  CA_35
REMARK    9  A    between atoms: C_31  and  C_34
REMARK   10  A    between atoms: C_31  and  CA_35
REMARK   11  A    between atoms: C_31  and  C_38
REMARK   12  A    between atoms: C_33  and  C_38
REMARK   13  A    between atoms: CA_35  and  N_41
REMARK                            x       y       z     vdW  Elec       q    Type
REMARK                         _______ _______ _______ _____ _____    ______ ____
ROOT
ATOM      1  C   UNL A   1     -23.482   0.418  28.584  0.00  0.00    +0.047 C 
ENDROOT
BRANCH   1   9
ATOM      2  C   UNL A   1     -24.855  -1.012  30.143  0.00  0.00    +0.054 C 
ATOM      3  C   UNL A   1     -25.387  -0.679  31.571  0.00  0.00    +0.080 C 
ATOM      4  C   UNL A   1     -25.189   0.773  32.028  0.00  0.00    +0.034 C 
ATOM      5  C   UNL A   1     -25.336   0.684  33.544  0.00  0.00    +0.022 C 
ATOM      6  C   UNL A   1     -24.829  -0.715  33.905  0.00  0.00    +0.089 C 
ATOM      7  N   UNL A   1     -24.758  -1.481  32.646  0.00  0.00    -0.219 NA
ATOM      8  C   UNL A   1     -25.225   2.204  31.396  0.00  0.00    +0.077 C 
ATOM      9  C   UNL A   1     -24.447   0.309  29.537  0.00  0.00    +0.080 C 
ATOM     10  N   UNL A   1     -25.001   1.669  29.912  0.00  0.00    -0.220 NA
BRANCH   2  11
ATOM     11  C   UNL A   1     -24.973  -2.505  29.788  0.00  0.00    -0.020 C 
ATOM     12  C   UNL A   1     -23.906  -3.173  29.146  0.00  0.00    -0.004 C 
ATOM     13  C   UNL A   1     -23.989  -4.549  28.853  0.00  0.00    -0.000 C 
ATOM     14  C   UNL A   1     -25.137  -5.280  29.205  0.00  0.00    -0.000 C 
ATOM     15  C   UNL A   1     -26.232  -4.611  29.784  0.00  0.00    -0.000 C 
ATOM     16  C   UNL A   1     -26.155  -3.232  30.065  0.00  0.00    -0.004 C 
ENDBRANCH   2  11
BRANCH   8  17
ATOM     17  C   UNL A   1     -25.475   3.790  31.456  0.00  0.00    +0.048 C 
ATOM     18  C   UNL A   1     -25.291   4.531  32.839  0.00  0.00    +0.036 C 
ATOM     19  O   UNL A   1     -27.630   4.170  32.272  0.00  0.00    -0.354 OA
ATOM     20  C   UNL A   1     -26.949   4.100  30.998  0.00  0.00    +0.144 C 
ATOM     21  C   UNL A   1     -26.745   4.656  33.279  0.00  0.00    +0.142 C 
ENDBRANCH   8  17
ENDBRANCH   1   9
BRANCH   1  22
ATOM     22  CA  UNL A   1     -23.766   1.175  27.325  0.00  0.00    +0.127 C 
BRANCH  22  23
ATOM     23  C   UNL A   1     -23.242   1.709  26.404  0.00  0.00    +0.203 C 
ATOM     24  O   UNL A   1     -23.429   2.548  25.433  0.00  0.00    -0.218 OA
ENDBRANCH  22  23
BRANCH  22  25
ATOM     25  N   UNL A   1     -24.470   1.292  27.190  0.00  0.00    -0.234 NA
BRANCH  25  26
ATOM     26  C   UNL A   1     -25.688   1.614  26.461  0.00  0.00    +0.103 C 
ATOM     27  C   UNL A   1     -26.250   2.920  26.395  0.00  0.00    +0.091 C 
ATOM     28  C   UNL A   1     -27.438   3.091  25.645  0.00  0.00    +0.108 C 
ATOM     29  N   UNL A   1     -28.075   2.089  25.003  0.00  0.00    -0.208 NA
ATOM     30  C   UNL A   1     -27.543   0.849  25.079  0.00  0.00    +0.255 C 
ATOM     31  C   UNL A   1     -26.354   0.576  25.777  0.00  0.00    +0.208 C 
ATOM     32  F   UNL A   1     -25.860  -0.681  25.795  0.00  0.00    -0.198 F 
BRANCH  27  33
ATOM     33  C   UNL A   1     -25.642   4.093  27.123  0.00  0.00    +0.268 C 
ATOM     34  N   UNL A   1     -25.614   5.252  26.449  0.00  0.00    -0.200 NA
ATOM     35  C   UNL A   1     -25.026   6.479  26.963  0.00  0.00    +0.139 C 
ATOM     36  O   UNL A   1     -25.143   3.966  28.243  0.00  0.00    -0.268 OA
ENDBRANCH  27  33
BRANCH  30  37
ATOM     37  O   UNL A   1     -28.193  -0.208  24.477  0.00  0.00    -0.456 OA
BRANCH  37  38
ATOM     38  C   UNL A   1     -29.460   0.005  23.866  0.00  0.00    +0.243 C 
BRANCH  38  39
ATOM     39  C   UNL A   1     -30.065  -1.377  23.573  0.00  0.00    +0.229 C 
ATOM     40  O   UNL A   1     -30.729  -1.878  24.721  0.00  0.00    -0.216 OA
ENDBRANCH  38  39
ENDBRANCH  37  38
ENDBRANCH  30  37
ENDBRANCH  25  26
ENDBRANCH  22  25
ENDBRANCH   1  22
BRANCH   1  41
ATOM     41  C   UNL A   1     -22.267  -0.072  28.817  0.00  0.00    +0.072 C 
BRANCH  41  43
ATOM     42  O   UNL A   1     -20.983   1.552  27.885  0.00  0.00    -0.291 OA
ATOM     43  C   UNL A   1     -21.177   0.344  28.318  0.00  0.00    +0.173 C 
ATOM     44  C   UNL A   1     -19.969  -0.106  28.168  0.00  0.00    +0.040 C 
ENDBRANCH  41  43
ENDBRANCH   1  41
TORSDOF 13
