MODEL 940
MODEL 1
REMARK VINA RESULT:    -4.235      0.000      0.000
REMARK INTER + INTRA:          -4.235
REMARK INTER:                  -4.235
REMARK INTRA:                   0.000
REMARK UNBOUND:                 0.000
REMARK  Name = No_940-gen_results/8p0m/2024-11-27-11-27-31/
REMARK  0 active torsions:
REMARK  status: ('A' for Active; 'I' for Inactive)
REMARK                            x       y       z     vdW  Elec       q    Type
REMARK                         _______ _______ _______ _____ _____    ______ ____
ROOT
ATOM      1  C   UNL A   1     -24.140  -4.829  28.692  0.00  0.00    +0.000 A 
ATOM      2  C   UNL A   1     -25.057  -5.254  28.991  0.00  0.00    +0.000 A 
ATOM      3  C   UNL A   1     -24.025  -3.366  28.799  0.00  0.00    +0.000 A 
ATOM      4  C   UNL A   1     -25.060  -2.601  29.410  0.00  0.00    +0.000 A 
ATOM      5  C   UNL A   1     -26.245  -4.703  29.698  0.00  0.00    +0.000 A 
ATOM      6  C   UNL A   1     -26.179  -3.345  29.807  0.00  0.00    +0.000 A 
ENDROOT
TORSDOF 0
ENDMDL
ENDMDL
