REMARK  Name = outputs/IAG933/test6/raw/output_9411_IAG933_linker_design_.xyz
REMARK  11 active torsions:
REMARK  status: ('A' for Active; 'I' for Inactive)
REMARK    1  A    between atoms: C_1  and  C_2
REMARK    2  A    between atoms: C_1  and  C_8
REMARK    3  A    between atoms: C_1  and  N_35
REMARK    4  A    between atoms: C_13  and  C_28
REMARK    5  A    between atoms: C_14  and  C_15
REMARK    6  A    between atoms: C_21  and  O_22
REMARK    7  A    between atoms: O_22  and  C_23
REMARK    8  A    between atoms: C_23  and  C_24
REMARK    9  A    between atoms: C_29  and  C_41
REMARK   10  A    between atoms: C_30  and  C_33
REMARK   11  A    between atoms: C_34  and  C_41
REMARK                            x       y       z     vdW  Elec       q    Type
REMARK                         _______ _______ _______ _____ _____    ______ ____
ROOT
ATOM      1  C   UNL A   1     -24.183   1.668  26.589  0.00  0.00    +0.139 C 
ATOM      2  F   UNL A   1     -22.793   1.124  23.736  0.00  0.00    -0.170 F 
ATOM      3  O   UNL A   1     -23.887   2.347  25.306  0.00  0.00    -0.305 OA
ATOM      4  C   UNL A   1     -23.550   1.231  27.228  0.00  0.00    +0.133 C 
ATOM      5  C   UNL A   1     -22.153   1.518  27.092  0.00  0.00    +0.137 C 
ATOM      6  O   UNL A   1     -21.648   1.659  25.725  0.00  0.00    -0.305 OA
ATOM      7  C   UNL A   1     -22.740   1.751  24.791  0.00  0.00    +0.412 C 
ENDROOT
BRANCH   1   8
ATOM      8  C   UNL A   1     -25.688   1.614  26.461  0.00  0.00    +0.098 C 
ATOM      9  C   UNL A   1     -26.250   2.920  26.395  0.00  0.00    +0.057 C 
ATOM     10  C   UNL A   1     -27.438   3.091  25.645  0.00  0.00    +0.102 C 
ATOM     11  N   UNL A   1     -28.075   2.089  25.003  0.00  0.00    -0.212 NA
ATOM     12  C   UNL A   1     -27.543   0.849  25.079  0.00  0.00    +0.234 C 
ATOM     13  C   UNL A   1     -26.354   0.576  25.777  0.00  0.00    +0.242 C 
ATOM     14  F   UNL A   1     -25.860  -0.681  25.795  0.00  0.00    -0.227 F 
BRANCH   9  15
ATOM     15  C   UNL A   1     -25.642   4.093  27.123  0.00  0.00    +0.263 C 
ATOM     16  N   UNL A   1     -25.614   5.252  26.449  0.00  0.00    -0.200 NA
ATOM     17  C   UNL A   1     -25.026   6.479  26.963  0.00  0.00    +0.139 C 
ATOM     18  O   UNL A   1     -25.143   3.966  28.243  0.00  0.00    -0.269 OA
ENDBRANCH   9  15
BRANCH  12  19
ATOM     19  O   UNL A   1     -28.193  -0.208  24.477  0.00  0.00    -0.459 OA
BRANCH  19  20
ATOM     20  C   UNL A   1     -29.460   0.005  23.866  0.00  0.00    +0.242 C 
BRANCH  20  21
ATOM     21  C   UNL A   1     -30.065  -1.377  23.573  0.00  0.00    +0.229 C 
ATOM     22  O   UNL A   1     -30.729  -1.878  24.721  0.00  0.00    -0.216 OA
ENDBRANCH  20  21
ENDBRANCH  19  20
ENDBRANCH  12  19
ENDBRANCH   1   8
BRANCH   4  23
ATOM     23  C   UNL A   1     -23.924   0.240  28.221  0.00  0.00    +0.246 C 
ATOM     24  N   UNL A   1     -23.907  -0.063  29.609  0.00  0.00    -0.201 NA
ATOM     25  O   UNL A   1     -24.774  -0.724  27.567  0.00  0.00    -0.273 OA
BRANCH  24  26
ATOM     26  C   UNL A   1     -24.855  -1.012  30.143  0.00  0.00    +0.133 C 
BRANCH  26  27
ATOM     27  C   UNL A   1     -24.973  -2.505  29.788  0.00  0.00    -0.001 C 
ATOM     28  C   UNL A   1     -23.906  -3.173  29.146  0.00  0.00    -0.003 C 
ATOM     29  C   UNL A   1     -23.989  -4.549  28.853  0.00  0.00    -0.000 C 
ATOM     30  C   UNL A   1     -25.137  -5.280  29.205  0.00  0.00    -0.000 C 
ATOM     31  C   UNL A   1     -26.232  -4.611  29.784  0.00  0.00    -0.000 C 
ATOM     32  C   UNL A   1     -26.155  -3.232  30.065  0.00  0.00    -0.003 C 
ENDBRANCH  26  27
BRANCH  26  33
ATOM     33  C   UNL A   1     -25.387  -0.679  31.571  0.00  0.00    +0.097 C 
ATOM     34  C   UNL A   1     -25.189   0.773  32.028  0.00  0.00    +0.021 C 
ATOM     35  C   UNL A   1     -25.336   0.684  33.544  0.00  0.00    +0.020 C 
ATOM     36  C   UNL A   1     -24.829  -0.715  33.905  0.00  0.00    +0.089 C 
ATOM     37  N   UNL A   1     -24.758  -1.481  32.646  0.00  0.00    -0.217 NA
ENDBRANCH  26  33
ENDBRANCH  24  26
ENDBRANCH   4  23
BRANCH   5  38
ATOM     38  C   UNL A   1     -21.309   1.844  28.086  0.00  0.00    +0.068 C 
BRANCH  38  39
ATOM     39  C   UNL A   1     -22.109   1.407  29.018  0.00  0.00    +0.061 C 
ATOM     40  C   UNL A   1     -22.821   1.954  30.140  0.00  0.00    +0.129 C 
ATOM     41  O   UNL A   1     -23.278   2.713  30.742  0.00  0.00    -0.231 OA
ENDBRANCH  38  39
ENDBRANCH   5  38
TORSDOF 11
