REMARK  Name = outputs/IAG933/test6/raw/output_9416_IAG933_linker_design_.xyz
REMARK  19 active torsions:
REMARK  status: ('A' for Active; 'I' for Inactive)
REMARK    1  A    between atoms: C_1  and  C_2
REMARK    2  A    between atoms: C_1  and  C_8
REMARK    3  A    between atoms: C_9  and  N_38
REMARK    4  A    between atoms: C_14  and  C_15
REMARK    5  A    between atoms: C_15  and  O_18
REMARK    6  A    between atoms: O_18  and  C_36
REMARK    7  A    between atoms: C_21  and  O_22
REMARK    8  A    between atoms: O_22  and  C_23
REMARK    9  A    between atoms: C_23  and  C_24
REMARK   10  A    between atoms: O_28  and  C_34
REMARK   11  A    between atoms: O_28  and  C_40
REMARK   12  A    between atoms: C_29  and  O_35
REMARK   13  A    between atoms: C_29  and  C_37
REMARK   14  A    between atoms: C_31  and  C_40
REMARK   15  A    between atoms: C_33  and  C_36
REMARK   16  A    between atoms: C_33  and  C_37
REMARK   17  A    between atoms: C_33  and  C_41
REMARK   18  A    between atoms: C_34  and  C_36
REMARK   19  A    between atoms: C_34  and  N_38
REMARK                            x       y       z     vdW  Elec       q    Type
REMARK                         _______ _______ _______ _____ _____    ______ ____
ROOT
ATOM      1  C   UNL A   1     -24.981   3.255  29.435  0.00  0.00    +0.233 C 
ENDROOT
BRANCH   1   2
ATOM      2  O   UNL A   1     -25.143   3.966  28.243  0.00  0.00    -0.458 OA
BRANCH   2   3
ATOM      3  C   UNL A   1     -25.642   4.093  27.123  0.00  0.00    +0.222 C 
ATOM      4  N   UNL A   1     -25.614   5.252  26.449  0.00  0.00    -0.236 NA
ATOM      5  C   UNL A   1     -25.026   6.479  26.963  0.00  0.00    +0.155 C 
BRANCH   3   7
ATOM      6  C   UNL A   1     -25.688   1.614  26.461  0.00  0.00    +0.041 C 
ATOM      7  C   UNL A   1     -26.250   2.920  26.395  0.00  0.00    +0.074 C 
ATOM      8  C   UNL A   1     -27.438   3.091  25.645  0.00  0.00    +0.107 C 
ATOM      9  N   UNL A   1     -28.075   2.089  25.003  0.00  0.00    -0.208 NA
ATOM     10  C   UNL A   1     -27.543   0.849  25.079  0.00  0.00    +0.253 C 
ATOM     11  C   UNL A   1     -26.354   0.576  25.777  0.00  0.00    +0.193 C 
ATOM     12  F   UNL A   1     -25.860  -0.681  25.795  0.00  0.00    -0.199 F 
BRANCH  10  13
ATOM     13  O   UNL A   1     -28.193  -0.208  24.477  0.00  0.00    -0.456 OA
BRANCH  13  14
ATOM     14  C   UNL A   1     -29.460   0.005  23.866  0.00  0.00    +0.243 C 
BRANCH  14  15
ATOM     15  C   UNL A   1     -30.065  -1.377  23.573  0.00  0.00    +0.229 C 
ATOM     16  O   UNL A   1     -30.729  -1.878  24.721  0.00  0.00    -0.216 OA
ENDBRANCH  14  15
ENDBRANCH  13  14
ENDBRANCH  10  13
ENDBRANCH   3   7
ENDBRANCH   2   3
ENDBRANCH   1   2
BRANCH   1  17
ATOM     17  C   UNL A   1     -25.826   3.715  30.632  0.00  0.00    +0.128 C 
BRANCH  17  20
ATOM     18  N   UNL A   1     -27.665   4.862  29.407  0.00  0.00    -0.088 NA
ATOM     19  O   UNL A   1     -25.945   6.096  30.251  0.00  0.00    -0.272 OA
ATOM     20  C   UNL A   1     -26.456   5.045  30.098  0.00  0.00    +0.264 C 
ENDBRANCH  17  20
BRANCH  17  21
ATOM     21  C   UNL A   1     -25.671   3.543  32.181  0.00  0.00    +0.045 C 
BRANCH  21  22
ATOM     22  C   UNL A   1     -26.862   3.870  33.121  0.00  0.00    +0.143 C 
BRANCH  22  24
ATOM     23  C   UNL A   1     -28.630   5.525  32.759  0.00  0.00    +0.174 C 
ATOM     24  O   UNL A   1     -27.220   5.291  33.060  0.00  0.00    -0.351 OA
ENDBRANCH  22  24
ENDBRANCH  21  22
ENDBRANCH  17  21
ENDBRANCH   1  17
BRANCH   1  25
ATOM     25  C   UNL A   1     -23.994   2.248  30.057  0.00  0.00    +0.285 C 
BRANCH  25  26
ATOM     26  O   UNL A   1     -23.093   2.096  29.024  0.00  0.00    -0.429 OA
BRANCH  26  27
ATOM     27  C   UNL A   1     -22.243   1.010  28.901  0.00  0.00    +0.355 C 
ATOM     28  O   UNL A   1     -22.329  -0.063  29.422  0.00  0.00    -0.247 OA
BRANCH  27  29
ATOM     29  C   UNL A   1     -21.439   1.408  27.652  0.00  0.00    +0.302 C 
ATOM     30  F   UNL A   1     -22.346   1.410  26.615  0.00  0.00    -0.222 F 
ENDBRANCH  27  29
ENDBRANCH  26  27
ENDBRANCH  25  26
BRANCH  25  31
ATOM     31  N   UNL A   1     -24.580   1.597  31.081  0.00  0.00    -0.177 NA
BRANCH  31  33
ATOM     32  C   UNL A   1     -25.387  -0.679  31.571  0.00  0.00    +0.093 C 
ATOM     33  C   UNL A   1     -25.189   0.773  32.028  0.00  0.00    +0.094 C 
ATOM     34  C   UNL A   1     -25.336   0.684  33.544  0.00  0.00    +0.038 C 
ATOM     35  C   UNL A   1     -24.829  -0.715  33.905  0.00  0.00    +0.090 C 
ATOM     36  N   UNL A   1     -24.758  -1.481  32.646  0.00  0.00    -0.218 NA
BRANCH  32  37
ATOM     37  C   UNL A   1     -24.855  -1.012  30.143  0.00  0.00    +0.045 C 
BRANCH  37  38
ATOM     38  C   UNL A   1     -24.973  -2.505  29.788  0.00  0.00    -0.021 C 
ATOM     39  C   UNL A   1     -23.906  -3.173  29.146  0.00  0.00    -0.004 C 
ATOM     40  C   UNL A   1     -23.989  -4.549  28.853  0.00  0.00    -0.000 C 
ATOM     41  C   UNL A   1     -25.137  -5.280  29.205  0.00  0.00    -0.000 C 
ATOM     42  C   UNL A   1     -26.232  -4.611  29.784  0.00  0.00    -0.000 C 
ATOM     43  C   UNL A   1     -26.155  -3.232  30.065  0.00  0.00    -0.004 C 
ENDBRANCH  37  38
ENDBRANCH  32  37
ENDBRANCH  31  33
ENDBRANCH  25  31
ENDBRANCH   1  25
TORSDOF 19
