REMARK  Name = outputs/IAG933/test6/raw/output_9417_IAG933_linker_design_.xyz
REMARK  17 active torsions:
REMARK  status: ('A' for Active; 'I' for Inactive)
REMARK    1  A    between atoms: C_1  and  C_2
REMARK    2  A    between atoms: C_1  and  C_8
REMARK    3  A    between atoms: C_1  and  N_34
REMARK    4  A    between atoms: C_14  and  C_15
REMARK    5  A    between atoms: C_15  and  O_18
REMARK    6  A    between atoms: O_18  and  C_36
REMARK    7  A    between atoms: C_21  and  O_22
REMARK    8  A    between atoms: O_22  and  C_23
REMARK    9  A    between atoms: C_23  and  C_24
REMARK   10  A    between atoms: N_30  and  O_35
REMARK   11  A    between atoms: C_31  and  C_32
REMARK   12  A    between atoms: C_32  and  N_37
REMARK   13  A    between atoms: C_33  and  C_42
REMARK   14  A    between atoms: O_35  and  C_36
REMARK   15  A    between atoms: C_36  and  N_44
REMARK   16  A    between atoms: O_41  and  C_43
REMARK   17  A    between atoms: C_42  and  C_45
REMARK                            x       y       z     vdW  Elec       q    Type
REMARK                         _______ _______ _______ _____ _____    ______ ____
ROOT
ATOM      1  C   UNL A   1     -25.554   3.064  29.317  0.00  0.00    +0.503 C 
ENDROOT
BRANCH   1   3
ATOM      2  C   UNL A   1     -27.582   4.182  29.771  0.00  0.00    +0.270 C 
ATOM      3  N   UNL A   1     -26.540   3.458  30.055  0.00  0.00    -0.120 NA
ATOM      4  O   UNL A   1     -28.247   3.931  28.754  0.00  0.00    -0.271 OA
BRANCH   2   5
ATOM      5  C   UNL A   1     -27.895   5.297  30.696  0.00  0.00    +0.203 C 
BRANCH   5   7
ATOM      6  C   UNL A   1     -28.660   3.947  33.727  0.00  0.00    +0.077 C 
ATOM      7  N   UNL A   1     -28.112   5.004  32.103  0.00  0.00    -0.198 N 
ATOM      8  N   UNL A   1     -28.445   5.871  33.060  0.00  0.00    -0.140 NA
ATOM      9  C   UNL A   1     -28.175   3.776  32.536  0.00  0.00    +0.089 C 
ATOM     10  C   UNL A   1     -28.959   5.289  34.111  0.00  0.00    +0.241 C 
BRANCH  10  12
ATOM     11  C   UNL A   1     -30.200   7.136  35.103  0.00  0.00    +0.254 C 
ATOM     12  O   UNL A   1     -29.589   5.823  35.261  0.00  0.00    -0.455 OA
ENDBRANCH  10  12
ENDBRANCH   5   7
ENDBRANCH   2   5
ENDBRANCH   1   3
BRANCH   1  13
ATOM     13  O   UNL A   1     -24.555   2.240  29.618  0.00  0.00    -0.212 OA
BRANCH  13  14
ATOM     14  N   UNL A   1     -24.009   1.241  28.607  0.00  0.00    +0.159 NA
ATOM     15  C   UNL A   1     -23.293   0.133  28.740  0.00  0.00    +0.386 C 
ATOM     16  N   UNL A   1     -23.542  -0.570  29.933  0.00  0.00    -0.030 NA
BRANCH  16  17
ATOM     17  C   UNL A   1     -24.855  -1.012  30.143  0.00  0.00    +0.243 C 
BRANCH  17  18
ATOM     18  C   UNL A   1     -24.973  -2.505  29.788  0.00  0.00    +0.025 C 
ATOM     19  C   UNL A   1     -23.906  -3.173  29.146  0.00  0.00    -0.000 C 
ATOM     20  C   UNL A   1     -23.989  -4.549  28.853  0.00  0.00    -0.000 C 
ATOM     21  C   UNL A   1     -25.137  -5.280  29.205  0.00  0.00    -0.000 C 
ATOM     22  C   UNL A   1     -26.232  -4.611  29.784  0.00  0.00    -0.000 C 
ATOM     23  C   UNL A   1     -26.155  -3.232  30.065  0.00  0.00    -0.000 C 
ENDBRANCH  17  18
BRANCH  17  24
ATOM     24  C   UNL A   1     -25.387  -0.679  31.571  0.00  0.00    +0.124 C 
ATOM     25  C   UNL A   1     -25.189   0.773  32.028  0.00  0.00    +0.024 C 
ATOM     26  C   UNL A   1     -25.336   0.684  33.544  0.00  0.00    +0.020 C 
ATOM     27  C   UNL A   1     -24.829  -0.715  33.905  0.00  0.00    +0.089 C 
ATOM     28  N   UNL A   1     -24.758  -1.481  32.646  0.00  0.00    -0.215 NA
ENDBRANCH  17  24
ENDBRANCH  16  17
BRANCH  15  29
ATOM     29  C   UNL A   1     -21.773   0.483  28.970  0.00  0.00    +0.161 C 
BRANCH  29  31
ATOM     30  O   UNL A   1     -21.055   1.778  27.198  0.00  0.00    -0.220 OA
ATOM     31  C   UNL A   1     -20.673   0.827  27.982  0.00  0.00    +0.195 C 
ENDBRANCH  29  31
ENDBRANCH  15  29
ENDBRANCH  13  14
ENDBRANCH   1  13
BRANCH   1  32
ATOM     32  O   UNL A   1     -25.143   3.966  28.243  0.00  0.00    -0.408 OA
BRANCH  32  33
ATOM     33  C   UNL A   1     -25.642   4.093  27.123  0.00  0.00    +0.227 C 
ATOM     34  N   UNL A   1     -25.614   5.252  26.449  0.00  0.00    -0.235 NA
ATOM     35  C   UNL A   1     -25.026   6.479  26.963  0.00  0.00    +0.155 C 
BRANCH  33  37
ATOM     36  C   UNL A   1     -25.688   1.614  26.461  0.00  0.00    +0.041 C 
ATOM     37  C   UNL A   1     -26.250   2.920  26.395  0.00  0.00    +0.075 C 
ATOM     38  C   UNL A   1     -27.438   3.091  25.645  0.00  0.00    +0.107 C 
ATOM     39  N   UNL A   1     -28.075   2.089  25.003  0.00  0.00    -0.208 NA
ATOM     40  C   UNL A   1     -27.543   0.849  25.079  0.00  0.00    +0.253 C 
ATOM     41  C   UNL A   1     -26.354   0.576  25.777  0.00  0.00    +0.193 C 
ATOM     42  F   UNL A   1     -25.860  -0.681  25.795  0.00  0.00    -0.199 F 
BRANCH  40  43
ATOM     43  O   UNL A   1     -28.193  -0.208  24.477  0.00  0.00    -0.456 OA
BRANCH  43  44
ATOM     44  C   UNL A   1     -29.460   0.005  23.866  0.00  0.00    +0.243 C 
BRANCH  44  45
ATOM     45  C   UNL A   1     -30.065  -1.377  23.573  0.00  0.00    +0.229 C 
ATOM     46  O   UNL A   1     -30.729  -1.878  24.721  0.00  0.00    -0.216 OA
ENDBRANCH  44  45
ENDBRANCH  43  44
ENDBRANCH  40  43
ENDBRANCH  33  37
ENDBRANCH  32  33
ENDBRANCH   1  32
TORSDOF 17
