MODEL 941
MODEL 1
REMARK VINA RESULT:    -5.401      0.000      0.000
REMARK INTER + INTRA:          -6.597
REMARK INTER:                  -6.348
REMARK INTRA:                  -0.248
REMARK UNBOUND:                -0.248
REMARK  Name = No_941-gen_results/8p0m/2024-11-27-11-27-31/
REMARK  3 active torsions:
REMARK  status: ('A' for Active; 'I' for Inactive)
REMARK    1  A    between atoms: C_6  and  C_7
REMARK    2  A    between atoms: C_7  and  C_9
REMARK    3  A    between atoms: C_7  and  C_10
REMARK                            x       y       z     vdW  Elec       q    Type
REMARK                         _______ _______ _______ _____ _____    ______ ____
ROOT
ATOM      1  O   UNL A   1     -25.308   0.839  25.626  0.00  0.00    -0.273 OA
ATOM      2  C   UNL A   1     -24.443   0.802  26.387  0.00  0.00    +0.241 C 
ATOM      3  C   UNL A   1     -23.537   1.331  26.663  0.00  0.00    +0.078 C 
ATOM      4  N   UNL A   1     -24.709  -0.313  27.429  0.00  0.00    -0.206 NA
ATOM      5  C   UNL A   1     -22.467   1.228  27.665  0.00  0.00    +0.011 C 
ATOM      6  C   UNL A   1     -23.824  -0.597  28.434  0.00  0.00    +0.103 C 
ATOM      7  C   UNL A   1     -22.673   0.175  28.608  0.00  0.00    +0.023 C 
ATOM      8  C   UNL A   1     -23.174   2.554  25.674  0.00  0.00    +0.010 C 
ENDROOT
BRANCH   6   9
ATOM      9  C   UNL A   1     -24.074  -1.654  29.355  0.00  0.00    +0.064 C 
BRANCH   9  10
ATOM     10  C   UNL A   1     -24.909  -1.303  30.560  0.00  0.00    -0.025 C 
ATOM     11  C   UNL A   1     -24.378  -1.114  31.821  0.00  0.00    -0.030 C 
ATOM     12  C   UNL A   1     -23.049  -1.053  31.915  0.00  0.00    +0.030 C 
ENDBRANCH   9  10
BRANCH   9  13
ATOM     13  C   UNL A   1     -23.867  -2.797  29.309  0.00  0.00    -0.020 C 
ATOM     14  C   UNL A   1     -25.046  -3.679  29.060  0.00  0.00    -0.004 C 
ENDBRANCH   9  13
ENDBRANCH   6   9
TORSDOF 3
ENDMDL
ENDMDL
