REMARK  Name = No_942-gen_results/8p0m/2024-11-27-11-27-31/
REMARK  3 active torsions:
REMARK  status: ('A' for Active; 'I' for Inactive)
REMARK    1  A    between atoms: C_2  and  C_13
REMARK    2  A    between atoms: C_13  and  O_14
REMARK    3  A    between atoms: O_14  and  C_19
REMARK                            x       y       z     vdW  Elec       q    Type
REMARK                         _______ _______ _______ _____ _____    ______ ____
ROOT
ATOM      1  C   UNL A   1     -28.016  -0.814  28.878  0.00  0.00    +0.026 A 
ATOM      2  C   UNL A   1     -28.469  -0.785  29.829  0.00  0.00    +0.077 A 
ATOM      3  C   UNL A   1     -26.546  -0.876  28.850  0.00  0.00    +0.085 A 
ATOM      4  C   UNL A   1     -25.804  -1.032  30.057  0.00  0.00    +0.018 A 
ATOM      5  C   UNL A   1     -26.537  -1.039  31.217  0.00  0.00    +0.002 A 
ATOM      6  C   UNL A   1     -27.884  -0.953  31.186  0.00  0.00    +0.006 A 
ATOM      7  C   UNL A   1     -24.366  -1.113  30.048  0.00  0.00    +0.006 A 
ATOM      8  C   UNL A   1     -23.745  -1.369  30.812  0.00  0.00    +0.000 A 
ATOM      9  C   UNL A   1     -22.207  -1.250  30.858  0.00  0.00    +0.000 A 
ATOM     10  C   UNL A   1     -21.686  -0.819  29.653  0.00  0.00    +0.000 A 
ATOM     11  C   UNL A   1     -23.735  -0.611  28.780  0.00  0.00    +0.058 A 
ATOM     12  C   UNL A   1     -22.434  -0.461  28.655  0.00  0.00    +0.005 A 
ATOM     13  N   UNL A   1     -25.850  -0.785  27.672  0.00  0.00    -0.208 NA
ATOM     14  C   UNL A   1     -24.656  -0.438  27.645  0.00  0.00    +0.279 A 
ATOM     15  O   UNL A   1     -24.295   0.414  26.739  0.00  0.00    -0.265 OA
ENDROOT
BRANCH   2  16
ATOM     16  C   UNL A   1     -30.060  -0.670  29.916  0.00  0.00    +0.346 C 
ATOM     17  O   UNL A   1     -30.735  -1.052  30.939  0.00  0.00    -0.244 OA
BRANCH  16  18
ATOM     18  O   UNL A   1     -30.510  -0.190  28.984  0.00  0.00    -0.418 OA
BRANCH  18  19
ATOM     19  C   UNL A   1     -30.703   0.903  28.600  0.00  0.00    +0.178 C 
ATOM     20  C   UNL A   1     -30.984   1.837  29.174  0.00  0.00    +0.015 C 
ATOM     21  C   UNL A   1     -31.080   2.941  29.240  0.00  0.00    +0.034 C 
ENDBRANCH  18  19
ENDBRANCH  16  18
ENDBRANCH   2  16
TORSDOF 3
