REMARK  Name = outputs/IAG933/test6/raw/output_9420_IAG933_linker_design_.xyz
REMARK  13 active torsions:
REMARK  status: ('A' for Active; 'I' for Inactive)
REMARK    1  A    between atoms: C_1  and  C_2
REMARK    2  A    between atoms: C_1  and  C_8
REMARK    3  A    between atoms: C_9  and  N_28
REMARK    4  A    between atoms: C_13  and  C_34
REMARK    5  A    between atoms: C_14  and  C_15
REMARK    6  A    between atoms: C_21  and  O_22
REMARK    7  A    between atoms: O_22  and  C_23
REMARK    8  A    between atoms: C_23  and  C_24
REMARK    9  A    between atoms: N_28  and  C_31
REMARK   10  A    between atoms: N_28  and  C_33
REMARK   11  A    between atoms: N_30  and  C_34
REMARK   12  A    between atoms: C_31  and  C_36
REMARK   13  A    between atoms: C_33  and  P_40
REMARK                            x       y       z     vdW  Elec       q    Type
REMARK                         _______ _______ _______ _____ _____    ______ ____
ROOT
ATOM      1 CL   UNL A   1     -23.161   2.498  25.068  0.00  0.00    -0.097 Cl
ATOM      2  N   UNL A   1     -23.638   1.360  27.492  0.00  0.00    -0.261 NA
ATOM      3  C   UNL A   1     -21.663   1.784  27.088  0.00  0.00    +0.034 C 
ATOM      4  C   UNL A   1     -21.711   1.391  28.381  0.00  0.00    +0.020 C 
ATOM      5  C   UNL A   1     -23.024   1.223  28.720  0.00  0.00    +0.075 C 
ATOM      6  C   UNL A   1     -22.900   1.846  26.606  0.00  0.00    +0.139 C 
ENDROOT
BRANCH   5   7
ATOM      7  C   UNL A   1     -23.363   0.949  30.063  0.00  0.00    +0.089 C 
BRANCH   7   8
ATOM      8  N   UNL A   1     -24.817   1.700  30.790  0.00  0.00    -0.262 NA
BRANCH   8  10
ATOM      9  C   UNL A   1     -25.387  -0.679  31.571  0.00  0.00    +0.092 C 
ATOM     10  C   UNL A   1     -25.189   0.773  32.028  0.00  0.00    +0.076 C 
ATOM     11  C   UNL A   1     -25.336   0.684  33.544  0.00  0.00    +0.036 C 
ATOM     12  C   UNL A   1     -24.829  -0.715  33.905  0.00  0.00    +0.090 C 
ATOM     13  N   UNL A   1     -24.758  -1.481  32.646  0.00  0.00    -0.218 NA
BRANCH   9  14
ATOM     14  C   UNL A   1     -24.855  -1.012  30.143  0.00  0.00    +0.045 C 
BRANCH  14  15
ATOM     15  C   UNL A   1     -24.973  -2.505  29.788  0.00  0.00    -0.021 C 
ATOM     16  C   UNL A   1     -23.906  -3.173  29.146  0.00  0.00    -0.004 C 
ATOM     17  C   UNL A   1     -23.989  -4.549  28.853  0.00  0.00    -0.000 C 
ATOM     18  C   UNL A   1     -25.137  -5.280  29.205  0.00  0.00    -0.000 C 
ATOM     19  C   UNL A   1     -26.232  -4.611  29.784  0.00  0.00    -0.000 C 
ATOM     20  C   UNL A   1     -26.155  -3.232  30.065  0.00  0.00    -0.004 C 
ENDBRANCH  14  15
ENDBRANCH   9  14
ENDBRANCH   8  10
BRANCH   8  21
ATOM     21  C   UNL A   1     -24.414   3.043  31.551  0.00  0.00    +0.181 C 
BRANCH  21  25
ATOM     22  O   UNL A   1     -26.069   4.813  31.161  0.00  0.00    -0.266 OA
ATOM     23  O   UNL A   1     -24.493   5.098  33.022  0.00  0.00    -0.147 OA
ATOM     24  N   UNL A   1     -26.383   3.543  33.408  0.00  0.00    -0.044 NA
ATOM     25  P   UNL A   1     -25.482   4.130  32.225  0.00  0.00    +0.357 P 
ENDBRANCH  21  25
ENDBRANCH   8  21
ENDBRANCH   7   8
ENDBRANCH   5   7
BRANCH   2  26
ATOM     26  C   UNL A   1     -24.851   1.067  27.310  0.00  0.00    +0.081 C 
BRANCH  26  27
ATOM     27  C   UNL A   1     -25.688   1.614  26.461  0.00  0.00    +0.086 C 
ATOM     28  C   UNL A   1     -26.250   2.920  26.395  0.00  0.00    +0.056 C 
ATOM     29  C   UNL A   1     -27.438   3.091  25.645  0.00  0.00    +0.102 C 
ATOM     30  N   UNL A   1     -28.075   2.089  25.003  0.00  0.00    -0.212 NA
ATOM     31  C   UNL A   1     -27.543   0.849  25.079  0.00  0.00    +0.234 C 
ATOM     32  C   UNL A   1     -26.354   0.576  25.777  0.00  0.00    +0.241 C 
ATOM     33  F   UNL A   1     -25.860  -0.681  25.795  0.00  0.00    -0.227 F 
BRANCH  28  34
ATOM     34  C   UNL A   1     -25.642   4.093  27.123  0.00  0.00    +0.263 C 
ATOM     35  N   UNL A   1     -25.614   5.252  26.449  0.00  0.00    -0.200 NA
ATOM     36  C   UNL A   1     -25.026   6.479  26.963  0.00  0.00    +0.139 C 
ATOM     37  O   UNL A   1     -25.143   3.966  28.243  0.00  0.00    -0.269 OA
ENDBRANCH  28  34
BRANCH  31  38
ATOM     38  O   UNL A   1     -28.193  -0.208  24.477  0.00  0.00    -0.459 OA
BRANCH  38  39
ATOM     39  C   UNL A   1     -29.460   0.005  23.866  0.00  0.00    +0.242 C 
BRANCH  39  40
ATOM     40  C   UNL A   1     -30.065  -1.377  23.573  0.00  0.00    +0.229 C 
ATOM     41  O   UNL A   1     -30.729  -1.878  24.721  0.00  0.00    -0.216 OA
ENDBRANCH  39  40
ENDBRANCH  38  39
ENDBRANCH  31  38
ENDBRANCH  26  27
ENDBRANCH   2  26
TORSDOF 13
