REMARK  Name = outputs/IAG933/test6/raw/output_9421_IAG933_linker_design_.xyz
REMARK  14 active torsions:
REMARK  status: ('A' for Active; 'I' for Inactive)
REMARK    1  A    between atoms: C_1  and  C_2
REMARK    2  A    between atoms: C_1  and  C_8
REMARK    3  A    between atoms: C_1  and  C_32
REMARK    4  A    between atoms: C_13  and  C_28
REMARK    5  A    between atoms: C_14  and  C_15
REMARK    6  A    between atoms: C_21  and  O_22
REMARK    7  A    between atoms: O_22  and  C_23
REMARK    8  A    between atoms: C_23  and  C_24
REMARK    9  A    between atoms: C_28  and  C_31
REMARK   10  A    between atoms: C_31  and  C_33
REMARK   11  A    between atoms: C_32  and  C_33
REMARK   12  A    between atoms: C_32  and  C_35
REMARK   13  A    between atoms: C_35  and  C_36
REMARK   14  A    between atoms: N_41  and  C_43
REMARK                            x       y       z     vdW  Elec       q    Type
REMARK                         _______ _______ _______ _____ _____    ______ ____
ROOT
ATOM      1  C   UNL A   1     -25.049   0.029  28.926  0.00  0.00    +0.045 C 
ENDROOT
BRANCH   1   3
ATOM      2  O   UNL A   1     -22.375  -0.092  29.328  0.00  0.00    -0.223 OA
ATOM      3  C   UNL A   1     -23.586   0.676  28.847  0.00  0.00    +0.153 C 
BRANCH   3   4
ATOM      4  C   UNL A   1     -23.088   1.397  27.617  0.00  0.00    +0.031 C 
ATOM      5  C   UNL A   1     -21.681   1.835  27.355  0.00  0.00    +0.003 C 
BRANCH   4   6
ATOM      6  C   UNL A   1     -24.253   1.579  26.610  0.00  0.00    +0.010 C 
BRANCH   6   7
ATOM      7  C   UNL A   1     -25.688   1.614  26.461  0.00  0.00    +0.070 C 
ATOM      8  C   UNL A   1     -26.250   2.920  26.395  0.00  0.00    +0.055 C 
ATOM      9  C   UNL A   1     -27.438   3.091  25.645  0.00  0.00    +0.102 C 
ATOM     10  N   UNL A   1     -28.075   2.089  25.003  0.00  0.00    -0.212 NA
ATOM     11  C   UNL A   1     -27.543   0.849  25.079  0.00  0.00    +0.234 C 
ATOM     12  C   UNL A   1     -26.354   0.576  25.777  0.00  0.00    +0.240 C 
ATOM     13  F   UNL A   1     -25.860  -0.681  25.795  0.00  0.00    -0.227 F 
BRANCH   8  14
ATOM     14  C   UNL A   1     -25.642   4.093  27.123  0.00  0.00    +0.262 C 
ATOM     15  N   UNL A   1     -25.614   5.252  26.449  0.00  0.00    -0.200 NA
ATOM     16  C   UNL A   1     -25.026   6.479  26.963  0.00  0.00    +0.139 C 
ATOM     17  O   UNL A   1     -25.143   3.966  28.243  0.00  0.00    -0.269 OA
ENDBRANCH   8  14
BRANCH  11  18
ATOM     18  O   UNL A   1     -28.193  -0.208  24.477  0.00  0.00    -0.459 OA
BRANCH  18  19
ATOM     19  C   UNL A   1     -29.460   0.005  23.866  0.00  0.00    +0.242 C 
BRANCH  19  20
ATOM     20  C   UNL A   1     -30.065  -1.377  23.573  0.00  0.00    +0.229 C 
ATOM     21  O   UNL A   1     -30.729  -1.878  24.721  0.00  0.00    -0.216 OA
ENDBRANCH  19  20
ENDBRANCH  18  19
ENDBRANCH  11  18
ENDBRANCH   6   7
ENDBRANCH   4   6
ENDBRANCH   3   4
ENDBRANCH   1   3
BRANCH   1  22
ATOM     22  C   UNL A   1     -24.855  -1.012  30.143  0.00  0.00    +0.041 C 
BRANCH  22  23
ATOM     23  C   UNL A   1     -24.973  -2.505  29.788  0.00  0.00    -0.021 C 
ATOM     24  C   UNL A   1     -23.906  -3.173  29.146  0.00  0.00    -0.004 C 
ATOM     25  C   UNL A   1     -23.989  -4.549  28.853  0.00  0.00    -0.000 C 
ATOM     26  C   UNL A   1     -25.137  -5.280  29.205  0.00  0.00    -0.000 C 
ATOM     27  C   UNL A   1     -26.232  -4.611  29.784  0.00  0.00    -0.000 C 
ATOM     28  C   UNL A   1     -26.155  -3.232  30.065  0.00  0.00    -0.004 C 
ENDBRANCH  22  23
BRANCH  22  29
ATOM     29  C   UNL A   1     -25.387  -0.679  31.571  0.00  0.00    +0.077 C 
ATOM     30  C   UNL A   1     -25.189   0.773  32.028  0.00  0.00    +0.019 C 
ATOM     31  C   UNL A   1     -25.336   0.684  33.544  0.00  0.00    +0.020 C 
ATOM     32  C   UNL A   1     -24.829  -0.715  33.905  0.00  0.00    +0.089 C 
ATOM     33  N   UNL A   1     -24.758  -1.481  32.646  0.00  0.00    -0.219 NA
ENDBRANCH  22  29
ENDBRANCH   1  22
BRANCH   1  34
ATOM     34  C   UNL A   1     -26.427   0.722  28.686  0.00  0.00    +0.090 C 
BRANCH  34  35
ATOM     35  C   UNL A   1     -27.695   0.223  29.434  0.00  0.00    +0.241 C 
ATOM     36  N   UNL A   1     -28.572   1.135  29.566  0.00  0.00    -0.208 NA
ATOM     37  O   UNL A   1     -28.052  -0.985  29.329  0.00  0.00    -0.273 OA
BRANCH  36  44
ATOM     38  C   UNL A   1     -27.517   3.673  31.561  0.00  0.00    +0.027 C 
ATOM     39  C   UNL A   1     -28.556   2.520  31.466  0.00  0.00    +0.025 C 
ATOM     40  C   UNL A   1     -30.641   2.221  30.290  0.00  0.00    +0.022 C 
ATOM     41  C   UNL A   1     -28.154   4.920  31.004  0.00  0.00    -0.031 C 
ATOM     42  C   UNL A   1     -29.082   3.414  29.167  0.00  0.00    +0.046 C 
ATOM     43  C   UNL A   1     -28.928   4.793  29.737  0.00  0.00    -0.029 C 
ATOM     44  C   UNL A   1     -29.174   2.324  30.055  0.00  0.00    +0.083 C 
ENDBRANCH  36  44
ENDBRANCH  34  35
ENDBRANCH   1  34
TORSDOF 14
