REMARK  Name = outputs/IAG933/test6/raw/output_9426_IAG933_linker_design_.xyz
REMARK  16 active torsions:
REMARK  status: ('A' for Active; 'I' for Inactive)
REMARK    1  A    between atoms: C_1  and  C_2
REMARK    2  A    between atoms: C_1  and  C_8
REMARK    3  A    between atoms: C_1  and  C_41
REMARK    4  A    between atoms: C_13  and  C_40
REMARK    5  A    between atoms: C_14  and  C_15
REMARK    6  A    between atoms: C_21  and  O_22
REMARK    7  A    between atoms: O_22  and  C_23
REMARK    8  A    between atoms: C_23  and  C_24
REMARK    9  A    between atoms: C_28  and  C_33
REMARK   10  A    between atoms: C_29  and  C_35
REMARK   11  A    between atoms: C_29  and  C_38
REMARK   12  A    between atoms: C_33  and  C_34
REMARK   13  A    between atoms: C_35  and  N_37
REMARK   14  A    between atoms: C_35  and  C_40
REMARK   15  A    between atoms: N_37  and  C_41
REMARK   16  A    between atoms: C_41  and  C_43
REMARK                            x       y       z     vdW  Elec       q    Type
REMARK                         _______ _______ _______ _____ _____    ______ ____
ROOT
ATOM      1  N   UNL A   1     -24.999  -0.024  28.266  0.00  0.00    -0.212 NA
ENDROOT
BRANCH   1   2
ATOM      2  C   UNL A   1     -23.800   0.716  27.941  0.00  0.00    +0.133 C 
BRANCH   2   3
ATOM      3  C   UNL A   1     -22.466   0.523  28.471  0.00  0.00    +0.199 C 
ATOM      4  O   UNL A   1     -22.242  -0.278  29.428  0.00  0.00    -0.292 OA
BRANCH   3   6
ATOM      5  O   UNL A   1     -21.565   1.749  26.605  0.00  0.00    -0.212 OA
ATOM      6  C   UNL A   1     -21.267   1.280  27.873  0.00  0.00    +0.247 C 
ENDBRANCH   3   6
ENDBRANCH   2   3
BRANCH   2   7
ATOM      7  C   UNL A   1     -24.194   1.542  26.689  0.00  0.00    +0.033 C 
BRANCH   7   8
ATOM      8  C   UNL A   1     -25.688   1.614  26.461  0.00  0.00    +0.072 C 
ATOM      9  C   UNL A   1     -26.250   2.920  26.395  0.00  0.00    +0.055 C 
ATOM     10  C   UNL A   1     -27.438   3.091  25.645  0.00  0.00    +0.102 C 
ATOM     11  N   UNL A   1     -28.075   2.089  25.003  0.00  0.00    -0.212 NA
ATOM     12  C   UNL A   1     -27.543   0.849  25.079  0.00  0.00    +0.234 C 
ATOM     13  C   UNL A   1     -26.354   0.576  25.777  0.00  0.00    +0.240 C 
ATOM     14  F   UNL A   1     -25.860  -0.681  25.795  0.00  0.00    -0.227 F 
BRANCH   9  15
ATOM     15  C   UNL A   1     -25.642   4.093  27.123  0.00  0.00    +0.262 C 
ATOM     16  N   UNL A   1     -25.614   5.252  26.449  0.00  0.00    -0.200 NA
ATOM     17  C   UNL A   1     -25.026   6.479  26.963  0.00  0.00    +0.139 C 
ATOM     18  O   UNL A   1     -25.143   3.966  28.243  0.00  0.00    -0.269 OA
ENDBRANCH   9  15
BRANCH  12  19
ATOM     19  O   UNL A   1     -28.193  -0.208  24.477  0.00  0.00    -0.459 OA
BRANCH  19  20
ATOM     20  C   UNL A   1     -29.460   0.005  23.866  0.00  0.00    +0.242 C 
BRANCH  20  21
ATOM     21  C   UNL A   1     -30.065  -1.377  23.573  0.00  0.00    +0.229 C 
ATOM     22  O   UNL A   1     -30.729  -1.878  24.721  0.00  0.00    -0.216 OA
ENDBRANCH  20  21
ENDBRANCH  19  20
ENDBRANCH  12  19
ENDBRANCH   7   8
ENDBRANCH   2   7
ENDBRANCH   1   2
BRANCH   1  23
ATOM     23  C   UNL A   1     -25.731  -0.240  29.128  0.00  0.00    +0.093 C 
BRANCH  23  28
ATOM     24  C   UNL A   1     -28.133  -0.695  28.184  0.00  0.00    +0.019 C 
ATOM     25  C   UNL A   1     -29.634   0.935  29.173  0.00  0.00    +0.058 C 
ATOM     26  C   UNL A   1     -29.667  -0.573  28.743  0.00  0.00    +0.017 C 
ATOM     27  N   UNL A   1     -28.239   1.116  29.631  0.00  0.00    -0.273 NA
ATOM     28  C   UNL A   1     -27.349   0.110  29.045  0.00  0.00    +0.074 C 
ATOM     29  C   UNL A   1     -27.900   2.267  30.561  0.00  0.00    +0.090 C 
BRANCH  25  30
ATOM     30  C   UNL A   1     -30.689   1.410  30.172  0.00  0.00    +0.016 C 
BRANCH  30  31
ATOM     31  C   UNL A   1     -31.413   2.729  29.791  0.00  0.00    +0.001 C 
ATOM     32  C   UNL A   1     -32.746   2.952  30.517  0.00  0.00    +0.000 C 
ENDBRANCH  30  31
ENDBRANCH  25  30
ENDBRANCH  23  28
BRANCH  23  33
ATOM     33  C   UNL A   1     -24.855  -1.012  30.143  0.00  0.00    +0.056 C 
BRANCH  33  34
ATOM     34  C   UNL A   1     -24.973  -2.505  29.788  0.00  0.00    -0.020 C 
ATOM     35  C   UNL A   1     -23.906  -3.173  29.146  0.00  0.00    -0.004 C 
ATOM     36  C   UNL A   1     -23.989  -4.549  28.853  0.00  0.00    -0.000 C 
ATOM     37  C   UNL A   1     -25.137  -5.280  29.205  0.00  0.00    -0.000 C 
ATOM     38  C   UNL A   1     -26.232  -4.611  29.784  0.00  0.00    -0.000 C 
ATOM     39  C   UNL A   1     -26.155  -3.232  30.065  0.00  0.00    -0.004 C 
ENDBRANCH  33  34
BRANCH  33  40
ATOM     40  C   UNL A   1     -25.387  -0.679  31.571  0.00  0.00    +0.078 C 
ATOM     41  C   UNL A   1     -25.189   0.773  32.028  0.00  0.00    +0.019 C 
ATOM     42  C   UNL A   1     -25.336   0.684  33.544  0.00  0.00    +0.020 C 
ATOM     43  C   UNL A   1     -24.829  -0.715  33.905  0.00  0.00    +0.089 C 
ATOM     44  N   UNL A   1     -24.758  -1.481  32.646  0.00  0.00    -0.219 NA
ENDBRANCH  33  40
ENDBRANCH  23  33
ENDBRANCH   1  23
TORSDOF 16
