REMARK  Name = outputs/IAG933/test6/raw/output_9428_IAG933_linker_design_.xyz
REMARK  9 active torsions:
REMARK  status: ('A' for Active; 'I' for Inactive)
REMARK    1  A    between atoms: C_1  and  C_2
REMARK    2  A    between atoms: C_1  and  C_8
REMARK    3  A    between atoms: C_1  and  N_38
REMARK    4  A    between atoms: C_13  and  C_41
REMARK    5  A    between atoms: C_14  and  C_15
REMARK    6  A    between atoms: C_21  and  O_22
REMARK    7  A    between atoms: O_22  and  C_23
REMARK    8  A    between atoms: C_23  and  C_24
REMARK    9  A    between atoms: C_35  and  C_39
REMARK                            x       y       z     vdW  Elec       q    Type
REMARK                         _______ _______ _______ _____ _____    ______ ____
ROOT
ATOM      1  C   UNL A   1     -23.390   1.537  26.892  0.00  0.00    +0.144 C 
ATOM      2  O   UNL A   1     -21.099   1.056  27.639  0.00  0.00    -0.452 OA
ATOM      3 CL   UNL A   1     -22.981   2.394  25.400  0.00  0.00    -0.106 Cl
ATOM      4  C   UNL A   1     -25.209   0.772  28.613  0.00  0.00    +0.156 C 
ATOM      5  C   UNL A   1     -22.865   0.179  28.854  0.00  0.00    +0.084 C 
ATOM      6  C   UNL A   1     -22.411   1.063  27.723  0.00  0.00    +0.151 C 
ATOM      7  N   UNL A   1     -24.160  -0.103  29.176  0.00  0.00    -0.295 N 
ATOM      8  C   UNL A   1     -21.753  -0.270  29.360  0.00  0.00    +0.058 C 
ATOM      9  C   UNL A   1     -24.725   1.217  27.242  0.00  0.00    +0.074 C 
ATOM     10  C   UNL A   1     -20.615   0.162  28.590  0.00  0.00    +0.180 C 
ENDROOT
BRANCH   9  11
ATOM     11  C   UNL A   1     -25.688   1.614  26.461  0.00  0.00    +0.019 C 
ATOM     12  C   UNL A   1     -26.250   2.920  26.395  0.00  0.00    +0.073 C 
ATOM     13  C   UNL A   1     -27.438   3.091  25.645  0.00  0.00    +0.106 C 
ATOM     14  N   UNL A   1     -28.075   2.089  25.003  0.00  0.00    -0.208 NA
ATOM     15  C   UNL A   1     -27.543   0.849  25.079  0.00  0.00    +0.253 C 
ATOM     16  C   UNL A   1     -26.354   0.576  25.777  0.00  0.00    +0.189 C 
ATOM     17  F   UNL A   1     -25.860  -0.681  25.795  0.00  0.00    -0.200 F 
BRANCH  12  18
ATOM     18  C   UNL A   1     -25.642   4.093  27.123  0.00  0.00    +0.266 C 
ATOM     19  N   UNL A   1     -25.614   5.252  26.449  0.00  0.00    -0.200 NA
ATOM     20  C   UNL A   1     -25.026   6.479  26.963  0.00  0.00    +0.139 C 
ATOM     21  O   UNL A   1     -25.143   3.966  28.243  0.00  0.00    -0.268 OA
ENDBRANCH  12  18
BRANCH  15  22
ATOM     22  O   UNL A   1     -28.193  -0.208  24.477  0.00  0.00    -0.456 OA
BRANCH  22  23
ATOM     23  C   UNL A   1     -29.460   0.005  23.866  0.00  0.00    +0.243 C 
BRANCH  23  24
ATOM     24  C   UNL A   1     -30.065  -1.377  23.573  0.00  0.00    +0.229 C 
ATOM     25  O   UNL A   1     -30.729  -1.878  24.721  0.00  0.00    -0.216 OA
ENDBRANCH  23  24
ENDBRANCH  22  23
ENDBRANCH  15  22
ENDBRANCH   9  11
BRANCH   4  30
ATOM     26  C   UNL A   1     -28.503   3.342  29.336  0.00  0.00    +0.023 C 
ATOM     27  C   UNL A   1     -27.291   2.694  29.546  0.00  0.00    +0.093 C 
ATOM     28  N   UNL A   1     -27.427   1.245  29.484  0.00  0.00    -0.278 N 
ATOM     29  O   UNL A   1     -27.314  -0.652  28.389  0.00  0.00    -0.273 OA
ATOM     30  C   UNL A   1     -26.777   0.339  28.809  0.00  0.00    +0.244 C 
ATOM     31  C   UNL A   1     -28.717   1.080  30.188  0.00  0.00    +0.093 C 
ATOM     32  C   UNL A   1     -29.518   2.334  29.841  0.00  0.00    +0.023 C 
ENDBRANCH   4  30
BRANCH   7  33
ATOM     33  C   UNL A   1     -24.855  -1.012  30.143  0.00  0.00    +0.112 C 
BRANCH  33  34
ATOM     34  C   UNL A   1     -24.973  -2.505  29.788  0.00  0.00    -0.003 C 
ATOM     35  C   UNL A   1     -23.906  -3.173  29.146  0.00  0.00    -0.003 C 
ATOM     36  C   UNL A   1     -23.989  -4.549  28.853  0.00  0.00    -0.000 C 
ATOM     37  C   UNL A   1     -25.137  -5.280  29.205  0.00  0.00    -0.000 C 
ATOM     38  C   UNL A   1     -26.232  -4.611  29.784  0.00  0.00    -0.000 C 
ATOM     39  C   UNL A   1     -26.155  -3.232  30.065  0.00  0.00    -0.003 C 
ENDBRANCH  33  34
BRANCH  33  40
ATOM     40  C   UNL A   1     -25.387  -0.679  31.571  0.00  0.00    +0.095 C 
ATOM     41  C   UNL A   1     -25.189   0.773  32.028  0.00  0.00    +0.021 C 
ATOM     42  C   UNL A   1     -25.336   0.684  33.544  0.00  0.00    +0.020 C 
ATOM     43  C   UNL A   1     -24.829  -0.715  33.905  0.00  0.00    +0.089 C 
ATOM     44  N   UNL A   1     -24.758  -1.481  32.646  0.00  0.00    -0.217 NA
ENDBRANCH  33  40
ENDBRANCH   7  33
TORSDOF 9
