MODEL 942
MODEL 1
REMARK VINA RESULT:    -7.161      0.000      0.000
REMARK INTER + INTRA:          -8.625
REMARK INTER:                  -8.417
REMARK INTRA:                  -0.208
REMARK UNBOUND:                -0.208
REMARK  Name = No_942-gen_results/8p0m/2024-11-27-11-27-31/
REMARK  3 active torsions:
REMARK  status: ('A' for Active; 'I' for Inactive)
REMARK    1  A    between atoms: C_2  and  C_13
REMARK    2  A    between atoms: C_13  and  O_14
REMARK    3  A    between atoms: O_14  and  C_19
REMARK                            x       y       z     vdW  Elec       q    Type
REMARK                         _______ _______ _______ _____ _____    ______ ____
ROOT
ATOM      1  C   UNL A   1     -29.067 -10.523  32.660  0.00  0.00    +0.026 A 
ATOM      2  C   UNL A   1     -28.288 -11.223  32.542  0.00  0.00    +0.077 A 
ATOM      3  C   UNL A   1     -29.812 -10.155  31.445  0.00  0.00    +0.085 A 
ATOM      4  C   UNL A   1     -29.568 -10.830  30.214  0.00  0.00    +0.018 A 
ATOM      5  C   UNL A   1     -28.562 -11.763  30.228  0.00  0.00    +0.002 A 
ATOM      6  C   UNL A   1     -27.893 -12.043  31.366  0.00  0.00    +0.006 A 
ATOM      7  C   UNL A   1     -30.300 -10.497  29.019  0.00  0.00    +0.006 A 
ATOM      8  C   UNL A   1     -30.322 -10.998  28.134  0.00  0.00    +0.000 A 
ATOM      9  C   UNL A   1     -30.935 -10.526  26.798  0.00  0.00    +0.000 A 
ATOM     10  C   UNL A   1     -31.583  -9.313  26.927  0.00  0.00    +0.000 A 
ATOM     11  C   UNL A   1     -30.988  -9.162  29.078  0.00  0.00    +0.058 A 
ATOM     12  C   UNL A   1     -31.568  -8.624  28.026  0.00  0.00    +0.005 A 
ATOM     13  N   UNL A   1     -30.754  -9.159  31.460  0.00  0.00    -0.208 NA
ATOM     14  C   UNL A   1     -31.095  -8.569  30.420  0.00  0.00    +0.279 A 
ATOM     15  O   UNL A   1     -31.214  -7.280  30.469  0.00  0.00    -0.265 OA
ENDROOT
BRANCH   2  16
ATOM     16  C   UNL A   1     -27.417 -11.621  33.820  0.00  0.00    +0.346 C 
ATOM     17  O   UNL A   1     -26.766 -12.725  33.908  0.00  0.00    -0.244 OA
BRANCH  16  18
ATOM     18  O   UNL A   1     -27.423 -10.806  34.619  0.00  0.00    -0.418 OA
BRANCH  18  19
ATOM     19  C   UNL A   1     -26.761  -9.873  34.885  0.00  0.00    +0.178 C 
ATOM     20  C   UNL A   1     -27.062  -8.859  35.288  0.00  0.00    +0.015 C 
ATOM     21  C   UNL A   1     -26.805  -7.895  35.774  0.00  0.00    +0.034 C 
ENDBRANCH  18  19
ENDBRANCH  16  18
ENDBRANCH   2  16
TORSDOF 3
ENDMDL
ENDMDL
