REMARK  Name = outputs/IAG933/test6/raw/output_9431_IAG933_linker_design_.xyz
REMARK  11 active torsions:
REMARK  status: ('A' for Active; 'I' for Inactive)
REMARK    1  A    between atoms: C_1  and  C_2
REMARK    2  A    between atoms: C_1  and  C_8
REMARK    3  A    between atoms: C_1  and  N_40
REMARK    4  A    between atoms: C_13  and  C_33
REMARK    5  A    between atoms: C_14  and  C_15
REMARK    6  A    between atoms: C_21  and  O_22
REMARK    7  A    between atoms: O_22  and  C_23
REMARK    8  A    between atoms: C_23  and  C_24
REMARK    9  A    between atoms: N_30  and  C_42
REMARK   10  A    between atoms: C_35  and  N_40
REMARK   11  A    between atoms: C_38  and  C_41
REMARK                            x       y       z     vdW  Elec       q    Type
REMARK                         _______ _______ _______ _____ _____    ______ ____
ROOT
ATOM      1  O   UNL A   1     -27.616   0.194  29.276  0.00  0.00    -0.250 OA
ATOM      2  N   UNL A   1     -25.197   0.058  29.144  0.00  0.00    -0.238 N 
ATOM      3  C   UNL A   1     -26.630   0.810  29.383  0.00  0.00    +0.331 C 
ENDROOT
BRANCH   2   7
ATOM      4  C   UNL A   1     -23.191   1.978  26.270  0.00  0.00    +0.001 C 
ATOM      5  C   UNL A   1     -24.333   1.361  27.001  0.00  0.00    +0.016 C 
ATOM      6  C   UNL A   1     -21.895   1.948  26.841  0.00  0.00    +0.000 C 
ATOM      7  C   UNL A   1     -24.116   0.670  28.291  0.00  0.00    +0.056 C 
ATOM      8  C   UNL A   1     -22.760   0.674  28.779  0.00  0.00    +0.015 C 
ATOM      9  C   UNL A   1     -21.698   1.284  28.075  0.00  0.00    +0.001 C 
BRANCH   5  10
ATOM     10  C   UNL A   1     -25.688   1.614  26.461  0.00  0.00    +0.039 C 
ATOM     11  C   UNL A   1     -26.250   2.920  26.395  0.00  0.00    +0.077 C 
ATOM     12  C   UNL A   1     -27.438   3.091  25.645  0.00  0.00    +0.107 C 
ATOM     13  N   UNL A   1     -28.075   2.089  25.003  0.00  0.00    -0.208 NA
ATOM     14  C   UNL A   1     -27.543   0.849  25.079  0.00  0.00    +0.253 C 
ATOM     15  C   UNL A   1     -26.354   0.576  25.777  0.00  0.00    +0.193 C 
ATOM     16  F   UNL A   1     -25.860  -0.681  25.795  0.00  0.00    -0.199 F 
BRANCH  11  17
ATOM     17  C   UNL A   1     -25.642   4.093  27.123  0.00  0.00    +0.266 C 
ATOM     18  N   UNL A   1     -25.614   5.252  26.449  0.00  0.00    -0.200 NA
ATOM     19  C   UNL A   1     -25.026   6.479  26.963  0.00  0.00    +0.139 C 
ATOM     20  O   UNL A   1     -25.143   3.966  28.243  0.00  0.00    -0.268 OA
ENDBRANCH  11  17
BRANCH  14  21
ATOM     21  O   UNL A   1     -28.193  -0.208  24.477  0.00  0.00    -0.456 OA
BRANCH  21  22
ATOM     22  C   UNL A   1     -29.460   0.005  23.866  0.00  0.00    +0.243 C 
BRANCH  22  23
ATOM     23  C   UNL A   1     -30.065  -1.377  23.573  0.00  0.00    +0.229 C 
ATOM     24  O   UNL A   1     -30.729  -1.878  24.721  0.00  0.00    -0.216 OA
ENDBRANCH  22  23
ENDBRANCH  21  22
ENDBRANCH  14  21
ENDBRANCH   5  10
ENDBRANCH   2   7
BRANCH   3  25
ATOM     25  N   UNL A   1     -26.718   2.373  29.712  0.00  0.00    -0.165 NA
ATOM     26  C   UNL A   1     -27.818   2.824  30.674  0.00  0.00    +0.064 C 
BRANCH  26  31
ATOM     27  C   UNL A   1     -26.765   4.116  33.205  0.00  0.00    +0.026 C 
ATOM     28  C   UNL A   1     -25.391   4.518  31.180  0.00  0.00    -0.030 C 
ATOM     29  C   UNL A   1     -26.671   5.037  30.524  0.00  0.00    +0.031 C 
ATOM     30  C   UNL A   1     -25.501   4.191  32.619  0.00  0.00    -0.031 C 
ATOM     31  C   UNL A   1     -27.934   4.409  31.089  0.00  0.00    +0.044 C 
ATOM     32  C   UNL A   1     -28.021   4.659  32.638  0.00  0.00    +0.011 C 
ENDBRANCH  26  31
ENDBRANCH   3  25
BRANCH   2  33
ATOM     33  C   UNL A   1     -24.855  -1.012  30.143  0.00  0.00    +0.120 C 
BRANCH  33  34
ATOM     34  C   UNL A   1     -24.973  -2.505  29.788  0.00  0.00    -0.003 C 
ATOM     35  C   UNL A   1     -23.906  -3.173  29.146  0.00  0.00    -0.003 C 
ATOM     36  C   UNL A   1     -23.989  -4.549  28.853  0.00  0.00    -0.000 C 
ATOM     37  C   UNL A   1     -25.137  -5.280  29.205  0.00  0.00    -0.000 C 
ATOM     38  C   UNL A   1     -26.232  -4.611  29.784  0.00  0.00    -0.000 C 
ATOM     39  C   UNL A   1     -26.155  -3.232  30.065  0.00  0.00    -0.003 C 
ENDBRANCH  33  34
BRANCH  33  40
ATOM     40  C   UNL A   1     -25.387  -0.679  31.571  0.00  0.00    +0.096 C 
ATOM     41  C   UNL A   1     -25.189   0.773  32.028  0.00  0.00    +0.021 C 
ATOM     42  C   UNL A   1     -25.336   0.684  33.544  0.00  0.00    +0.020 C 
ATOM     43  C   UNL A   1     -24.829  -0.715  33.905  0.00  0.00    +0.089 C 
ATOM     44  N   UNL A   1     -24.758  -1.481  32.646  0.00  0.00    -0.217 NA
ENDBRANCH  33  40
ENDBRANCH   2  33
TORSDOF 11
