REMARK  Name = outputs/IAG933/test6/raw/output_9432_IAG933_linker_design_.xyz
REMARK  10 active torsions:
REMARK  status: ('A' for Active; 'I' for Inactive)
REMARK    1  A    between atoms: C_1  and  C_2
REMARK    2  A    between atoms: C_1  and  C_8
REMARK    3  A    between atoms: C_1  and  C_39
REMARK    4  A    between atoms: C_13  and  C_37
REMARK    5  A    between atoms: C_14  and  C_15
REMARK    6  A    between atoms: C_21  and  O_22
REMARK    7  A    between atoms: O_22  and  C_23
REMARK    8  A    between atoms: C_23  and  C_24
REMARK    9  A    between atoms: C_30  and  C_32
REMARK   10  A    between atoms: C_32  and  C_41
REMARK                            x       y       z     vdW  Elec       q    Type
REMARK                         _______ _______ _______ _____ _____    ______ ____
ROOT
ATOM      1  C   UNL A   1     -25.220   0.549  28.384  0.00  0.00    -0.023 C 
ATOM      2  C   UNL A   1     -22.457   1.093  27.869  0.00  0.00    +0.150 C 
ATOM      3  C   UNL A   1     -23.438   1.577  27.012  0.00  0.00    +0.085 C 
ATOM      4  C   UNL A   1     -24.740   1.301  27.297  0.00  0.00    +0.011 C 
ATOM      5 CL   UNL A   1     -22.982   2.457  25.579  0.00  0.00    -0.080 Cl
ATOM      6  C   UNL A   1     -24.260  -0.059  29.137  0.00  0.00    -0.019 C 
ATOM      7  C   UNL A   1     -22.865   0.216  28.900  0.00  0.00    +0.026 C 
ATOM      8  F   UNL A   1     -21.150   1.502  27.683  0.00  0.00    -0.203 F 
ENDROOT
BRANCH   4   9
ATOM      9  C   UNL A   1     -25.688   1.614  26.461  0.00  0.00    +0.039 C 
ATOM     10  C   UNL A   1     -26.250   2.920  26.395  0.00  0.00    +0.077 C 
ATOM     11  C   UNL A   1     -27.438   3.091  25.645  0.00  0.00    +0.107 C 
ATOM     12  N   UNL A   1     -28.075   2.089  25.003  0.00  0.00    -0.208 NA
ATOM     13  C   UNL A   1     -27.543   0.849  25.079  0.00  0.00    +0.253 C 
ATOM     14  C   UNL A   1     -26.354   0.576  25.777  0.00  0.00    +0.193 C 
ATOM     15  F   UNL A   1     -25.860  -0.681  25.795  0.00  0.00    -0.199 F 
BRANCH  10  16
ATOM     16  C   UNL A   1     -25.642   4.093  27.123  0.00  0.00    +0.266 C 
ATOM     17  N   UNL A   1     -25.614   5.252  26.449  0.00  0.00    -0.200 NA
ATOM     18  C   UNL A   1     -25.026   6.479  26.963  0.00  0.00    +0.139 C 
ATOM     19  O   UNL A   1     -25.143   3.966  28.243  0.00  0.00    -0.268 OA
ENDBRANCH  10  16
BRANCH  13  20
ATOM     20  O   UNL A   1     -28.193  -0.208  24.477  0.00  0.00    -0.456 OA
BRANCH  20  21
ATOM     21  C   UNL A   1     -29.460   0.005  23.866  0.00  0.00    +0.243 C 
BRANCH  21  22
ATOM     22  C   UNL A   1     -30.065  -1.377  23.573  0.00  0.00    +0.229 C 
ATOM     23  O   UNL A   1     -30.729  -1.878  24.721  0.00  0.00    -0.216 OA
ENDBRANCH  21  22
ENDBRANCH  20  21
ENDBRANCH  13  20
ENDBRANCH   4   9
BRANCH   6  24
ATOM     24  C   UNL A   1     -24.855  -1.012  30.143  0.00  0.00    +0.060 C 
BRANCH  24  25
ATOM     25  C   UNL A   1     -24.973  -2.505  29.788  0.00  0.00    -0.017 C 
ATOM     26  C   UNL A   1     -23.906  -3.173  29.146  0.00  0.00    -0.004 C 
ATOM     27  C   UNL A   1     -23.989  -4.549  28.853  0.00  0.00    -0.000 C 
ATOM     28  C   UNL A   1     -25.137  -5.280  29.205  0.00  0.00    -0.000 C 
ATOM     29  C   UNL A   1     -26.232  -4.611  29.784  0.00  0.00    -0.000 C 
ATOM     30  C   UNL A   1     -26.155  -3.232  30.065  0.00  0.00    -0.004 C 
ENDBRANCH  24  25
BRANCH  24  31
ATOM     31  C   UNL A   1     -25.387  -0.679  31.571  0.00  0.00    +0.081 C 
ATOM     32  C   UNL A   1     -25.189   0.773  32.028  0.00  0.00    +0.019 C 
ATOM     33  C   UNL A   1     -25.336   0.684  33.544  0.00  0.00    +0.020 C 
ATOM     34  C   UNL A   1     -24.829  -0.715  33.905  0.00  0.00    +0.089 C 
ATOM     35  N   UNL A   1     -24.758  -1.481  32.646  0.00  0.00    -0.219 NA
ENDBRANCH  24  31
ENDBRANCH   6  24
BRANCH   1  36
ATOM     36  C   UNL A   1     -26.845   0.187  28.817  0.00  0.00    +0.054 C 
BRANCH  36  43
ATOM     37  C   UNL A   1     -27.377   2.238  30.085  0.00  0.00    -0.007 C 
ATOM     38  C   UNL A   1     -30.267   2.169  28.527  0.00  0.00    +0.151 C 
ATOM     39  S   UNL A   1     -29.574   0.849  29.234  0.00  0.00    -0.007 S 
ATOM     40  C   UNL A   1     -27.735   3.606  30.042  0.00  0.00    -0.029 C 
ATOM     41  C   UNL A   1     -28.726   4.097  29.193  0.00  0.00    +0.028 C 
ATOM     42  O   UNL A   1     -30.024   0.498  30.653  0.00  0.00    -0.173 OA
ATOM     43  C   UNL A   1     -27.912   1.133  29.605  0.00  0.00    +0.155 C 
ATOM     44  O   UNL A   1     -29.854  -0.331  28.361  0.00  0.00    -0.173 OA
ATOM     45  C   UNL A   1     -29.932   3.546  28.722  0.00  0.00    +0.030 C 
ENDBRANCH  36  43
ENDBRANCH   1  36
TORSDOF 10
