REMARK  Name = outputs/IAG933/test6/raw/output_9433_IAG933_linker_design_.xyz
REMARK  12 active torsions:
REMARK  status: ('A' for Active; 'I' for Inactive)
REMARK    1  A    between atoms: C_1  and  C_2
REMARK    2  A    between atoms: C_1  and  C_8
REMARK    3  A    between atoms: C_1  and  N_43
REMARK    4  A    between atoms: C_13  and  N_31
REMARK    5  A    between atoms: C_14  and  C_15
REMARK    6  A    between atoms: C_21  and  O_22
REMARK    7  A    between atoms: O_22  and  C_23
REMARK    8  A    between atoms: C_23  and  C_24
REMARK    9  A    between atoms: O_32  and  C_39
REMARK   10  A    between atoms: C_33  and  C_38
REMARK   11  A    between atoms: C_40  and  N_43
REMARK   12  A    between atoms: C_41  and  N_43
REMARK                            x       y       z     vdW  Elec       q    Type
REMARK                         _______ _______ _______ _____ _____    ______ ____
ROOT
ATOM      1  N   UNL A   1     -21.144   0.671  28.242  0.00  0.00    -0.015 NA
ATOM      2  C   UNL A   1     -21.663   1.460  27.332  0.00  0.00    +0.331 C 
ATOM      3  N   UNL A   1     -24.614   1.295  27.349  0.00  0.00    -0.141 N 
ATOM      4  N   UNL A   1     -22.286  -0.564  29.672  0.00  0.00    +0.223 NA
ATOM      5  C   UNL A   1     -22.141   0.065  28.937  0.00  0.00    +0.445 C 
ATOM      6  C   UNL A   1     -23.255   0.091  28.779  0.00  0.00    +0.073 C 
ATOM      7  C   UNL A   1     -22.988   1.599  26.760  0.00  0.00    +0.341 C 
ATOM      8  C   UNL A   1     -24.499   0.508  28.293  0.00  0.00    +0.322 C 
ENDROOT
BRANCH   3   9
ATOM      9  C   UNL A   1     -25.688   1.614  26.461  0.00  0.00    +0.179 C 
ATOM     10  C   UNL A   1     -26.250   2.920  26.395  0.00  0.00    +0.114 C 
ATOM     11  C   UNL A   1     -27.438   3.091  25.645  0.00  0.00    +0.110 C 
ATOM     12  N   UNL A   1     -28.075   2.089  25.003  0.00  0.00    -0.208 NA
ATOM     13  C   UNL A   1     -27.543   0.849  25.079  0.00  0.00    +0.257 C 
ATOM     14  C   UNL A   1     -26.354   0.576  25.777  0.00  0.00    +0.230 C 
ATOM     15  F   UNL A   1     -25.860  -0.681  25.795  0.00  0.00    -0.196 F 
BRANCH  10  16
ATOM     16  C   UNL A   1     -25.642   4.093  27.123  0.00  0.00    +0.270 C 
ATOM     17  N   UNL A   1     -25.614   5.252  26.449  0.00  0.00    -0.200 NA
ATOM     18  C   UNL A   1     -25.026   6.479  26.963  0.00  0.00    +0.139 C 
ATOM     19  O   UNL A   1     -25.143   3.966  28.243  0.00  0.00    -0.268 OA
ENDBRANCH  10  16
BRANCH  13  20
ATOM     20  O   UNL A   1     -28.193  -0.208  24.477  0.00  0.00    -0.456 OA
BRANCH  20  21
ATOM     21  C   UNL A   1     -29.460   0.005  23.866  0.00  0.00    +0.243 C 
BRANCH  21  22
ATOM     22  C   UNL A   1     -30.065  -1.377  23.573  0.00  0.00    +0.229 C 
ATOM     23  O   UNL A   1     -30.729  -1.878  24.721  0.00  0.00    -0.216 OA
ENDBRANCH  21  22
ENDBRANCH  20  21
ENDBRANCH  13  20
ENDBRANCH   3   9
BRANCH   7  24
ATOM     24  O   UNL A   1     -23.120   2.183  25.642  0.00  0.00    -0.312 OA
ATOM     25  C   UNL A   1     -22.140   2.074  24.682  0.00  0.00    +0.178 C 
ENDBRANCH   7  24
BRANCH   8  26
ATOM     26  N   UNL A   1     -25.532  -0.070  29.086  0.00  0.00    -0.191 N 
BRANCH  26  29
ATOM     27  C   UNL A   1     -28.008   0.094  28.501  0.00  0.00    +0.053 C 
ATOM     28  C   UNL A   1     -27.823   0.712  29.596  0.00  0.00    +0.080 C 
ATOM     29  C   UNL A   1     -26.769   0.857  28.826  0.00  0.00    +0.164 C 
BRANCH  28  31
ATOM     30  O   UNL A   1     -28.122   2.463  30.561  0.00  0.00    -0.220 OA
ATOM     31  C   UNL A   1     -28.285   1.128  30.884  0.00  0.00    +0.186 C 
ENDBRANCH  28  31
ENDBRANCH  26  29
BRANCH  26  32
ATOM     32  C   UNL A   1     -24.855  -1.012  30.143  0.00  0.00    +0.199 C 
BRANCH  32  33
ATOM     33  C   UNL A   1     -24.973  -2.505  29.788  0.00  0.00    +0.021 C 
ATOM     34  C   UNL A   1     -23.906  -3.173  29.146  0.00  0.00    -0.000 C 
ATOM     35  C   UNL A   1     -23.989  -4.549  28.853  0.00  0.00    -0.000 C 
ATOM     36  C   UNL A   1     -25.137  -5.280  29.205  0.00  0.00    -0.000 C 
ATOM     37  C   UNL A   1     -26.232  -4.611  29.784  0.00  0.00    -0.000 C 
ATOM     38  C   UNL A   1     -26.155  -3.232  30.065  0.00  0.00    -0.000 C 
ENDBRANCH  32  33
BRANCH  32  39
ATOM     39  C   UNL A   1     -25.387  -0.679  31.571  0.00  0.00    +0.120 C 
ATOM     40  C   UNL A   1     -25.189   0.773  32.028  0.00  0.00    +0.023 C 
ATOM     41  C   UNL A   1     -25.336   0.684  33.544  0.00  0.00    +0.020 C 
ATOM     42  C   UNL A   1     -24.829  -0.715  33.905  0.00  0.00    +0.089 C 
ATOM     43  N   UNL A   1     -24.758  -1.481  32.646  0.00  0.00    -0.215 NA
ENDBRANCH  32  39
ENDBRANCH  26  32
ENDBRANCH   8  26
TORSDOF 12
