REMARK  Name = outputs/IAG933/test6/raw/output_9437_IAG933_linker_design_.xyz
REMARK  13 active torsions:
REMARK  status: ('A' for Active; 'I' for Inactive)
REMARK    1  A    between atoms: C_1  and  C_2
REMARK    2  A    between atoms: C_1  and  C_8
REMARK    3  A    between atoms: C_1  and  N_30
REMARK    4  A    between atoms: C_14  and  C_15
REMARK    5  A    between atoms: C_21  and  O_22
REMARK    6  A    between atoms: O_22  and  C_23
REMARK    7  A    between atoms: C_23  and  C_24
REMARK    8  A    between atoms: N_30  and  C_37
REMARK    9  A    between atoms: N_30  and  C_42
REMARK   10  A    between atoms: C_36  and  C_39
REMARK   11  A    between atoms: C_36  and  N_41
REMARK   12  A    between atoms: C_37  and  N_41
REMARK   13  A    between atoms: C_40  and  C_42
REMARK                            x       y       z     vdW  Elec       q    Type
REMARK                         _______ _______ _______ _____ _____    ______ ____
ROOT
ATOM      1  C   UNL A   1     -25.688   1.614  26.461  0.00  0.00    +0.066 C 
ATOM      2  C   UNL A   1     -26.250   2.920  26.395  0.00  0.00    +0.081 C 
ATOM      3  C   UNL A   1     -27.438   3.091  25.645  0.00  0.00    +0.107 C 
ATOM      4  N   UNL A   1     -28.075   2.089  25.003  0.00  0.00    -0.211 NA
ATOM      5  C   UNL A   1     -27.543   0.849  25.079  0.00  0.00    +0.239 C 
ATOM      6  C   UNL A   1     -26.354   0.576  25.777  0.00  0.00    +0.266 C 
ATOM      7  F   UNL A   1     -25.860  -0.681  25.795  0.00  0.00    -0.222 F 
ATOM      8  C   UNL A   1     -25.036   1.352  27.343  0.00  0.00    -0.018 C 
ATOM      9  C   UNL A   1     -24.779   0.844  28.506  0.00  0.00    +0.347 C 
ENDROOT
BRANCH   2  10
ATOM     10  C   UNL A   1     -25.642   4.093  27.123  0.00  0.00    +0.267 C 
ATOM     11  N   UNL A   1     -25.614   5.252  26.449  0.00  0.00    -0.200 NA
ATOM     12  C   UNL A   1     -25.026   6.479  26.963  0.00  0.00    +0.139 C 
ATOM     13  O   UNL A   1     -25.143   3.966  28.243  0.00  0.00    -0.268 OA
ENDBRANCH   2  10
BRANCH   5  14
ATOM     14  O   UNL A   1     -28.193  -0.208  24.477  0.00  0.00    -0.458 OA
BRANCH  14  15
ATOM     15  C   UNL A   1     -29.460   0.005  23.866  0.00  0.00    +0.242 C 
BRANCH  15  16
ATOM     16  C   UNL A   1     -30.065  -1.377  23.573  0.00  0.00    +0.229 C 
ATOM     17  O   UNL A   1     -30.729  -1.878  24.721  0.00  0.00    -0.216 OA
ENDBRANCH  15  16
ENDBRANCH  14  15
ENDBRANCH   5  14
BRANCH   9  18
ATOM     18  N   UNL A   1     -25.478  -0.084  29.128  0.00  0.00    -0.180 N 
BRANCH  18  19
ATOM     19  C   UNL A   1     -24.855  -1.012  30.143  0.00  0.00    +0.199 C 
BRANCH  19  20
ATOM     20  C   UNL A   1     -24.973  -2.505  29.788  0.00  0.00    +0.021 C 
ATOM     21  C   UNL A   1     -23.906  -3.173  29.146  0.00  0.00    -0.000 C 
ATOM     22  C   UNL A   1     -23.989  -4.549  28.853  0.00  0.00    -0.000 C 
ATOM     23  C   UNL A   1     -25.137  -5.280  29.205  0.00  0.00    -0.000 C 
ATOM     24  C   UNL A   1     -26.232  -4.611  29.784  0.00  0.00    -0.000 C 
ATOM     25  C   UNL A   1     -26.155  -3.232  30.065  0.00  0.00    -0.000 C 
ENDBRANCH  19  20
BRANCH  19  26
ATOM     26  C   UNL A   1     -25.387  -0.679  31.571  0.00  0.00    +0.120 C 
ATOM     27  C   UNL A   1     -25.189   0.773  32.028  0.00  0.00    +0.023 C 
ATOM     28  C   UNL A   1     -25.336   0.684  33.544  0.00  0.00    +0.020 C 
ATOM     29  C   UNL A   1     -24.829  -0.715  33.905  0.00  0.00    +0.089 C 
ATOM     30  N   UNL A   1     -24.758  -1.481  32.646  0.00  0.00    -0.215 NA
ENDBRANCH  19  26
ENDBRANCH  18  19
BRANCH  18  31
ATOM     31  C   UNL A   1     -26.714  -0.128  28.859  0.00  0.00    +0.230 C 
BRANCH  31  37
ATOM     32  C   UNL A   1     -28.325   1.563  29.368  0.00  0.00    -0.000 C 
ATOM     33  C   UNL A   1     -29.904   0.464  27.411  0.00  0.00    -0.000 C 
ATOM     34  C   UNL A   1     -30.358   1.591  28.095  0.00  0.00    -0.000 C 
ATOM     35  C   UNL A   1     -28.680  -0.115  27.706  0.00  0.00    -0.000 C 
ATOM     36  C   UNL A   1     -29.585   2.080  29.135  0.00  0.00    -0.000 C 
ATOM     37  C   UNL A   1     -27.861   0.430  28.669  0.00  0.00    +0.024 C 
ENDBRANCH  31  37
ENDBRANCH  18  31
ENDBRANCH   9  18
BRANCH   9  38
ATOM     38  N   UNL A   1     -23.842   1.430  29.159  0.00  0.00    -0.023 NA
BRANCH  38  39
ATOM     39  C   UNL A   1     -22.763   1.916  28.702  0.00  0.00    +0.323 C 
BRANCH  39  42
ATOM     40  F   UNL A   1     -20.803   1.595  27.686  0.00  0.00    -0.194 F 
ATOM     41  F   UNL A   1     -22.485   2.340  26.473  0.00  0.00    -0.194 F 
ATOM     42  C   UNL A   1     -22.173   1.570  27.488  0.00  0.00    +0.369 C 
ENDBRANCH  39  42
ENDBRANCH  38  39
ENDBRANCH   9  38
TORSDOF 13
