MODEL 943
MODEL 1
REMARK VINA RESULT:    -5.586      0.000      0.000
REMARK INTER + INTRA:          -6.643
REMARK INTER:                  -6.239
REMARK INTRA:                  -0.403
REMARK UNBOUND:                -0.403
REMARK  Name = No_943-gen_results/8p0m/2024-11-27-11-27-31/
REMARK  2 active torsions:
REMARK  status: ('A' for Active; 'I' for Inactive)
REMARK    1  A    between atoms: C_3  and  C_7
REMARK    2  A    between atoms: C_8  and  C_9
REMARK                            x       y       z     vdW  Elec       q    Type
REMARK                         _______ _______ _______ _____ _____    ______ ____
ROOT
ATOM      1  C   UNL A   1     -24.203  -4.893  28.575  0.00  0.00    +0.000 A 
ATOM      2  C   UNL A   1     -23.882  -3.728  28.544  0.00  0.00    -0.000 A 
ATOM      3  C   UNL A   1     -24.547  -2.703  28.995  0.00  0.00    -0.000 A 
ATOM      4  C   UNL A   1     -25.821  -2.940  29.594  0.00  0.00    -0.000 A 
ATOM      5  C   UNL A   1     -26.177  -4.241  29.722  0.00  0.00    +0.000 A 
ATOM      6  C   UNL A   1     -25.380  -5.255  29.257  0.00  0.00    +0.000 A 
ENDROOT
BRANCH   3   7
ATOM      7  C   UNL A   1     -24.113  -1.274  28.852  0.00  0.00    -0.000 C 
ATOM      8  C   UNL A   1     -24.442  -0.441  28.265  0.00  0.00    -0.000 C 
BRANCH   8   9
ATOM      9  C   UNL A   1     -25.258  -0.601  27.045  0.00  0.00    -0.005 C 
ATOM     10  C   UNL A   1     -25.047   0.191  25.861  0.00  0.00    -0.026 C 
ATOM     11  C   UNL A   1     -24.263   1.295  25.922  0.00  0.00    +0.031 C 
ENDBRANCH   8   9
ENDBRANCH   3   7
TORSDOF 2
ENDMDL
ENDMDL
