REMARK  Name = outputs/IAG933/test6/raw/output_9442_IAG933_linker_design_.xyz
REMARK  8 active torsions:
REMARK  status: ('A' for Active; 'I' for Inactive)
REMARK    1  A    between atoms: C_1  and  C_2
REMARK    2  A    between atoms: C_1  and  C_8
REMARK    3  A    between atoms: C_1  and  C_41
REMARK    4  A    between atoms: C_13  and  N_33
REMARK    5  A    between atoms: C_14  and  C_15
REMARK    6  A    between atoms: C_21  and  O_22
REMARK    7  A    between atoms: O_22  and  C_23
REMARK    8  A    between atoms: C_23  and  C_24
REMARK                            x       y       z     vdW  Elec       q    Type
REMARK                         _______ _______ _______ _____ _____    ______ ____
ROOT
ATOM      1  O   UNL A   1     -21.146   2.117  26.324  0.00  0.00    -0.287 OA
ATOM      2  O   UNL A   1     -26.240   0.995  29.059  0.00  0.00    -0.274 OA
ATOM      3  C   UNL A   1     -20.529  -0.085  28.913  0.00  0.00    +0.171 C 
ATOM      4  C   UNL A   1     -21.758  -0.516  29.337  0.00  0.00    +0.002 C 
ATOM      5  O   UNL A   1     -23.428   1.984  25.813  0.00  0.00    -0.435 OA
ATOM      6  N   UNL A   1     -24.754   1.209  27.360  0.00  0.00    -0.224 N 
ATOM      7  C   UNL A   1     -22.233   2.546  25.599  0.00  0.00    +0.364 C 
ATOM      8  C   UNL A   1     -22.715   1.032  27.832  0.00  0.00    +0.079 C 
ATOM      9  C   UNL A   1     -21.377   1.553  27.530  0.00  0.00    +0.267 C 
ATOM     10  C   UNL A   1     -25.170   0.688  28.573  0.00  0.00    +0.236 C 
ATOM     11  C   UNL A   1     -22.934   0.097  28.833  0.00  0.00    -0.010 C 
ATOM     12  C   UNL A   1     -23.619   1.422  27.054  0.00  0.00    +0.203 C 
ATOM     13  O   UNL A   1     -20.451   1.136  28.244  0.00  0.00    -0.322 OA
ATOM     14  C   UNL A   1     -24.264  -0.124  29.273  0.00  0.00    +0.104 C 
ENDROOT
BRANCH   6  15
ATOM     15  C   UNL A   1     -25.688   1.614  26.461  0.00  0.00    +0.152 C 
ATOM     16  C   UNL A   1     -26.250   2.920  26.395  0.00  0.00    +0.073 C 
ATOM     17  C   UNL A   1     -27.438   3.091  25.645  0.00  0.00    +0.104 C 
ATOM     18  N   UNL A   1     -28.075   2.089  25.003  0.00  0.00    -0.212 NA
ATOM     19  C   UNL A   1     -27.543   0.849  25.079  0.00  0.00    +0.236 C 
ATOM     20  C   UNL A   1     -26.354   0.576  25.777  0.00  0.00    +0.259 C 
ATOM     21  F   UNL A   1     -25.860  -0.681  25.795  0.00  0.00    -0.225 F 
BRANCH  16  22
ATOM     22  C   UNL A   1     -25.642   4.093  27.123  0.00  0.00    +0.264 C 
ATOM     23  N   UNL A   1     -25.614   5.252  26.449  0.00  0.00    -0.200 NA
ATOM     24  C   UNL A   1     -25.026   6.479  26.963  0.00  0.00    +0.139 C 
ATOM     25  O   UNL A   1     -25.143   3.966  28.243  0.00  0.00    -0.269 OA
ENDBRANCH  16  22
BRANCH  19  26
ATOM     26  O   UNL A   1     -28.193  -0.208  24.477  0.00  0.00    -0.459 OA
BRANCH  26  27
ATOM     27  C   UNL A   1     -29.460   0.005  23.866  0.00  0.00    +0.242 C 
BRANCH  27  28
ATOM     28  C   UNL A   1     -30.065  -1.377  23.573  0.00  0.00    +0.229 C 
ATOM     29  O   UNL A   1     -30.729  -1.878  24.721  0.00  0.00    -0.216 OA
ENDBRANCH  27  28
ENDBRANCH  26  27
ENDBRANCH  19  26
ENDBRANCH   6  15
BRANCH  14  30
ATOM     30  C   UNL A   1     -24.855  -1.012  30.143  0.00  0.00    +0.051 C 
BRANCH  30  31
ATOM     31  C   UNL A   1     -24.973  -2.505  29.788  0.00  0.00    -0.020 C 
ATOM     32  C   UNL A   1     -23.906  -3.173  29.146  0.00  0.00    -0.004 C 
ATOM     33  C   UNL A   1     -23.989  -4.549  28.853  0.00  0.00    -0.000 C 
ATOM     34  C   UNL A   1     -25.137  -5.280  29.205  0.00  0.00    -0.000 C 
ATOM     35  C   UNL A   1     -26.232  -4.611  29.784  0.00  0.00    -0.000 C 
ATOM     36  C   UNL A   1     -26.155  -3.232  30.065  0.00  0.00    -0.004 C 
ENDBRANCH  30  31
BRANCH  30  37
ATOM     37  C   UNL A   1     -25.387  -0.679  31.571  0.00  0.00    +0.078 C 
ATOM     38  C   UNL A   1     -25.189   0.773  32.028  0.00  0.00    +0.019 C 
ATOM     39  C   UNL A   1     -25.336   0.684  33.544  0.00  0.00    +0.020 C 
ATOM     40  C   UNL A   1     -24.829  -0.715  33.905  0.00  0.00    +0.089 C 
ATOM     41  N   UNL A   1     -24.758  -1.481  32.646  0.00  0.00    -0.219 NA
ENDBRANCH  30  37
ENDBRANCH  14  30
TORSDOF 8
