MODEL 944
MODEL 1
REMARK VINA RESULT:    -3.485      0.000      0.000
REMARK INTER + INTRA:          -3.485
REMARK INTER:                  -3.485
REMARK INTRA:                   0.000
REMARK UNBOUND:                 0.000
REMARK  Name = No_944-gen_results/8p0m/2024-11-27-11-27-31/
REMARK  0 active torsions:
REMARK  status: ('A' for Active; 'I' for Inactive)
REMARK                            x       y       z     vdW  Elec       q    Type
REMARK                         _______ _______ _______ _____ _____    ______ ____
ROOT
ATOM      1  F   UNL A   1      -7.336 -10.123  21.262  0.00  0.00    -0.140 F 
ATOM      2  C   UNL A   1      -8.006  -9.694  20.314  0.00  0.00    +0.561 C 
ATOM      3  F   UNL A   1      -7.944 -10.426  19.567  0.00  0.00    -0.140 F 
ATOM      4  F   UNL A   1      -9.304  -9.411  20.681  0.00  0.00    -0.140 F 
ATOM      5  F   UNL A   1      -7.471  -8.472  19.967  0.00  0.00    -0.140 F 
ENDROOT
TORSDOF 0
ENDMDL
ENDMDL
