REMARK  Name = outputs/IAG933/test6/raw/output_9454_IAG933_linker_design_.xyz
REMARK  13 active torsions:
REMARK  status: ('A' for Active; 'I' for Inactive)
REMARK    1  A    between atoms: C_1  and  C_2
REMARK    2  A    between atoms: C_1  and  C_8
REMARK    3  A    between atoms: C_1  and  N_39
REMARK    4  A    between atoms: C_14  and  C_15
REMARK    5  A    between atoms: C_15  and  O_18
REMARK    6  A    between atoms: O_18  and  C_38
REMARK    7  A    between atoms: C_21  and  O_22
REMARK    8  A    between atoms: O_22  and  C_23
REMARK    9  A    between atoms: C_23  and  C_24
REMARK   10  A    between atoms: C_29  and  N_40
REMARK   11  A    between atoms: C_30  and  C_38
REMARK   12  A    between atoms: O_33  and  C_43
REMARK   13  A    between atoms: O_33  and  C_45
REMARK                            x       y       z     vdW  Elec       q    Type
REMARK                         _______ _______ _______ _____ _____    ______ ____
ROOT
ATOM      1  N   UNL A   1     -23.292   2.015  28.311  0.00  0.00    +0.028 NA
ATOM      2  C   UNL A   1     -22.075   1.456  28.041  0.00  0.00    +0.494 C 
ATOM      3  F   UNL A   1     -21.225   1.984  27.049  0.00  0.00    -0.124 F 
ATOM      4  C   UNL A   1     -22.850  -0.214  29.266  0.00  0.00    +0.491 C 
ATOM      5  C   UNL A   1     -25.317   2.726  29.186  0.00  0.00    +0.285 C 
ATOM      6  N   UNL A   1     -24.068   0.024  29.567  0.00  0.00    -0.105 N 
ATOM      7  N   UNL A   1     -21.969  -0.544  29.596  0.00  0.00    +0.134 NA
ATOM      8  N   UNL A   1     -21.867   0.369  28.640  0.00  0.00    +0.044 NA
ATOM      9  C   UNL A   1     -24.305   1.406  29.107  0.00  0.00    +0.378 C 
ENDROOT
BRANCH   5  10
ATOM     10  C   UNL A   1     -26.772   3.176  29.647  0.00  0.00    +0.311 C 
ATOM     11  O   UNL A   1     -27.674   2.353  29.273  0.00  0.00    -0.264 OA
ATOM     12  N   UNL A   1     -26.819   4.308  30.189  0.00  0.00    -0.175 NA
BRANCH  12  13
ATOM     13  C   UNL A   1     -28.059   4.909  30.549  0.00  0.00    +0.080 C 
ATOM     14  C   UNL A   1     -29.266   4.745  29.832  0.00  0.00    +0.114 C 
ATOM     15  C   UNL A   1     -28.261   5.839  31.547  0.00  0.00    +0.131 C 
ATOM     16  C   UNL A   1     -29.589   6.144  31.463  0.00  0.00    +0.225 C 
ATOM     17  N   UNL A   1     -30.139   5.596  30.362  0.00  0.00    -0.211 NA
BRANCH  16  18
ATOM     18  O   UNL A   1     -30.220   6.971  32.388  0.00  0.00    -0.371 OA
BRANCH  18  20
ATOM     19  N   UNL A   1     -31.869   8.710  32.322  0.00  0.00    -0.149 NA
ATOM     20  C   UNL A   1     -31.016   7.809  32.375  0.00  0.00    +0.293 C 
ENDBRANCH  18  20
ENDBRANCH  16  18
ENDBRANCH  12  13
ENDBRANCH   5  10
BRANCH   6  21
ATOM     21  C   UNL A   1     -24.855  -1.012  30.143  0.00  0.00    +0.209 C 
BRANCH  21  22
ATOM     22  C   UNL A   1     -24.973  -2.505  29.788  0.00  0.00    +0.022 C 
ATOM     23  C   UNL A   1     -23.906  -3.173  29.146  0.00  0.00    -0.000 C 
ATOM     24  C   UNL A   1     -23.989  -4.549  28.853  0.00  0.00    -0.000 C 
ATOM     25  C   UNL A   1     -25.137  -5.280  29.205  0.00  0.00    -0.000 C 
ATOM     26  C   UNL A   1     -26.232  -4.611  29.784  0.00  0.00    -0.000 C 
ATOM     27  C   UNL A   1     -26.155  -3.232  30.065  0.00  0.00    -0.000 C 
ENDBRANCH  21  22
BRANCH  21  28
ATOM     28  C   UNL A   1     -25.387  -0.679  31.571  0.00  0.00    +0.120 C 
ATOM     29  C   UNL A   1     -25.189   0.773  32.028  0.00  0.00    +0.023 C 
ATOM     30  C   UNL A   1     -25.336   0.684  33.544  0.00  0.00    +0.020 C 
ATOM     31  C   UNL A   1     -24.829  -0.715  33.905  0.00  0.00    +0.089 C 
ATOM     32  N   UNL A   1     -24.758  -1.481  32.646  0.00  0.00    -0.215 NA
ENDBRANCH  21  28
ENDBRANCH   6  21
BRANCH   5  33
ATOM     33  O   UNL A   1     -25.143   3.966  28.243  0.00  0.00    -0.425 OA
BRANCH  33  34
ATOM     34  C   UNL A   1     -25.642   4.093  27.123  0.00  0.00    +0.227 C 
ATOM     35  N   UNL A   1     -25.614   5.252  26.449  0.00  0.00    -0.235 NA
ATOM     36  C   UNL A   1     -25.026   6.479  26.963  0.00  0.00    +0.155 C 
BRANCH  34  38
ATOM     37  C   UNL A   1     -25.688   1.614  26.461  0.00  0.00    +0.041 C 
ATOM     38  C   UNL A   1     -26.250   2.920  26.395  0.00  0.00    +0.075 C 
ATOM     39  C   UNL A   1     -27.438   3.091  25.645  0.00  0.00    +0.107 C 
ATOM     40  N   UNL A   1     -28.075   2.089  25.003  0.00  0.00    -0.208 NA
ATOM     41  C   UNL A   1     -27.543   0.849  25.079  0.00  0.00    +0.253 C 
ATOM     42  C   UNL A   1     -26.354   0.576  25.777  0.00  0.00    +0.193 C 
ATOM     43  F   UNL A   1     -25.860  -0.681  25.795  0.00  0.00    -0.199 F 
BRANCH  41  44
ATOM     44  O   UNL A   1     -28.193  -0.208  24.477  0.00  0.00    -0.456 OA
BRANCH  44  45
ATOM     45  C   UNL A   1     -29.460   0.005  23.866  0.00  0.00    +0.243 C 
BRANCH  45  46
ATOM     46  C   UNL A   1     -30.065  -1.377  23.573  0.00  0.00    +0.229 C 
ATOM     47  O   UNL A   1     -30.729  -1.878  24.721  0.00  0.00    -0.216 OA
ENDBRANCH  45  46
ENDBRANCH  44  45
ENDBRANCH  41  44
ENDBRANCH  34  38
ENDBRANCH  33  34
ENDBRANCH   5  33
TORSDOF 13
