MODEL 945
MODEL 1
REMARK VINA RESULT:    -7.211      0.000      0.000
REMARK INTER + INTRA:          -8.489
REMARK INTER:                  -8.054
REMARK INTRA:                  -0.435
REMARK UNBOUND:                -0.435
REMARK  Name = No_945-gen_results/8p0m/2024-11-27-11-27-31/
REMARK  2 active torsions:
REMARK  status: ('A' for Active; 'I' for Inactive)
REMARK    1  A    between atoms: C_3  and  C_10
REMARK    2  A    between atoms: C_5  and  C_6
REMARK                            x       y       z     vdW  Elec       q    Type
REMARK                         _______ _______ _______ _____ _____    ______ ____
ROOT
ATOM      1  C   UNL A   1     -29.676  -9.653  32.368  0.00  0.00    +0.000 A 
ATOM      2  C   UNL A   1     -29.946  -9.951  31.228  0.00  0.00    +0.000 A 
ATOM      3  C   UNL A   1     -29.334 -10.958  30.501  0.00  0.00    +0.000 A 
ATOM      4  C   UNL A   1     -28.328 -11.719  31.167  0.00  0.00    +0.007 A 
ATOM      5  C   UNL A   1     -28.160 -11.474  32.476  0.00  0.00    +0.080 A 
ATOM      6  C   UNL A   1     -28.785 -10.464  33.079  0.00  0.00    +0.007 A 
ENDROOT
BRANCH   3   7
ATOM      7  C   UNL A   1     -29.610 -11.162  29.013  0.00  0.00    +0.000 A 
ATOM      8  C   UNL A   1     -30.451 -10.351  28.374  0.00  0.00    +0.000 A 
ATOM      9  C   UNL A   1     -30.715 -10.628  26.947  0.00  0.00    +0.000 A 
ATOM     10  C   UNL A   1     -29.874 -11.546  26.310  0.00  0.00    +0.000 A 
ATOM     11  C   UNL A   1     -28.912 -12.072  28.207  0.00  0.00    +0.000 A 
ATOM     12  C   UNL A   1     -29.072 -12.373  26.971  0.00  0.00    +0.000 A 
ENDBRANCH   3   7
BRANCH   5  13
ATOM     13  C   UNL A   1     -27.215 -12.297  33.143  0.00  0.00    +0.388 C 
ATOM     14  O   UNL A   1     -26.386 -12.900  32.556  0.00  0.00    -0.241 OA
ATOM     15  O   UNL A   1     -27.286 -12.392  34.470  0.00  0.00    -0.241 OA
ENDBRANCH   5  13
TORSDOF 2
ENDMDL
ENDMDL
