REMARK  Name = No_946-gen_results/8p0m/2024-11-27-11-27-31/
REMARK  2 active torsions:
REMARK  status: ('A' for Active; 'I' for Inactive)
REMARK    1  A    between atoms: C_1  and  C_2
REMARK    2  A    between atoms: C_1  and  C_3
REMARK                            x       y       z     vdW  Elec       q    Type
REMARK                         _______ _______ _______ _____ _____    ______ ____
ROOT
ATOM      1  C   UNL A   1     -27.087   0.290  28.638  0.00  0.00    -0.021 A 
ATOM      2  C   UNL A   1     -26.910   0.849  27.420  0.00  0.00    -0.004 A 
ATOM      3  C   UNL A   1     -25.725   1.427  27.076  0.00  0.00    -0.000 A 
ATOM      4  C   UNL A   1     -24.687   1.688  28.021  0.00  0.00    -0.000 A 
ATOM      5  C   UNL A   1     -24.827   1.127  29.262  0.00  0.00    -0.000 A 
ATOM      6  C   UNL A   1     -25.973   0.371  29.520  0.00  0.00    -0.004 A 
ENDROOT
BRANCH   1   7
ATOM      7  C   UNL A   1     -28.016  -0.814  28.878  0.00  0.00    +0.047 C 
BRANCH   7   8
ATOM      8  C   UNL A   1     -28.469  -0.785  29.829  0.00  0.00    +0.114 C 
ATOM      9  N   UNL A   1     -29.503  -1.616  30.108  0.00  0.00    -0.131 NA
ENDBRANCH   7   8
ENDBRANCH   1   7
TORSDOF 2
