REMARK  Name = outputs/IAG933/test6/raw/output_9466_IAG933_linker_design_.xyz
REMARK  17 active torsions:
REMARK  status: ('A' for Active; 'I' for Inactive)
REMARK    1  A    between atoms: C_1  and  C_2
REMARK    2  A    between atoms: C_1  and  C_8
REMARK    3  A    between atoms: C_1  and  C_43
REMARK    4  A    between atoms: C_13  and  C_29
REMARK    5  A    between atoms: C_14  and  C_15
REMARK    6  A    between atoms: C_21  and  O_22
REMARK    7  A    between atoms: O_22  and  C_23
REMARK    8  A    between atoms: C_23  and  C_24
REMARK    9  A    between atoms: C_28  and  N_36
REMARK   10  A    between atoms: C_29  and  C_32
REMARK   11  A    between atoms: C_29  and  C_44
REMARK   12  A    between atoms: C_30  and  C_35
REMARK   13  A    between atoms: C_32  and  C_40
REMARK   14  A    between atoms: C_34  and  C_38
REMARK   15  A    between atoms: C_34  and  C_43
REMARK   16  A    between atoms: C_40  and  C_43
REMARK   17  A    between atoms: C_41  and  C_42
REMARK                            x       y       z     vdW  Elec       q    Type
REMARK                         _______ _______ _______ _____ _____    ______ ____
ROOT
ATOM      1  C   UNL A   1     -24.330   1.421  26.571  0.00  0.00    +0.029 C 
ENDROOT
BRANCH   1   2
ATOM      2  C   UNL A   1     -25.688   1.614  26.461  0.00  0.00    +0.074 C 
ATOM      3  C   UNL A   1     -26.250   2.920  26.395  0.00  0.00    +0.055 C 
ATOM      4  C   UNL A   1     -27.438   3.091  25.645  0.00  0.00    +0.102 C 
ATOM      5  N   UNL A   1     -28.075   2.089  25.003  0.00  0.00    -0.212 NA
ATOM      6  C   UNL A   1     -27.543   0.849  25.079  0.00  0.00    +0.234 C 
ATOM      7  C   UNL A   1     -26.354   0.576  25.777  0.00  0.00    +0.240 C 
ATOM      8  F   UNL A   1     -25.860  -0.681  25.795  0.00  0.00    -0.227 F 
BRANCH   3   9
ATOM      9  C   UNL A   1     -25.642   4.093  27.123  0.00  0.00    +0.262 C 
ATOM     10  N   UNL A   1     -25.614   5.252  26.449  0.00  0.00    -0.200 NA
ATOM     11  C   UNL A   1     -25.026   6.479  26.963  0.00  0.00    +0.139 C 
ATOM     12  O   UNL A   1     -25.143   3.966  28.243  0.00  0.00    -0.269 OA
ENDBRANCH   3   9
BRANCH   6  13
ATOM     13  O   UNL A   1     -28.193  -0.208  24.477  0.00  0.00    -0.459 OA
BRANCH  13  14
ATOM     14  C   UNL A   1     -29.460   0.005  23.866  0.00  0.00    +0.242 C 
BRANCH  14  15
ATOM     15  C   UNL A   1     -30.065  -1.377  23.573  0.00  0.00    +0.229 C 
ATOM     16  O   UNL A   1     -30.729  -1.878  24.721  0.00  0.00    -0.216 OA
ENDBRANCH  14  15
ENDBRANCH  13  14
ENDBRANCH   6  13
ENDBRANCH   1   2
BRANCH   1  18
ATOM     17  C   UNL A   1     -22.217   2.147  25.690  0.00  0.00    +0.016 C 
ATOM     18  C   UNL A   1     -23.552   1.821  25.494  0.00  0.00    -0.025 C 
BRANCH  17  19
ATOM     19  C   UNL A   1     -21.444   2.020  26.832  0.00  0.00    +0.096 C 
ATOM     20  N   UNL A   1     -21.043   1.219  27.872  0.00  0.00    -0.239 NA
BRANCH  20  21
ATOM     21  C   UNL A   1     -21.336   0.043  28.528  0.00  0.00    +0.250 C 
ATOM     22  C   UNL A   1     -21.397  -0.833  29.116  0.00  0.00    +0.199 C 
ATOM     23  O   UNL A   1     -22.112  -0.442  28.850  0.00  0.00    -0.328 OA
ENDBRANCH  20  21
ENDBRANCH  17  19
ENDBRANCH   1  18
BRANCH   1  24
ATOM     24  C   UNL A   1     -23.877   0.899  27.578  0.00  0.00    +0.005 C 
BRANCH  24  25
ATOM     25  C   UNL A   1     -23.834   0.200  28.447  0.00  0.00    +0.001 C 
BRANCH  25  26
ATOM     26  C   UNL A   1     -25.101  -0.191  28.903  0.00  0.00    +0.010 C 
BRANCH  26  27
ATOM     27  C   UNL A   1     -24.855  -1.012  30.143  0.00  0.00    +0.039 C 
BRANCH  27  28
ATOM     28  C   UNL A   1     -24.973  -2.505  29.788  0.00  0.00    -0.021 C 
ATOM     29  C   UNL A   1     -23.906  -3.173  29.146  0.00  0.00    -0.004 C 
ATOM     30  C   UNL A   1     -23.989  -4.549  28.853  0.00  0.00    -0.000 C 
ATOM     31  C   UNL A   1     -25.137  -5.280  29.205  0.00  0.00    -0.000 C 
ATOM     32  C   UNL A   1     -26.232  -4.611  29.784  0.00  0.00    -0.000 C 
ATOM     33  C   UNL A   1     -26.155  -3.232  30.065  0.00  0.00    -0.004 C 
ENDBRANCH  27  28
BRANCH  27  34
ATOM     34  C   UNL A   1     -25.387  -0.679  31.571  0.00  0.00    +0.077 C 
ATOM     35  C   UNL A   1     -25.189   0.773  32.028  0.00  0.00    +0.019 C 
ATOM     36  C   UNL A   1     -25.336   0.684  33.544  0.00  0.00    +0.020 C 
ATOM     37  C   UNL A   1     -24.829  -0.715  33.905  0.00  0.00    +0.089 C 
ATOM     38  N   UNL A   1     -24.758  -1.481  32.646  0.00  0.00    -0.219 NA
ENDBRANCH  27  34
ENDBRANCH  26  27
BRANCH  26  39
ATOM     39  C   UNL A   1     -26.038   0.902  29.184  0.00  0.00    +0.026 C 
BRANCH  39  40
ATOM     40  C   UNL A   1     -26.396   1.946  29.715  0.00  0.00    -0.025 C 
ATOM     41  C   UNL A   1     -25.650   3.134  30.378  0.00  0.00    +0.013 C 
BRANCH  41  44
ATOM     42  C   UNL A   1     -26.216   4.752  32.164  0.00  0.00    +0.019 C 
ATOM     43  N   UNL A   1     -27.574   4.481  30.267  0.00  0.00    -0.128 NA
ATOM     44  C   UNL A   1     -26.504   4.135  30.981  0.00  0.00    +0.089 C 
ENDBRANCH  41  44
ENDBRANCH  39  40
ENDBRANCH  26  39
ENDBRANCH  25  26
ENDBRANCH  24  25
ENDBRANCH   1  24
TORSDOF 17
