REMARK  Name = outputs/IAG933/test6/raw/output_9470_IAG933_linker_design_.xyz
REMARK  14 active torsions:
REMARK  status: ('A' for Active; 'I' for Inactive)
REMARK    1  A    between atoms: C_1  and  C_2
REMARK    2  A    between atoms: C_1  and  C_8
REMARK    3  A    between atoms: C_1  and  C_29
REMARK    4  A    between atoms: C_13  and  C_43
REMARK    5  A    between atoms: C_14  and  C_15
REMARK    6  A    between atoms: C_21  and  O_22
REMARK    7  A    between atoms: O_22  and  C_23
REMARK    8  A    between atoms: C_23  and  C_24
REMARK    9  A    between atoms: O_28  and  C_35
REMARK   10  A    between atoms: C_29  and  C_33
REMARK   11  A    between atoms: C_29  and  C_37
REMARK   12  A    between atoms: C_30  and  C_44
REMARK   13  A    between atoms: C_33  and  N_41
REMARK   14  A    between atoms: C_37  and  C_43
REMARK                            x       y       z     vdW  Elec       q    Type
REMARK                         _______ _______ _______ _____ _____    ______ ____
ROOT
ATOM      1  C   UNL A   1     -25.110   0.108  29.128  0.00  0.00    +0.025 C 
ENDROOT
BRANCH   1   2
ATOM      2  C   UNL A   1     -24.855  -1.012  30.143  0.00  0.00    +0.040 C 
BRANCH   2   3
ATOM      3  C   UNL A   1     -24.973  -2.505  29.788  0.00  0.00    -0.021 C 
ATOM      4  C   UNL A   1     -23.906  -3.173  29.146  0.00  0.00    -0.004 C 
ATOM      5  C   UNL A   1     -23.989  -4.549  28.853  0.00  0.00    -0.000 C 
ATOM      6  C   UNL A   1     -25.137  -5.280  29.205  0.00  0.00    -0.000 C 
ATOM      7  C   UNL A   1     -26.232  -4.611  29.784  0.00  0.00    -0.000 C 
ATOM      8  C   UNL A   1     -26.155  -3.232  30.065  0.00  0.00    -0.004 C 
ENDBRANCH   2   3
BRANCH   2   9
ATOM      9  C   UNL A   1     -25.387  -0.679  31.571  0.00  0.00    +0.077 C 
ATOM     10  C   UNL A   1     -25.189   0.773  32.028  0.00  0.00    +0.019 C 
ATOM     11  C   UNL A   1     -25.336   0.684  33.544  0.00  0.00    +0.020 C 
ATOM     12  C   UNL A   1     -24.829  -0.715  33.905  0.00  0.00    +0.089 C 
ATOM     13  N   UNL A   1     -24.758  -1.481  32.646  0.00  0.00    -0.219 NA
ENDBRANCH   2   9
ENDBRANCH   1   2
BRANCH   1  14
ATOM     14  C   UNL A   1     -26.571  -0.252  28.577  0.00  0.00    +0.075 C 
BRANCH  14  20
ATOM     15  C   UNL A   1     -28.161   0.973  29.897  0.00  0.00    +0.210 C 
ATOM     16  C   UNL A   1     -29.608  -0.163  31.126  0.00  0.00    +0.145 C 
ATOM     17  C   UNL A   1     -29.647  -1.332  30.033  0.00  0.00    +0.158 C 
ATOM     18  O   UNL A   1     -28.507   0.693  31.170  0.00  0.00    -0.338 OA
ATOM     19  C   UNL A   1     -30.685   0.920  30.968  0.00  0.00    +0.035 C 
ATOM     20  N   UNL A   1     -27.916  -0.045  29.135  0.00  0.00    -0.246 NA
ATOM     21  C   UNL A   1     -29.134  -0.784  28.697  0.00  0.00    +0.106 C 
BRANCH  17  22
ATOM     22  O   UNL A   1     -31.100  -1.754  30.026  0.00  0.00    -0.350 OA
ATOM     23  C   UNL A   1     -31.386  -2.296  31.315  0.00  0.00    +0.174 C 
ENDBRANCH  17  22
BRANCH  15  25
ATOM     24  O   UNL A   1     -26.387   2.337  30.189  0.00  0.00    -0.216 OA
ATOM     25  C   UNL A   1     -27.661   2.375  29.494  0.00  0.00    +0.229 C 
ENDBRANCH  15  25
ENDBRANCH  14  20
ENDBRANCH   1  14
BRANCH   1  26
ATOM     26  C   UNL A   1     -23.975   0.326  28.062  0.00  0.00    +0.024 C 
BRANCH  26  29
ATOM     27  C   UNL A   1     -21.527   1.548  27.345  0.00  0.00    +0.030 C 
ATOM     28  C   UNL A   1     -22.706   1.874  26.423  0.00  0.00    -0.034 C 
ATOM     29  C   UNL A   1     -24.212   1.370  26.882  0.00  0.00    -0.041 C 
BRANCH  29  30
ATOM     30  C   UNL A   1     -25.688   1.614  26.461  0.00  0.00    +0.088 C 
ATOM     31  C   UNL A   1     -26.250   2.920  26.395  0.00  0.00    +0.059 C 
ATOM     32  C   UNL A   1     -27.438   3.091  25.645  0.00  0.00    +0.102 C 
ATOM     33  N   UNL A   1     -28.075   2.089  25.003  0.00  0.00    -0.212 NA
ATOM     34  C   UNL A   1     -27.543   0.849  25.079  0.00  0.00    +0.234 C 
ATOM     35  C   UNL A   1     -26.354   0.576  25.777  0.00  0.00    +0.244 C 
ATOM     36  F   UNL A   1     -25.860  -0.681  25.795  0.00  0.00    -0.227 F 
BRANCH  31  37
ATOM     37  C   UNL A   1     -25.642   4.093  27.123  0.00  0.00    +0.263 C 
ATOM     38  N   UNL A   1     -25.614   5.252  26.449  0.00  0.00    -0.200 NA
ATOM     39  C   UNL A   1     -25.026   6.479  26.963  0.00  0.00    +0.139 C 
ATOM     40  O   UNL A   1     -25.143   3.966  28.243  0.00  0.00    -0.269 OA
ENDBRANCH  31  37
BRANCH  34  41
ATOM     41  O   UNL A   1     -28.193  -0.208  24.477  0.00  0.00    -0.459 OA
BRANCH  41  42
ATOM     42  C   UNL A   1     -29.460   0.005  23.866  0.00  0.00    +0.242 C 
BRANCH  42  43
ATOM     43  C   UNL A   1     -30.065  -1.377  23.573  0.00  0.00    +0.229 C 
ATOM     44  O   UNL A   1     -30.729  -1.878  24.721  0.00  0.00    -0.216 OA
ENDBRANCH  42  43
ENDBRANCH  41  42
ENDBRANCH  34  41
ENDBRANCH  29  30
ENDBRANCH  26  29
ENDBRANCH   1  26
TORSDOF 14
