REMARK  Name = outputs/IAG933/test6/raw/output_9478_IAG933_linker_design_.xyz
REMARK  18 active torsions:
REMARK  status: ('A' for Active; 'I' for Inactive)
REMARK    1  A    between atoms: C_1  and  C_2
REMARK    2  A    between atoms: C_1  and  C_8
REMARK    3  A    between atoms: C_1  and  N_37
REMARK    4  A    between atoms: C_13  and  C_44
REMARK    5  A    between atoms: C_14  and  C_15
REMARK    6  A    between atoms: C_21  and  O_22
REMARK    7  A    between atoms: O_22  and  C_23
REMARK    8  A    between atoms: C_23  and  C_24
REMARK    9  A    between atoms: C_28  and  C_36
REMARK   10  A    between atoms: C_28  and  C_43
REMARK   11  A    between atoms: N_29  and  N_37
REMARK   12  A    between atoms: C_30  and  C_35
REMARK   13  A    between atoms: C_32  and  C_35
REMARK   14  A    between atoms: C_36  and  C_41
REMARK   15  A    between atoms: N_37  and  C_38
REMARK   16  A    between atoms: C_38  and  C_40
REMARK   17  A    between atoms: C_40  and  O_42
REMARK   18  A    between atoms: O_42  and  C_43
REMARK                            x       y       z     vdW  Elec       q    Type
REMARK                         _______ _______ _______ _____ _____    ______ ____
ROOT
ATOM      1  N   UNL A   1     -24.635   0.913  28.497  0.00  0.00    -0.213 NA
ATOM      2  C   UNL A   1     -23.558   1.407  27.438  0.00  0.00    +0.104 C 
ATOM      3  C   UNL A   1     -24.721   1.184  27.385  0.00  0.00    +0.114 C 
ENDROOT
BRANCH   3   4
ATOM      4  C   UNL A   1     -25.688   1.614  26.461  0.00  0.00    +0.033 C 
ATOM      5  C   UNL A   1     -26.250   2.920  26.395  0.00  0.00    +0.074 C 
ATOM      6  C   UNL A   1     -27.438   3.091  25.645  0.00  0.00    +0.106 C 
ATOM      7  N   UNL A   1     -28.075   2.089  25.003  0.00  0.00    -0.208 NA
ATOM      8  C   UNL A   1     -27.543   0.849  25.079  0.00  0.00    +0.253 C 
ATOM      9  C   UNL A   1     -26.354   0.576  25.777  0.00  0.00    +0.191 C 
ATOM     10  F   UNL A   1     -25.860  -0.681  25.795  0.00  0.00    -0.200 F 
BRANCH   5  11
ATOM     11  C   UNL A   1     -25.642   4.093  27.123  0.00  0.00    +0.266 C 
ATOM     12  N   UNL A   1     -25.614   5.252  26.449  0.00  0.00    -0.200 NA
ATOM     13  C   UNL A   1     -25.026   6.479  26.963  0.00  0.00    +0.139 C 
ATOM     14  O   UNL A   1     -25.143   3.966  28.243  0.00  0.00    -0.268 OA
ENDBRANCH   5  11
BRANCH   8  15
ATOM     15  O   UNL A   1     -28.193  -0.208  24.477  0.00  0.00    -0.456 OA
BRANCH  15  16
ATOM     16  C   UNL A   1     -29.460   0.005  23.866  0.00  0.00    +0.243 C 
BRANCH  16  17
ATOM     17  C   UNL A   1     -30.065  -1.377  23.573  0.00  0.00    +0.229 C 
ATOM     18  O   UNL A   1     -30.729  -1.878  24.721  0.00  0.00    -0.216 OA
ENDBRANCH  16  17
ENDBRANCH  15  16
ENDBRANCH   8  15
ENDBRANCH   3   4
BRANCH   2  19
ATOM     19  C   UNL A   1     -22.397   1.013  27.907  0.00  0.00    +0.121 C 
ATOM     20  C   UNL A   1     -22.213   0.386  29.240  0.00  0.00    +0.013 C 
BRANCH  19  21
ATOM     21  C   UNL A   1     -21.200   1.566  27.114  0.00  0.00    +0.366 C 
ATOM     22  O   UNL A   1     -21.391   2.046  25.953  0.00  0.00    -0.246 OA
ATOM     23  O   UNL A   1     -20.070   1.512  27.735  0.00  0.00    -0.246 OA
ENDBRANCH  19  21
ENDBRANCH   2  19
BRANCH   1  24
ATOM     24  N   UNL A   1     -25.112  -0.186  28.971  0.00  0.00    -0.211 NA
BRANCH  24  25
ATOM     25  C   UNL A   1     -24.855  -1.012  30.143  0.00  0.00    +0.111 C 
BRANCH  25  26
ATOM     26  C   UNL A   1     -24.973  -2.505  29.788  0.00  0.00    -0.005 C 
ATOM     27  C   UNL A   1     -23.906  -3.173  29.146  0.00  0.00    -0.003 C 
ATOM     28  C   UNL A   1     -23.989  -4.549  28.853  0.00  0.00    -0.000 C 
ATOM     29  C   UNL A   1     -25.137  -5.280  29.205  0.00  0.00    -0.000 C 
ATOM     30  C   UNL A   1     -26.232  -4.611  29.784  0.00  0.00    -0.000 C 
ATOM     31  C   UNL A   1     -26.155  -3.232  30.065  0.00  0.00    -0.003 C 
ENDBRANCH  25  26
BRANCH  25  32
ATOM     32  C   UNL A   1     -25.387  -0.679  31.571  0.00  0.00    +0.093 C 
ATOM     33  C   UNL A   1     -25.189   0.773  32.028  0.00  0.00    +0.021 C 
ATOM     34  C   UNL A   1     -25.336   0.684  33.544  0.00  0.00    +0.020 C 
ATOM     35  C   UNL A   1     -24.829  -0.715  33.905  0.00  0.00    +0.089 C 
ATOM     36  N   UNL A   1     -24.758  -1.481  32.646  0.00  0.00    -0.218 NA
ENDBRANCH  25  32
ENDBRANCH  24  25
BRANCH  24  37
ATOM     37  C   UNL A   1     -26.180  -0.643  28.285  0.00  0.00    +0.121 C 
BRANCH  37  38
ATOM     38  C   UNL A   1     -27.386  -0.246  29.034  0.00  0.00    +0.161 C 
BRANCH  38  39
ATOM     39  O   UNL A   1     -27.948   0.303  30.273  0.00  0.00    -0.352 OA
BRANCH  39  40
ATOM     40  C   UNL A   1     -29.143   1.042  29.964  0.00  0.00    +0.143 C 
BRANCH  40  41
ATOM     41  C   UNL A   1     -28.791   2.480  29.837  0.00  0.00    +0.042 C 
BRANCH  41  42
ATOM     42  C   UNL A   1     -27.477   2.844  30.509  0.00  0.00    +0.091 C 
BRANCH  42  45
ATOM     43  N   UNL A   1     -27.019   5.276  30.540  0.00  0.00    -0.088 NA
ATOM     44  O   UNL A   1     -28.593   4.330  31.900  0.00  0.00    -0.272 OA
ATOM     45  C   UNL A   1     -27.776   4.253  30.984  0.00  0.00    +0.261 C 
ENDBRANCH  42  45
ENDBRANCH  41  42
ENDBRANCH  40  41
ENDBRANCH  39  40
ENDBRANCH  38  39
ENDBRANCH  37  38
ENDBRANCH  24  37
ENDBRANCH   1  24
TORSDOF 18
