MODEL 947
MODEL 1
REMARK VINA RESULT:    -6.429      0.000      0.000
REMARK INTER + INTRA:          -9.256
REMARK INTER:                  -8.684
REMARK INTRA:                  -0.571
REMARK UNBOUND:                -0.571
REMARK  Name = No_947-gen_results/8p0m/2024-11-27-11-27-31/
REMARK  6 active torsions:
REMARK  status: ('A' for Active; 'I' for Inactive)
REMARK    1  A    between atoms: C_5  and  C_11
REMARK    2  A    between atoms: C_8  and  O_17
REMARK    3  A    between atoms: C_9  and  C_14
REMARK    4  A    between atoms: O_17  and  C_18
REMARK    5  A    between atoms: C_18  and  C_19
REMARK    6  A    between atoms: C_18  and  C_22
REMARK                            x       y       z     vdW  Elec       q    Type
REMARK                         _______ _______ _______ _____ _____    ______ ____
ROOT
ATOM      1  C   UNL A   1     -30.663  -9.359  29.986  0.00  0.00    +0.037 A 
ATOM      2  C   UNL A   1     -29.969 -10.045  30.700  0.00  0.00    +0.003 A 
ATOM      3  C   UNL A   1     -29.128 -11.008  30.242  0.00  0.00    +0.001 A 
ATOM      4  C   UNL A   1     -28.270 -11.854  31.101  0.00  0.00    +0.007 A 
ATOM      5  C   UNL A   1     -28.327 -11.612  32.513  0.00  0.00    +0.080 A 
ATOM      6  C   UNL A   1     -29.159 -10.554  32.944  0.00  0.00    +0.007 A 
ATOM      7  C   UNL A   1     -29.928  -9.810  32.087  0.00  0.00    +0.000 A 
ATOM      8  C   UNL A   1     -31.052  -9.868  28.746  0.00  0.00    +0.146 A 
ATOM      9  C   UNL A   1     -30.298 -10.881  28.154  0.00  0.00    +0.114 A 
ATOM     10  C   UNL A   1     -29.405 -11.583  28.948  0.00  0.00    +0.010 A 
ENDROOT
BRANCH   5  11
ATOM     11  C   UNL A   1     -27.434 -12.239  33.467  0.00  0.00    +0.388 C 
ATOM     12  O   UNL A   1     -27.475 -12.320  34.584  0.00  0.00    -0.241 OA
ATOM     13  O   UNL A   1     -26.465 -12.987  32.786  0.00  0.00    -0.241 OA
ENDBRANCH   5  11
BRANCH   9  14
ATOM     14  C   UNL A   1     -30.504 -11.272  26.740  0.00  0.00    +0.391 C 
ATOM     15  O   UNL A   1     -29.694 -11.189  25.938  0.00  0.00    -0.240 OA
ATOM     16  O   UNL A   1     -31.603 -12.002  26.606  0.00  0.00    -0.240 OA
ENDBRANCH   9  14
BRANCH   8  17
ATOM     17  O   UNL A   1     -31.844  -9.118  27.950  0.00  0.00    -0.460 OA
BRANCH  17  18
ATOM     18  C   UNL A   1     -31.906  -7.811  28.297  0.00  0.00    +0.332 C 
BRANCH  18  19
ATOM     19  C   UNL A   1     -31.132  -6.949  27.349  0.00  0.00    +0.412 C 
ATOM     20  O   UNL A   1     -30.976  -7.428  26.210  0.00  0.00    -0.241 OA
ATOM     21  O   UNL A   1     -30.612  -5.915  27.702  0.00  0.00    -0.241 OA
ENDBRANCH  18  19
BRANCH  18  22
ATOM     22  C   UNL A   1     -33.029  -7.156  28.888  0.00  0.00    +0.263 C 
ATOM     23  O   UNL A   1     -34.000  -7.043  27.940  0.00  0.00    -0.284 OA
ENDBRANCH  18  22
ENDBRANCH  17  18
ENDBRANCH   8  17
TORSDOF 6
ENDMDL
ENDMDL
