REMARK  Name = outputs/IAG933/test6/raw/output_948_IAG933_linker_design_.xyz
REMARK  15 active torsions:
REMARK  status: ('A' for Active; 'I' for Inactive)
REMARK    1  A    between atoms: C_1  and  C_2
REMARK    2  A    between atoms: C_1  and  C_8
REMARK    3  A    between atoms: C_1  and  C_28
REMARK    4  A    between atoms: C_13  and  C_30
REMARK    5  A    between atoms: C_14  and  C_15
REMARK    6  A    between atoms: C_21  and  O_22
REMARK    7  A    between atoms: O_22  and  C_23
REMARK    8  A    between atoms: C_23  and  C_24
REMARK    9  A    between atoms: C_28  and  N_33
REMARK   10  A    between atoms: C_28  and  N_35
REMARK   11  A    between atoms: C_30  and  N_35
REMARK   12  A    between atoms: C_30  and  C_38
REMARK   13  A    between atoms: O_31  and  N_35
REMARK   14  A    between atoms: C_32  and  C_34
REMARK   15  A    between atoms: C_34  and  C_36
REMARK                            x       y       z     vdW  Elec       q    Type
REMARK                         _______ _______ _______ _____ _____    ______ ____
ROOT
ATOM      1  N   UNL A   1     -24.352   0.898  28.474  0.00  0.00    -0.144 NA
ENDROOT
BRANCH   1   2
ATOM      2  O   UNL A   1     -23.282   0.934  28.844  0.00  0.00    -0.278 OA
ATOM      3  C   UNL A   1     -22.442  -0.186  29.056  0.00  0.00    +0.201 C 
ENDBRANCH   1   2
BRANCH   1   4
ATOM      4  C   UNL A   1     -25.381  -0.058  29.033  0.00  0.00    +0.183 C 
BRANCH   4   6
ATOM      5  O   UNL A   1     -28.017  -0.586  28.939  0.00  0.00    -0.273 OA
ATOM      6  N   UNL A   1     -26.578   0.666  28.975  0.00  0.00    -0.188 NA
ATOM      7  C   UNL A   1     -27.738   0.575  28.956  0.00  0.00    +0.244 C 
BRANCH   7   8
ATOM      8  C   UNL A   1     -28.557   1.848  29.010  0.00  0.00    +0.106 C 
BRANCH   8   9
ATOM      9  C   UNL A   1     -28.088   2.763  30.150  0.00  0.00    +0.101 C 
ATOM     10  C   UNL A   1     -28.662   4.168  30.158  0.00  0.00    +0.021 C 
ATOM     11  N   UNL A   1     -26.640   2.901  30.366  0.00  0.00    -0.132 NA
ENDBRANCH   8   9
ENDBRANCH   7   8
ENDBRANCH   4   6
BRANCH   4  12
ATOM     12  C   UNL A   1     -24.855  -1.012  30.143  0.00  0.00    +0.076 C 
BRANCH  12  13
ATOM     13  C   UNL A   1     -24.973  -2.505  29.788  0.00  0.00    -0.018 C 
ATOM     14  C   UNL A   1     -23.906  -3.173  29.146  0.00  0.00    -0.004 C 
ATOM     15  C   UNL A   1     -23.989  -4.549  28.853  0.00  0.00    -0.000 C 
ATOM     16  C   UNL A   1     -25.137  -5.280  29.205  0.00  0.00    -0.000 C 
ATOM     17  C   UNL A   1     -26.232  -4.611  29.784  0.00  0.00    -0.000 C 
ATOM     18  C   UNL A   1     -26.155  -3.232  30.065  0.00  0.00    -0.004 C 
ENDBRANCH  12  13
BRANCH  12  19
ATOM     19  C   UNL A   1     -25.387  -0.679  31.571  0.00  0.00    +0.080 C 
ATOM     20  C   UNL A   1     -25.189   0.773  32.028  0.00  0.00    +0.019 C 
ATOM     21  C   UNL A   1     -25.336   0.684  33.544  0.00  0.00    +0.020 C 
ATOM     22  C   UNL A   1     -24.829  -0.715  33.905  0.00  0.00    +0.089 C 
ATOM     23  N   UNL A   1     -24.758  -1.481  32.646  0.00  0.00    -0.219 NA
ENDBRANCH  12  19
ENDBRANCH   4  12
ENDBRANCH   1   4
BRANCH   1  24
ATOM     24  C   UNL A   1     -24.440   1.311  27.267  0.00  0.00    +0.111 C 
BRANCH  24  25
ATOM     25  C   UNL A   1     -25.688   1.614  26.461  0.00  0.00    +0.033 C 
ATOM     26  C   UNL A   1     -26.250   2.920  26.395  0.00  0.00    +0.074 C 
ATOM     27  C   UNL A   1     -27.438   3.091  25.645  0.00  0.00    +0.106 C 
ATOM     28  N   UNL A   1     -28.075   2.089  25.003  0.00  0.00    -0.208 NA
ATOM     29  C   UNL A   1     -27.543   0.849  25.079  0.00  0.00    +0.253 C 
ATOM     30  C   UNL A   1     -26.354   0.576  25.777  0.00  0.00    +0.190 C 
ATOM     31  F   UNL A   1     -25.860  -0.681  25.795  0.00  0.00    -0.200 F 
BRANCH  26  32
ATOM     32  C   UNL A   1     -25.642   4.093  27.123  0.00  0.00    +0.266 C 
ATOM     33  N   UNL A   1     -25.614   5.252  26.449  0.00  0.00    -0.200 NA
ATOM     34  C   UNL A   1     -25.026   6.479  26.963  0.00  0.00    +0.139 C 
ATOM     35  O   UNL A   1     -25.143   3.966  28.243  0.00  0.00    -0.268 OA
ENDBRANCH  26  32
BRANCH  29  36
ATOM     36  O   UNL A   1     -28.193  -0.208  24.477  0.00  0.00    -0.456 OA
BRANCH  36  37
ATOM     37  C   UNL A   1     -29.460   0.005  23.866  0.00  0.00    +0.243 C 
BRANCH  37  38
ATOM     38  C   UNL A   1     -30.065  -1.377  23.573  0.00  0.00    +0.229 C 
ATOM     39  O   UNL A   1     -30.729  -1.878  24.721  0.00  0.00    -0.216 OA
ENDBRANCH  37  38
ENDBRANCH  36  37
ENDBRANCH  29  36
ENDBRANCH  24  25
BRANCH  24  40
ATOM     40  C   UNL A   1     -23.238   1.376  26.477  0.00  0.00    +0.023 C 
ATOM     41  C   UNL A   1     -22.029   1.908  27.151  0.00  0.00    +0.002 C 
ENDBRANCH  24  40
ENDBRANCH   1  24
TORSDOF 15
