REMARK  Name = outputs/IAG933/test6/raw/output_9482_IAG933_linker_design_.xyz
REMARK  11 active torsions:
REMARK  status: ('A' for Active; 'I' for Inactive)
REMARK    1  A    between atoms: C_1  and  C_2
REMARK    2  A    between atoms: C_1  and  C_8
REMARK    3  A    between atoms: C_1  and  C_38
REMARK    4  A    between atoms: C_13  and  N_33
REMARK    5  A    between atoms: C_14  and  C_15
REMARK    6  A    between atoms: C_21  and  O_22
REMARK    7  A    between atoms: O_22  and  C_23
REMARK    8  A    between atoms: C_23  and  C_24
REMARK    9  A    between atoms: N_29  and  C_39
REMARK   10  A    between atoms: C_32  and  C_39
REMARK   11  A    between atoms: C_34  and  N_42
REMARK                            x       y       z     vdW  Elec       q    Type
REMARK                         _______ _______ _______ _____ _____    ______ ____
ROOT
ATOM      1  C   UNL A   1     -23.652   1.101  27.505  0.00  0.00    +0.139 C 
ATOM      2  N   UNL A   1     -25.781   0.420  28.336  0.00  0.00    -0.254 N 
ATOM      3  C   UNL A   1     -21.414   1.447  27.360  0.00  0.00    +0.016 C 
ATOM      4  N   UNL A   1     -24.939   1.175  27.311  0.00  0.00    -0.191 NA
ATOM      5  C   UNL A   1     -22.616   1.641  26.811  0.00  0.00    +0.099 C 
ATOM      6  C   UNL A   1     -22.265   0.010  29.019  0.00  0.00    -0.002 C 
ATOM      7  C   UNL A   1     -21.221   0.620  28.399  0.00  0.00    +0.001 C 
ATOM      8  C   UNL A   1     -24.811  -0.087  29.068  0.00  0.00    +0.043 C 
ATOM      9  C   UNL A   1     -23.515   0.341  28.601  0.00  0.00    +0.010 C 
ENDROOT
BRANCH   4  10
ATOM     10  C   UNL A   1     -25.688   1.614  26.461  0.00  0.00    +0.146 C 
ATOM     11  C   UNL A   1     -26.250   2.920  26.395  0.00  0.00    +0.071 C 
ATOM     12  C   UNL A   1     -27.438   3.091  25.645  0.00  0.00    +0.103 C 
ATOM     13  N   UNL A   1     -28.075   2.089  25.003  0.00  0.00    -0.212 NA
ATOM     14  C   UNL A   1     -27.543   0.849  25.079  0.00  0.00    +0.236 C 
ATOM     15  C   UNL A   1     -26.354   0.576  25.777  0.00  0.00    +0.256 C 
ATOM     16  F   UNL A   1     -25.860  -0.681  25.795  0.00  0.00    -0.225 F 
BRANCH  11  17
ATOM     17  C   UNL A   1     -25.642   4.093  27.123  0.00  0.00    +0.264 C 
ATOM     18  N   UNL A   1     -25.614   5.252  26.449  0.00  0.00    -0.200 NA
ATOM     19  C   UNL A   1     -25.026   6.479  26.963  0.00  0.00    +0.139 C 
ATOM     20  O   UNL A   1     -25.143   3.966  28.243  0.00  0.00    -0.269 OA
ENDBRANCH  11  17
BRANCH  14  21
ATOM     21  O   UNL A   1     -28.193  -0.208  24.477  0.00  0.00    -0.459 OA
BRANCH  21  22
ATOM     22  C   UNL A   1     -29.460   0.005  23.866  0.00  0.00    +0.242 C 
BRANCH  22  23
ATOM     23  C   UNL A   1     -30.065  -1.377  23.573  0.00  0.00    +0.229 C 
ATOM     24  O   UNL A   1     -30.729  -1.878  24.721  0.00  0.00    -0.216 OA
ENDBRANCH  22  23
ENDBRANCH  21  22
ENDBRANCH  14  21
ENDBRANCH   4  10
BRANCH   5  26
ATOM     25  F   UNL A   1     -21.865   2.122  24.791  0.00  0.00    -0.087 F 
ATOM     26  N   UNL A   1     -22.819   2.306  25.672  0.00  0.00    -0.058 NA
ENDBRANCH   5  26
BRANCH   8  27
ATOM     27  C   UNL A   1     -24.855  -1.012  30.143  0.00  0.00    +0.075 C 
BRANCH  27  28
ATOM     28  C   UNL A   1     -24.973  -2.505  29.788  0.00  0.00    -0.016 C 
ATOM     29  C   UNL A   1     -23.906  -3.173  29.146  0.00  0.00    -0.004 C 
ATOM     30  C   UNL A   1     -23.989  -4.549  28.853  0.00  0.00    -0.000 C 
ATOM     31  C   UNL A   1     -25.137  -5.280  29.205  0.00  0.00    -0.000 C 
ATOM     32  C   UNL A   1     -26.232  -4.611  29.784  0.00  0.00    -0.000 C 
ATOM     33  C   UNL A   1     -26.155  -3.232  30.065  0.00  0.00    -0.004 C 
ENDBRANCH  27  28
BRANCH  27  34
ATOM     34  C   UNL A   1     -25.387  -0.679  31.571  0.00  0.00    +0.082 C 
ATOM     35  C   UNL A   1     -25.189   0.773  32.028  0.00  0.00    +0.020 C 
ATOM     36  C   UNL A   1     -25.336   0.684  33.544  0.00  0.00    +0.020 C 
ATOM     37  C   UNL A   1     -24.829  -0.715  33.905  0.00  0.00    +0.089 C 
ATOM     38  N   UNL A   1     -24.758  -1.481  32.646  0.00  0.00    -0.219 NA
ENDBRANCH  27  34
ENDBRANCH   8  27
BRANCH   2  39
ATOM     39  C   UNL A   1     -27.231   0.106  28.602  0.00  0.00    +0.108 C 
BRANCH  39  40
ATOM     40  C   UNL A   1     -27.576   1.285  29.503  0.00  0.00    +0.021 C 
ATOM     41  C   UNL A   1     -28.903   1.427  30.066  0.00  0.00    +0.002 C 
ATOM     42  C   UNL A   1     -28.257   2.578  29.415  0.00  0.00    +0.002 C 
ENDBRANCH  39  40
ENDBRANCH   2  39
TORSDOF 11
