REMARK  Name = outputs/IAG933/test6/raw/output_9487_IAG933_linker_design_.xyz
REMARK  8 active torsions:
REMARK  status: ('A' for Active; 'I' for Inactive)
REMARK    1  A    between atoms: C_1  and  C_2
REMARK    2  A    between atoms: C_13  and  C_29
REMARK    3  A    between atoms: C_14  and  C_15
REMARK    4  A    between atoms: C_21  and  O_22
REMARK    5  A    between atoms: O_22  and  C_23
REMARK    6  A    between atoms: C_23  and  C_24
REMARK    7  A    between atoms: N_30  and  C_39
REMARK    8  A    between atoms: C_32  and  C_45
REMARK                            x       y       z     vdW  Elec       q    Type
REMARK                         _______ _______ _______ _____ _____    ______ ____
ROOT
ATOM      1  C   UNL A   1     -24.296   1.333  26.879  0.00  0.00    +0.165 C 
ATOM      2  N   UNL A   1     -24.280   1.677  28.297  0.00  0.00    -0.265 NA
ATOM      3  O   UNL A   1     -21.865   1.926  26.201  0.00  0.00    -0.448 OA
ATOM      4  C   UNL A   1     -23.049   1.786  29.079  0.00  0.00    +0.076 C 
ATOM      5  O   UNL A   1     -23.622   2.394  24.885  0.00  0.00    -0.249 OA
ATOM      6  C   UNL A   1     -21.239   1.560  27.402  0.00  0.00    +0.210 C 
ATOM      7  C   UNL A   1     -21.958   0.963  28.426  0.00  0.00    +0.065 C 
ATOM      8  C   UNL A   1     -23.267   1.957  25.936  0.00  0.00    +0.332 C 
ENDROOT
BRANCH   2  16
ATOM      9  C   UNL A   1     -24.855  -1.012  30.143  0.00  0.00    +0.040 C 
ATOM     10  C   UNL A   1     -25.387  -0.679  31.571  0.00  0.00    +0.077 C 
ATOM     11  C   UNL A   1     -25.189   0.773  32.028  0.00  0.00    +0.028 C 
ATOM     12  C   UNL A   1     -25.336   0.684  33.544  0.00  0.00    +0.021 C 
ATOM     13  C   UNL A   1     -24.829  -0.715  33.905  0.00  0.00    +0.089 C 
ATOM     14  N   UNL A   1     -24.758  -1.481  32.646  0.00  0.00    -0.219 NA
ATOM     15  C   UNL A   1     -25.565  -0.234  29.029  0.00  0.00    +0.022 C 
ATOM     16  C   UNL A   1     -25.405   1.288  29.190  0.00  0.00    +0.067 C 
ATOM     17  C   UNL A   1     -25.422   1.752  30.688  0.00  0.00    +0.093 C 
BRANCH  17  20
ATOM     18  N   UNL A   1     -25.497   3.736  32.194  0.00  0.00    -0.278 N 
ATOM     19  C   UNL A   1     -24.878   5.095  32.283  0.00  0.00    +0.112 C 
ATOM     20  C   UNL A   1     -25.963   3.100  31.110  0.00  0.00    +0.227 C 
ATOM     21  C   UNL A   1     -24.768   5.387  33.792  0.00  0.00    +0.113 C 
ATOM     22  C   UNL A   1     -26.066   4.715  34.341  0.00  0.00    +0.042 C 
ATOM     23  O   UNL A   1     -26.872   3.693  30.525  0.00  0.00    -0.275 OA
ATOM     24  N   UNL A   1     -24.743   6.808  34.104  0.00  0.00    -0.131 NA
ATOM     25  C   UNL A   1     -26.372   3.578  33.370  0.00  0.00    +0.095 C 
ENDBRANCH  17  20
BRANCH   9  26
ATOM     26  C   UNL A   1     -24.973  -2.505  29.788  0.00  0.00    -0.021 C 
ATOM     27  C   UNL A   1     -23.906  -3.173  29.146  0.00  0.00    -0.004 C 
ATOM     28  C   UNL A   1     -23.989  -4.549  28.853  0.00  0.00    -0.000 C 
ATOM     29  C   UNL A   1     -25.137  -5.280  29.205  0.00  0.00    -0.000 C 
ATOM     30  C   UNL A   1     -26.232  -4.611  29.784  0.00  0.00    -0.000 C 
ATOM     31  C   UNL A   1     -26.155  -3.232  30.065  0.00  0.00    -0.004 C 
ENDBRANCH   9  26
ENDBRANCH   2  16
BRANCH   1  32
ATOM     32  C   UNL A   1     -25.688   1.614  26.461  0.00  0.00    +0.096 C 
ATOM     33  C   UNL A   1     -26.250   2.920  26.395  0.00  0.00    +0.057 C 
ATOM     34  C   UNL A   1     -27.438   3.091  25.645  0.00  0.00    +0.102 C 
ATOM     35  N   UNL A   1     -28.075   2.089  25.003  0.00  0.00    -0.212 NA
ATOM     36  C   UNL A   1     -27.543   0.849  25.079  0.00  0.00    +0.234 C 
ATOM     37  C   UNL A   1     -26.354   0.576  25.777  0.00  0.00    +0.242 C 
ATOM     38  F   UNL A   1     -25.860  -0.681  25.795  0.00  0.00    -0.227 F 
BRANCH  33  39
ATOM     39  C   UNL A   1     -25.642   4.093  27.123  0.00  0.00    +0.263 C 
ATOM     40  N   UNL A   1     -25.614   5.252  26.449  0.00  0.00    -0.200 NA
ATOM     41  C   UNL A   1     -25.026   6.479  26.963  0.00  0.00    +0.139 C 
ATOM     42  O   UNL A   1     -25.143   3.966  28.243  0.00  0.00    -0.269 OA
ENDBRANCH  33  39
BRANCH  36  43
ATOM     43  O   UNL A   1     -28.193  -0.208  24.477  0.00  0.00    -0.459 OA
BRANCH  43  44
ATOM     44  C   UNL A   1     -29.460   0.005  23.866  0.00  0.00    +0.242 C 
BRANCH  44  45
ATOM     45  C   UNL A   1     -30.065  -1.377  23.573  0.00  0.00    +0.229 C 
ATOM     46  O   UNL A   1     -30.729  -1.878  24.721  0.00  0.00    -0.216 OA
ENDBRANCH  44  45
ENDBRANCH  43  44
ENDBRANCH  36  43
ENDBRANCH   1  32
TORSDOF 8
