REMARK  Name = outputs/IAG933/test6/raw/output_9491_IAG933_linker_design_.xyz
REMARK  9 active torsions:
REMARK  status: ('A' for Active; 'I' for Inactive)
REMARK    1  A    between atoms: C_1  and  C_2
REMARK    2  A    between atoms: C_1  and  C_8
REMARK    3  A    between atoms: C_1  and  N_33
REMARK    4  A    between atoms: C_13  and  C_32
REMARK    5  A    between atoms: C_14  and  C_15
REMARK    6  A    between atoms: C_21  and  O_22
REMARK    7  A    between atoms: O_22  and  C_23
REMARK    8  A    between atoms: C_23  and  C_24
REMARK    9  A    between atoms: C_28  and  C_40
REMARK                            x       y       z     vdW  Elec       q    Type
REMARK                         _______ _______ _______ _____ _____    ______ ____
ROOT
ATOM      1  C   UNL A   1     -22.870   0.190  29.118  0.00  0.00    +0.126 C 
ATOM      2  O   UNL A   1     -22.060   2.019  25.981  0.00  0.00    -0.443 OA
ATOM      3  C   UNL A   1     -21.711   1.707  27.216  0.00  0.00    +0.350 C 
ATOM      4  C   UNL A   1     -22.661   1.094  28.083  0.00  0.00    +0.066 C 
ATOM      5  C   UNL A   1     -24.300   1.617  26.677  0.00  0.00    +0.038 C 
ATOM      6  N   UNL A   1     -24.178   0.056  29.477  0.00  0.00    -0.176 NA
ATOM      7  C   UNL A   1     -23.896   1.363  27.885  0.00  0.00    +0.083 C 
ATOM      8  N   UNL A   1     -24.816   1.100  28.946  0.00  0.00    -0.164 NA
ATOM      9  F   UNL A   1     -20.497   2.020  27.565  0.00  0.00    -0.183 F 
ATOM     10  C   UNL A   1     -23.363   1.893  25.694  0.00  0.00    +0.173 C 
ENDROOT
BRANCH   5  11
ATOM     11  C   UNL A   1     -25.688   1.614  26.461  0.00  0.00    +0.097 C 
ATOM     12  C   UNL A   1     -26.250   2.920  26.395  0.00  0.00    +0.059 C 
ATOM     13  C   UNL A   1     -27.438   3.091  25.645  0.00  0.00    +0.102 C 
ATOM     14  N   UNL A   1     -28.075   2.089  25.003  0.00  0.00    -0.212 NA
ATOM     15  C   UNL A   1     -27.543   0.849  25.079  0.00  0.00    +0.234 C 
ATOM     16  C   UNL A   1     -26.354   0.576  25.777  0.00  0.00    +0.244 C 
ATOM     17  F   UNL A   1     -25.860  -0.681  25.795  0.00  0.00    -0.227 F 
BRANCH  12  18
ATOM     18  C   UNL A   1     -25.642   4.093  27.123  0.00  0.00    +0.263 C 
ATOM     19  N   UNL A   1     -25.614   5.252  26.449  0.00  0.00    -0.200 NA
ATOM     20  C   UNL A   1     -25.026   6.479  26.963  0.00  0.00    +0.139 C 
ATOM     21  O   UNL A   1     -25.143   3.966  28.243  0.00  0.00    -0.269 OA
ENDBRANCH  12  18
BRANCH  15  22
ATOM     22  O   UNL A   1     -28.193  -0.208  24.477  0.00  0.00    -0.459 OA
BRANCH  22  23
ATOM     23  C   UNL A   1     -29.460   0.005  23.866  0.00  0.00    +0.242 C 
BRANCH  23  24
ATOM     24  C   UNL A   1     -30.065  -1.377  23.573  0.00  0.00    +0.229 C 
ATOM     25  O   UNL A   1     -30.729  -1.878  24.721  0.00  0.00    -0.216 OA
ENDBRANCH  23  24
ENDBRANCH  22  23
ENDBRANCH  15  22
ENDBRANCH   5  11
BRANCH   1  27
ATOM     26  C   UNL A   1     -20.596  -0.318  29.006  0.00  0.00    -0.003 C 
ATOM     27  C   UNL A   1     -21.699  -0.357  29.374  0.00  0.00    -0.004 C 
ENDBRANCH   1  27
BRANCH   6  28
ATOM     28  C   UNL A   1     -24.855  -1.012  30.143  0.00  0.00    +0.122 C 
BRANCH  28  29
ATOM     29  C   UNL A   1     -24.973  -2.505  29.788  0.00  0.00    -0.004 C 
ATOM     30  C   UNL A   1     -23.906  -3.173  29.146  0.00  0.00    -0.003 C 
ATOM     31  C   UNL A   1     -23.989  -4.549  28.853  0.00  0.00    -0.000 C 
ATOM     32  C   UNL A   1     -25.137  -5.280  29.205  0.00  0.00    -0.000 C 
ATOM     33  C   UNL A   1     -26.232  -4.611  29.784  0.00  0.00    -0.000 C 
ATOM     34  C   UNL A   1     -26.155  -3.232  30.065  0.00  0.00    -0.003 C 
ENDBRANCH  28  29
BRANCH  28  35
ATOM     35  C   UNL A   1     -25.387  -0.679  31.571  0.00  0.00    +0.131 C 
ATOM     36  C   UNL A   1     -25.189   0.773  32.028  0.00  0.00    +0.077 C 
ATOM     37  C   UNL A   1     -25.336   0.684  33.544  0.00  0.00    +0.063 C 
ATOM     38  C   UNL A   1     -24.829  -0.715  33.905  0.00  0.00    +0.095 C 
ATOM     39  N   UNL A   1     -24.758  -1.481  32.646  0.00  0.00    -0.212 NA
ATOM     40  N   UNL A   1     -25.139   1.636  31.045  0.00  0.00    -0.156 NA
ENDBRANCH  28  35
ENDBRANCH   6  28
TORSDOF 9
