MODEL 94
MODEL 1
REMARK VINA RESULT:    -5.416      0.000      0.000
REMARK INTER + INTRA:          -5.416
REMARK INTER:                  -5.416
REMARK INTRA:                   0.000
REMARK UNBOUND:                 0.000
REMARK  Name = No_94-gen_results/8p0m/2024-11-27-11-27-31/
REMARK  0 active torsions:
REMARK  status: ('A' for Active; 'I' for Inactive)
REMARK                            x       y       z     vdW  Elec       q    Type
REMARK                         _______ _______ _______ _____ _____    ______ ____
ROOT
ATOM      1  O   UNL A   1     -27.183  -4.182  29.753  0.00  0.00    -0.273 OA
ATOM      2  C   UNL A   1     -26.123  -3.741  29.648  0.00  0.00    +0.247 C 
ATOM      3  C   UNL A   1     -25.131  -4.002  29.296  0.00  0.00    +0.083 C 
ATOM      4  N   UNL A   1     -26.203  -2.284  29.851  0.00  0.00    -0.161 NA
ATOM      5  C   UNL A   1     -25.037  -1.466  29.709  0.00  0.00    +0.150 A 
ATOM      6  C   UNL A   1     -23.880  -2.056  29.291  0.00  0.00    +0.012 A 
ATOM      7  C   UNL A   1     -23.851  -3.377  29.027  0.00  0.00    +0.038 C 
ATOM      8  C   UNL A   1     -24.980  -5.593  28.894  0.00  0.00    +0.010 C 
ATOM      9  N   UNL A   1     -25.171  -0.132  29.988  0.00  0.00    -0.228 NA
ATOM     10  C   UNL A   1     -23.999   0.643  29.689  0.00  0.00    +0.100 A 
ATOM     11  C   UNL A   1     -22.880   0.153  29.216  0.00  0.00    +0.021 A 
ATOM     12  C   UNL A   1     -22.769  -1.142  29.023  0.00  0.00    +0.000 A 
ENDROOT
TORSDOF 0
ENDMDL
ENDMDL
