REMARK  Name = outputs/IAG933/test6/raw/output_9504_IAG933_linker_design_.xyz
REMARK  11 active torsions:
REMARK  status: ('A' for Active; 'I' for Inactive)
REMARK    1  A    between atoms: C_1  and  C_2
REMARK    2  A    between atoms: C_1  and  C_8
REMARK    3  A    between atoms: C_9  and  N_33
REMARK    4  A    between atoms: C_13  and  C_40
REMARK    5  A    between atoms: C_14  and  C_15
REMARK    6  A    between atoms: C_21  and  O_22
REMARK    7  A    between atoms: O_22  and  C_23
REMARK    8  A    between atoms: C_23  and  C_24
REMARK    9  A    between atoms: N_33  and  C_37
REMARK   10  A    between atoms: C_36  and  C_45
REMARK   11  A    between atoms: C_43  and  C_45
REMARK                            x       y       z     vdW  Elec       q    Type
REMARK                         _______ _______ _______ _____ _____    ______ ____
ROOT
ATOM      1  N   UNL A   1     -24.886   2.001  31.204  0.00  0.00    -0.251 N 
ATOM      2  C   UNL A   1     -25.761   3.178  31.512  0.00  0.00    +0.234 C 
ATOM      3  O   UNL A   1     -26.663   2.956  32.233  0.00  0.00    -0.274 OA
ENDROOT
BRANCH   1   7
ATOM      4  C   UNL A   1     -23.565   1.858  29.029  0.00  0.00    -0.083 C 
ATOM      5  C   UNL A   1     -23.384   1.756  27.680  0.00  0.00    +0.087 C 
ATOM      6  C   UNL A   1     -22.137   1.792  27.027  0.00  0.00    +0.358 C 
ATOM      7  C   UNL A   1     -23.763   1.970  30.361  0.00  0.00    +0.110 C 
ATOM      8  O   UNL A   1     -22.250   1.924  25.669  0.00  0.00    -0.443 OA
ATOM      9  C   UNL A   1     -24.309   1.639  26.549  0.00  0.00    +0.031 C 
ATOM     10  C   UNL A   1     -23.569   1.776  25.342  0.00  0.00    +0.172 C 
ATOM     11  F   UNL A   1     -20.929   1.750  27.583  0.00  0.00    -0.183 F 
BRANCH   9  12
ATOM     12  C   UNL A   1     -25.688   1.614  26.461  0.00  0.00    +0.096 C 
ATOM     13  C   UNL A   1     -26.250   2.920  26.395  0.00  0.00    +0.059 C 
ATOM     14  C   UNL A   1     -27.438   3.091  25.645  0.00  0.00    +0.102 C 
ATOM     15  N   UNL A   1     -28.075   2.089  25.003  0.00  0.00    -0.212 NA
ATOM     16  C   UNL A   1     -27.543   0.849  25.079  0.00  0.00    +0.234 C 
ATOM     17  C   UNL A   1     -26.354   0.576  25.777  0.00  0.00    +0.244 C 
ATOM     18  F   UNL A   1     -25.860  -0.681  25.795  0.00  0.00    -0.227 F 
BRANCH  13  19
ATOM     19  C   UNL A   1     -25.642   4.093  27.123  0.00  0.00    +0.263 C 
ATOM     20  N   UNL A   1     -25.614   5.252  26.449  0.00  0.00    -0.200 NA
ATOM     21  C   UNL A   1     -25.026   6.479  26.963  0.00  0.00    +0.139 C 
ATOM     22  O   UNL A   1     -25.143   3.966  28.243  0.00  0.00    -0.269 OA
ENDBRANCH  13  19
BRANCH  16  23
ATOM     23  O   UNL A   1     -28.193  -0.208  24.477  0.00  0.00    -0.459 OA
BRANCH  23  24
ATOM     24  C   UNL A   1     -29.460   0.005  23.866  0.00  0.00    +0.242 C 
BRANCH  24  25
ATOM     25  C   UNL A   1     -30.065  -1.377  23.573  0.00  0.00    +0.229 C 
ATOM     26  O   UNL A   1     -30.729  -1.878  24.721  0.00  0.00    -0.216 OA
ENDBRANCH  24  25
ENDBRANCH  23  24
ENDBRANCH  16  23
ENDBRANCH   9  12
ENDBRANCH   1   7
BRANCH   1  28
ATOM     27  C   UNL A   1     -25.387  -0.679  31.571  0.00  0.00    +0.096 C 
ATOM     28  C   UNL A   1     -25.189   0.773  32.028  0.00  0.00    +0.098 C 
ATOM     29  C   UNL A   1     -25.336   0.684  33.544  0.00  0.00    +0.040 C 
ATOM     30  C   UNL A   1     -24.829  -0.715  33.905  0.00  0.00    +0.090 C 
ATOM     31  N   UNL A   1     -24.758  -1.481  32.646  0.00  0.00    -0.217 NA
BRANCH  27  32
ATOM     32  C   UNL A   1     -24.855  -1.012  30.143  0.00  0.00    +0.045 C 
BRANCH  32  33
ATOM     33  C   UNL A   1     -24.973  -2.505  29.788  0.00  0.00    -0.021 C 
ATOM     34  C   UNL A   1     -23.906  -3.173  29.146  0.00  0.00    -0.004 C 
ATOM     35  C   UNL A   1     -23.989  -4.549  28.853  0.00  0.00    -0.000 C 
ATOM     36  C   UNL A   1     -25.137  -5.280  29.205  0.00  0.00    -0.000 C 
ATOM     37  C   UNL A   1     -26.232  -4.611  29.784  0.00  0.00    -0.000 C 
ATOM     38  C   UNL A   1     -26.155  -3.232  30.065  0.00  0.00    -0.004 C 
ENDBRANCH  32  33
ENDBRANCH  27  32
ENDBRANCH   1  28
BRANCH   2  39
ATOM     39  C   UNL A   1     -25.591   4.751  31.236  0.00  0.00    +0.112 C 
BRANCH  39  45
ATOM     40 BR   UNL A   1     -21.335   6.327  34.347  0.00  0.00    -0.049 Br
ATOM     41  C   UNL A   1     -25.061   7.699  33.855  0.00  0.00    +0.000 C 
ATOM     42  C   UNL A   1     -23.067   6.285  33.688  0.00  0.00    +0.034 C 
ATOM     43  C   UNL A   1     -23.781   5.305  32.905  0.00  0.00    +0.003 C 
ATOM     44  C   UNL A   1     -23.721   7.426  34.081  0.00  0.00    +0.007 C 
ATOM     45  C   UNL A   1     -25.071   5.624  32.459  0.00  0.00    -0.013 C 
ATOM     46  C   UNL A   1     -25.745   6.774  33.076  0.00  0.00    -0.004 C 
ENDBRANCH  39  45
ENDBRANCH   2  39
TORSDOF 11
