REMARK  Name = outputs/IAG933/test6/raw/output_9505_IAG933_linker_design_.xyz
REMARK  16 active torsions:
REMARK  status: ('A' for Active; 'I' for Inactive)
REMARK    1  A    between atoms: C_1  and  C_2
REMARK    2  A    between atoms: C_1  and  C_8
REMARK    3  A    between atoms: C_1  and  C_39
REMARK    4  A    between atoms: C_13  and  C_34
REMARK    5  A    between atoms: C_14  and  C_15
REMARK    6  A    between atoms: C_21  and  O_22
REMARK    7  A    between atoms: O_22  and  C_23
REMARK    8  A    between atoms: C_23  and  C_24
REMARK    9  A    between atoms: C_28  and  O_30
REMARK   10  A    between atoms: C_28  and  C_45
REMARK   11  A    between atoms: C_29  and  C_43
REMARK   12  A    between atoms: C_29  and  C_48
REMARK   13  A    between atoms: O_30  and  C_39
REMARK   14  A    between atoms: O_32  and  C_45
REMARK   15  A    between atoms: C_35  and  C_39
REMARK   16  A    between atoms: C_41  and  C_45
REMARK                            x       y       z     vdW  Elec       q    Type
REMARK                         _______ _______ _______ _____ _____    ______ ____
ROOT
ATOM      1  C   UNL A   1     -25.378   0.054  29.215  0.00  0.00    +0.143 C 
ENDROOT
BRANCH   1   4
ATOM      2  C   UNL A   1     -23.158   1.653  26.854  0.00  0.00    -0.008 C 
ATOM      3  C   UNL A   1     -24.466   1.277  27.207  0.00  0.00    -0.004 C 
ATOM      4  C   UNL A   1     -24.328   0.554  28.435  0.00  0.00    +0.003 C 
ATOM      5  C   UNL A   1     -22.722   2.274  25.668  0.00  0.00    +0.029 C 
ATOM      6  C   UNL A   1     -22.251   1.191  27.871  0.00  0.00    +0.201 C 
ATOM      7  C   UNL A   1     -22.983   0.437  28.813  0.00  0.00    +0.011 C 
ATOM      8  F   UNL A   1     -20.953   1.507  27.861  0.00  0.00    -0.228 F 
BRANCH   3   9
ATOM      9  C   UNL A   1     -25.688   1.614  26.461  0.00  0.00    +0.037 C 
ATOM     10  C   UNL A   1     -26.250   2.920  26.395  0.00  0.00    +0.076 C 
ATOM     11  C   UNL A   1     -27.438   3.091  25.645  0.00  0.00    +0.107 C 
ATOM     12  N   UNL A   1     -28.075   2.089  25.003  0.00  0.00    -0.208 NA
ATOM     13  C   UNL A   1     -27.543   0.849  25.079  0.00  0.00    +0.253 C 
ATOM     14  C   UNL A   1     -26.354   0.576  25.777  0.00  0.00    +0.193 C 
ATOM     15  F   UNL A   1     -25.860  -0.681  25.795  0.00  0.00    -0.199 F 
BRANCH  10  16
ATOM     16  C   UNL A   1     -25.642   4.093  27.123  0.00  0.00    +0.266 C 
ATOM     17  N   UNL A   1     -25.614   5.252  26.449  0.00  0.00    -0.200 NA
ATOM     18  C   UNL A   1     -25.026   6.479  26.963  0.00  0.00    +0.139 C 
ATOM     19  O   UNL A   1     -25.143   3.966  28.243  0.00  0.00    -0.268 OA
ENDBRANCH  10  16
BRANCH  13  20
ATOM     20  O   UNL A   1     -28.193  -0.208  24.477  0.00  0.00    -0.456 OA
BRANCH  20  21
ATOM     21  C   UNL A   1     -29.460   0.005  23.866  0.00  0.00    +0.243 C 
BRANCH  21  22
ATOM     22  C   UNL A   1     -30.065  -1.377  23.573  0.00  0.00    +0.229 C 
ATOM     23  O   UNL A   1     -30.729  -1.878  24.721  0.00  0.00    -0.216 OA
ENDBRANCH  21  22
ENDBRANCH  20  21
ENDBRANCH  13  20
ENDBRANCH   3   9
ENDBRANCH   1   4
BRANCH   1  24
ATOM     24  C   UNL A   1     -24.855  -1.012  30.143  0.00  0.00    +0.070 C 
BRANCH  24  25
ATOM     25  C   UNL A   1     -24.973  -2.505  29.788  0.00  0.00    -0.018 C 
ATOM     26  C   UNL A   1     -23.906  -3.173  29.146  0.00  0.00    -0.004 C 
ATOM     27  C   UNL A   1     -23.989  -4.549  28.853  0.00  0.00    -0.000 C 
ATOM     28  C   UNL A   1     -25.137  -5.280  29.205  0.00  0.00    -0.000 C 
ATOM     29  C   UNL A   1     -26.232  -4.611  29.784  0.00  0.00    -0.000 C 
ATOM     30  C   UNL A   1     -26.155  -3.232  30.065  0.00  0.00    -0.004 C 
ENDBRANCH  24  25
BRANCH  24  31
ATOM     31  C   UNL A   1     -25.387  -0.679  31.571  0.00  0.00    +0.080 C 
ATOM     32  C   UNL A   1     -25.189   0.773  32.028  0.00  0.00    +0.019 C 
ATOM     33  C   UNL A   1     -25.336   0.684  33.544  0.00  0.00    +0.020 C 
ATOM     34  C   UNL A   1     -24.829  -0.715  33.905  0.00  0.00    +0.089 C 
ATOM     35  N   UNL A   1     -24.758  -1.481  32.646  0.00  0.00    -0.219 NA
ENDBRANCH  24  31
ENDBRANCH   1  24
BRANCH   1  36
ATOM     36  O   UNL A   1     -26.535  -0.233  28.573  0.00  0.00    -0.349 OA
BRANCH  36  37
ATOM     37  C   UNL A   1     -27.675   0.755  28.825  0.00  0.00    +0.174 C 
BRANCH  37  38
ATOM     38  C   UNL A   1     -28.771  -0.273  29.230  0.00  0.00    +0.174 C 
BRANCH  38  40
ATOM     39  O   UNL A   1     -30.966   0.500  29.818  0.00  0.00    -0.351 OA
ATOM     40  C   UNL A   1     -29.712   0.172  30.405  0.00  0.00    +0.172 C 
ATOM     41  C   UNL A   1     -30.931  -0.505  30.709  0.00  0.00    +0.152 C 
BRANCH  41  42
ATOM     42  C   UNL A   1     -32.208  -1.388  30.569  0.00  0.00    +0.118 C 
BRANCH  42  44
ATOM     43  F   UNL A   1     -33.131   0.387  31.798  0.00  0.00    -0.184 F 
ATOM     44  C   UNL A   1     -33.342  -0.479  30.921  0.00  0.00    +0.343 C 
ATOM     45  N   UNL A   1     -34.250  -1.278  31.444  0.00  0.00    -0.067 NA
ATOM     46  F   UNL A   1     -33.657   0.204  29.867  0.00  0.00    -0.184 F 
ENDBRANCH  42  44
ENDBRANCH  41  42
ENDBRANCH  38  40
BRANCH  38  47
ATOM     47  O   UNL A   1     -29.725  -0.590  28.209  0.00  0.00    -0.348 OA
ATOM     48  C   UNL A   1     -30.749   0.506  28.394  0.00  0.00    +0.174 C 
ENDBRANCH  38  47
ENDBRANCH  37  38
ENDBRANCH  36  37
ENDBRANCH   1  36
TORSDOF 16
