REMARK  Name = outputs/IAG933/test6/raw/output_9506_IAG933_linker_design_.xyz
REMARK  14 active torsions:
REMARK  status: ('A' for Active; 'I' for Inactive)
REMARK    1  A    between atoms: C_1  and  C_2
REMARK    2  A    between atoms: C_1  and  C_8
REMARK    3  A    between atoms: C_1  and  N_29
REMARK    4  A    between atoms: C_13  and  C_43
REMARK    5  A    between atoms: C_14  and  C_15
REMARK    6  A    between atoms: C_21  and  O_22
REMARK    7  A    between atoms: O_22  and  C_23
REMARK    8  A    between atoms: C_23  and  C_24
REMARK    9  A    between atoms: C_32  and  C_43
REMARK   10  A    between atoms: C_33  and  O_34
REMARK   11  A    between atoms: C_33  and  C_36
REMARK   12  A    between atoms: O_34  and  C_46
REMARK   13  A    between atoms: C_38  and  C_46
REMARK   14  A    between atoms: C_39  and  O_45
REMARK                            x       y       z     vdW  Elec       q    Type
REMARK                         _______ _______ _______ _____ _____    ______ ____
ROOT
ATOM      1  C   UNL A   1     -27.526  -0.610  28.594  0.00  0.00    +0.093 C 
ATOM      2  N   UNL A   1     -25.307  -0.024  29.229  0.00  0.00    -0.136 N 
ATOM      3  C   UNL A   1     -28.888  -0.084  28.695  0.00  0.00    +0.048 C 
ATOM      4  C   UNL A   1     -24.466   0.838  28.797  0.00  0.00    +0.338 C 
ATOM      5  C   UNL A   1     -26.569   0.339  29.186  0.00  0.00    +0.331 C 
ATOM      6  C   UNL A   1     -28.065   1.978  29.922  0.00  0.00    +0.234 C 
ATOM      7  C   UNL A   1     -29.126   1.176  29.305  0.00  0.00    +0.180 C 
ATOM      8  O   UNL A   1     -23.607   1.303  29.614  0.00  0.00    -0.242 OA
ATOM      9  N   UNL A   1     -26.813   1.522  29.672  0.00  0.00    -0.038 NA
ENDROOT
BRANCH   4  12
ATOM     10  C   UNL A   1     -23.220   1.844  26.923  0.00  0.00    +0.042 C 
ATOM     11 CL   UNL A   1     -21.551   1.842  27.723  0.00  0.00    -0.087 Cl
ATOM     12  C   UNL A   1     -24.570   1.342  27.383  0.00  0.00    +0.087 C 
ATOM     13  C   UNL A   1     -23.038   2.281  25.489  0.00  0.00    +0.044 C 
BRANCH  12  14
ATOM     14  C   UNL A   1     -25.688   1.614  26.461  0.00  0.00    +0.045 C 
ATOM     15  C   UNL A   1     -26.250   2.920  26.395  0.00  0.00    +0.077 C 
ATOM     16  C   UNL A   1     -27.438   3.091  25.645  0.00  0.00    +0.107 C 
ATOM     17  N   UNL A   1     -28.075   2.089  25.003  0.00  0.00    -0.208 NA
ATOM     18  C   UNL A   1     -27.543   0.849  25.079  0.00  0.00    +0.253 C 
ATOM     19  C   UNL A   1     -26.354   0.576  25.777  0.00  0.00    +0.193 C 
ATOM     20  F   UNL A   1     -25.860  -0.681  25.795  0.00  0.00    -0.199 F 
BRANCH  15  21
ATOM     21  C   UNL A   1     -25.642   4.093  27.123  0.00  0.00    +0.266 C 
ATOM     22  N   UNL A   1     -25.614   5.252  26.449  0.00  0.00    -0.200 NA
ATOM     23  C   UNL A   1     -25.026   6.479  26.963  0.00  0.00    +0.139 C 
ATOM     24  O   UNL A   1     -25.143   3.966  28.243  0.00  0.00    -0.268 OA
ENDBRANCH  15  21
BRANCH  18  25
ATOM     25  O   UNL A   1     -28.193  -0.208  24.477  0.00  0.00    -0.456 OA
BRANCH  25  26
ATOM     26  C   UNL A   1     -29.460   0.005  23.866  0.00  0.00    +0.243 C 
BRANCH  26  27
ATOM     27  C   UNL A   1     -30.065  -1.377  23.573  0.00  0.00    +0.229 C 
ATOM     28  O   UNL A   1     -30.729  -1.878  24.721  0.00  0.00    -0.216 OA
ENDBRANCH  26  27
ENDBRANCH  25  26
ENDBRANCH  18  25
ENDBRANCH  12  14
ENDBRANCH   4  12
BRANCH   7  30
ATOM     29  C   UNL A   1     -30.317   2.074  27.909  0.00  0.00    +0.253 C 
ATOM     30  O   UNL A   1     -30.239   1.830  29.229  0.00  0.00    -0.468 OA
ENDBRANCH   7  30
BRANCH   2  31
ATOM     31  C   UNL A   1     -24.855  -1.012  30.143  0.00  0.00    +0.206 C 
BRANCH  31  32
ATOM     32  C   UNL A   1     -24.973  -2.505  29.788  0.00  0.00    +0.022 C 
ATOM     33  C   UNL A   1     -23.906  -3.173  29.146  0.00  0.00    -0.000 C 
ATOM     34  C   UNL A   1     -23.989  -4.549  28.853  0.00  0.00    -0.000 C 
ATOM     35  C   UNL A   1     -25.137  -5.280  29.205  0.00  0.00    -0.000 C 
ATOM     36  C   UNL A   1     -26.232  -4.611  29.784  0.00  0.00    -0.000 C 
ATOM     37  C   UNL A   1     -26.155  -3.232  30.065  0.00  0.00    -0.000 C 
ENDBRANCH  31  32
BRANCH  31  38
ATOM     38  C   UNL A   1     -25.387  -0.679  31.571  0.00  0.00    +0.120 C 
ATOM     39  C   UNL A   1     -25.189   0.773  32.028  0.00  0.00    +0.023 C 
ATOM     40  C   UNL A   1     -25.336   0.684  33.544  0.00  0.00    +0.020 C 
ATOM     41  C   UNL A   1     -24.829  -0.715  33.905  0.00  0.00    +0.089 C 
ATOM     42  N   UNL A   1     -24.758  -1.481  32.646  0.00  0.00    -0.215 NA
ENDBRANCH  31  38
ENDBRANCH   2  31
BRANCH   6  43
ATOM     43  C   UNL A   1     -28.292   3.212  30.762  0.00  0.00    +0.219 C 
BRANCH  43  44
ATOM     44  O   UNL A   1     -27.154   4.027  30.570  0.00  0.00    -0.337 OA
BRANCH  44  45
ATOM     45  C   UNL A   1     -26.686   4.781  31.757  0.00  0.00    +0.207 C 
BRANCH  45  46
ATOM     46  C   UNL A   1     -26.159   4.127  33.009  0.00  0.00    +0.181 C 
ATOM     47  C   UNL A   1     -24.864   4.659  33.593  0.00  0.00    +0.075 C 
ATOM     48  O   UNL A   1     -26.823   3.378  33.739  0.00  0.00    -0.293 OA
ENDBRANCH  45  46
ENDBRANCH  44  45
ENDBRANCH  43  44
ENDBRANCH   6  43
TORSDOF 14
