REMARK  Name = outputs/IAG933/test6/raw/output_9509_IAG933_linker_design_.xyz
REMARK  10 active torsions:
REMARK  status: ('A' for Active; 'I' for Inactive)
REMARK    1  A    between atoms: C_1  and  C_2
REMARK    2  A    between atoms: C_1  and  C_8
REMARK    3  A    between atoms: C_1  and  C_29
REMARK    4  A    between atoms: C_13  and  N_37
REMARK    5  A    between atoms: C_14  and  C_15
REMARK    6  A    between atoms: C_21  and  O_22
REMARK    7  A    between atoms: O_22  and  C_23
REMARK    8  A    between atoms: C_23  and  C_24
REMARK    9  A    between atoms: C_29  and  N_33
REMARK   10  A    between atoms: N_33  and  C_38
REMARK                            x       y       z     vdW  Elec       q    Type
REMARK                         _______ _______ _______ _____ _____    ______ ____
ROOT
ATOM      1  C   UNL A   1     -24.617   0.466  28.295  0.00  0.00    +0.345 C 
ATOM      2  C   UNL A   1     -25.548  -0.230  29.063  0.00  0.00    +0.136 C 
ATOM      3  C   UNL A   1     -22.623   1.121  27.743  0.00  0.00    +0.427 C 
ATOM      4  O   UNL A   1     -22.823   1.856  25.684  0.00  0.00    -0.124 OA
ATOM      5  O   UNL A   1     -21.376   1.573  27.276  0.00  0.00    -0.255 OA
ATOM      6  N   UNL A   1     -24.659   1.278  27.172  0.00  0.00    -0.133 N 
ATOM      7  O   UNL A   1     -21.555   1.901  25.961  0.00  0.00    -0.004 OA
ATOM      8  N   UNL A   1     -23.336   0.397  28.680  0.00  0.00    +0.005 NA
ATOM      9  C   UNL A   1     -23.424   1.493  26.837  0.00  0.00    +0.427 C 
ENDROOT
BRANCH   6  10
ATOM     10  C   UNL A   1     -25.688   1.614  26.461  0.00  0.00    +0.179 C 
ATOM     11  C   UNL A   1     -26.250   2.920  26.395  0.00  0.00    +0.114 C 
ATOM     12  C   UNL A   1     -27.438   3.091  25.645  0.00  0.00    +0.110 C 
ATOM     13  N   UNL A   1     -28.075   2.089  25.003  0.00  0.00    -0.208 NA
ATOM     14  C   UNL A   1     -27.543   0.849  25.079  0.00  0.00    +0.257 C 
ATOM     15  C   UNL A   1     -26.354   0.576  25.777  0.00  0.00    +0.230 C 
ATOM     16  F   UNL A   1     -25.860  -0.681  25.795  0.00  0.00    -0.196 F 
BRANCH  11  17
ATOM     17  C   UNL A   1     -25.642   4.093  27.123  0.00  0.00    +0.270 C 
ATOM     18  N   UNL A   1     -25.614   5.252  26.449  0.00  0.00    -0.200 NA
ATOM     19  C   UNL A   1     -25.026   6.479  26.963  0.00  0.00    +0.139 C 
ATOM     20  O   UNL A   1     -25.143   3.966  28.243  0.00  0.00    -0.268 OA
ENDBRANCH  11  17
BRANCH  14  21
ATOM     21  O   UNL A   1     -28.193  -0.208  24.477  0.00  0.00    -0.456 OA
BRANCH  21  22
ATOM     22  C   UNL A   1     -29.460   0.005  23.866  0.00  0.00    +0.243 C 
BRANCH  22  23
ATOM     23  C   UNL A   1     -30.065  -1.377  23.573  0.00  0.00    +0.229 C 
ATOM     24  O   UNL A   1     -30.729  -1.878  24.721  0.00  0.00    -0.216 OA
ENDBRANCH  22  23
ENDBRANCH  21  22
ENDBRANCH  14  21
ENDBRANCH   6  10
BRANCH   2  25
ATOM     25  C   UNL A   1     -24.855  -1.012  30.143  0.00  0.00    +0.083 C 
BRANCH  25  26
ATOM     26  C   UNL A   1     -24.973  -2.505  29.788  0.00  0.00    -0.015 C 
ATOM     27  C   UNL A   1     -23.906  -3.173  29.146  0.00  0.00    -0.004 C 
ATOM     28  C   UNL A   1     -23.989  -4.549  28.853  0.00  0.00    -0.000 C 
ATOM     29  C   UNL A   1     -25.137  -5.280  29.205  0.00  0.00    -0.000 C 
ATOM     30  C   UNL A   1     -26.232  -4.611  29.784  0.00  0.00    -0.000 C 
ATOM     31  C   UNL A   1     -26.155  -3.232  30.065  0.00  0.00    -0.004 C 
ENDBRANCH  25  26
BRANCH  25  32
ATOM     32  C   UNL A   1     -25.387  -0.679  31.571  0.00  0.00    +0.082 C 
ATOM     33  C   UNL A   1     -25.189   0.773  32.028  0.00  0.00    +0.020 C 
ATOM     34  C   UNL A   1     -25.336   0.684  33.544  0.00  0.00    +0.020 C 
ATOM     35  C   UNL A   1     -24.829  -0.715  33.905  0.00  0.00    +0.089 C 
ATOM     36  N   UNL A   1     -24.758  -1.481  32.646  0.00  0.00    -0.219 NA
ENDBRANCH  25  32
ENDBRANCH   2  25
BRANCH   2  37
ATOM     37  N   UNL A   1     -26.896  -0.493  28.929  0.00  0.00    -0.209 NA
BRANCH  37  41
ATOM     38  F   UNL A   1     -29.034   3.115  31.125  0.00  0.00    -0.204 F 
ATOM     39  C   UNL A   1     -29.943   1.386  28.155  0.00  0.00    +0.004 C 
ATOM     40  C   UNL A   1     -27.941   1.341  30.127  0.00  0.00    +0.046 C 
ATOM     41  C   UNL A   1     -27.954   0.378  29.121  0.00  0.00    +0.073 C 
ATOM     42  C   UNL A   1     -29.902   2.419  29.108  0.00  0.00    +0.030 C 
ATOM     43  C   UNL A   1     -29.020   0.331  28.208  0.00  0.00    +0.017 C 
ATOM     44  C   UNL A   1     -28.941   2.311  30.113  0.00  0.00    +0.141 C 
ENDBRANCH  37  41
ENDBRANCH   2  37
TORSDOF 10
