REMARK  Name = outputs/IAG933/test6/raw/output_9511_IAG933_linker_design_.xyz
REMARK  19 active torsions:
REMARK  status: ('A' for Active; 'I' for Inactive)
REMARK    1  A    between atoms: C_1  and  C_2
REMARK    2  A    between atoms: C_1  and  C_8
REMARK    3  A    between atoms: C_1  and  N_30
REMARK    4  A    between atoms: C_14  and  C_15
REMARK    5  A    between atoms: C_15  and  O_18
REMARK    6  A    between atoms: O_18  and  C_41
REMARK    7  A    between atoms: C_21  and  O_22
REMARK    8  A    between atoms: O_22  and  C_23
REMARK    9  A    between atoms: C_23  and  C_24
REMARK   10  A    between atoms: C_28  and  C_31
REMARK   11  A    between atoms: C_28  and  S_37
REMARK   12  A    between atoms: C_28  and  N_39
REMARK   13  A    between atoms: N_30  and  C_31
REMARK   14  A    between atoms: O_35  and  C_43
REMARK   15  A    between atoms: O_36  and  C_41
REMARK   16  A    between atoms: O_36  and  C_44
REMARK   17  A    between atoms: S_37  and  C_38
REMARK   18  A    between atoms: N_39  and  C_41
REMARK   19  A    between atoms: C_40  and  C_44
REMARK                            x       y       z     vdW  Elec       q    Type
REMARK                         _______ _______ _______ _____ _____    ______ ____
ROOT
ATOM      1  C   UNL A   1     -24.784   2.797  29.130  0.00  0.00    +0.379 C 
ENDROOT
BRANCH   1   2
ATOM      2  O   UNL A   1     -25.143   3.966  28.243  0.00  0.00    -0.423 OA
BRANCH   2   3
ATOM      3  C   UNL A   1     -25.642   4.093  27.123  0.00  0.00    +0.225 C 
ATOM      4  N   UNL A   1     -25.614   5.252  26.449  0.00  0.00    -0.236 NA
ATOM      5  C   UNL A   1     -25.026   6.479  26.963  0.00  0.00    +0.155 C 
BRANCH   3   7
ATOM      6  C   UNL A   1     -25.688   1.614  26.461  0.00  0.00    +0.041 C 
ATOM      7  C   UNL A   1     -26.250   2.920  26.395  0.00  0.00    +0.074 C 
ATOM      8  C   UNL A   1     -27.438   3.091  25.645  0.00  0.00    +0.107 C 
ATOM      9  N   UNL A   1     -28.075   2.089  25.003  0.00  0.00    -0.208 NA
ATOM     10  C   UNL A   1     -27.543   0.849  25.079  0.00  0.00    +0.253 C 
ATOM     11  C   UNL A   1     -26.354   0.576  25.777  0.00  0.00    +0.193 C 
ATOM     12  F   UNL A   1     -25.860  -0.681  25.795  0.00  0.00    -0.199 F 
BRANCH  10  13
ATOM     13  O   UNL A   1     -28.193  -0.208  24.477  0.00  0.00    -0.456 OA
BRANCH  13  14
ATOM     14  C   UNL A   1     -29.460   0.005  23.866  0.00  0.00    +0.243 C 
BRANCH  14  15
ATOM     15  C   UNL A   1     -30.065  -1.377  23.573  0.00  0.00    +0.229 C 
ATOM     16  O   UNL A   1     -30.729  -1.878  24.721  0.00  0.00    -0.216 OA
ENDBRANCH  14  15
ENDBRANCH  13  14
ENDBRANCH  10  13
ENDBRANCH   3   7
ENDBRANCH   2   3
ENDBRANCH   1   2
BRANCH   1  17
ATOM     17  O   UNL A   1     -25.281   2.824  30.549  0.00  0.00    -0.306 OA
BRANCH  17  18
ATOM     18  C   UNL A   1     -26.261   3.885  30.928  0.00  0.00    +0.157 C 
BRANCH  18  22
ATOM     19  C   UNL A   1     -25.200   5.149  34.275  0.00  0.00    +0.129 C 
ATOM     20  C   UNL A   1     -25.437   4.036  33.474  0.00  0.00    +0.038 C 
ATOM     21  N   UNL A   1     -25.342   6.291  33.507  0.00  0.00    -0.240 NA
ATOM     22  C   UNL A   1     -25.731   4.510  32.175  0.00  0.00    +0.110 C 
ATOM     23  C   UNL A   1     -25.389   5.905  32.227  0.00  0.00    +0.226 C 
BRANCH  23  24
ATOM     24  O   UNL A   1     -24.984   6.603  31.054  0.00  0.00    -0.351 OA
ATOM     25  N   UNL A   1     -25.747   7.694  30.549  0.00  0.00    +0.112 NA
ENDBRANCH  23  24
ENDBRANCH  18  22
ENDBRANCH  17  18
ENDBRANCH   1  17
BRANCH   1  26
ATOM     26  N   UNL A   1     -23.277   2.339  29.062  0.00  0.00    -0.140 NA
BRANCH  26  27
ATOM     27  C   UNL A   1     -22.522   1.243  28.955  0.00  0.00    +0.148 C 
BRANCH  27  28
ATOM     28  C   UNL A   1     -22.846  -0.022  29.594  0.00  0.00    +0.118 C 
BRANCH  28  29
ATOM     29  N   UNL A   1     -24.291  -0.213  29.386  0.00  0.00    -0.211 NA
BRANCH  29  30
ATOM     30  C   UNL A   1     -24.855  -1.012  30.143  0.00  0.00    +0.111 C 
BRANCH  30  31
ATOM     31  C   UNL A   1     -24.973  -2.505  29.788  0.00  0.00    -0.005 C 
ATOM     32  C   UNL A   1     -23.906  -3.173  29.146  0.00  0.00    -0.003 C 
ATOM     33  C   UNL A   1     -23.989  -4.549  28.853  0.00  0.00    -0.000 C 
ATOM     34  C   UNL A   1     -25.137  -5.280  29.205  0.00  0.00    -0.000 C 
ATOM     35  C   UNL A   1     -26.232  -4.611  29.784  0.00  0.00    -0.000 C 
ATOM     36  C   UNL A   1     -26.155  -3.232  30.065  0.00  0.00    -0.003 C 
ENDBRANCH  30  31
BRANCH  30  37
ATOM     37  C   UNL A   1     -25.387  -0.679  31.571  0.00  0.00    +0.093 C 
ATOM     38  C   UNL A   1     -25.189   0.773  32.028  0.00  0.00    +0.021 C 
ATOM     39  C   UNL A   1     -25.336   0.684  33.544  0.00  0.00    +0.020 C 
ATOM     40  C   UNL A   1     -24.829  -0.715  33.905  0.00  0.00    +0.089 C 
ATOM     41  N   UNL A   1     -24.758  -1.481  32.646  0.00  0.00    -0.218 NA
ENDBRANCH  30  37
ENDBRANCH  29  30
ENDBRANCH  28  29
ENDBRANCH  27  28
BRANCH  27  42
ATOM     42  S   UNL A   1     -21.165   1.070  28.015  0.00  0.00    -0.083 S 
BRANCH  42  44
ATOM     43  C   UNL A   1     -22.308   2.426  26.243  0.00  0.00    +0.141 C 
ATOM     44  C   UNL A   1     -21.368   1.933  26.810  0.00  0.00    +0.117 C 
ATOM     45  O   UNL A   1     -23.150   2.945  25.694  0.00  0.00    -0.231 OA
ENDBRANCH  42  44
ENDBRANCH  27  42
ENDBRANCH  26  27
ENDBRANCH   1  26
TORSDOF 19
