REMARK  Name = outputs/IAG933/test6/raw/output_9514_IAG933_linker_design_.xyz
REMARK  16 active torsions:
REMARK  status: ('A' for Active; 'I' for Inactive)
REMARK    1  A    between atoms: C_1  and  C_2
REMARK    2  A    between atoms: C_1  and  C_8
REMARK    3  A    between atoms: C_9  and  C_33
REMARK    4  A    between atoms: C_13  and  C_35
REMARK    5  A    between atoms: C_14  and  C_15
REMARK    6  A    between atoms: C_21  and  O_22
REMARK    7  A    between atoms: O_22  and  C_23
REMARK    8  A    between atoms: C_23  and  C_24
REMARK    9  A    between atoms: C_29  and  C_37
REMARK   10  A    between atoms: N_30  and  N_34
REMARK   11  A    between atoms: N_30  and  C_35
REMARK   12  A    between atoms: C_31  and  C_33
REMARK   13  A    between atoms: C_31  and  C_36
REMARK   14  A    between atoms: C_32  and  C_36
REMARK   15  A    between atoms: C_33  and  N_34
REMARK   16  A    between atoms: C_35  and  C_37
REMARK                            x       y       z     vdW  Elec       q    Type
REMARK                         _______ _______ _______ _____ _____    ______ ____
ROOT
ATOM      1  N   UNL A   1     -24.820   1.152  28.629  0.00  0.00    -0.126 NA
ENDROOT
BRANCH   1   2
ATOM      2  N   UNL A   1     -25.417   1.776  29.728  0.00  0.00    -0.100 NA
BRANCH   2   3
ATOM      3  C   UNL A   1     -25.400   2.159  31.306  0.00  0.00    +0.230 C 
ATOM      4  O   UNL A   1     -24.293   3.045  31.567  0.00  0.00    -0.204 OA
BRANCH   3   6
ATOM      5  C   UNL A   1     -25.387  -0.679  31.571  0.00  0.00    +0.081 C 
ATOM      6  C   UNL A   1     -25.189   0.773  32.028  0.00  0.00    +0.065 C 
ATOM      7  C   UNL A   1     -25.336   0.684  33.544  0.00  0.00    +0.024 C 
ATOM      8  C   UNL A   1     -24.829  -0.715  33.905  0.00  0.00    +0.089 C 
ATOM      9  N   UNL A   1     -24.758  -1.481  32.646  0.00  0.00    -0.219 NA
BRANCH   5  10
ATOM     10  C   UNL A   1     -24.855  -1.012  30.143  0.00  0.00    +0.044 C 
BRANCH  10  11
ATOM     11  C   UNL A   1     -24.973  -2.505  29.788  0.00  0.00    -0.021 C 
ATOM     12  C   UNL A   1     -23.906  -3.173  29.146  0.00  0.00    -0.004 C 
ATOM     13  C   UNL A   1     -23.989  -4.549  28.853  0.00  0.00    -0.000 C 
ATOM     14  C   UNL A   1     -25.137  -5.280  29.205  0.00  0.00    -0.000 C 
ATOM     15  C   UNL A   1     -26.232  -4.611  29.784  0.00  0.00    -0.000 C 
ATOM     16  C   UNL A   1     -26.155  -3.232  30.065  0.00  0.00    -0.004 C 
ENDBRANCH  10  11
ENDBRANCH   5  10
ENDBRANCH   3   6
BRANCH   3  17
ATOM     17  C   UNL A   1     -26.594   2.975  31.705  0.00  0.00    +0.196 C 
ATOM     18  O   UNL A   1     -26.848   3.194  33.065  0.00  0.00    -0.219 OA
BRANCH  17  19
ATOM     19  C   UNL A   1     -27.217   3.564  30.636  0.00  0.00    +0.037 C 
BRANCH  19  20
ATOM     20  C   UNL A   1     -28.675   3.290  30.655  0.00  0.00    +0.003 C 
ATOM     21  C   UNL A   1     -29.149   3.772  32.049  0.00  0.00    +0.000 C 
ENDBRANCH  19  20
ENDBRANCH  17  19
ENDBRANCH   3  17
ENDBRANCH   2   3
ENDBRANCH   1   2
BRANCH   1  22
ATOM     22  C   UNL A   1     -24.646   1.381  27.354  0.00  0.00    +0.119 C 
BRANCH  22  23
ATOM     23  C   UNL A   1     -25.688   1.614  26.461  0.00  0.00    +0.033 C 
ATOM     24  C   UNL A   1     -26.250   2.920  26.395  0.00  0.00    +0.074 C 
ATOM     25  C   UNL A   1     -27.438   3.091  25.645  0.00  0.00    +0.106 C 
ATOM     26  N   UNL A   1     -28.075   2.089  25.003  0.00  0.00    -0.208 NA
ATOM     27  C   UNL A   1     -27.543   0.849  25.079  0.00  0.00    +0.253 C 
ATOM     28  C   UNL A   1     -26.354   0.576  25.777  0.00  0.00    +0.191 C 
ATOM     29  F   UNL A   1     -25.860  -0.681  25.795  0.00  0.00    -0.200 F 
BRANCH  24  30
ATOM     30  C   UNL A   1     -25.642   4.093  27.123  0.00  0.00    +0.266 C 
ATOM     31  N   UNL A   1     -25.614   5.252  26.449  0.00  0.00    -0.200 NA
ATOM     32  C   UNL A   1     -25.026   6.479  26.963  0.00  0.00    +0.139 C 
ATOM     33  O   UNL A   1     -25.143   3.966  28.243  0.00  0.00    -0.268 OA
ENDBRANCH  24  30
BRANCH  27  34
ATOM     34  O   UNL A   1     -28.193  -0.208  24.477  0.00  0.00    -0.456 OA
BRANCH  34  35
ATOM     35  C   UNL A   1     -29.460   0.005  23.866  0.00  0.00    +0.243 C 
BRANCH  35  36
ATOM     36  C   UNL A   1     -30.065  -1.377  23.573  0.00  0.00    +0.229 C 
ATOM     37  O   UNL A   1     -30.729  -1.878  24.721  0.00  0.00    -0.216 OA
ENDBRANCH  35  36
ENDBRANCH  34  35
ENDBRANCH  27  34
ENDBRANCH  22  23
BRANCH  22  38
ATOM     38  C   UNL A   1     -23.360   1.506  26.932  0.00  0.00    +0.052 C 
ATOM     39  C   UNL A   1     -22.956   2.344  25.697  0.00  0.00    +0.004 C 
BRANCH  38  41
ATOM     40  C   UNL A   1     -20.906   1.246  27.598  0.00  0.00    +0.035 C 
ATOM     41  C   UNL A   1     -22.307   0.696  27.769  0.00  0.00    +0.154 C 
ATOM     42  O   UNL A   1     -22.518   0.840  29.332  0.00  0.00    -0.223 OA
ENDBRANCH  38  41
ENDBRANCH  22  38
ENDBRANCH   1  22
TORSDOF 16
