REMARK  Name = outputs/IAG933/test6/raw/output_9517_IAG933_linker_design_.xyz
REMARK  12 active torsions:
REMARK  status: ('A' for Active; 'I' for Inactive)
REMARK    1  A    between atoms: C_1  and  C_2
REMARK    2  A    between atoms: C_1  and  C_8
REMARK    3  A    between atoms: C_1  and  C_40
REMARK    4  A    between atoms: C_13  and  C_41
REMARK    5  A    between atoms: C_14  and  C_15
REMARK    6  A    between atoms: C_21  and  O_22
REMARK    7  A    between atoms: O_22  and  C_23
REMARK    8  A    between atoms: C_23  and  C_24
REMARK    9  A    between atoms: N_28  and  N_43
REMARK   10  A    between atoms: C_40  and  N_43
REMARK   11  A    between atoms: C_41  and  N_43
REMARK   12  A    between atoms: C_41  and  C_44
REMARK                            x       y       z     vdW  Elec       q    Type
REMARK                         _______ _______ _______ _____ _____    ______ ____
ROOT
ATOM      1  C   UNL A   1     -24.665   1.271  27.475  0.00  0.00    +0.133 C 
ENDROOT
BRANCH   1  11
ATOM      2  C   UNL A   1     -20.771  -0.311  28.740  0.00  0.00    +0.062 C 
ATOM      3  F   UNL A   1     -23.287   1.208  24.628  0.00  0.00    -0.196 F 
ATOM      4  C   UNL A   1     -22.515   0.769  28.224  0.00  0.00    +0.072 C 
ATOM      5  C   UNL A   1     -22.732   1.389  25.867  0.00  0.00    +0.331 C 
ATOM      6  C   UNL A   1     -21.687  -0.663  29.629  0.00  0.00    +0.115 C 
ATOM      7  C   UNL A   1     -21.191   0.852  28.032  0.00  0.00    +0.190 C 
ATOM      8  N   UNL A   1     -22.597   0.331  29.513  0.00  0.00    -0.240 NA
ATOM      9  O   UNL A   1     -21.468   1.722  25.861  0.00  0.00    -0.182 OA
ATOM     10  O   UNL A   1     -20.643   1.595  26.991  0.00  0.00    -0.214 OA
ATOM     11  C   UNL A   1     -23.355   1.137  27.130  0.00  0.00    +0.051 C 
ENDBRANCH   1  11
BRANCH   1  12
ATOM     12  C   UNL A   1     -25.688   1.614  26.461  0.00  0.00    +0.093 C 
ATOM     13  C   UNL A   1     -26.250   2.920  26.395  0.00  0.00    +0.057 C 
ATOM     14  C   UNL A   1     -27.438   3.091  25.645  0.00  0.00    +0.102 C 
ATOM     15  N   UNL A   1     -28.075   2.089  25.003  0.00  0.00    -0.212 NA
ATOM     16  C   UNL A   1     -27.543   0.849  25.079  0.00  0.00    +0.234 C 
ATOM     17  C   UNL A   1     -26.354   0.576  25.777  0.00  0.00    +0.242 C 
ATOM     18  F   UNL A   1     -25.860  -0.681  25.795  0.00  0.00    -0.227 F 
BRANCH  13  19
ATOM     19  C   UNL A   1     -25.642   4.093  27.123  0.00  0.00    +0.263 C 
ATOM     20  N   UNL A   1     -25.614   5.252  26.449  0.00  0.00    -0.200 NA
ATOM     21  C   UNL A   1     -25.026   6.479  26.963  0.00  0.00    +0.139 C 
ATOM     22  O   UNL A   1     -25.143   3.966  28.243  0.00  0.00    -0.269 OA
ENDBRANCH  13  19
BRANCH  16  23
ATOM     23  O   UNL A   1     -28.193  -0.208  24.477  0.00  0.00    -0.459 OA
BRANCH  23  24
ATOM     24  C   UNL A   1     -29.460   0.005  23.866  0.00  0.00    +0.242 C 
BRANCH  24  25
ATOM     25  C   UNL A   1     -30.065  -1.377  23.573  0.00  0.00    +0.229 C 
ATOM     26  O   UNL A   1     -30.729  -1.878  24.721  0.00  0.00    -0.216 OA
ENDBRANCH  24  25
ENDBRANCH  23  24
ENDBRANCH  16  23
ENDBRANCH   1  12
BRANCH   1  27
ATOM     27  N   UNL A   1     -25.074   1.337  28.812  0.00  0.00    -0.087 NA
BRANCH  27  28
ATOM     28  N   UNL A   1     -26.100   2.160  29.534  0.00  0.00    +0.061 NA
ATOM     29  C   UNL A   1     -27.359   2.029  30.140  0.00  0.00    +0.411 C 
ATOM     30  N   UNL A   1     -28.067   0.953  30.230  0.00  0.00    +0.194 NA
ATOM     31  C   UNL A   1     -28.016   3.286  30.692  0.00  0.00    +0.141 C 
ENDBRANCH  27  28
BRANCH  27  32
ATOM     32  C   UNL A   1     -25.477  -0.107  29.107  0.00  0.00    +0.125 C 
BRANCH  32  33
ATOM     33  C   UNL A   1     -24.855  -1.012  30.143  0.00  0.00    +0.058 C 
BRANCH  33  34
ATOM     34  C   UNL A   1     -24.973  -2.505  29.788  0.00  0.00    -0.020 C 
ATOM     35  C   UNL A   1     -23.906  -3.173  29.146  0.00  0.00    -0.004 C 
ATOM     36  C   UNL A   1     -23.989  -4.549  28.853  0.00  0.00    -0.000 C 
ATOM     37  C   UNL A   1     -25.137  -5.280  29.205  0.00  0.00    -0.000 C 
ATOM     38  C   UNL A   1     -26.232  -4.611  29.784  0.00  0.00    -0.000 C 
ATOM     39  C   UNL A   1     -26.155  -3.232  30.065  0.00  0.00    -0.004 C 
ENDBRANCH  33  34
BRANCH  33  40
ATOM     40  C   UNL A   1     -25.387  -0.679  31.571  0.00  0.00    +0.078 C 
ATOM     41  C   UNL A   1     -25.189   0.773  32.028  0.00  0.00    +0.019 C 
ATOM     42  C   UNL A   1     -25.336   0.684  33.544  0.00  0.00    +0.020 C 
ATOM     43  C   UNL A   1     -24.829  -0.715  33.905  0.00  0.00    +0.089 C 
ATOM     44  N   UNL A   1     -24.758  -1.481  32.646  0.00  0.00    -0.219 NA
ENDBRANCH  33  40
ENDBRANCH  32  33
ENDBRANCH  27  32
ENDBRANCH   1  27
TORSDOF 12
