MODEL 951
MODEL 1
REMARK VINA RESULT:    -6.433      0.000      0.000
REMARK INTER + INTRA:          -7.485
REMARK INTER:                  -7.186
REMARK INTRA:                  -0.299
REMARK UNBOUND:                -0.299
REMARK  Name = No_951-gen_results/8p0m/2024-11-27-11-27-31/
REMARK  2 active torsions:
REMARK  status: ('A' for Active; 'I' for Inactive)
REMARK    1  A    between atoms: C_2  and  P_7
REMARK    2  A    between atoms: C_6  and  C_11
REMARK                            x       y       z     vdW  Elec       q    Type
REMARK                         _______ _______ _______ _____ _____    ______ ____
ROOT
ATOM      1  C   UNL A   1     -28.627 -11.607  31.404  0.00  0.00    +0.006 A 
ATOM      2  C   UNL A   1     -28.526 -11.219  32.544  0.00  0.00    +0.029 A 
ATOM      3  C   UNL A   1     -29.226 -10.101  32.987  0.00  0.00    +0.003 A 
ATOM      4  C   UNL A   1     -30.057  -9.343  32.088  0.00  0.00    +0.000 A 
ATOM      5  C   UNL A   1     -30.099  -9.849  30.782  0.00  0.00    +0.003 A 
ATOM      6  C   UNL A   1     -29.405 -10.900  30.410  0.00  0.00    +0.036 A 
ENDROOT
BRANCH   6   7
ATOM      7  C   UNL A   1     -29.473 -11.256  28.984  0.00  0.00    +0.162 A 
ATOM      8  N   UNL A   1     -28.880 -11.982  28.532  0.00  0.00    -0.225 NA
ATOM      9  C   UNL A   1     -28.953 -12.309  27.101  0.00  0.00    +0.102 A 
ATOM     10  C   UNL A   1     -29.890 -11.570  26.435  0.00  0.00    +0.041 A 
ATOM     11  C   UNL A   1     -30.632 -10.593  26.976  0.00  0.00    +0.102 A 
ATOM     12  N   UNL A   1     -30.341 -10.416  28.289  0.00  0.00    -0.225 NA
ENDBRANCH   6   7
BRANCH   2  13
ATOM     13  P   UNL A   1     -27.521 -11.984  33.811  0.00  0.00    +0.140 P 
ATOM     14  O   UNL A   1     -26.610 -12.702  33.181  0.00  0.00    -0.456 OA
ATOM     15  O   UNL A   1     -26.869 -10.757  34.531  0.00  0.00    -0.354 OA
ATOM     16  O   UNL A   1     -28.394 -12.738  34.737  0.00  0.00    -0.354 OA
ENDBRANCH   2  13
TORSDOF 2
ENDMDL
ENDMDL
