REMARK  Name = outputs/IAG933/test6/raw/output_9533_IAG933_linker_design_.xyz
REMARK  17 active torsions:
REMARK  status: ('A' for Active; 'I' for Inactive)
REMARK    1  A    between atoms: C_1  and  C_2
REMARK    2  A    between atoms: C_1  and  C_8
REMARK    3  A    between atoms: C_1  and  C_42
REMARK    4  A    between atoms: C_13  and  C_40
REMARK    5  A    between atoms: C_14  and  C_15
REMARK    6  A    between atoms: C_21  and  O_22
REMARK    7  A    between atoms: O_22  and  C_23
REMARK    8  A    between atoms: C_23  and  C_24
REMARK    9  A    between atoms: C_28  and  C_42
REMARK   10  A    between atoms: C_29  and  C_32
REMARK   11  A    between atoms: C_29  and  C_33
REMARK   12  A    between atoms: O_30  and  C_36
REMARK   13  A    between atoms: C_31  and  C_36
REMARK   14  A    between atoms: C_31  and  C_37
REMARK   15  A    between atoms: C_32  and  N_34
REMARK   16  A    between atoms: C_33  and  C_39
REMARK   17  A    between atoms: C_37  and  C_42
REMARK                            x       y       z     vdW  Elec       q    Type
REMARK                         _______ _______ _______ _____ _____    ______ ____
ROOT
ATOM      1  C   UNL A   1     -24.395   0.846  28.373  0.00  0.00    -0.030 C 
ATOM      2  C   UNL A   1     -24.836   1.417  27.296  0.00  0.00    -0.009 C 
ENDROOT
BRANCH   2   3
ATOM      3  C   UNL A   1     -25.688   1.614  26.461  0.00  0.00    +0.021 C 
ATOM      4  C   UNL A   1     -26.250   2.920  26.395  0.00  0.00    +0.056 C 
ATOM      5  C   UNL A   1     -27.438   3.091  25.645  0.00  0.00    +0.159 C 
ATOM      6  N   UNL A   1     -28.075   2.089  25.003  0.00  0.00    -0.234 NA
ATOM      7  C   UNL A   1     -27.543   0.849  25.079  0.00  0.00    +0.234 C 
ATOM      8  C   UNL A   1     -26.354   0.576  25.777  0.00  0.00    +0.258 C 
ATOM      9  F   UNL A   1     -25.860  -0.681  25.795  0.00  0.00    -0.222 F 
BRANCH   4  10
ATOM     10  C   UNL A   1     -25.642   4.093  27.123  0.00  0.00    +0.263 C 
ATOM     11  N   UNL A   1     -25.614   5.252  26.449  0.00  0.00    -0.200 NA
ATOM     12  C   UNL A   1     -25.026   6.479  26.963  0.00  0.00    +0.139 C 
ATOM     13  O   UNL A   1     -25.143   3.966  28.243  0.00  0.00    -0.269 OA
ENDBRANCH   4  10
BRANCH   7  14
ATOM     14  O   UNL A   1     -28.193  -0.208  24.477  0.00  0.00    -0.459 OA
BRANCH  14  15
ATOM     15  C   UNL A   1     -29.460   0.005  23.866  0.00  0.00    +0.242 C 
BRANCH  15  16
ATOM     16  C   UNL A   1     -30.065  -1.377  23.573  0.00  0.00    +0.229 C 
ATOM     17  O   UNL A   1     -30.729  -1.878  24.721  0.00  0.00    -0.216 OA
ENDBRANCH  15  16
ENDBRANCH  14  15
ENDBRANCH   7  14
ENDBRANCH   2   3
BRANCH   1  18
ATOM     18  C   UNL A   1     -25.296   0.040  29.133  0.00  0.00    +0.102 C 
BRANCH  18  19
ATOM     19  C   UNL A   1     -26.690   0.582  29.258  0.00  0.00    +0.245 C 
ATOM     20  N   UNL A   1     -26.828   1.869  29.548  0.00  0.00    -0.205 NA
ATOM     21  O   UNL A   1     -27.646  -0.184  29.183  0.00  0.00    -0.273 OA
BRANCH  20  22
ATOM     22  C   UNL A   1     -28.190   2.355  29.611  0.00  0.00    +0.116 C 
BRANCH  22  23
ATOM     23  C   UNL A   1     -27.977   3.825  29.965  0.00  0.00    +0.037 C 
BRANCH  23  24
ATOM     24  C   UNL A   1     -27.943   4.079  31.482  0.00  0.00    +0.135 C 
BRANCH  24  26
ATOM     25  N   UNL A   1     -28.993   5.565  33.177  0.00  0.00    +0.199 NA
ATOM     26  C   UNL A   1     -29.028   4.906  31.937  0.00  0.00    +0.454 C 
ATOM     27  N   UNL A   1     -30.075   5.051  31.152  0.00  0.00    +0.199 NA
ENDBRANCH  24  26
ENDBRANCH  23  24
ENDBRANCH  22  23
ENDBRANCH  20  22
ENDBRANCH  18  19
BRANCH  18  28
ATOM     28  C   UNL A   1     -24.855  -1.012  30.143  0.00  0.00    +0.051 C 
BRANCH  28  29
ATOM     29  C   UNL A   1     -24.973  -2.505  29.788  0.00  0.00    -0.020 C 
ATOM     30  C   UNL A   1     -23.906  -3.173  29.146  0.00  0.00    -0.004 C 
ATOM     31  C   UNL A   1     -23.989  -4.549  28.853  0.00  0.00    -0.000 C 
ATOM     32  C   UNL A   1     -25.137  -5.280  29.205  0.00  0.00    -0.000 C 
ATOM     33  C   UNL A   1     -26.232  -4.611  29.784  0.00  0.00    -0.000 C 
ATOM     34  C   UNL A   1     -26.155  -3.232  30.065  0.00  0.00    -0.004 C 
ENDBRANCH  28  29
BRANCH  28  35
ATOM     35  C   UNL A   1     -25.387  -0.679  31.571  0.00  0.00    +0.078 C 
ATOM     36  C   UNL A   1     -25.189   0.773  32.028  0.00  0.00    +0.019 C 
ATOM     37  C   UNL A   1     -25.336   0.684  33.544  0.00  0.00    +0.020 C 
ATOM     38  C   UNL A   1     -24.829  -0.715  33.905  0.00  0.00    +0.089 C 
ATOM     39  N   UNL A   1     -24.758  -1.481  32.646  0.00  0.00    -0.219 NA
ENDBRANCH  28  35
ENDBRANCH  18  28
ENDBRANCH   1  18
BRANCH   1  40
ATOM     40  C   UNL A   1     -23.085   1.113  28.657  0.00  0.00    +0.089 C 
BRANCH  40  41
ATOM     41  C   UNL A   1     -22.206   1.523  27.661  0.00  0.00    +0.282 C 
ATOM     42  F   UNL A   1     -20.937   1.494  27.828  0.00  0.00    -0.204 F 
BRANCH  41  43
ATOM     43  O   UNL A   1     -22.491   2.005  26.480  0.00  0.00    -0.324 OA
ATOM     44  C   UNL A   1     -23.017   1.408  25.294  0.00  0.00    +0.177 C 
ENDBRANCH  41  43
ENDBRANCH  40  41
ENDBRANCH   1  40
TORSDOF 17
