REMARK  Name = outputs/IAG933/test6/raw/output_9537_IAG933_linker_design_.xyz
REMARK  13 active torsions:
REMARK  status: ('A' for Active; 'I' for Inactive)
REMARK    1  A    between atoms: C_1  and  C_2
REMARK    2  A    between atoms: C_1  and  C_8
REMARK    3  A    between atoms: C_9  and  C_36
REMARK    4  A    between atoms: C_13  and  C_29
REMARK    5  A    between atoms: C_14  and  C_15
REMARK    6  A    between atoms: C_21  and  O_22
REMARK    7  A    between atoms: O_22  and  C_23
REMARK    8  A    between atoms: C_23  and  C_24
REMARK    9  A    between atoms: N_28  and  C_29
REMARK   10  A    between atoms: N_28  and  C_38
REMARK   11  A    between atoms: N_33  and  C_34
REMARK   12  A    between atoms: N_33  and  C_36
REMARK   13  A    between atoms: C_42  and  C_43
REMARK                            x       y       z     vdW  Elec       q    Type
REMARK                         _______ _______ _______ _____ _____    ______ ____
ROOT
ATOM      1  C   UNL A   1     -25.011   2.167  31.524  0.00  0.00    +0.050 C 
ATOM      2  C   UNL A   1     -24.152   2.161  30.229  0.00  0.00    +0.070 C 
ENDROOT
BRANCH   1   4
ATOM      3  C   UNL A   1     -25.387  -0.679  31.571  0.00  0.00    +0.082 C 
ATOM      4  C   UNL A   1     -25.189   0.773  32.028  0.00  0.00    +0.055 C 
ATOM      5  C   UNL A   1     -25.336   0.684  33.544  0.00  0.00    +0.026 C 
ATOM      6  C   UNL A   1     -24.829  -0.715  33.905  0.00  0.00    +0.089 C 
ATOM      7  N   UNL A   1     -24.758  -1.481  32.646  0.00  0.00    -0.219 NA
BRANCH   3   8
ATOM      8  C   UNL A   1     -24.855  -1.012  30.143  0.00  0.00    +0.044 C 
BRANCH   8   9
ATOM      9  C   UNL A   1     -24.973  -2.505  29.788  0.00  0.00    -0.021 C 
ATOM     10  C   UNL A   1     -23.906  -3.173  29.146  0.00  0.00    -0.004 C 
ATOM     11  C   UNL A   1     -23.989  -4.549  28.853  0.00  0.00    -0.000 C 
ATOM     12  C   UNL A   1     -25.137  -5.280  29.205  0.00  0.00    -0.000 C 
ATOM     13  C   UNL A   1     -26.232  -4.611  29.784  0.00  0.00    -0.000 C 
ATOM     14  C   UNL A   1     -26.155  -3.232  30.065  0.00  0.00    -0.004 C 
ENDBRANCH   8   9
ENDBRANCH   3   8
ENDBRANCH   1   4
BRANCH   2  17
ATOM     15  N   UNL A   1     -23.525   1.831  27.770  0.00  0.00    -0.272 N 
ATOM     16  O   UNL A   1     -22.656   0.411  29.443  0.00  0.00    -0.270 OA
ATOM     17  C   UNL A   1     -23.335   1.402  29.163  0.00  0.00    +0.250 C 
BRANCH  15  19
ATOM     18  C   UNL A   1     -20.854   1.398  27.613  0.00  0.00    +0.023 C 
ATOM     19  C   UNL A   1     -22.150   1.949  27.087  0.00  0.00    +0.094 C 
ENDBRANCH  15  19
BRANCH  15  20
ATOM     20  C   UNL A   1     -24.709   1.439  27.085  0.00  0.00    +0.123 C 
BRANCH  20  21
ATOM     21  C   UNL A   1     -25.688   1.614  26.461  0.00  0.00    +0.036 C 
ATOM     22  C   UNL A   1     -26.250   2.920  26.395  0.00  0.00    +0.074 C 
ATOM     23  C   UNL A   1     -27.438   3.091  25.645  0.00  0.00    +0.106 C 
ATOM     24  N   UNL A   1     -28.075   2.089  25.003  0.00  0.00    -0.208 NA
ATOM     25  C   UNL A   1     -27.543   0.849  25.079  0.00  0.00    +0.253 C 
ATOM     26  C   UNL A   1     -26.354   0.576  25.777  0.00  0.00    +0.191 C 
ATOM     27  F   UNL A   1     -25.860  -0.681  25.795  0.00  0.00    -0.200 F 
BRANCH  22  28
ATOM     28  C   UNL A   1     -25.642   4.093  27.123  0.00  0.00    +0.266 C 
ATOM     29  N   UNL A   1     -25.614   5.252  26.449  0.00  0.00    -0.200 NA
ATOM     30  C   UNL A   1     -25.026   6.479  26.963  0.00  0.00    +0.139 C 
ATOM     31  O   UNL A   1     -25.143   3.966  28.243  0.00  0.00    -0.268 OA
ENDBRANCH  22  28
BRANCH  25  32
ATOM     32  O   UNL A   1     -28.193  -0.208  24.477  0.00  0.00    -0.456 OA
BRANCH  32  33
ATOM     33  C   UNL A   1     -29.460   0.005  23.866  0.00  0.00    +0.243 C 
BRANCH  33  34
ATOM     34  C   UNL A   1     -30.065  -1.377  23.573  0.00  0.00    +0.229 C 
ATOM     35  O   UNL A   1     -30.729  -1.878  24.721  0.00  0.00    -0.216 OA
ENDBRANCH  33  34
ENDBRANCH  32  33
ENDBRANCH  25  32
ENDBRANCH  20  21
ENDBRANCH  15  20
ENDBRANCH   2  17
BRANCH   1  36
ATOM     36  N   UNL A   1     -25.482   3.289  31.920  0.00  0.00    -0.220 NA
BRANCH  36  39
ATOM     37  O   UNL A   1     -25.465   5.475  30.248  0.00  0.00    -0.089 OA
ATOM     38  N   UNL A   1     -26.652   5.126  30.794  0.00  0.00    +0.003 NA
ATOM     39  C   UNL A   1     -26.429   4.345  32.089  0.00  0.00    +0.236 C 
ATOM     40  C   UNL A   1     -25.374   5.564  33.667  0.00  0.00    +0.175 C 
ATOM     41  O   UNL A   1     -27.537   6.274  31.175  0.00  0.00    -0.252 OA
ATOM     42  O   UNL A   1     -26.101   5.087  34.339  0.00  0.00    -0.347 OA
ATOM     43  C   UNL A   1     -26.421   5.363  33.328  0.00  0.00    +0.186 C 
ATOM     44  C   UNL A   1     -27.207   6.549  32.532  0.00  0.00    +0.202 C 
ENDBRANCH  36  39
ENDBRANCH   1  36
TORSDOF 13
