MODEL 953
MODEL 1
REMARK VINA RESULT:    -5.007      0.000      0.000
REMARK INTER + INTRA:          -5.334
REMARK INTER:                  -5.300
REMARK INTRA:                  -0.034
REMARK UNBOUND:                -0.034
REMARK  Name = No_953-gen_results/8p0m/2024-11-27-11-27-31/
REMARK  1 active torsions:
REMARK  status: ('A' for Active; 'I' for Inactive)
REMARK    1  A    between atoms: C_2  and  C_7
REMARK                            x       y       z     vdW  Elec       q    Type
REMARK                         _______ _______ _______ _____ _____    ______ ____
ROOT
ATOM      1  C   UNL A   1     -28.865 -10.506  32.820  0.00  0.00    +0.007 A 
ATOM      2  C   UNL A   1     -28.149 -11.238  32.573  0.00  0.00    +0.080 A 
ATOM      3  C   UNL A   1     -29.746 -10.045  31.680  0.00  0.00    +0.000 A 
ATOM      4  C   UNL A   1     -29.661 -10.701  30.434  0.00  0.00    +0.000 A 
ATOM      5  C   UNL A   1     -27.880 -12.089  31.392  0.00  0.00    +0.007 A 
ATOM      6  C   UNL A   1     -28.676 -11.700  30.324  0.00  0.00    +0.000 A 
ENDROOT
BRANCH   2   7
ATOM      7  C   UNL A   1     -27.209 -11.755  33.768  0.00  0.00    +0.388 C 
ATOM      8  O   UNL A   1     -26.821 -12.762  33.897  0.00  0.00    -0.241 OA
ATOM      9  O   UNL A   1     -27.044 -10.830  34.709  0.00  0.00    -0.241 OA
ENDBRANCH   2   7
TORSDOF 1
ENDMDL
ENDMDL
