REMARK  Name = outputs/IAG933/test6/raw/output_954_IAG933_linker_design_.xyz
REMARK  11 active torsions:
REMARK  status: ('A' for Active; 'I' for Inactive)
REMARK    1  A    between atoms: C_1  and  C_2
REMARK    2  A    between atoms: C_1  and  C_8
REMARK    3  A    between atoms: C_1  and  N_41
REMARK    4  A    between atoms: C_13  and  C_33
REMARK    5  A    between atoms: C_14  and  C_15
REMARK    6  A    between atoms: C_21  and  O_22
REMARK    7  A    between atoms: O_22  and  C_23
REMARK    8  A    between atoms: C_23  and  C_24
REMARK    9  A    between atoms: N_36  and  C_39
REMARK   10  A    between atoms: C_39  and  N_41
REMARK   11  A    between atoms: N_41  and  C_42
REMARK                            x       y       z     vdW  Elec       q    Type
REMARK                         _______ _______ _______ _____ _____    ______ ____
ROOT
ATOM      1  C   UNL A   1     -22.349   1.516  26.897  0.00  0.00    +0.333 C 
ATOM      2  C   UNL A   1     -23.603   1.400  27.380  0.00  0.00    +0.164 C 
ATOM      3  O   UNL A   1     -21.337   0.922  27.667  0.00  0.00    -0.429 OA
ATOM      4  C   UNL A   1     -24.721   1.240  27.459  0.00  0.00    +0.063 C 
ATOM      5  O   UNL A   1     -22.157   2.052  25.772  0.00  0.00    -0.249 OA
ATOM      6  N   UNL A   1     -23.493   0.423  28.541  0.00  0.00    -0.215 NA
ATOM      7  C   UNL A   1     -22.101   0.069  28.732  0.00  0.00    +0.289 C 
ATOM      8  C   UNL A   1     -24.965   0.667  28.399  0.00  0.00    +0.125 C 
ENDROOT
BRANCH   4   9
ATOM      9  C   UNL A   1     -25.688   1.614  26.461  0.00  0.00    +0.075 C 
ATOM     10  C   UNL A   1     -26.250   2.920  26.395  0.00  0.00    +0.055 C 
ATOM     11  C   UNL A   1     -27.438   3.091  25.645  0.00  0.00    +0.102 C 
ATOM     12  N   UNL A   1     -28.075   2.089  25.003  0.00  0.00    -0.212 NA
ATOM     13  C   UNL A   1     -27.543   0.849  25.079  0.00  0.00    +0.234 C 
ATOM     14  C   UNL A   1     -26.354   0.576  25.777  0.00  0.00    +0.240 C 
ATOM     15  F   UNL A   1     -25.860  -0.681  25.795  0.00  0.00    -0.227 F 
BRANCH  10  16
ATOM     16  C   UNL A   1     -25.642   4.093  27.123  0.00  0.00    +0.262 C 
ATOM     17  N   UNL A   1     -25.614   5.252  26.449  0.00  0.00    -0.200 NA
ATOM     18  C   UNL A   1     -25.026   6.479  26.963  0.00  0.00    +0.139 C 
ATOM     19  O   UNL A   1     -25.143   3.966  28.243  0.00  0.00    -0.269 OA
ENDBRANCH  10  16
BRANCH  13  20
ATOM     20  O   UNL A   1     -28.193  -0.208  24.477  0.00  0.00    -0.459 OA
BRANCH  20  21
ATOM     21  C   UNL A   1     -29.460   0.005  23.866  0.00  0.00    +0.242 C 
BRANCH  21  22
ATOM     22  C   UNL A   1     -30.065  -1.377  23.573  0.00  0.00    +0.229 C 
ATOM     23  O   UNL A   1     -30.729  -1.878  24.721  0.00  0.00    -0.216 OA
ENDBRANCH  21  22
ENDBRANCH  20  21
ENDBRANCH  13  20
ENDBRANCH   4   9
BRANCH   8  24
ATOM     24  N   UNL A   1     -25.718  -0.159  29.136  0.00  0.00    -0.243 NA
BRANCH  24  25
ATOM     25  C   UNL A   1     -24.855  -1.012  30.143  0.00  0.00    +0.098 C 
BRANCH  25  26
ATOM     26  C   UNL A   1     -24.973  -2.505  29.788  0.00  0.00    -0.006 C 
ATOM     27  C   UNL A   1     -23.906  -3.173  29.146  0.00  0.00    -0.003 C 
ATOM     28  C   UNL A   1     -23.989  -4.549  28.853  0.00  0.00    -0.000 C 
ATOM     29  C   UNL A   1     -25.137  -5.280  29.205  0.00  0.00    -0.000 C 
ATOM     30  C   UNL A   1     -26.232  -4.611  29.784  0.00  0.00    -0.000 C 
ATOM     31  C   UNL A   1     -26.155  -3.232  30.065  0.00  0.00    -0.003 C 
ENDBRANCH  25  26
BRANCH  25  32
ATOM     32  C   UNL A   1     -25.387  -0.679  31.571  0.00  0.00    +0.092 C 
ATOM     33  C   UNL A   1     -25.189   0.773  32.028  0.00  0.00    +0.021 C 
ATOM     34  C   UNL A   1     -25.336   0.684  33.544  0.00  0.00    +0.020 C 
ATOM     35  C   UNL A   1     -24.829  -0.715  33.905  0.00  0.00    +0.089 C 
ATOM     36  N   UNL A   1     -24.758  -1.481  32.646  0.00  0.00    -0.218 NA
ENDBRANCH  25  32
ENDBRANCH  24  25
BRANCH  24  37
ATOM     37  C   UNL A   1     -27.186   0.329  29.120  0.00  0.00    +0.151 C 
BRANCH  37  40
ATOM     38  C   UNL A   1     -26.383   2.934  30.461  0.00  0.00    +0.106 C 
ATOM     39  C   UNL A   1     -28.391   2.273  29.907  0.00  0.00    +0.106 C 
ATOM     40  N   UNL A   1     -27.122   1.803  29.607  0.00  0.00    -0.254 NA
ATOM     41  C   UNL A   1     -28.721   3.663  29.516  0.00  0.00    +0.160 C 
ATOM     42  O   UNL A   1     -27.992   4.646  30.333  0.00  0.00    -0.351 OA
ATOM     43  C   UNL A   1     -27.132   3.970  31.312  0.00  0.00    +0.160 C 
ENDBRANCH  37  40
ENDBRANCH  24  37
ENDBRANCH   8  24
TORSDOF 11
