REMARK  Name = outputs/IAG933/test6/raw/output_9541_IAG933_linker_design_.xyz
REMARK  9 active torsions:
REMARK  status: ('A' for Active; 'I' for Inactive)
REMARK    1  A    between atoms: C_1  and  C_2
REMARK    2  A    between atoms: C_1  and  C_8
REMARK    3  A    between atoms: C_1  and  C_32
REMARK    4  A    between atoms: C_14  and  C_15
REMARK    5  A    between atoms: C_21  and  O_22
REMARK    6  A    between atoms: O_22  and  C_23
REMARK    7  A    between atoms: C_23  and  C_24
REMARK    8  A    between atoms: C_32  and  N_41
REMARK    9  A    between atoms: C_38  and  N_41
REMARK                            x       y       z     vdW  Elec       q    Type
REMARK                         _______ _______ _______ _____ _____    ______ ____
ROOT
ATOM      1  C   UNL A   1     -25.688   1.614  26.461  0.00  0.00    +0.059 C 
ATOM      2  C   UNL A   1     -26.250   2.920  26.395  0.00  0.00    +0.080 C 
ATOM      3  C   UNL A   1     -27.438   3.091  25.645  0.00  0.00    +0.107 C 
ATOM      4  N   UNL A   1     -28.075   2.089  25.003  0.00  0.00    -0.211 NA
ATOM      5  C   UNL A   1     -27.543   0.849  25.079  0.00  0.00    +0.239 C 
ATOM      6  C   UNL A   1     -26.354   0.576  25.777  0.00  0.00    +0.265 C 
ATOM      7  F   UNL A   1     -25.860  -0.681  25.795  0.00  0.00    -0.222 F 
ATOM      8  C   UNL A   1     -23.569   1.224  27.450  0.00  0.00    +0.075 C 
ATOM      9  C   UNL A   1     -24.546   1.216  27.048  0.00  0.00    -0.102 C 
ATOM     10  C   UNL A   1     -24.702  -0.118  29.102  0.00  0.00    +0.060 C 
ATOM     11 CL   UNL A   1     -22.039   2.465  25.633  0.00  0.00    -0.063 Cl
ATOM     12  C   UNL A   1     -23.577   0.513  28.641  0.00  0.00    +0.095 C 
ATOM     13  C   UNL A   1     -22.336   1.565  27.087  0.00  0.00    +0.279 C 
ATOM     14  O   UNL A   1     -21.447   1.230  28.095  0.00  0.00    -0.428 OA
ATOM     15  O   UNL A   1     -21.839  -0.014  30.076  0.00  0.00    -0.245 OA
ATOM     16  C   UNL A   1     -22.243   0.542  29.011  0.00  0.00    +0.344 C 
ENDROOT
BRANCH   2  17
ATOM     17  C   UNL A   1     -25.642   4.093  27.123  0.00  0.00    +0.267 C 
ATOM     18  N   UNL A   1     -25.614   5.252  26.449  0.00  0.00    -0.200 NA
ATOM     19  C   UNL A   1     -25.026   6.479  26.963  0.00  0.00    +0.139 C 
ATOM     20  O   UNL A   1     -25.143   3.966  28.243  0.00  0.00    -0.268 OA
ENDBRANCH   2  17
BRANCH  10  21
ATOM     21  C   UNL A   1     -24.855  -1.012  30.143  0.00  0.00    +0.076 C 
BRANCH  21  22
ATOM     22  C   UNL A   1     -24.973  -2.505  29.788  0.00  0.00    -0.016 C 
ATOM     23  C   UNL A   1     -23.906  -3.173  29.146  0.00  0.00    -0.004 C 
ATOM     24  C   UNL A   1     -23.989  -4.549  28.853  0.00  0.00    -0.000 C 
ATOM     25  C   UNL A   1     -25.137  -5.280  29.205  0.00  0.00    -0.000 C 
ATOM     26  C   UNL A   1     -26.232  -4.611  29.784  0.00  0.00    -0.000 C 
ATOM     27  C   UNL A   1     -26.155  -3.232  30.065  0.00  0.00    -0.004 C 
ENDBRANCH  21  22
BRANCH  21  28
ATOM     28  C   UNL A   1     -25.387  -0.679  31.571  0.00  0.00    +0.082 C 
ATOM     29  C   UNL A   1     -25.189   0.773  32.028  0.00  0.00    +0.020 C 
ATOM     30  C   UNL A   1     -25.336   0.684  33.544  0.00  0.00    +0.020 C 
ATOM     31  C   UNL A   1     -24.829  -0.715  33.905  0.00  0.00    +0.089 C 
ATOM     32  N   UNL A   1     -24.758  -1.481  32.646  0.00  0.00    -0.219 NA
ENDBRANCH  21  28
ENDBRANCH  10  21
BRANCH   5  33
ATOM     33  O   UNL A   1     -28.193  -0.208  24.477  0.00  0.00    -0.458 OA
BRANCH  33  34
ATOM     34  C   UNL A   1     -29.460   0.005  23.866  0.00  0.00    +0.242 C 
BRANCH  34  35
ATOM     35  C   UNL A   1     -30.065  -1.377  23.573  0.00  0.00    +0.229 C 
ATOM     36  O   UNL A   1     -30.729  -1.878  24.721  0.00  0.00    -0.216 OA
ENDBRANCH  34  35
ENDBRANCH  33  34
ENDBRANCH   5  33
BRANCH  10  37
ATOM     37  N   UNL A   1     -25.898   0.103  28.460  0.00  0.00    -0.216 NA
BRANCH  37  41
ATOM     38  C   UNL A   1     -29.476   0.939  28.575  0.00  0.00    +0.001 C 
ATOM     39  C   UNL A   1     -28.277   2.555  29.959  0.00  0.00    +0.001 C 
ATOM     40  C   UNL A   1     -27.070   1.852  29.711  0.00  0.00    +0.017 C 
ATOM     41  C   UNL A   1     -27.120   0.680  28.881  0.00  0.00    +0.070 C 
ATOM     42  C   UNL A   1     -29.457   2.104  29.366  0.00  0.00    +0.000 C 
ATOM     43  C   UNL A   1     -28.296   0.210  28.354  0.00  0.00    +0.017 C 
ENDBRANCH  37  41
ENDBRANCH  10  37
TORSDOF 9
