REMARK  Name = outputs/IAG933/test6/raw/output_9543_IAG933_linker_design_.xyz
REMARK  13 active torsions:
REMARK  status: ('A' for Active; 'I' for Inactive)
REMARK    1  A    between atoms: C_1  and  C_2
REMARK    2  A    between atoms: C_1  and  C_8
REMARK    3  A    between atoms: C_1  and  N_35
REMARK    4  A    between atoms: C_13  and  C_45
REMARK    5  A    between atoms: C_14  and  C_15
REMARK    6  A    between atoms: C_15  and  O_18
REMARK    7  A    between atoms: O_18  and  C_44
REMARK    8  A    between atoms: C_21  and  O_22
REMARK    9  A    between atoms: O_22  and  C_23
REMARK   10  A    between atoms: C_23  and  C_24
REMARK   11  A    between atoms: O_29  and  C_39
REMARK   12  A    between atoms: O_29  and  C_44
REMARK   13  A    between atoms: O_40  and  C_41
REMARK                            x       y       z     vdW  Elec       q    Type
REMARK                         _______ _______ _______ _____ _____    ______ ____
ROOT
ATOM      1  C   UNL A   1     -25.688   1.614  26.461  0.00  0.00    +0.046 C 
ATOM      2  C   UNL A   1     -26.250   2.920  26.395  0.00  0.00    +0.075 C 
ATOM      3  C   UNL A   1     -27.438   3.091  25.645  0.00  0.00    +0.107 C 
ATOM      4  N   UNL A   1     -28.075   2.089  25.003  0.00  0.00    -0.208 NA
ATOM      5  C   UNL A   1     -27.543   0.849  25.079  0.00  0.00    +0.253 C 
ATOM      6  C   UNL A   1     -26.354   0.576  25.777  0.00  0.00    +0.193 C 
ATOM      7  F   UNL A   1     -25.860  -0.681  25.795  0.00  0.00    -0.199 F 
ENDROOT
BRANCH   1  16
ATOM      8  N   UNL A   1     -23.377   0.327  29.042  0.00  0.00    -0.030 NA
ATOM      9 CL   UNL A   1     -23.027   2.586  25.271  0.00  0.00    -0.080 Cl
ATOM     10  C   UNL A   1     -24.491   0.493  28.346  0.00  0.00    +0.362 C 
ATOM     11  N   UNL A   1     -25.432  -0.238  29.018  0.00  0.00    -0.029 NA
ATOM     12  F   UNL A   1     -20.959   2.014  27.186  0.00  0.00    -0.199 F 
ATOM     13  C   UNL A   1     -22.219   0.892  28.750  0.00  0.00    +0.266 C 
ATOM     14  C   UNL A   1     -22.190   1.568  27.599  0.00  0.00    +0.197 C 
ATOM     15  C   UNL A   1     -23.296   1.772  26.817  0.00  0.00    +0.096 C 
ATOM     16  C   UNL A   1     -24.533   1.277  27.196  0.00  0.00    +0.101 C 
BRANCH  11  17
ATOM     17  C   UNL A   1     -24.855  -1.012  30.143  0.00  0.00    +0.243 C 
BRANCH  17  18
ATOM     18  C   UNL A   1     -24.973  -2.505  29.788  0.00  0.00    +0.025 C 
ATOM     19  C   UNL A   1     -23.906  -3.173  29.146  0.00  0.00    -0.000 C 
ATOM     20  C   UNL A   1     -23.989  -4.549  28.853  0.00  0.00    -0.000 C 
ATOM     21  C   UNL A   1     -25.137  -5.280  29.205  0.00  0.00    -0.000 C 
ATOM     22  C   UNL A   1     -26.232  -4.611  29.784  0.00  0.00    -0.000 C 
ATOM     23  C   UNL A   1     -26.155  -3.232  30.065  0.00  0.00    -0.000 C 
ENDBRANCH  17  18
BRANCH  17  24
ATOM     24  C   UNL A   1     -25.387  -0.679  31.571  0.00  0.00    +0.124 C 
ATOM     25  C   UNL A   1     -25.189   0.773  32.028  0.00  0.00    +0.024 C 
ATOM     26  C   UNL A   1     -25.336   0.684  33.544  0.00  0.00    +0.020 C 
ATOM     27  C   UNL A   1     -24.829  -0.715  33.905  0.00  0.00    +0.089 C 
ATOM     28  N   UNL A   1     -24.758  -1.481  32.646  0.00  0.00    -0.215 NA
ENDBRANCH  17  24
ENDBRANCH  11  17
ENDBRANCH   1  16
BRANCH   2  29
ATOM     29  C   UNL A   1     -25.642   4.093  27.123  0.00  0.00    +0.225 C 
ATOM     30  N   UNL A   1     -25.614   5.252  26.449  0.00  0.00    -0.236 NA
ATOM     31  C   UNL A   1     -25.026   6.479  26.963  0.00  0.00    +0.155 C 
BRANCH  29  32
ATOM     32  O   UNL A   1     -25.143   3.966  28.243  0.00  0.00    -0.421 OA
BRANCH  32  33
ATOM     33  C   UNL A   1     -25.337   4.827  29.396  0.00  0.00    +0.432 C 
BRANCH  33  34
ATOM     34  O   UNL A   1     -25.366   4.691  30.745  0.00  0.00    -0.406 OA
BRANCH  34  38
ATOM     35  C   UNL A   1     -28.832   3.813  30.743  0.00  0.00    +0.118 C 
ATOM     36  C   UNL A   1     -28.119   2.677  31.059  0.00  0.00    +0.217 C 
ATOM     37  O   UNL A   1     -26.799   2.928  30.936  0.00  0.00    -0.446 OA
ATOM     38  C   UNL A   1     -26.588   4.241  30.896  0.00  0.00    +0.326 C 
ATOM     39  C   UNL A   1     -27.826   4.829  30.869  0.00  0.00    +0.191 C 
BRANCH  39  41
ATOM     40  C   UNL A   1     -29.446   6.525  30.932  0.00  0.00    +0.252 C 
ATOM     41  O   UNL A   1     -28.121   6.121  30.756  0.00  0.00    -0.469 OA
ENDBRANCH  39  41
ENDBRANCH  34  38
ENDBRANCH  33  34
ENDBRANCH  32  33
ENDBRANCH  29  32
ENDBRANCH   2  29
BRANCH   5  42
ATOM     42  O   UNL A   1     -28.193  -0.208  24.477  0.00  0.00    -0.456 OA
BRANCH  42  43
ATOM     43  C   UNL A   1     -29.460   0.005  23.866  0.00  0.00    +0.243 C 
BRANCH  43  44
ATOM     44  C   UNL A   1     -30.065  -1.377  23.573  0.00  0.00    +0.229 C 
ATOM     45  O   UNL A   1     -30.729  -1.878  24.721  0.00  0.00    -0.216 OA
ENDBRANCH  43  44
ENDBRANCH  42  43
ENDBRANCH   5  42
TORSDOF 13
