REMARK  Name = outputs/IAG933/test6/raw/output_9547_IAG933_linker_design_.xyz
REMARK  10 active torsions:
REMARK  status: ('A' for Active; 'I' for Inactive)
REMARK    1  A    between atoms: C_1  and  C_2
REMARK    2  A    between atoms: C_1  and  C_8
REMARK    3  A    between atoms: C_1  and  C_37
REMARK    4  A    between atoms: C_13  and  N_33
REMARK    5  A    between atoms: C_14  and  C_15
REMARK    6  A    between atoms: C_21  and  O_22
REMARK    7  A    between atoms: O_22  and  C_23
REMARK    8  A    between atoms: C_23  and  C_24
REMARK    9  A    between atoms: C_28  and  C_41
REMARK   10  A    between atoms: N_29  and  C_30
REMARK                            x       y       z     vdW  Elec       q    Type
REMARK                         _______ _______ _______ _____ _____    ______ ____
ROOT
ATOM      1  C   UNL A   1     -25.016   1.024  28.837  0.00  0.00    +0.214 C 
ATOM      2  O   UNL A   1     -26.336   0.535  28.937  0.00  0.00    -0.200 OA
ATOM      3  N   UNL A   1     -24.631   1.189  27.280  0.00  0.00    -0.276 N 
ATOM      4  C   UNL A   1     -23.238   1.628  27.323  0.00  0.00    +0.133 C 
ATOM      5  C   UNL A   1     -24.098  -0.210  29.028  0.00  0.00    +0.114 C 
ATOM      6  O   UNL A   1     -21.647   0.333  28.716  0.00  0.00    -0.294 OA
ATOM      7  C   UNL A   1     -22.794   0.531  28.483  0.00  0.00    +0.173 C 
ATOM      8  C   UNL A   1     -21.929   1.861  26.432  0.00  0.00    +0.030 C 
ENDROOT
BRANCH   3   9
ATOM      9  C   UNL A   1     -25.688   1.614  26.461  0.00  0.00    +0.088 C 
ATOM     10  C   UNL A   1     -26.250   2.920  26.395  0.00  0.00    +0.090 C 
ATOM     11  C   UNL A   1     -27.438   3.091  25.645  0.00  0.00    +0.108 C 
ATOM     12  N   UNL A   1     -28.075   2.089  25.003  0.00  0.00    -0.208 NA
ATOM     13  C   UNL A   1     -27.543   0.849  25.079  0.00  0.00    +0.255 C 
ATOM     14  C   UNL A   1     -26.354   0.576  25.777  0.00  0.00    +0.206 C 
ATOM     15  F   UNL A   1     -25.860  -0.681  25.795  0.00  0.00    -0.198 F 
BRANCH  10  16
ATOM     16  C   UNL A   1     -25.642   4.093  27.123  0.00  0.00    +0.268 C 
ATOM     17  N   UNL A   1     -25.614   5.252  26.449  0.00  0.00    -0.200 NA
ATOM     18  C   UNL A   1     -25.026   6.479  26.963  0.00  0.00    +0.139 C 
ATOM     19  O   UNL A   1     -25.143   3.966  28.243  0.00  0.00    -0.268 OA
ENDBRANCH  10  16
BRANCH  13  20
ATOM     20  O   UNL A   1     -28.193  -0.208  24.477  0.00  0.00    -0.456 OA
BRANCH  20  21
ATOM     21  C   UNL A   1     -29.460   0.005  23.866  0.00  0.00    +0.243 C 
BRANCH  21  22
ATOM     22  C   UNL A   1     -30.065  -1.377  23.573  0.00  0.00    +0.229 C 
ATOM     23  O   UNL A   1     -30.729  -1.878  24.721  0.00  0.00    -0.216 OA
ENDBRANCH  21  22
ENDBRANCH  20  21
ENDBRANCH  13  20
ENDBRANCH   3   9
BRANCH   1  25
ATOM     24  C   UNL A   1     -25.705   2.939  30.691  0.00  0.00    +0.068 C 
ATOM     25  C   UNL A   1     -24.845   2.118  29.977  0.00  0.00    +0.039 C 
BRANCH  24  26
ATOM     26  N   UNL A   1     -25.572   4.003  31.584  0.00  0.00    -0.250 N 
ATOM     27  C   UNL A   1     -26.578   4.731  31.898  0.00  0.00    +0.253 C 
ATOM     28  O   UNL A   1     -27.705   4.956  31.009  0.00  0.00    -0.270 OA
ATOM     29  C   UNL A   1     -25.154   4.896  33.621  0.00  0.00    +0.000 C 
ATOM     30  C   UNL A   1     -26.400   5.229  33.114  0.00  0.00    +0.055 C 
ATOM     31  C   UNL A   1     -24.567   4.119  32.649  0.00  0.00    +0.125 C 
ENDBRANCH  24  26
ENDBRANCH   1  25
BRANCH   5  32
ATOM     32  C   UNL A   1     -24.855  -1.012  30.143  0.00  0.00    +0.050 C 
BRANCH  32  33
ATOM     33  C   UNL A   1     -24.973  -2.505  29.788  0.00  0.00    -0.021 C 
ATOM     34  C   UNL A   1     -23.906  -3.173  29.146  0.00  0.00    -0.004 C 
ATOM     35  C   UNL A   1     -23.989  -4.549  28.853  0.00  0.00    -0.000 C 
ATOM     36  C   UNL A   1     -25.137  -5.280  29.205  0.00  0.00    -0.000 C 
ATOM     37  C   UNL A   1     -26.232  -4.611  29.784  0.00  0.00    -0.000 C 
ATOM     38  C   UNL A   1     -26.155  -3.232  30.065  0.00  0.00    -0.004 C 
ENDBRANCH  32  33
BRANCH  32  39
ATOM     39  C   UNL A   1     -25.387  -0.679  31.571  0.00  0.00    +0.077 C 
ATOM     40  C   UNL A   1     -25.189   0.773  32.028  0.00  0.00    +0.019 C 
ATOM     41  C   UNL A   1     -25.336   0.684  33.544  0.00  0.00    +0.020 C 
ATOM     42  C   UNL A   1     -24.829  -0.715  33.905  0.00  0.00    +0.089 C 
ATOM     43  N   UNL A   1     -24.758  -1.481  32.646  0.00  0.00    -0.219 NA
ENDBRANCH  32  39
ENDBRANCH   5  32
TORSDOF 10
