MODEL 954
MODEL 1
REMARK VINA RESULT:    -7.451      0.000      0.000
REMARK INTER + INTRA:         -11.050
REMARK INTER:                 -10.064
REMARK INTRA:                  -0.986
REMARK UNBOUND:                -0.986
REMARK  Name = No_954-gen_results/8p0m/2024-11-27-11-27-31/
REMARK  6 active torsions:
REMARK  status: ('A' for Active; 'I' for Inactive)
REMARK    1  A    between atoms: C_1  and  C_2
REMARK    2  A    between atoms: C_5  and  C_9
REMARK    3  A    between atoms: N_8  and  C_13
REMARK    4  A    between atoms: C_16  and  C_18
REMARK    5  A    between atoms: C_18  and  C_19
REMARK    6  A    between atoms: C_20  and  C_21
REMARK                            x       y       z     vdW  Elec       q    Type
REMARK                         _______ _______ _______ _____ _____    ______ ____
ROOT
ATOM      1  C   UNL A   1     -25.742   1.591  26.064  0.00  0.00    +0.139 C 
ATOM      2  C   UNL A   1     -24.737   2.657  25.655  0.00  0.00    -0.001 C 
ATOM      3  C   UNL A   1     -23.378   2.680  26.150  0.00  0.00    -0.007 C 
ATOM      4  C   UNL A   1     -23.112   1.590  26.600  0.00  0.00    -0.020 C 
ATOM      5  C   UNL A   1     -24.760   0.596  26.701  0.00  0.00    -0.004 C 
ENDROOT
BRANCH   1   7
ATOM      6  C   UNL A   1     -27.158   0.465  24.504  0.00  0.00    +0.265 C 
ATOM      7  N   UNL A   1     -26.698   1.309  25.605  0.00  0.00    -0.194 NA
ATOM      8  O   UNL A   1     -26.508  -0.506  24.403  0.00  0.00    -0.268 OA
BRANCH   6   9
ATOM      9  C   UNL A   1     -28.256   0.662  24.038  0.00  0.00    +0.055 A 
ATOM     10  C   UNL A   1     -29.201  -0.301  23.890  0.00  0.00    +0.005 A 
ATOM     11  C   UNL A   1     -30.550  -0.076  23.324  0.00  0.00    +0.007 A 
ATOM     12  C   UNL A   1     -30.872   1.264  22.928  0.00  0.00    +0.080 A 
ATOM     13  C   UNL A   1     -29.889   2.250  23.164  0.00  0.00    +0.007 A 
ATOM     14  C   UNL A   1     -28.657   1.967  23.695  0.00  0.00    +0.005 A 
BRANCH  12  15
ATOM     15  C   UNL A   1     -32.148   1.612  22.378  0.00  0.00    +0.388 C 
ATOM     16  O   UNL A   1     -33.060   2.047  22.965  0.00  0.00    -0.241 OA
ATOM     17  O   UNL A   1     -32.073   1.875  21.016  0.00  0.00    -0.241 OA
ENDBRANCH  12  15
ENDBRANCH   6   9
ENDBRANCH   1   7
BRANCH   4  18
ATOM     18  C   UNL A   1     -22.628   1.394  28.065  0.00  0.00    +0.052 C 
BRANCH  18  19
ATOM     19  C   UNL A   1     -21.334   0.786  28.170  0.00  0.00    -0.021 C 
ATOM     20  C   UNL A   1     -21.264  -0.392  28.786  0.00  0.00    -0.004 C 
BRANCH  20  21
ATOM     21  C   UNL A   1     -22.381  -0.910  29.435  0.00  0.00    -0.000 A 
ATOM     22  C   UNL A   1     -23.163  -1.870  28.884  0.00  0.00    -0.000 A 
ATOM     23  C   UNL A   1     -24.386  -2.308  29.487  0.00  0.00    -0.000 A 
ATOM     24  C   UNL A   1     -24.700  -1.864  30.799  0.00  0.00    -0.000 A 
ATOM     25  C   UNL A   1     -23.825  -0.998  31.439  0.00  0.00    -0.000 A 
ATOM     26  C   UNL A   1     -22.729  -0.480  30.755  0.00  0.00    -0.000 A 
ENDBRANCH  20  21
ENDBRANCH  18  19
ENDBRANCH   4  18
TORSDOF 6
ENDMDL
ENDMDL
