REMARK  Name = No_955-gen_results/8p0m/2024-11-27-11-27-31/
REMARK  3 active torsions:
REMARK  status: ('A' for Active; 'I' for Inactive)
REMARK    1  A    between atoms: C_2  and  C_5
REMARK    2  A    between atoms: C_3  and  C_4
REMARK    3  A    between atoms: C_12  and  C_17
REMARK                            x       y       z     vdW  Elec       q    Type
REMARK                         _______ _______ _______ _____ _____    ______ ____
ROOT
ATOM      1  C   UNL A   1     -28.016  -0.814  28.878  0.00  0.00    +0.004 A 
ATOM      2  C   UNL A   1     -28.469  -0.785  29.829  0.00  0.00    +0.054 A 
ATOM      3  C   UNL A   1     -27.136   0.236  28.535  0.00  0.00    -0.003 A 
ATOM      4  C   UNL A   1     -28.230   0.301  30.904  0.00  0.00    +0.004 A 
ATOM      5  C   UNL A   1     -27.440   1.332  30.641  0.00  0.00    +0.000 A 
ATOM      6  C   UNL A   1     -26.785   1.332  29.469  0.00  0.00    -0.000 A 
ENDROOT
BRANCH   2   7
ATOM      7  C   UNL A   1     -29.381  -1.913  30.355  0.00  0.00    +0.249 C 
ATOM      8  N   UNL A   1     -30.412  -1.994  30.140  0.00  0.00    -0.276 N 
ATOM      9  O   UNL A   1     -28.715  -2.921  31.018  0.00  0.00    -0.270 OA
ATOM     10  C   UNL A   1     -31.228  -0.982  29.569  0.00  0.00    +0.094 C 
ATOM     11  C   UNL A   1     -32.498  -1.347  29.108  0.00  0.00    +0.022 C 
ATOM     12  C   UNL A   1     -32.801  -2.517  29.107  0.00  0.00    +0.004 C 
ATOM     13  C   UNL A   1     -31.163  -3.229  29.997  0.00  0.00    +0.094 C 
ATOM     14  C   UNL A   1     -32.277  -3.540  29.532  0.00  0.00    +0.022 C 
ENDBRANCH   2   7
BRANCH   3  15
ATOM     15  C   UNL A   1     -26.335   0.290  27.284  0.00  0.00    -0.010 C 
ATOM     16  C   UNL A   1     -26.408  -0.221  26.360  0.00  0.00    -0.004 C 
ATOM     17  C   UNL A   1     -25.472  -0.005  25.169  0.00  0.00    -0.004 C 
ATOM     18  C   UNL A   1     -24.451   0.793  25.507  0.00  0.00    -0.014 C 
ATOM     19  C   UNL A   1     -24.991   1.163  27.155  0.00  0.00    +0.139 C 
BRANCH  19  20
ATOM     20  C   UNL A   1     -24.268   2.043  27.895  0.00  0.00    +0.405 C 
ATOM     21  F   UNL A   1     -23.923   1.540  28.972  0.00  0.00    -0.169 F 
ATOM     22  F   UNL A   1     -24.880   3.187  28.067  0.00  0.00    -0.169 F 
ATOM     23  F   UNL A   1     -23.025   2.322  27.320  0.00  0.00    -0.169 F 
ENDBRANCH  19  20
ENDBRANCH   3  15
TORSDOF 3
