REMARK  Name = outputs/IAG933/test6/raw/output_9554_IAG933_linker_design_.xyz
REMARK  11 active torsions:
REMARK  status: ('A' for Active; 'I' for Inactive)
REMARK    1  A    between atoms: C_1  and  C_2
REMARK    2  A    between atoms: C_1  and  C_8
REMARK    3  A    between atoms: C_9  and  C_39
REMARK    4  A    between atoms: C_13  and  C_36
REMARK    5  A    between atoms: C_14  and  C_15
REMARK    6  A    between atoms: C_21  and  O_22
REMARK    7  A    between atoms: O_22  and  C_23
REMARK    8  A    between atoms: C_23  and  C_24
REMARK    9  A    between atoms: N_29  and  C_43
REMARK   10  A    between atoms: C_33  and  C_44
REMARK   11  A    between atoms: C_35  and  O_41
REMARK                            x       y       z     vdW  Elec       q    Type
REMARK                         _______ _______ _______ _____ _____    ______ ____
ROOT
ATOM      1  C   UNL A   1     -21.680   0.756  28.282  0.00  0.00    +0.153 C 
ATOM      2  F   UNL A   1     -20.506   1.563  28.103  0.00  0.00    -0.235 F 
ATOM      3  C   UNL A   1     -22.895   1.199  29.127  0.00  0.00    +0.016 C 
ATOM      4  C   UNL A   1     -24.375   1.413  27.110  0.00  0.00    +0.066 C 
ATOM      5  C   UNL A   1     -22.000   0.748  26.949  0.00  0.00    +0.043 C 
ATOM      6  C   UNL A   1     -21.027  -0.515  28.952  0.00  0.00    +0.040 C 
ATOM      7  C   UNL A   1     -24.221   1.411  28.603  0.00  0.00    +0.029 C 
ATOM      8  C   UNL A   1     -23.113   1.242  26.342  0.00  0.00    +0.079 C 
ENDROOT
BRANCH   4   9
ATOM      9  C   UNL A   1     -25.688   1.614  26.461  0.00  0.00    +0.021 C 
ATOM     10  C   UNL A   1     -26.250   2.920  26.395  0.00  0.00    +0.073 C 
ATOM     11  C   UNL A   1     -27.438   3.091  25.645  0.00  0.00    +0.106 C 
ATOM     12  N   UNL A   1     -28.075   2.089  25.003  0.00  0.00    -0.208 NA
ATOM     13  C   UNL A   1     -27.543   0.849  25.079  0.00  0.00    +0.253 C 
ATOM     14  C   UNL A   1     -26.354   0.576  25.777  0.00  0.00    +0.190 C 
ATOM     15  F   UNL A   1     -25.860  -0.681  25.795  0.00  0.00    -0.200 F 
BRANCH  10  16
ATOM     16  C   UNL A   1     -25.642   4.093  27.123  0.00  0.00    +0.266 C 
ATOM     17  N   UNL A   1     -25.614   5.252  26.449  0.00  0.00    -0.200 NA
ATOM     18  C   UNL A   1     -25.026   6.479  26.963  0.00  0.00    +0.139 C 
ATOM     19  O   UNL A   1     -25.143   3.966  28.243  0.00  0.00    -0.268 OA
ENDBRANCH  10  16
BRANCH  13  20
ATOM     20  O   UNL A   1     -28.193  -0.208  24.477  0.00  0.00    -0.456 OA
BRANCH  20  21
ATOM     21  C   UNL A   1     -29.460   0.005  23.866  0.00  0.00    +0.243 C 
BRANCH  21  22
ATOM     22  C   UNL A   1     -30.065  -1.377  23.573  0.00  0.00    +0.229 C 
ATOM     23  O   UNL A   1     -30.729  -1.878  24.721  0.00  0.00    -0.216 OA
ENDBRANCH  21  22
ENDBRANCH  20  21
ENDBRANCH  13  20
ENDBRANCH   4   9
BRANCH   7  24
ATOM     24  N   UNL A   1     -25.365   1.532  29.416  0.00  0.00    -0.286 N 
ATOM     25  C   UNL A   1     -26.615   2.349  30.443  0.00  0.00    +0.206 C 
ATOM     26  C   UNL A   1     -25.306   1.728  30.804  0.00  0.00    +0.121 C 
ATOM     27  C   UNL A   1     -27.762   2.299  29.493  0.00  0.00    +0.056 C 
BRANCH  26  29
ATOM     28  C   UNL A   1     -25.387  -0.679  31.571  0.00  0.00    +0.079 C 
ATOM     29  C   UNL A   1     -25.189   0.773  32.028  0.00  0.00    +0.040 C 
ATOM     30  C   UNL A   1     -25.336   0.684  33.544  0.00  0.00    +0.022 C 
ATOM     31  C   UNL A   1     -24.829  -0.715  33.905  0.00  0.00    +0.089 C 
ATOM     32  N   UNL A   1     -24.758  -1.481  32.646  0.00  0.00    -0.219 NA
BRANCH  28  33
ATOM     33  C   UNL A   1     -24.855  -1.012  30.143  0.00  0.00    +0.044 C 
BRANCH  33  34
ATOM     34  C   UNL A   1     -24.973  -2.505  29.788  0.00  0.00    -0.021 C 
ATOM     35  C   UNL A   1     -23.906  -3.173  29.146  0.00  0.00    -0.004 C 
ATOM     36  C   UNL A   1     -23.989  -4.549  28.853  0.00  0.00    -0.000 C 
ATOM     37  C   UNL A   1     -25.137  -5.280  29.205  0.00  0.00    -0.000 C 
ATOM     38  C   UNL A   1     -26.232  -4.611  29.784  0.00  0.00    -0.000 C 
ATOM     39  C   UNL A   1     -26.155  -3.232  30.065  0.00  0.00    -0.004 C 
ENDBRANCH  33  34
ENDBRANCH  28  33
ENDBRANCH  26  29
BRANCH  25  41
ATOM     40  O   UNL A   1     -26.533   3.494  32.525  0.00  0.00    -0.033 OA
ATOM     41  O   UNL A   1     -27.208   2.454  31.994  0.00  0.00    -0.173 OA
ENDBRANCH  25  41
ENDBRANCH   7  24
BRANCH   8  42
ATOM     42  C   UNL A   1     -22.945   1.646  24.928  0.00  0.00    +0.319 C 
ATOM     43  F   UNL A   1     -21.762   2.262  24.816  0.00  0.00    -0.198 F 
ATOM     44  F   UNL A   1     -23.384   0.849  24.184  0.00  0.00    -0.198 F 
ENDBRANCH   8  42
TORSDOF 11
