REMARK  Name = outputs/IAG933/test6/raw/output_9558_IAG933_linker_design_.xyz
REMARK  14 active torsions:
REMARK  status: ('A' for Active; 'I' for Inactive)
REMARK    1  A    between atoms: C_1  and  C_2
REMARK    2  A    between atoms: C_1  and  C_8
REMARK    3  A    between atoms: C_9  and  O_29
REMARK    4  A    between atoms: C_13  and  N_45
REMARK    5  A    between atoms: C_14  and  C_15
REMARK    6  A    between atoms: C_21  and  O_22
REMARK    7  A    between atoms: O_22  and  C_23
REMARK    8  A    between atoms: C_23  and  C_24
REMARK    9  A    between atoms: C_28  and  N_46
REMARK   10  A    between atoms: O_29  and  C_38
REMARK   11  A    between atoms: C_30  and  S_34
REMARK   12  A    between atoms: S_34  and  C_38
REMARK   13  A    between atoms: C_35  and  C_37
REMARK   14  A    between atoms: C_37  and  N_46
REMARK                            x       y       z     vdW  Elec       q    Type
REMARK                         _______ _______ _______ _____ _____    ______ ____
ROOT
ATOM      1  C   UNL A   1     -25.405   4.886  31.914  0.00  0.00    +0.035 C 
ATOM      2  C   UNL A   1     -24.361   6.451  33.414  0.00  0.00    +0.157 C 
ATOM      3  C   UNL A   1     -24.186   4.332  31.548  0.00  0.00    +0.003 C 
ATOM      4  F   UNL A   1     -24.378   7.378  34.432  0.00  0.00    -0.203 F 
ATOM      5  C   UNL A   1     -25.525   5.852  32.945  0.00  0.00    +0.037 C 
ATOM      6  C   UNL A   1     -23.148   6.058  32.792  0.00  0.00    +0.116 C 
ATOM      7  C   UNL A   1     -23.060   5.077  31.787  0.00  0.00    +0.018 C 
ATOM      8  N   UNL A   1     -21.895   6.604  33.119  0.00  0.00    -0.126 NA
ENDROOT
BRANCH   1   9
ATOM      9  S   UNL A   1     -26.597   4.095  30.916  0.00  0.00    -0.007 S 
BRANCH   9  11
ATOM     10  O   UNL A   1     -26.567   1.921  29.488  0.00  0.00    -0.237 OA
ATOM     11  C   UNL A   1     -26.350   2.359  30.560  0.00  0.00    +0.374 C 
BRANCH  11  12
ATOM     12  O   UNL A   1     -26.276   1.564  31.607  0.00  0.00    -0.443 OA
BRANCH  12  14
ATOM     13  C   UNL A   1     -25.387  -0.679  31.571  0.00  0.00    +0.117 C 
ATOM     14  C   UNL A   1     -25.189   0.773  32.028  0.00  0.00    +0.187 C 
ATOM     15  C   UNL A   1     -25.336   0.684  33.544  0.00  0.00    +0.064 C 
ATOM     16  C   UNL A   1     -24.829  -0.715  33.905  0.00  0.00    +0.093 C 
ATOM     17  N   UNL A   1     -24.758  -1.481  32.646  0.00  0.00    -0.215 NA
BRANCH  13  18
ATOM     18  C   UNL A   1     -24.855  -1.012  30.143  0.00  0.00    +0.047 C 
BRANCH  18  19
ATOM     19  C   UNL A   1     -24.973  -2.505  29.788  0.00  0.00    -0.021 C 
ATOM     20  C   UNL A   1     -23.906  -3.173  29.146  0.00  0.00    -0.004 C 
ATOM     21  C   UNL A   1     -23.989  -4.549  28.853  0.00  0.00    -0.000 C 
ATOM     22  C   UNL A   1     -25.137  -5.280  29.205  0.00  0.00    -0.000 C 
ATOM     23  C   UNL A   1     -26.232  -4.611  29.784  0.00  0.00    -0.000 C 
ATOM     24  C   UNL A   1     -26.155  -3.232  30.065  0.00  0.00    -0.004 C 
ENDBRANCH  18  19
ENDBRANCH  13  18
ENDBRANCH  12  14
ENDBRANCH  11  12
ENDBRANCH   9  11
ENDBRANCH   1   9
BRANCH   3  25
ATOM     25  C   UNL A   1     -24.012   2.897  31.079  0.00  0.00    +0.117 C 
BRANCH  25  26
ATOM     26  N   UNL A   1     -24.023   2.271  29.708  0.00  0.00    -0.195 NA
BRANCH  26  27
ATOM     27  C   UNL A   1     -23.694   1.794  28.052  0.00  0.00    +0.148 C 
ATOM     28  C   UNL A   1     -21.543   1.195  27.006  0.00  0.00    +0.005 C 
ATOM     29  C   UNL A   1     -22.394   0.989  28.280  0.00  0.00    +0.038 C 
ATOM     30  C   UNL A   1     -22.190   2.037  25.906  0.00  0.00    +0.022 C 
ATOM     31  C   UNL A   1     -23.580   1.339  25.683  0.00  0.00    +0.092 C 
ATOM     32  N   UNL A   1     -24.427   1.271  26.970  0.00  0.00    -0.293 N 
BRANCH  32  33
ATOM     33  C   UNL A   1     -25.688   1.614  26.461  0.00  0.00    +0.087 C 
ATOM     34  C   UNL A   1     -26.250   2.920  26.395  0.00  0.00    +0.090 C 
ATOM     35  C   UNL A   1     -27.438   3.091  25.645  0.00  0.00    +0.108 C 
ATOM     36  N   UNL A   1     -28.075   2.089  25.003  0.00  0.00    -0.208 NA
ATOM     37  C   UNL A   1     -27.543   0.849  25.079  0.00  0.00    +0.255 C 
ATOM     38  C   UNL A   1     -26.354   0.576  25.777  0.00  0.00    +0.206 C 
ATOM     39  F   UNL A   1     -25.860  -0.681  25.795  0.00  0.00    -0.198 F 
BRANCH  34  40
ATOM     40  C   UNL A   1     -25.642   4.093  27.123  0.00  0.00    +0.268 C 
ATOM     41  N   UNL A   1     -25.614   5.252  26.449  0.00  0.00    -0.200 NA
ATOM     42  C   UNL A   1     -25.026   6.479  26.963  0.00  0.00    +0.139 C 
ATOM     43  O   UNL A   1     -25.143   3.966  28.243  0.00  0.00    -0.268 OA
ENDBRANCH  34  40
BRANCH  37  44
ATOM     44  O   UNL A   1     -28.193  -0.208  24.477  0.00  0.00    -0.456 OA
BRANCH  44  45
ATOM     45  C   UNL A   1     -29.460   0.005  23.866  0.00  0.00    +0.243 C 
BRANCH  45  46
ATOM     46  C   UNL A   1     -30.065  -1.377  23.573  0.00  0.00    +0.229 C 
ATOM     47  O   UNL A   1     -30.729  -1.878  24.721  0.00  0.00    -0.216 OA
ENDBRANCH  45  46
ENDBRANCH  44  45
ENDBRANCH  37  44
ENDBRANCH  32  33
ENDBRANCH  26  27
ENDBRANCH  25  26
ENDBRANCH   3  25
TORSDOF 14
