REMARK  Name = outputs/IAG933/test6/raw/output_9560_IAG933_linker_design_.xyz
REMARK  8 active torsions:
REMARK  status: ('A' for Active; 'I' for Inactive)
REMARK    1  A    between atoms: C_1  and  C_2
REMARK    2  A    between atoms: C_1  and  C_8
REMARK    3  A    between atoms: C_1  and  N_36
REMARK    4  A    between atoms: C_13  and  N_29
REMARK    5  A    between atoms: C_14  and  C_15
REMARK    6  A    between atoms: C_21  and  O_22
REMARK    7  A    between atoms: O_22  and  C_23
REMARK    8  A    between atoms: C_23  and  C_24
REMARK                            x       y       z     vdW  Elec       q    Type
REMARK                         _______ _______ _______ _____ _____    ______ ____
ROOT
ATOM      1  O   UNL A   1     -20.488   1.330  26.267  0.00  0.00    -0.201 OA
ATOM      2  N   UNL A   1     -24.806   1.210  27.423  0.00  0.00    -0.136 NA
ATOM      3  S   UNL A   1     -25.817   0.484  28.603  0.00  0.00    +0.103 S 
ATOM      4  C   UNL A   1     -20.788  -0.326  28.226  0.00  0.00    +0.157 C 
ATOM      5  O   UNL A   1     -26.467   1.373  29.557  0.00  0.00    -0.141 OA
ATOM      6  C   UNL A   1     -22.058  -0.295  28.951  0.00  0.00    +0.186 C 
ATOM      7  O   UNL A   1     -21.436   1.781  25.520  0.00  0.00    -0.217 OA
ATOM      8  C   UNL A   1     -22.784   1.883  26.109  0.00  0.00    +0.202 C 
ATOM      9  N   UNL A   1     -24.551  -0.080  29.112  0.00  0.00    -0.134 NA
ATOM     10  O   UNL A   1     -26.781  -0.565  28.347  0.00  0.00    -0.141 OA
ATOM     11  C   UNL A   1     -20.509   1.611  27.517  0.00  0.00    +0.273 C 
ATOM     12  C   UNL A   1     -23.349  -0.068  28.332  0.00  0.00    +0.158 C 
ATOM     13  O   UNL A   1     -22.086  -0.222  30.162  0.00  0.00    -0.293 OA
ATOM     14  N   UNL A   1     -19.847   0.684  28.345  0.00  0.00    -0.178 NA
ATOM     15  C   UNL A   1     -23.467   0.825  27.082  0.00  0.00    +0.137 C 
ENDROOT
BRANCH   2  16
ATOM     16  C   UNL A   1     -25.688   1.614  26.461  0.00  0.00    +0.150 C 
ATOM     17  C   UNL A   1     -26.250   2.920  26.395  0.00  0.00    +0.071 C 
ATOM     18  C   UNL A   1     -27.438   3.091  25.645  0.00  0.00    +0.103 C 
ATOM     19  N   UNL A   1     -28.075   2.089  25.003  0.00  0.00    -0.212 NA
ATOM     20  C   UNL A   1     -27.543   0.849  25.079  0.00  0.00    +0.236 C 
ATOM     21  C   UNL A   1     -26.354   0.576  25.777  0.00  0.00    +0.256 C 
ATOM     22  F   UNL A   1     -25.860  -0.681  25.795  0.00  0.00    -0.225 F 
BRANCH  17  23
ATOM     23  C   UNL A   1     -25.642   4.093  27.123  0.00  0.00    +0.264 C 
ATOM     24  N   UNL A   1     -25.614   5.252  26.449  0.00  0.00    -0.200 NA
ATOM     25  C   UNL A   1     -25.026   6.479  26.963  0.00  0.00    +0.139 C 
ATOM     26  O   UNL A   1     -25.143   3.966  28.243  0.00  0.00    -0.269 OA
ENDBRANCH  17  23
BRANCH  20  27
ATOM     27  O   UNL A   1     -28.193  -0.208  24.477  0.00  0.00    -0.459 OA
BRANCH  27  28
ATOM     28  C   UNL A   1     -29.460   0.005  23.866  0.00  0.00    +0.242 C 
BRANCH  28  29
ATOM     29  C   UNL A   1     -30.065  -1.377  23.573  0.00  0.00    +0.229 C 
ATOM     30  O   UNL A   1     -30.729  -1.878  24.721  0.00  0.00    -0.216 OA
ENDBRANCH  28  29
ENDBRANCH  27  28
ENDBRANCH  20  27
ENDBRANCH   2  16
BRANCH   9  31
ATOM     31  C   UNL A   1     -24.855  -1.012  30.143  0.00  0.00    +0.119 C 
BRANCH  31  32
ATOM     32  C   UNL A   1     -24.973  -2.505  29.788  0.00  0.00    -0.005 C 
ATOM     33  C   UNL A   1     -23.906  -3.173  29.146  0.00  0.00    -0.003 C 
ATOM     34  C   UNL A   1     -23.989  -4.549  28.853  0.00  0.00    -0.000 C 
ATOM     35  C   UNL A   1     -25.137  -5.280  29.205  0.00  0.00    -0.000 C 
ATOM     36  C   UNL A   1     -26.232  -4.611  29.784  0.00  0.00    -0.000 C 
ATOM     37  C   UNL A   1     -26.155  -3.232  30.065  0.00  0.00    -0.003 C 
ENDBRANCH  31  32
BRANCH  31  38
ATOM     38  C   UNL A   1     -25.387  -0.679  31.571  0.00  0.00    +0.093 C 
ATOM     39  C   UNL A   1     -25.189   0.773  32.028  0.00  0.00    +0.021 C 
ATOM     40  C   UNL A   1     -25.336   0.684  33.544  0.00  0.00    +0.020 C 
ATOM     41  C   UNL A   1     -24.829  -0.715  33.905  0.00  0.00    +0.089 C 
ATOM     42  N   UNL A   1     -24.758  -1.481  32.646  0.00  0.00    -0.218 NA
ENDBRANCH  31  38
ENDBRANCH   9  31
TORSDOF 8
