REMARK  Name = outputs/IAG933/test6/raw/output_9569_IAG933_linker_design_.xyz
REMARK  10 active torsions:
REMARK  status: ('A' for Active; 'I' for Inactive)
REMARK    1  A    between atoms: C_1  and  C_2
REMARK    2  A    between atoms: C_1  and  C_8
REMARK    3  A    between atoms: C_1  and  N_32
REMARK    4  A    between atoms: C_21  and  O_22
REMARK    5  A    between atoms: O_22  and  C_23
REMARK    6  A    between atoms: C_23  and  C_24
REMARK    7  A    between atoms: C_30  and  C_35
REMARK    8  A    between atoms: N_32  and  C_33
REMARK    9  A    between atoms: N_32  and  C_36
REMARK   10  A    between atoms: C_34  and  C_35
REMARK                            x       y       z     vdW  Elec       q    Type
REMARK                         _______ _______ _______ _____ _____    ______ ____
ROOT
ATOM      1  C   UNL A   1     -25.688   1.614  26.461  0.00  0.00    +0.039 C 
ATOM      2  C   UNL A   1     -26.250   2.920  26.395  0.00  0.00    +0.075 C 
ATOM      3  C   UNL A   1     -25.642   4.093  27.123  0.00  0.00    +0.234 C 
ATOM      4  N   UNL A   1     -25.614   5.252  26.449  0.00  0.00    -0.235 NA
ATOM      5  C   UNL A   1     -25.026   6.479  26.963  0.00  0.00    +0.155 C 
ATOM      6  O   UNL A   1     -25.143   3.966  28.243  0.00  0.00    -0.376 OA
ATOM      7  C   UNL A   1     -27.438   3.091  25.645  0.00  0.00    +0.107 C 
ATOM      8  N   UNL A   1     -28.075   2.089  25.003  0.00  0.00    -0.208 NA
ATOM      9  C   UNL A   1     -27.543   0.849  25.079  0.00  0.00    +0.253 C 
ATOM     10  C   UNL A   1     -26.354   0.576  25.777  0.00  0.00    +0.193 C 
ATOM     11  F   UNL A   1     -25.860  -0.681  25.795  0.00  0.00    -0.199 F 
ATOM     12  C   UNL A   1     -25.062   3.422  29.345  0.00  0.00    +0.519 C 
ATOM     13  C   UNL A   1     -24.797   1.278  28.681  0.00  0.00    +0.261 C 
ATOM     14  C   UNL A   1     -23.106   1.261  27.009  0.00  0.00    +0.111 C 
ATOM     15  O   UNL A   1     -24.444   2.271  29.470  0.00  0.00    -0.401 OA
ATOM     16  O   UNL A   1     -25.314   4.070  30.425  0.00  0.00    -0.202 OA
ATOM     17  C   UNL A   1     -24.520   1.336  27.334  0.00  0.00    +0.047 C 
ENDROOT
BRANCH  14  19
ATOM     18  F   UNL A   1     -20.857   1.344  27.741  0.00  0.00    -0.195 F 
ATOM     19  C   UNL A   1     -21.917   0.862  27.981  0.00  0.00    +0.341 C 
ATOM     20  O   UNL A   1     -22.147   0.252  29.109  0.00  0.00    -0.178 OA
ENDBRANCH  14  19
BRANCH  14  21
ATOM     21  C   UNL A   1     -22.794   1.385  25.850  0.00  0.00    +0.101 C 
ATOM     22  N   UNL A   1     -22.561   1.577  24.752  0.00  0.00    -0.191 NA
ENDBRANCH  14  21
BRANCH   9  23
ATOM     23  O   UNL A   1     -28.193  -0.208  24.477  0.00  0.00    -0.456 OA
BRANCH  23  24
ATOM     24  C   UNL A   1     -29.460   0.005  23.866  0.00  0.00    +0.243 C 
BRANCH  24  25
ATOM     25  C   UNL A   1     -30.065  -1.377  23.573  0.00  0.00    +0.229 C 
ATOM     26  O   UNL A   1     -30.729  -1.878  24.721  0.00  0.00    -0.216 OA
ENDBRANCH  24  25
ENDBRANCH  23  24
ENDBRANCH   9  23
BRANCH  13  27
ATOM     27  N   UNL A   1     -25.069   0.007  29.043  0.00  0.00    -0.204 NA
BRANCH  27  29
ATOM     28  O   UNL A   1     -27.235  -0.442  28.473  0.00  0.00    -0.200 OA
ATOM     29  C   UNL A   1     -26.267  -0.259  28.665  0.00  0.00    +0.262 C 
ENDBRANCH  27  29
BRANCH  27  30
ATOM     30  C   UNL A   1     -24.855  -1.012  30.143  0.00  0.00    +0.102 C 
BRANCH  30  31
ATOM     31  C   UNL A   1     -24.973  -2.505  29.788  0.00  0.00    -0.006 C 
ATOM     32  C   UNL A   1     -23.906  -3.173  29.146  0.00  0.00    -0.003 C 
ATOM     33  C   UNL A   1     -23.989  -4.549  28.853  0.00  0.00    -0.000 C 
ATOM     34  C   UNL A   1     -25.137  -5.280  29.205  0.00  0.00    -0.000 C 
ATOM     35  C   UNL A   1     -26.232  -4.611  29.784  0.00  0.00    -0.000 C 
ATOM     36  C   UNL A   1     -26.155  -3.232  30.065  0.00  0.00    -0.003 C 
ENDBRANCH  30  31
BRANCH  30  37
ATOM     37  C   UNL A   1     -25.387  -0.679  31.571  0.00  0.00    +0.092 C 
ATOM     38  C   UNL A   1     -25.189   0.773  32.028  0.00  0.00    +0.021 C 
ATOM     39  C   UNL A   1     -25.336   0.684  33.544  0.00  0.00    +0.020 C 
ATOM     40  C   UNL A   1     -24.829  -0.715  33.905  0.00  0.00    +0.089 C 
ATOM     41  N   UNL A   1     -24.758  -1.481  32.646  0.00  0.00    -0.218 NA
ENDBRANCH  30  37
ENDBRANCH  27  30
ENDBRANCH  13  27
TORSDOF 10
