MODEL 956
MODEL 1
REMARK VINA RESULT:    -6.357      0.000      0.000
REMARK INTER + INTRA:         -10.579
REMARK INTER:                  -9.329
REMARK INTRA:                  -1.249
REMARK UNBOUND:                -1.249
REMARK  Name = No_956-gen_results/8p0m/2024-11-27-11-27-31/
REMARK  8 active torsions:
REMARK  status: ('A' for Active; 'I' for Inactive)
REMARK    1  A    between atoms: C_2  and  C_13
REMARK    2  A    between atoms: C_6  and  O_7
REMARK    3  A    between atoms: O_7  and  C_9
REMARK    4  A    between atoms: C_9  and  C_10
REMARK    5  A    between atoms: C_13  and  C_15
REMARK    6  A    between atoms: C_15  and  C_16
REMARK    7  A    between atoms: C_17  and  C_18
REMARK    8  A    between atoms: C_19  and  C_20
REMARK                            x       y       z     vdW  Elec       q    Type
REMARK                         _______ _______ _______ _____ _____    ______ ____
ROOT
ATOM      1  C   UNL A   1     -24.927  -0.962  27.773  0.00  0.00    +0.033 A 
ATOM      2  C   UNL A   1     -24.706  -0.005  27.068  0.00  0.00    -0.013 A 
ATOM      3  C   UNL A   1     -23.543   0.761  27.150  0.00  0.00    +0.031 A 
ATOM      4  C   UNL A   1     -22.559   0.445  28.167  0.00  0.00    +0.009 A 
ATOM      5  C   UNL A   1     -22.890  -0.679  28.958  0.00  0.00    +0.037 A 
ATOM      6  C   UNL A   1     -24.013  -1.334  28.812  0.00  0.00    +0.139 A 
ATOM      7 BR   UNL A   1     -23.139   2.267  26.072  0.00  0.00    -0.049 Br
ENDROOT
BRANCH   2   8
ATOM      8  C   UNL A   1     -25.615   0.360  25.881  0.00  0.00    +0.027 C 
ATOM      9  C   UNL A   1     -25.565  -0.371  24.832  0.00  0.00    +0.005 C 
BRANCH   8  10
ATOM     10  C   UNL A   1     -26.669   1.232  26.161  0.00  0.00    +0.030 C 
BRANCH  10  11
ATOM     11  C   UNL A   1     -26.857   2.241  26.007  0.00  0.00    -0.026 C 
ATOM     12  C   UNL A   1     -27.318   3.023  25.530  0.00  0.00    -0.005 C 
BRANCH  12  13
ATOM     13  C   UNL A   1     -28.468   3.134  24.756  0.00  0.00    -0.000 C 
ATOM     14  C   UNL A   1     -28.818   2.231  23.710  0.00  0.00    -0.000 C 
BRANCH  14  15
ATOM     15  C   UNL A   1     -30.018   2.345  23.045  0.00  0.00    -0.005 C 
ATOM     16  C   UNL A   1     -30.864   1.267  22.956  0.00  0.00    -0.026 C 
ATOM     17  C   UNL A   1     -30.558   0.082  23.620  0.00  0.00    +0.031 C 
ENDBRANCH  14  15
ENDBRANCH  12  13
ENDBRANCH  10  11
ENDBRANCH   8  10
ENDBRANCH   2   8
BRANCH   6  18
ATOM     18  O   UNL A   1     -24.250  -2.372  29.668  0.00  0.00    -0.464 OA
BRANCH  18  19
ATOM     19  C   UNL A   1     -25.188  -3.345  29.320  0.00  0.00    +0.319 C 
BRANCH  19  20
ATOM     20  C   UNL A   1     -24.742  -4.548  29.138  0.00  0.00    +0.408 C 
ATOM     21  O   UNL A   1     -25.388  -5.415  29.538  0.00  0.00    -0.241 OA
ATOM     22  O   UNL A   1     -23.663  -4.674  28.490  0.00  0.00    -0.241 OA
ENDBRANCH  19  20
ENDBRANCH  18  19
ENDBRANCH   6  18
TORSDOF 8
ENDMDL
ENDMDL
