REMARK  Name = outputs/IAG933/test6/raw/output_9572_IAG933_linker_design_.xyz
REMARK  12 active torsions:
REMARK  status: ('A' for Active; 'I' for Inactive)
REMARK    1  A    between atoms: C_1  and  C_2
REMARK    2  A    between atoms: C_1  and  C_8
REMARK    3  A    between atoms: C_1  and  C_37
REMARK    4  A    between atoms: C_13  and  C_32
REMARK    5  A    between atoms: C_14  and  C_15
REMARK    6  A    between atoms: C_21  and  O_22
REMARK    7  A    between atoms: O_22  and  C_23
REMARK    8  A    between atoms: C_23  and  C_24
REMARK    9  A    between atoms: N_35  and  C_39
REMARK   10  A    between atoms: C_37  and  C_43
REMARK   11  A    between atoms: C_39  and  C_41
REMARK   12  A    between atoms: C_40  and  C_41
REMARK                            x       y       z     vdW  Elec       q    Type
REMARK                         _______ _______ _______ _____ _____    ______ ____
ROOT
ATOM      1  C   UNL A   1     -23.147   1.665  26.636  0.00  0.00    +0.167 C 
ATOM      2  C   UNL A   1     -22.027   1.514  27.485  0.00  0.00    +0.167 C 
ATOM      3  C   UNL A   1     -24.394   1.242  27.111  0.00  0.00    +0.033 C 
ATOM      4  F   UNL A   1     -23.006   2.192  25.410  0.00  0.00    -0.202 F 
ATOM      5  C   UNL A   1     -23.244   0.320  29.101  0.00  0.00    +0.003 C 
ATOM      6  C   UNL A   1     -22.015   0.755  28.633  0.00  0.00    +0.032 C 
ATOM      7  F   UNL A   1     -20.925   2.264  27.253  0.00  0.00    -0.202 F 
ATOM      8  C   UNL A   1     -24.372   0.394  28.320  0.00  0.00    +0.014 C 
ENDROOT
BRANCH   3   9
ATOM      9  C   UNL A   1     -25.688   1.614  26.461  0.00  0.00    +0.040 C 
ATOM     10  C   UNL A   1     -26.250   2.920  26.395  0.00  0.00    +0.077 C 
ATOM     11  C   UNL A   1     -27.438   3.091  25.645  0.00  0.00    +0.107 C 
ATOM     12  N   UNL A   1     -28.075   2.089  25.003  0.00  0.00    -0.208 NA
ATOM     13  C   UNL A   1     -27.543   0.849  25.079  0.00  0.00    +0.253 C 
ATOM     14  C   UNL A   1     -26.354   0.576  25.777  0.00  0.00    +0.193 C 
ATOM     15  F   UNL A   1     -25.860  -0.681  25.795  0.00  0.00    -0.199 F 
BRANCH  10  16
ATOM     16  C   UNL A   1     -25.642   4.093  27.123  0.00  0.00    +0.266 C 
ATOM     17  N   UNL A   1     -25.614   5.252  26.449  0.00  0.00    -0.200 NA
ATOM     18  C   UNL A   1     -25.026   6.479  26.963  0.00  0.00    +0.139 C 
ATOM     19  O   UNL A   1     -25.143   3.966  28.243  0.00  0.00    -0.268 OA
ENDBRANCH  10  16
BRANCH  13  20
ATOM     20  O   UNL A   1     -28.193  -0.208  24.477  0.00  0.00    -0.456 OA
BRANCH  20  21
ATOM     21  C   UNL A   1     -29.460   0.005  23.866  0.00  0.00    +0.243 C 
BRANCH  21  22
ATOM     22  C   UNL A   1     -30.065  -1.377  23.573  0.00  0.00    +0.229 C 
ATOM     23  O   UNL A   1     -30.729  -1.878  24.721  0.00  0.00    -0.216 OA
ENDBRANCH  21  22
ENDBRANCH  20  21
ENDBRANCH  13  20
ENDBRANCH   3   9
BRANCH   8  25
ATOM     24  N   UNL A   1     -26.656   0.404  28.683  0.00  0.00    -0.183 NA
ATOM     25  C   UNL A   1     -25.472  -0.243  28.995  0.00  0.00    +0.056 C 
BRANCH  24  26
ATOM     26  C   UNL A   1     -27.747   0.290  29.320  0.00  0.00    +0.248 C 
ATOM     27  O   UNL A   1     -28.457  -0.700  29.152  0.00  0.00    -0.273 OA
BRANCH  26  28
ATOM     28  C   UNL A   1     -27.891   1.500  30.194  0.00  0.00    +0.120 C 
BRANCH  28  31
ATOM     29  O   UNL A   1     -29.205   3.066  31.190  0.00  0.00    -0.223 OA
ATOM     30  C   UNL A   1     -30.052   0.816  31.012  0.00  0.00    +0.036 C 
ATOM     31  C   UNL A   1     -29.265   1.938  30.318  0.00  0.00    +0.161 C 
ENDBRANCH  28  31
ENDBRANCH  26  28
ENDBRANCH  24  26
BRANCH  25  32
ATOM     32  C   UNL A   1     -24.855  -1.012  30.143  0.00  0.00    +0.076 C 
BRANCH  32  33
ATOM     33  C   UNL A   1     -24.973  -2.505  29.788  0.00  0.00    -0.016 C 
ATOM     34  C   UNL A   1     -23.906  -3.173  29.146  0.00  0.00    -0.004 C 
ATOM     35  C   UNL A   1     -23.989  -4.549  28.853  0.00  0.00    -0.000 C 
ATOM     36  C   UNL A   1     -25.137  -5.280  29.205  0.00  0.00    -0.000 C 
ATOM     37  C   UNL A   1     -26.232  -4.611  29.784  0.00  0.00    -0.000 C 
ATOM     38  C   UNL A   1     -26.155  -3.232  30.065  0.00  0.00    -0.004 C 
ENDBRANCH  32  33
BRANCH  32  39
ATOM     39  C   UNL A   1     -25.387  -0.679  31.571  0.00  0.00    +0.082 C 
ATOM     40  C   UNL A   1     -25.189   0.773  32.028  0.00  0.00    +0.020 C 
ATOM     41  C   UNL A   1     -25.336   0.684  33.544  0.00  0.00    +0.020 C 
ATOM     42  C   UNL A   1     -24.829  -0.715  33.905  0.00  0.00    +0.089 C 
ATOM     43  N   UNL A   1     -24.758  -1.481  32.646  0.00  0.00    -0.219 NA
ENDBRANCH  32  39
ENDBRANCH  25  32
ENDBRANCH   8  25
TORSDOF 12
