REMARK  Name = outputs/IAG933/test6/raw/output_9577_IAG933_linker_design_.xyz
REMARK  10 active torsions:
REMARK  status: ('A' for Active; 'I' for Inactive)
REMARK    1  A    between atoms: C_1  and  C_2
REMARK    2  A    between atoms: C_1  and  C_8
REMARK    3  A    between atoms: C_1  and  C_28
REMARK    4  A    between atoms: C_13  and  C_34
REMARK    5  A    between atoms: C_14  and  C_15
REMARK    6  A    between atoms: C_21  and  O_22
REMARK    7  A    between atoms: O_22  and  C_23
REMARK    8  A    between atoms: C_23  and  C_24
REMARK    9  A    between atoms: C_28  and  C_32
REMARK   10  A    between atoms: C_28  and  C_35
REMARK                            x       y       z     vdW  Elec       q    Type
REMARK                         _______ _______ _______ _____ _____    ______ ____
ROOT
ATOM      1  C   UNL A   1     -21.836   1.192  27.564  0.00  0.00    +0.229 C 
ATOM      2  C   UNL A   1     -22.056   2.333  25.572  0.00  0.00    +0.181 C 
ATOM      3  N   UNL A   1     -21.159   0.651  28.684  0.00  0.00    -0.210 NA
ATOM      4  C   UNL A   1     -23.369   0.501  28.778  0.00  0.00    +0.004 C 
ATOM      5  C   UNL A   1     -23.451   2.255  25.560  0.00  0.00    +0.037 C 
ATOM      6  C   UNL A   1     -24.101   1.589  26.581  0.00  0.00    -0.008 C 
ATOM      7  O   UNL A   1     -21.257   1.803  26.567  0.00  0.00    -0.433 OA
ATOM      8  C   UNL A   1     -21.950   0.138  29.532  0.00  0.00    +0.098 C 
ATOM      9  C   UNL A   1     -23.209   1.086  27.609  0.00  0.00    +0.048 C 
ENDROOT
BRANCH   6  10
ATOM     10  C   UNL A   1     -25.688   1.614  26.461  0.00  0.00    +0.093 C 
ATOM     11  C   UNL A   1     -26.250   2.920  26.395  0.00  0.00    +0.059 C 
ATOM     12  C   UNL A   1     -27.438   3.091  25.645  0.00  0.00    +0.102 C 
ATOM     13  N   UNL A   1     -28.075   2.089  25.003  0.00  0.00    -0.212 NA
ATOM     14  C   UNL A   1     -27.543   0.849  25.079  0.00  0.00    +0.234 C 
ATOM     15  C   UNL A   1     -26.354   0.576  25.777  0.00  0.00    +0.244 C 
ATOM     16  F   UNL A   1     -25.860  -0.681  25.795  0.00  0.00    -0.227 F 
BRANCH  11  17
ATOM     17  C   UNL A   1     -25.642   4.093  27.123  0.00  0.00    +0.263 C 
ATOM     18  N   UNL A   1     -25.614   5.252  26.449  0.00  0.00    -0.200 NA
ATOM     19  C   UNL A   1     -25.026   6.479  26.963  0.00  0.00    +0.139 C 
ATOM     20  O   UNL A   1     -25.143   3.966  28.243  0.00  0.00    -0.269 OA
ENDBRANCH  11  17
BRANCH  14  21
ATOM     21  O   UNL A   1     -28.193  -0.208  24.477  0.00  0.00    -0.459 OA
BRANCH  21  22
ATOM     22  C   UNL A   1     -29.460   0.005  23.866  0.00  0.00    +0.242 C 
BRANCH  22  23
ATOM     23  C   UNL A   1     -30.065  -1.377  23.573  0.00  0.00    +0.229 C 
ATOM     24  O   UNL A   1     -30.729  -1.878  24.721  0.00  0.00    -0.216 OA
ENDBRANCH  22  23
ENDBRANCH  21  22
ENDBRANCH  14  21
ENDBRANCH   6  10
BRANCH   4  25
ATOM     25  C   UNL A   1     -24.805   0.158  29.229  0.00  0.00    +0.062 C 
BRANCH  25  26
ATOM     26  C   UNL A   1     -25.734  -0.220  28.120  0.00  0.00    +0.187 C 
ATOM     27  O   UNL A   1     -26.928  -0.682  28.587  0.00  0.00    -0.220 OA
ENDBRANCH  25  26
BRANCH  25  28
ATOM     28  C   UNL A   1     -24.855  -1.012  30.143  0.00  0.00    +0.045 C 
BRANCH  28  29
ATOM     29  C   UNL A   1     -24.973  -2.505  29.788  0.00  0.00    -0.021 C 
ATOM     30  C   UNL A   1     -23.906  -3.173  29.146  0.00  0.00    -0.004 C 
ATOM     31  C   UNL A   1     -23.989  -4.549  28.853  0.00  0.00    -0.000 C 
ATOM     32  C   UNL A   1     -25.137  -5.280  29.205  0.00  0.00    -0.000 C 
ATOM     33  C   UNL A   1     -26.232  -4.611  29.784  0.00  0.00    -0.000 C 
ATOM     34  C   UNL A   1     -26.155  -3.232  30.065  0.00  0.00    -0.004 C 
ENDBRANCH  28  29
BRANCH  28  35
ATOM     35  C   UNL A   1     -25.387  -0.679  31.571  0.00  0.00    +0.077 C 
ATOM     36  C   UNL A   1     -25.189   0.773  32.028  0.00  0.00    +0.019 C 
ATOM     37  C   UNL A   1     -25.336   0.684  33.544  0.00  0.00    +0.020 C 
ATOM     38  C   UNL A   1     -24.829  -0.715  33.905  0.00  0.00    +0.089 C 
ATOM     39  N   UNL A   1     -24.758  -1.481  32.646  0.00  0.00    -0.219 NA
ENDBRANCH  28  35
ENDBRANCH  25  28
ENDBRANCH   4  25
TORSDOF 10
