REMARK  Name = outputs/IAG933/test6/raw/output_9579_IAG933_linker_design_.xyz
REMARK  16 active torsions:
REMARK  status: ('A' for Active; 'I' for Inactive)
REMARK    1  A    between atoms: C_1  and  C_2
REMARK    2  A    between atoms: C_1  and  C_8
REMARK    3  A    between atoms: C_1  and  C_44
REMARK    4  A    between atoms: C_13  and  C_45
REMARK    5  A    between atoms: C_14  and  C_15
REMARK    6  A    between atoms: C_21  and  O_22
REMARK    7  A    between atoms: O_22  and  C_23
REMARK    8  A    between atoms: C_23  and  C_24
REMARK    9  A    between atoms: C_28  and  C_45
REMARK   10  A    between atoms: O_29  and  C_36
REMARK   11  A    between atoms: O_29  and  C_40
REMARK   12  A    between atoms: N_31  and  C_36
REMARK   13  A    between atoms: C_35  and  C_43
REMARK   14  A    between atoms: C_35  and  C_44
REMARK   15  A    between atoms: C_40  and  C_43
REMARK   16  A    between atoms: C_44  and  C_45
REMARK                            x       y       z     vdW  Elec       q    Type
REMARK                         _______ _______ _______ _____ _____    ______ ____
ROOT
ATOM      1  C   UNL A   1     -25.417  -0.090  28.947  0.00  0.00    +0.007 C 
ENDROOT
BRANCH   1   2
ATOM      2  C   UNL A   1     -24.855  -1.012  30.143  0.00  0.00    +0.038 C 
BRANCH   2   3
ATOM      3  C   UNL A   1     -24.973  -2.505  29.788  0.00  0.00    -0.021 C 
ATOM      4  C   UNL A   1     -23.906  -3.173  29.146  0.00  0.00    -0.004 C 
ATOM      5  C   UNL A   1     -23.989  -4.549  28.853  0.00  0.00    -0.000 C 
ATOM      6  C   UNL A   1     -25.137  -5.280  29.205  0.00  0.00    -0.000 C 
ATOM      7  C   UNL A   1     -26.232  -4.611  29.784  0.00  0.00    -0.000 C 
ATOM      8  C   UNL A   1     -26.155  -3.232  30.065  0.00  0.00    -0.004 C 
ENDBRANCH   2   3
BRANCH   2   9
ATOM      9  C   UNL A   1     -25.387  -0.679  31.571  0.00  0.00    +0.077 C 
ATOM     10  C   UNL A   1     -25.189   0.773  32.028  0.00  0.00    +0.019 C 
ATOM     11  C   UNL A   1     -25.336   0.684  33.544  0.00  0.00    +0.020 C 
ATOM     12  C   UNL A   1     -24.829  -0.715  33.905  0.00  0.00    +0.089 C 
ATOM     13  N   UNL A   1     -24.758  -1.481  32.646  0.00  0.00    -0.219 NA
ENDBRANCH   2   9
ENDBRANCH   1   2
BRANCH   1  14
ATOM     14  C   UNL A   1     -26.971  -0.256  28.777  0.00  0.00    +0.003 C 
BRANCH  14  15
ATOM     15  C   UNL A   1     -27.838   0.728  29.622  0.00  0.00    +0.032 C 
BRANCH  15  16
ATOM     16  C   UNL A   1     -28.966   1.455  28.869  0.00  0.00    +0.144 C 
BRANCH  16  17
ATOM     17  O   UNL A   1     -29.543   2.360  29.736  0.00  0.00    -0.337 OA
BRANCH  17  18
ATOM     18  C   UNL A   1     -30.239   3.492  29.624  0.00  0.00    +0.222 C 
BRANCH  18  19
ATOM     19  N   UNL A   1     -29.522   4.580  28.838  0.00  0.00    -0.223 NA
ATOM     20  C   UNL A   1     -30.542   5.632  28.766  0.00  0.00    +0.214 C 
ATOM     21  O   UNL A   1     -31.179   5.844  30.076  0.00  0.00    -0.205 OA
ATOM     22  C   UNL A   1     -27.831   6.101  28.928  0.00  0.00    +0.018 C 
ATOM     23  C   UNL A   1     -28.591   7.260  28.523  0.00  0.00    +0.005 C 
ATOM     24  C   UNL A   1     -29.912   6.736  27.900  0.00  0.00    +0.050 C 
ATOM     25  C   UNL A   1     -28.339   5.061  29.442  0.00  0.00    +0.077 C 
ENDBRANCH  18  19
ENDBRANCH  17  18
ENDBRANCH  16  17
ENDBRANCH  15  16
ENDBRANCH  14  15
ENDBRANCH   1  14
BRANCH   1  26
ATOM     26  C   UNL A   1     -25.037   1.152  27.830  0.00  0.00    +0.021 C 
BRANCH  26  27
ATOM     27  C   UNL A   1     -25.688   1.614  26.461  0.00  0.00    +0.071 C 
ATOM     28  C   UNL A   1     -26.250   2.920  26.395  0.00  0.00    +0.055 C 
ATOM     29  C   UNL A   1     -27.438   3.091  25.645  0.00  0.00    +0.102 C 
ATOM     30  N   UNL A   1     -28.075   2.089  25.003  0.00  0.00    -0.212 NA
ATOM     31  C   UNL A   1     -27.543   0.849  25.079  0.00  0.00    +0.234 C 
ATOM     32  C   UNL A   1     -26.354   0.576  25.777  0.00  0.00    +0.240 C 
ATOM     33  F   UNL A   1     -25.860  -0.681  25.795  0.00  0.00    -0.227 F 
BRANCH  28  34
ATOM     34  C   UNL A   1     -25.642   4.093  27.123  0.00  0.00    +0.262 C 
ATOM     35  N   UNL A   1     -25.614   5.252  26.449  0.00  0.00    -0.200 NA
ATOM     36  C   UNL A   1     -25.026   6.479  26.963  0.00  0.00    +0.139 C 
ATOM     37  O   UNL A   1     -25.143   3.966  28.243  0.00  0.00    -0.269 OA
ENDBRANCH  28  34
BRANCH  31  38
ATOM     38  O   UNL A   1     -28.193  -0.208  24.477  0.00  0.00    -0.459 OA
BRANCH  38  39
ATOM     39  C   UNL A   1     -29.460   0.005  23.866  0.00  0.00    +0.242 C 
BRANCH  39  40
ATOM     40  C   UNL A   1     -30.065  -1.377  23.573  0.00  0.00    +0.229 C 
ATOM     41  O   UNL A   1     -30.729  -1.878  24.721  0.00  0.00    -0.216 OA
ENDBRANCH  39  40
ENDBRANCH  38  39
ENDBRANCH  31  38
ENDBRANCH  26  27
BRANCH  26  42
ATOM     42  C   UNL A   1     -23.559   1.282  27.430  0.00  0.00    +0.102 C 
ATOM     43  C   UNL A   1     -21.681   1.789  26.342  0.00  0.00    +0.085 C 
ATOM     44  C   UNL A   1     -23.044   1.812  26.221  0.00  0.00    +0.001 C 
ATOM     45  O   UNL A   1     -22.551   0.139  29.248  0.00  0.00    -0.273 OA
ATOM     46  C   UNL A   1     -22.498   0.832  28.198  0.00  0.00    +0.249 C 
ATOM     47  N   UNL A   1     -21.364   1.192  27.571  0.00  0.00    -0.178 NA
ENDBRANCH  26  42
ENDBRANCH   1  26
TORSDOF 16
