MODEL 957
MODEL 1
REMARK VINA RESULT:    -6.541      0.000      0.000
REMARK INTER + INTRA:         -10.103
REMARK INTER:                  -8.835
REMARK INTRA:                  -1.268
REMARK UNBOUND:                -1.268
REMARK  Name = No_957-gen_results/8p0m/2024-11-27-11-27-31/
REMARK  6 active torsions:
REMARK  status: ('A' for Active; 'I' for Inactive)
REMARK    1  A    between atoms: C_2  and  O_15
REMARK    2  A    between atoms: C_3  and  C_8
REMARK    3  A    between atoms: C_13  and  C_23
REMARK    4  A    between atoms: O_15  and  C_16
REMARK    5  A    between atoms: C_16  and  C_17
REMARK    6  A    between atoms: C_16  and  C_20
REMARK                            x       y       z     vdW  Elec       q    Type
REMARK                         _______ _______ _______ _____ _____    ______ ____
ROOT
ATOM      1  C   UNL A   1     -23.607   0.135  27.776  0.00  0.00    +0.041 C 
ATOM      2  C   UNL A   1     -22.973  -0.020  28.603  0.00  0.00    +0.174 C 
ATOM      3  C   UNL A   1     -23.452   1.468  27.079  0.00  0.00    +0.022 C 
ATOM      4  C   UNL A   1     -22.177   1.863  26.706  0.00  0.00    +0.012 C 
ATOM      5  C   UNL A   1     -21.412   0.047  28.441  0.00  0.00    +0.177 C 
ATOM      6  C   UNL A   1     -21.091   1.358  27.765  0.00  0.00    +0.067 C 
ATOM      7  O   UNL A   1     -20.501  -0.707  28.743  0.00  0.00    -0.293 OA
ENDROOT
BRANCH   3   8
ATOM      8  C   UNL A   1     -24.510   2.095  26.242  0.00  0.00    -0.040 C 
ATOM      9  C   UNL A   1     -25.627   1.569  25.908  0.00  0.00    -0.008 C 
ATOM     10  C   UNL A   1     -26.555   1.918  25.578  0.00  0.00    -0.001 C 
ATOM     11  C   UNL A   1     -27.148   2.961  25.722  0.00  0.00    -0.000 C 
ATOM     12  C   UNL A   1     -26.881   3.934  26.434  0.00  0.00    +0.003 C 
ATOM     13  C   UNL A   1     -25.440   4.315  26.817  0.00  0.00    +0.062 C 
ATOM     14  C   UNL A   1     -24.254   3.559  26.085  0.00  0.00    +0.055 C 
BRANCH  13  15
ATOM     15  C   UNL A   1     -25.105   5.634  27.308  0.00  0.00    +0.384 C 
ATOM     16  O   UNL A   1     -24.578   6.370  26.491  0.00  0.00    -0.241 OA
ATOM     17  O   UNL A   1     -24.982   5.828  28.559  0.00  0.00    -0.241 OA
ENDBRANCH  13  15
ENDBRANCH   3   8
BRANCH   2  18
ATOM     18  O   UNL A   1     -23.214  -1.094  29.515  0.00  0.00    -0.331 OA
BRANCH  18  19
ATOM     19  C   UNL A   1     -24.109  -0.927  30.378  0.00  0.00    +0.322 C 
BRANCH  19  20
ATOM     20  C   UNL A   1     -23.805  -0.533  31.664  0.00  0.00    +0.403 C 
ATOM     21  O   UNL A   1     -24.294   0.406  32.113  0.00  0.00    -0.242 OA
ATOM     22  O   UNL A   1     -22.815  -1.183  32.215  0.00  0.00    -0.242 OA
ENDBRANCH  19  20
BRANCH  19  23
ATOM     23  C   UNL A   1     -24.948  -2.186  30.443  0.00  0.00    +0.403 C 
ATOM     24  O   UNL A   1     -24.528  -3.031  29.918  0.00  0.00    -0.242 OA
ATOM     25  O   UNL A   1     -26.124  -2.063  30.852  0.00  0.00    -0.242 OA
ENDBRANCH  19  23
ENDBRANCH  18  19
ENDBRANCH   2  18
TORSDOF 6
ENDMDL
ENDMDL
