REMARK  Name = No_958-gen_results/8p0m/2024-11-27-11-27-31/
REMARK  3 active torsions:
REMARK  status: ('A' for Active; 'I' for Inactive)
REMARK    1  A    between atoms: C_2  and  C_17
REMARK    2  A    between atoms: C_4  and  C_7
REMARK    3  A    between atoms: C_8  and  C_14
REMARK                            x       y       z     vdW  Elec       q    Type
REMARK                         _______ _______ _______ _____ _____    ______ ____
ROOT
ATOM      1  C   UNL A   1     -28.016  -0.814  28.878  0.00  0.00    +0.004 A 
ATOM      2  C   UNL A   1     -28.469  -0.785  29.829  0.00  0.00    +0.054 A 
ATOM      3  C   UNL A   1     -26.504  -0.778  28.877  0.00  0.00    -0.004 A 
ATOM      4  C   UNL A   1     -25.810  -0.853  30.103  0.00  0.00    -0.022 A 
ATOM      5  C   UNL A   1     -27.991  -0.892  31.226  0.00  0.00    +0.004 A 
ATOM      6  C   UNL A   1     -26.604  -0.868  31.265  0.00  0.00    -0.004 A 
ENDROOT
BRANCH   2   7
ATOM      7  C   UNL A   1     -30.077  -0.842  29.801  0.00  0.00    +0.249 C 
ATOM      8  O   UNL A   1     -30.500  -0.399  28.841  0.00  0.00    -0.270 OA
ATOM      9  N   UNL A   1     -30.773  -1.323  30.833  0.00  0.00    -0.276 N 
ATOM     10  C   UNL A   1     -32.211  -1.388  30.766  0.00  0.00    +0.094 C 
ATOM     11  C   UNL A   1     -32.841  -2.053  31.435  0.00  0.00    +0.022 C 
ATOM     12  C   UNL A   1     -32.229  -2.775  32.578  0.00  0.00    +0.004 C 
ATOM     13  C   UNL A   1     -30.817  -2.805  32.698  0.00  0.00    +0.022 C 
ATOM     14  C   UNL A   1     -30.109  -2.186  31.785  0.00  0.00    +0.094 C 
ENDBRANCH   2   7
BRANCH   4  15
ATOM     15  C   UNL A   1     -24.389  -0.805  30.164  0.00  0.00    +0.029 C 
ATOM     16  C   UNL A   1     -23.817   0.476  29.912  0.00  0.00    +0.107 C 
ATOM     17  C   UNL A   1     -22.501   0.545  29.410  0.00  0.00    +0.012 C 
ATOM     18  C   UNL A   1     -21.770  -0.652  29.213  0.00  0.00    +0.001 C 
ATOM     19  C   UNL A   1     -23.694  -1.821  29.252  0.00  0.00    +0.005 C 
ATOM     20  C   UNL A   1     -22.303  -1.789  29.162  0.00  0.00    +0.000 C 
ATOM     21  C   UNL A   1     -23.849  -1.238  31.670  0.00  0.00    +0.005 C 
BRANCH  16  22
ATOM     22  C   UNL A   1     -24.442   1.740  30.352  0.00  0.00    +0.365 C 
ATOM     23  O   UNL A   1     -24.907   2.486  29.437  0.00  0.00    -0.246 OA
ATOM     24  O   UNL A   1     -24.787   1.882  31.686  0.00  0.00    -0.246 OA
ENDBRANCH  16  22
ENDBRANCH   4  15
TORSDOF 3
