REMARK  Name = outputs/IAG933/test6/raw/output_9580_IAG933_linker_design_.xyz
REMARK  13 active torsions:
REMARK  status: ('A' for Active; 'I' for Inactive)
REMARK    1  A    between atoms: C_1  and  C_2
REMARK    2  A    between atoms: C_1  and  C_8
REMARK    3  A    between atoms: C_1  and  N_39
REMARK    4  A    between atoms: C_13  and  C_34
REMARK    5  A    between atoms: C_14  and  C_15
REMARK    6  A    between atoms: C_21  and  O_22
REMARK    7  A    between atoms: O_22  and  C_23
REMARK    8  A    between atoms: C_23  and  C_24
REMARK    9  A    between atoms: C_30  and  C_32
REMARK   10  A    between atoms: C_32  and  C_43
REMARK   11  A    between atoms: C_38  and  N_41
REMARK   12  A    between atoms: C_38  and  C_44
REMARK   13  A    between atoms: C_42  and  C_44
REMARK                            x       y       z     vdW  Elec       q    Type
REMARK                         _______ _______ _______ _____ _____    ______ ____
ROOT
ATOM      1  C   UNL A   1     -24.921   1.112  27.513  0.00  0.00    -0.002 A 
ATOM      2  C   UNL A   1     -23.492   0.649  29.051  0.00  0.00    +0.149 A 
ATOM      3  N   UNL A   1     -24.623  -0.051  29.211  0.00  0.00    -0.314 N 
ATOM      4  N   UNL A   1     -22.665   0.931  30.022  0.00  0.00    -0.109 NA
ATOM      5  C   UNL A   1     -25.629   0.379  28.547  0.00  0.00    +0.036 A 
ATOM      6  C   UNL A   1     -23.529   1.169  27.743  0.00  0.00    +0.043 A 
ENDROOT
BRANCH   1   7
ATOM      7  C   UNL A   1     -25.688   1.614  26.461  0.00  0.00    +0.093 C 
ATOM      8  C   UNL A   1     -26.250   2.920  26.395  0.00  0.00    +0.059 C 
ATOM      9  C   UNL A   1     -27.438   3.091  25.645  0.00  0.00    +0.102 C 
ATOM     10  N   UNL A   1     -28.075   2.089  25.003  0.00  0.00    -0.212 NA
ATOM     11  C   UNL A   1     -27.543   0.849  25.079  0.00  0.00    +0.234 C 
ATOM     12  C   UNL A   1     -26.354   0.576  25.777  0.00  0.00    +0.244 C 
ATOM     13  F   UNL A   1     -25.860  -0.681  25.795  0.00  0.00    -0.227 F 
BRANCH   8  14
ATOM     14  C   UNL A   1     -25.642   4.093  27.123  0.00  0.00    +0.263 C 
ATOM     15  N   UNL A   1     -25.614   5.252  26.449  0.00  0.00    -0.200 NA
ATOM     16  C   UNL A   1     -25.026   6.479  26.963  0.00  0.00    +0.139 C 
ATOM     17  O   UNL A   1     -25.143   3.966  28.243  0.00  0.00    -0.269 OA
ENDBRANCH   8  14
BRANCH  11  18
ATOM     18  O   UNL A   1     -28.193  -0.208  24.477  0.00  0.00    -0.459 OA
BRANCH  18  19
ATOM     19  C   UNL A   1     -29.460   0.005  23.866  0.00  0.00    +0.242 C 
BRANCH  19  20
ATOM     20  C   UNL A   1     -30.065  -1.377  23.573  0.00  0.00    +0.229 C 
ATOM     21  O   UNL A   1     -30.729  -1.878  24.721  0.00  0.00    -0.216 OA
ENDBRANCH  19  20
ENDBRANCH  18  19
ENDBRANCH  11  18
ENDBRANCH   1   7
BRANCH   6  23
ATOM     22  F   UNL A   1     -21.132   1.477  26.952  0.00  0.00    -0.229 F 
ATOM     23  C   UNL A   1     -22.491   1.942  26.889  0.00  0.00    +0.221 C 
BRANCH  23  25
ATOM     24  F   UNL A   1     -23.105   1.039  24.699  0.00  0.00    -0.231 F 
ATOM     25  C   UNL A   1     -22.752   2.156  25.410  0.00  0.00    +0.233 C 
ENDBRANCH  23  25
ENDBRANCH   6  23
BRANCH   3  26
ATOM     26  C   UNL A   1     -24.855  -1.012  30.143  0.00  0.00    +0.125 C 
BRANCH  26  27
ATOM     27  C   UNL A   1     -24.973  -2.505  29.788  0.00  0.00    -0.000 C 
ATOM     28  C   UNL A   1     -23.906  -3.173  29.146  0.00  0.00    -0.002 C 
ATOM     29  C   UNL A   1     -23.989  -4.549  28.853  0.00  0.00    -0.000 C 
ATOM     30  C   UNL A   1     -25.137  -5.280  29.205  0.00  0.00    -0.000 C 
ATOM     31  C   UNL A   1     -26.232  -4.611  29.784  0.00  0.00    -0.000 C 
ATOM     32  C   UNL A   1     -26.155  -3.232  30.065  0.00  0.00    -0.002 C 
ENDBRANCH  26  27
BRANCH  26  33
ATOM     33  C   UNL A   1     -25.387  -0.679  31.571  0.00  0.00    +0.098 C 
ATOM     34  C   UNL A   1     -25.189   0.773  32.028  0.00  0.00    +0.021 C 
ATOM     35  C   UNL A   1     -25.336   0.684  33.544  0.00  0.00    +0.020 C 
ATOM     36  C   UNL A   1     -24.829  -0.715  33.905  0.00  0.00    +0.089 C 
ATOM     37  N   UNL A   1     -24.758  -1.481  32.646  0.00  0.00    -0.217 NA
ENDBRANCH  26  33
ENDBRANCH   3  26
BRANCH   5  38
ATOM     38  C   UNL A   1     -27.064  -0.138  28.753  0.00  0.00    +0.061 C 
BRANCH  38  39
ATOM     39  C   UNL A   1     -28.156   0.748  29.448  0.00  0.00    +0.078 C 
BRANCH  39  44
ATOM     40  C   UNL A   1     -31.210  -0.798  28.080  0.00  0.00    +0.019 C 
ATOM     41  C   UNL A   1     -29.814  -0.763  30.076  0.00  0.00    +0.072 C 
ATOM     42  C   UNL A   1     -29.985   0.024  27.756  0.00  0.00    +0.072 C 
ATOM     43  C   UNL A   1     -30.801  -1.628  29.303  0.00  0.00    +0.019 C 
ATOM     44  N   UNL A   1     -29.462   0.272  29.108  0.00  0.00    -0.272 NA
ENDBRANCH  39  44
ENDBRANCH  38  39
ENDBRANCH   5  38
TORSDOF 13
