REMARK  Name = No_959-gen_results/8p0m/2024-11-27-11-27-31/
REMARK  3 active torsions:
REMARK  status: ('A' for Active; 'I' for Inactive)
REMARK    1  A    between atoms: C_1  and  C_2
REMARK    2  A    between atoms: C_5  and  C_12
REMARK    3  A    between atoms: C_17  and  C_18
REMARK                            x       y       z     vdW  Elec       q    Type
REMARK                         _______ _______ _______ _____ _____    ______ ____
ROOT
ATOM      1  C   UNL A   1     -28.016  -0.814  28.878  0.00  0.00    +0.249 C 
ATOM      2  N   UNL A   1     -27.982  -1.637  30.075  0.00  0.00    -0.276 N 
ATOM      3  O   UNL A   1     -29.032  -0.782  28.370  0.00  0.00    -0.270 OA
ATOM      4  C   UNL A   1     -29.034  -2.538  30.503  0.00  0.00    +0.094 C 
ATOM      5  C   UNL A   1     -26.721  -1.741  30.893  0.00  0.00    +0.101 C 
ATOM      6  C   UNL A   1     -29.478  -2.287  31.816  0.00  0.00    +0.022 C 
ATOM      7  C   UNL A   1     -28.866  -1.171  32.398  0.00  0.00    +0.011 C 
ATOM      8  C   UNL A   1     -27.362  -1.202  32.430  0.00  0.00    +0.085 C 
ENDROOT
BRANCH   1   9
ATOM      9  C   UNL A   1     -27.064  -0.119  28.608  0.00  0.00    +0.054 A 
ATOM     10  C   UNL A   1     -26.929   1.171  29.008  0.00  0.00    +0.005 A 
ATOM     11  C   UNL A   1     -25.770   2.034  28.688  0.00  0.00    +0.001 A 
ATOM     12  C   UNL A   1     -24.714   1.443  27.919  0.00  0.00    +0.015 A 
ATOM     13  C   UNL A   1     -24.859   0.078  27.584  0.00  0.00    +0.001 A 
ATOM     14  C   UNL A   1     -25.965  -0.661  27.916  0.00  0.00    +0.005 A 
BRANCH  12  15
ATOM     15  C   UNL A   1     -23.512   2.153  27.544  0.00  0.00    +0.081 C 
ATOM     16  N   UNL A   1     -22.353   2.254  27.816  0.00  0.00    -0.153 NA
ATOM     17  C   UNL A   1     -23.820   2.992  26.258  0.00  0.00    +0.054 C 
ENDBRANCH  12  15
ENDBRANCH   1   9
BRANCH   8  18
ATOM     18  C   UNL A   1     -26.461  -0.585  33.239  0.00  0.00    +0.209 C 
ATOM     19  O   UNL A   1     -26.601  -0.723  34.335  0.00  0.00    -0.288 OA
ENDBRANCH   8  18
TORSDOF 3
