REMARK  Name = outputs/IAG933/test6/raw/output_9595_IAG933_linker_design_.xyz
REMARK  13 active torsions:
REMARK  status: ('A' for Active; 'I' for Inactive)
REMARK    1  A    between atoms: C_1  and  C_2
REMARK    2  A    between atoms: C_1  and  C_8
REMARK    3  A    between atoms: C_1  and  N_42
REMARK    4  A    between atoms: C_13  and  N_36
REMARK    5  A    between atoms: C_14  and  C_15
REMARK    6  A    between atoms: C_21  and  O_22
REMARK    7  A    between atoms: O_22  and  C_23
REMARK    8  A    between atoms: C_23  and  C_24
REMARK    9  A    between atoms: C_29  and  C_38
REMARK   10  A    between atoms: C_29  and  N_42
REMARK   11  A    between atoms: N_36  and  C_43
REMARK   12  A    between atoms: C_38  and  C_44
REMARK   13  A    between atoms: C_45  and  C_46
REMARK                            x       y       z     vdW  Elec       q    Type
REMARK                         _______ _______ _______ _____ _____    ______ ____
ROOT
ATOM      1  C   UNL A   1     -22.884   1.961  26.245  0.00  0.00    +0.367 C 
ATOM      2  F   UNL A   1     -23.323   2.195  25.096  0.00  0.00    -0.182 F 
ATOM      3  O   UNL A   1     -21.581   2.363  26.381  0.00  0.00    -0.442 OA
ATOM      4  C   UNL A   1     -21.448   1.047  28.377  0.00  0.00    +0.046 C 
ATOM      5  C   UNL A   1     -20.833   1.923  27.445  0.00  0.00    +0.176 C 
ATOM      6  C   UNL A   1     -23.589   1.317  27.247  0.00  0.00    +0.127 C 
ATOM      7  C   UNL A   1     -22.876   0.860  28.353  0.00  0.00    +0.074 C 
ENDROOT
BRANCH   7  10
ATOM      8  O   UNL A   1     -22.755  -0.520  30.062  0.00  0.00    -0.270 OA
ATOM      9  N   UNL A   1     -24.949   0.217  29.366  0.00  0.00    -0.273 N 
ATOM     10  C   UNL A   1     -23.491   0.360  29.486  0.00  0.00    +0.251 C 
BRANCH   9  11
ATOM     11  C   UNL A   1     -24.855  -1.012  30.143  0.00  0.00    +0.114 C 
BRANCH  11  12
ATOM     12  C   UNL A   1     -24.973  -2.505  29.788  0.00  0.00    -0.003 C 
ATOM     13  C   UNL A   1     -23.906  -3.173  29.146  0.00  0.00    -0.003 C 
ATOM     14  C   UNL A   1     -23.989  -4.549  28.853  0.00  0.00    -0.000 C 
ATOM     15  C   UNL A   1     -25.137  -5.280  29.205  0.00  0.00    -0.000 C 
ATOM     16  C   UNL A   1     -26.232  -4.611  29.784  0.00  0.00    -0.000 C 
ATOM     17  C   UNL A   1     -26.155  -3.232  30.065  0.00  0.00    -0.003 C 
ENDBRANCH  11  12
BRANCH  11  18
ATOM     18  C   UNL A   1     -25.387  -0.679  31.571  0.00  0.00    +0.095 C 
ATOM     19  C   UNL A   1     -25.189   0.773  32.028  0.00  0.00    +0.021 C 
ATOM     20  C   UNL A   1     -25.336   0.684  33.544  0.00  0.00    +0.020 C 
ATOM     21  C   UNL A   1     -24.829  -0.715  33.905  0.00  0.00    +0.089 C 
ATOM     22  N   UNL A   1     -24.758  -1.481  32.646  0.00  0.00    -0.217 NA
ENDBRANCH  11  18
ENDBRANCH   9  11
BRANCH   9  23
ATOM     23  C   UNL A   1     -26.271   0.235  28.761  0.00  0.00    +0.094 C 
BRANCH  23  24
ATOM     24  C   UNL A   1     -27.826   0.216  28.672  0.00  0.00    +0.027 C 
BRANCH  24  30
ATOM     25  O   UNL A   1     -30.299   0.559  28.378  0.00  0.00    -0.220 OA
ATOM     26  C   UNL A   1     -29.206   0.896  31.080  0.00  0.00    +0.145 C 
ATOM     27  O   UNL A   1     -30.043   1.983  31.396  0.00  0.00    -0.351 OA
ATOM     28  C   UNL A   1     -29.826   1.748  29.027  0.00  0.00    +0.184 C 
ATOM     29  C   UNL A   1     -30.721   2.372  30.204  0.00  0.00    +0.175 C 
ATOM     30  C   UNL A   1     -28.550   1.204  29.686  0.00  0.00    +0.064 C 
ENDBRANCH  24  30
ENDBRANCH  23  24
ENDBRANCH   9  23
ENDBRANCH   7  10
BRANCH   6  31
ATOM     31  N   UNL A   1     -24.753   1.348  27.168  0.00  0.00    -0.208 NA
BRANCH  31  32
ATOM     32  C   UNL A   1     -25.688   1.614  26.461  0.00  0.00    +0.108 C 
ATOM     33  C   UNL A   1     -26.250   2.920  26.395  0.00  0.00    +0.092 C 
ATOM     34  C   UNL A   1     -27.438   3.091  25.645  0.00  0.00    +0.108 C 
ATOM     35  N   UNL A   1     -28.075   2.089  25.003  0.00  0.00    -0.208 NA
ATOM     36  C   UNL A   1     -27.543   0.849  25.079  0.00  0.00    +0.255 C 
ATOM     37  C   UNL A   1     -26.354   0.576  25.777  0.00  0.00    +0.208 C 
ATOM     38  F   UNL A   1     -25.860  -0.681  25.795  0.00  0.00    -0.198 F 
BRANCH  33  39
ATOM     39  C   UNL A   1     -25.642   4.093  27.123  0.00  0.00    +0.268 C 
ATOM     40  N   UNL A   1     -25.614   5.252  26.449  0.00  0.00    -0.200 NA
ATOM     41  C   UNL A   1     -25.026   6.479  26.963  0.00  0.00    +0.139 C 
ATOM     42  O   UNL A   1     -25.143   3.966  28.243  0.00  0.00    -0.268 OA
ENDBRANCH  33  39
BRANCH  36  43
ATOM     43  O   UNL A   1     -28.193  -0.208  24.477  0.00  0.00    -0.456 OA
BRANCH  43  44
ATOM     44  C   UNL A   1     -29.460   0.005  23.866  0.00  0.00    +0.243 C 
BRANCH  44  45
ATOM     45  C   UNL A   1     -30.065  -1.377  23.573  0.00  0.00    +0.229 C 
ATOM     46  O   UNL A   1     -30.729  -1.878  24.721  0.00  0.00    -0.216 OA
ENDBRANCH  44  45
ENDBRANCH  43  44
ENDBRANCH  36  43
ENDBRANCH  31  32
ENDBRANCH   6  31
TORSDOF 13
