REMARK  Name = outputs/IAG933/test6/raw/output_9598_IAG933_linker_design_.xyz
REMARK  9 active torsions:
REMARK  status: ('A' for Active; 'I' for Inactive)
REMARK    1  A    between atoms: C_1  and  C_2
REMARK    2  A    between atoms: C_1  and  C_8
REMARK    3  A    between atoms: C_1  and  N_38
REMARK    4  A    between atoms: C_13  and  C_33
REMARK    5  A    between atoms: C_14  and  C_15
REMARK    6  A    between atoms: C_21  and  O_22
REMARK    7  A    between atoms: O_22  and  C_23
REMARK    8  A    between atoms: C_23  and  C_24
REMARK    9  A    between atoms: O_36  and  C_40
REMARK                            x       y       z     vdW  Elec       q    Type
REMARK                         _______ _______ _______ _____ _____    ______ ____
ROOT
ATOM      1  C   UNL A   1     -25.171   0.418  28.280  0.00  0.00    +0.254 C 
ATOM      2  O   UNL A   1     -21.766  -0.823  30.615  0.00  0.00    -0.216 OA
ATOM      3  C   UNL A   1     -22.917   0.621  29.140  0.00  0.00    +0.251 C 
ATOM      4  O   UNL A   1     -20.983   1.396  27.986  0.00  0.00    -0.342 OA
ATOM      5  C   UNL A   1     -22.366   1.410  27.931  0.00  0.00    +0.224 C 
ATOM      6  C   UNL A   1     -24.682   1.232  27.200  0.00  0.00    +0.093 C 
ATOM      7  C   UNL A   1     -20.651   0.131  28.502  0.00  0.00    +0.180 C 
ATOM      8  O   UNL A   1     -26.407  -0.322  28.221  0.00  0.00    -0.270 OA
ATOM      9  N   UNL A   1     -24.334   0.015  29.255  0.00  0.00    -0.247 N 
ATOM     10  C   UNL A   1     -21.866  -0.487  29.221  0.00  0.00    +0.230 C 
ATOM     11  C   UNL A   1     -23.316   1.608  27.003  0.00  0.00    +0.202 C 
ATOM     12  O   UNL A   1     -22.895   1.683  30.125  0.00  0.00    -0.199 OA
ENDROOT
BRANCH   6  13
ATOM     13  C   UNL A   1     -25.688   1.614  26.461  0.00  0.00    +0.045 C 
ATOM     14  C   UNL A   1     -26.250   2.920  26.395  0.00  0.00    +0.077 C 
ATOM     15  C   UNL A   1     -27.438   3.091  25.645  0.00  0.00    +0.107 C 
ATOM     16  N   UNL A   1     -28.075   2.089  25.003  0.00  0.00    -0.208 NA
ATOM     17  C   UNL A   1     -27.543   0.849  25.079  0.00  0.00    +0.253 C 
ATOM     18  C   UNL A   1     -26.354   0.576  25.777  0.00  0.00    +0.193 C 
ATOM     19  F   UNL A   1     -25.860  -0.681  25.795  0.00  0.00    -0.199 F 
BRANCH  14  20
ATOM     20  C   UNL A   1     -25.642   4.093  27.123  0.00  0.00    +0.266 C 
ATOM     21  N   UNL A   1     -25.614   5.252  26.449  0.00  0.00    -0.200 NA
ATOM     22  C   UNL A   1     -25.026   6.479  26.963  0.00  0.00    +0.139 C 
ATOM     23  O   UNL A   1     -25.143   3.966  28.243  0.00  0.00    -0.268 OA
ENDBRANCH  14  20
BRANCH  17  24
ATOM     24  O   UNL A   1     -28.193  -0.208  24.477  0.00  0.00    -0.456 OA
BRANCH  24  25
ATOM     25  C   UNL A   1     -29.460   0.005  23.866  0.00  0.00    +0.243 C 
BRANCH  25  26
ATOM     26  C   UNL A   1     -30.065  -1.377  23.573  0.00  0.00    +0.229 C 
ATOM     27  O   UNL A   1     -30.729  -1.878  24.721  0.00  0.00    -0.216 OA
ENDBRANCH  25  26
ENDBRANCH  24  25
ENDBRANCH  17  24
ENDBRANCH   6  13
BRANCH  11  29
ATOM     28  F   UNL A   1     -21.745   1.926  25.416  0.00  0.00    +0.014 F 
ATOM     29  O   UNL A   1     -22.966   2.154  25.852  0.00  0.00    -0.294 OA
ENDBRANCH  11  29
BRANCH   9  30
ATOM     30  C   UNL A   1     -24.855  -1.012  30.143  0.00  0.00    +0.116 C 
BRANCH  30  31
ATOM     31  C   UNL A   1     -24.973  -2.505  29.788  0.00  0.00    -0.003 C 
ATOM     32  C   UNL A   1     -23.906  -3.173  29.146  0.00  0.00    -0.003 C 
ATOM     33  C   UNL A   1     -23.989  -4.549  28.853  0.00  0.00    -0.000 C 
ATOM     34  C   UNL A   1     -25.137  -5.280  29.205  0.00  0.00    -0.000 C 
ATOM     35  C   UNL A   1     -26.232  -4.611  29.784  0.00  0.00    -0.000 C 
ATOM     36  C   UNL A   1     -26.155  -3.232  30.065  0.00  0.00    -0.003 C 
ENDBRANCH  30  31
BRANCH  30  37
ATOM     37  C   UNL A   1     -25.387  -0.679  31.571  0.00  0.00    +0.095 C 
ATOM     38  C   UNL A   1     -25.189   0.773  32.028  0.00  0.00    +0.021 C 
ATOM     39  C   UNL A   1     -25.336   0.684  33.544  0.00  0.00    +0.020 C 
ATOM     40  C   UNL A   1     -24.829  -0.715  33.905  0.00  0.00    +0.089 C 
ATOM     41  N   UNL A   1     -24.758  -1.481  32.646  0.00  0.00    -0.217 NA
ENDBRANCH  30  37
ENDBRANCH   9  30
TORSDOF 9
