REMARK  Name = outputs/IAG933/test6/raw/output_9599_IAG933_linker_design_.xyz
REMARK  11 active torsions:
REMARK  status: ('A' for Active; 'I' for Inactive)
REMARK    1  A    between atoms: C_1  and  C_2
REMARK    2  A    between atoms: C_1  and  C_8
REMARK    3  A    between atoms: C_1  and  C_45
REMARK    4  A    between atoms: C_13  and  C_38
REMARK    5  A    between atoms: C_14  and  C_15
REMARK    6  A    between atoms: C_21  and  O_22
REMARK    7  A    between atoms: O_22  and  C_23
REMARK    8  A    between atoms: C_23  and  C_24
REMARK    9  A    between atoms: C_33  and  C_37
REMARK   10  A    between atoms: C_37  and  C_45
REMARK   11  A    between atoms: C_43  and  C_45
REMARK                            x       y       z     vdW  Elec       q    Type
REMARK                         _______ _______ _______ _____ _____    ______ ____
ROOT
ATOM      1  C   UNL A   1     -25.263   0.196  29.088  0.00  0.00    +0.009 C 
ENDROOT
BRANCH   1   6
ATOM      2  C   UNL A   1     -22.377   0.283  28.261  0.00  0.00    +0.152 C 
ATOM      3  C   UNL A   1     -21.963   1.476  27.546  0.00  0.00    +0.033 C 
ATOM      4  C   UNL A   1     -24.320   1.179  26.946  0.00  0.00    +0.027 C 
ATOM      5  O   UNL A   1     -22.142  -0.117  29.612  0.00  0.00    -0.223 OA
ATOM      6  C   UNL A   1     -23.996   0.695  28.366  0.00  0.00    +0.035 C 
ATOM      7  C   UNL A   1     -23.123   1.849  26.432  0.00  0.00    +0.007 C 
BRANCH   4   8
ATOM      8  C   UNL A   1     -25.688   1.614  26.461  0.00  0.00    +0.016 C 
ATOM      9  C   UNL A   1     -26.250   2.920  26.395  0.00  0.00    +0.073 C 
ATOM     10  C   UNL A   1     -27.438   3.091  25.645  0.00  0.00    +0.106 C 
ATOM     11  N   UNL A   1     -28.075   2.089  25.003  0.00  0.00    -0.208 NA
ATOM     12  C   UNL A   1     -27.543   0.849  25.079  0.00  0.00    +0.253 C 
ATOM     13  C   UNL A   1     -26.354   0.576  25.777  0.00  0.00    +0.189 C 
ATOM     14  F   UNL A   1     -25.860  -0.681  25.795  0.00  0.00    -0.200 F 
BRANCH   9  15
ATOM     15  C   UNL A   1     -25.642   4.093  27.123  0.00  0.00    +0.266 C 
ATOM     16  N   UNL A   1     -25.614   5.252  26.449  0.00  0.00    -0.200 NA
ATOM     17  C   UNL A   1     -25.026   6.479  26.963  0.00  0.00    +0.139 C 
ATOM     18  O   UNL A   1     -25.143   3.966  28.243  0.00  0.00    -0.268 OA
ENDBRANCH   9  15
BRANCH  12  19
ATOM     19  O   UNL A   1     -28.193  -0.208  24.477  0.00  0.00    -0.456 OA
BRANCH  19  20
ATOM     20  C   UNL A   1     -29.460   0.005  23.866  0.00  0.00    +0.243 C 
BRANCH  20  21
ATOM     21  C   UNL A   1     -30.065  -1.377  23.573  0.00  0.00    +0.229 C 
ATOM     22  O   UNL A   1     -30.729  -1.878  24.721  0.00  0.00    -0.216 OA
ENDBRANCH  20  21
ENDBRANCH  19  20
ENDBRANCH  12  19
ENDBRANCH   4   8
ENDBRANCH   1   6
BRANCH   1  23
ATOM     23  C   UNL A   1     -24.855  -1.012  30.143  0.00  0.00    +0.038 C 
BRANCH  23  24
ATOM     24  C   UNL A   1     -24.973  -2.505  29.788  0.00  0.00    -0.021 C 
ATOM     25  C   UNL A   1     -23.906  -3.173  29.146  0.00  0.00    -0.004 C 
ATOM     26  C   UNL A   1     -23.989  -4.549  28.853  0.00  0.00    -0.000 C 
ATOM     27  C   UNL A   1     -25.137  -5.280  29.205  0.00  0.00    -0.000 C 
ATOM     28  C   UNL A   1     -26.232  -4.611  29.784  0.00  0.00    -0.000 C 
ATOM     29  C   UNL A   1     -26.155  -3.232  30.065  0.00  0.00    -0.004 C 
ENDBRANCH  23  24
BRANCH  23  30
ATOM     30  C   UNL A   1     -25.387  -0.679  31.571  0.00  0.00    +0.077 C 
ATOM     31  C   UNL A   1     -25.189   0.773  32.028  0.00  0.00    +0.019 C 
ATOM     32  C   UNL A   1     -25.336   0.684  33.544  0.00  0.00    +0.020 C 
ATOM     33  C   UNL A   1     -24.829  -0.715  33.905  0.00  0.00    +0.089 C 
ATOM     34  N   UNL A   1     -24.758  -1.481  32.646  0.00  0.00    -0.219 NA
ENDBRANCH  23  30
ENDBRANCH   1  23
BRANCH   1  35
ATOM     35  C   UNL A   1     -26.128   1.401  29.342  0.00  0.00    +0.009 C 
BRANCH  35  39
ATOM     36  C   UNL A   1     -27.822   2.873  30.755  0.00  0.00    +0.065 C 
ATOM     37  O   UNL A   1     -27.968   4.785  32.507  0.00  0.00    -0.471 OA
ATOM     38  C   UNL A   1     -29.789   3.238  33.147  0.00  0.00    +0.069 C 
ATOM     39  C   UNL A   1     -27.294   1.758  29.756  0.00  0.00    +0.071 C 
ATOM     40  C   UNL A   1     -29.669   1.859  29.670  0.00  0.00    +0.124 C 
ATOM     41  C   UNL A   1     -29.694   2.154  32.173  0.00  0.00    +0.095 C 
ATOM     42  N   UNL A   1     -29.097   2.471  30.891  0.00  0.00    -0.306 N 
ATOM     43  C   UNL A   1     -28.550   4.090  33.633  0.00  0.00    +0.207 C 
ATOM     44  C   UNL A   1     -28.562   0.853  29.745  0.00  0.00    +0.177 C 
ATOM     45  C   UNL A   1     -27.332   3.800  31.557  0.00  0.00    +0.182 C 
ATOM     46  O   UNL A   1     -28.177  -0.266  30.379  0.00  0.00    -0.221 OA
ENDBRANCH  35  39
ENDBRANCH   1  35
TORSDOF 11
