MODEL 95
MODEL 1
REMARK VINA RESULT:    -4.348      0.000      0.000
REMARK INTER + INTRA:          -4.348
REMARK INTER:                  -4.348
REMARK INTRA:                   0.000
REMARK UNBOUND:                 0.000
REMARK  Name = No_95-gen_results/8p0m/2024-11-27-11-27-31/
REMARK  0 active torsions:
REMARK  status: ('A' for Active; 'I' for Inactive)
REMARK                            x       y       z     vdW  Elec       q    Type
REMARK                         _______ _______ _______ _____ _____    ______ ____
ROOT
ATOM      1  C   UNL A   1     -24.165  -4.893  28.597  0.00  0.00    +0.000 A 
ATOM      2  C   UNL A   1     -25.016  -5.307  29.061  0.00  0.00    +0.000 A 
ATOM      3  C   UNL A   1     -24.064  -3.437  28.755  0.00  0.00    +0.000 A 
ATOM      4  C   UNL A   1     -25.049  -2.702  29.274  0.00  0.00    +0.000 A 
ATOM      5  C   UNL A   1     -26.200  -4.729  29.649  0.00  0.00    +0.000 A 
ATOM      6  C   UNL A   1     -26.098  -3.374  29.764  0.00  0.00    +0.000 A 
ENDROOT
TORSDOF 0
ENDMDL
ENDMDL
