REMARK  Name = outputs/IAG933/test6/raw/output_9603_IAG933_linker_design_.xyz
REMARK  14 active torsions:
REMARK  status: ('A' for Active; 'I' for Inactive)
REMARK    1  A    between atoms: C_1  and  C_2
REMARK    2  A    between atoms: C_1  and  C_8
REMARK    3  A    between atoms: C_1  and  C_50
REMARK    4  A    between atoms: C_13  and  C_30
REMARK    5  A    between atoms: C_14  and  C_15
REMARK    6  A    between atoms: C_21  and  O_22
REMARK    7  A    between atoms: O_22  and  C_23
REMARK    8  A    between atoms: C_23  and  C_24
REMARK    9  A    between atoms: C_31  and  C_44
REMARK   10  A    between atoms: C_34  and  C_40
REMARK   11  A    between atoms: C_39  and  C_40
REMARK   12  A    between atoms: C_39  and  C_50
REMARK   13  A    between atoms: S_41  and  N_48
REMARK   14  A    between atoms: C_50  and  N_51
REMARK                            x       y       z     vdW  Elec       q    Type
REMARK                         _______ _______ _______ _____ _____    ______ ____
ROOT
ATOM      1  C   UNL A   1     -25.297  -0.049  29.059  0.00  0.00    +0.063 C 
ENDROOT
BRANCH   1   6
ATOM      2  C   UNL A   1     -24.434   1.583  27.396  0.00  0.00    +0.083 C 
ATOM      3  C   UNL A   1     -23.092   1.861  26.691  0.00  0.00    +0.022 C 
ATOM      4  C   UNL A   1     -22.069   1.217  27.637  0.00  0.00    +0.019 C 
ATOM      5  C   UNL A   1     -22.728   0.207  28.531  0.00  0.00    +0.072 C 
ATOM      6  N   UNL A   1     -24.201   0.592  28.357  0.00  0.00    -0.271 NA
BRANCH   2   7
ATOM      7  C   UNL A   1     -25.688   1.614  26.461  0.00  0.00    +0.030 C 
ATOM      8  C   UNL A   1     -26.250   2.920  26.395  0.00  0.00    +0.074 C 
ATOM      9  C   UNL A   1     -27.438   3.091  25.645  0.00  0.00    +0.106 C 
ATOM     10  N   UNL A   1     -28.075   2.089  25.003  0.00  0.00    -0.208 NA
ATOM     11  C   UNL A   1     -27.543   0.849  25.079  0.00  0.00    +0.253 C 
ATOM     12  C   UNL A   1     -26.354   0.576  25.777  0.00  0.00    +0.190 C 
ATOM     13  F   UNL A   1     -25.860  -0.681  25.795  0.00  0.00    -0.200 F 
BRANCH   8  14
ATOM     14  C   UNL A   1     -25.642   4.093  27.123  0.00  0.00    +0.266 C 
ATOM     15  N   UNL A   1     -25.614   5.252  26.449  0.00  0.00    -0.200 NA
ATOM     16  C   UNL A   1     -25.026   6.479  26.963  0.00  0.00    +0.139 C 
ATOM     17  O   UNL A   1     -25.143   3.966  28.243  0.00  0.00    -0.268 OA
ENDBRANCH   8  14
BRANCH  11  18
ATOM     18  O   UNL A   1     -28.193  -0.208  24.477  0.00  0.00    -0.456 OA
BRANCH  18  19
ATOM     19  C   UNL A   1     -29.460   0.005  23.866  0.00  0.00    +0.243 C 
BRANCH  19  20
ATOM     20  C   UNL A   1     -30.065  -1.377  23.573  0.00  0.00    +0.229 C 
ATOM     21  O   UNL A   1     -30.729  -1.878  24.721  0.00  0.00    -0.216 OA
ENDBRANCH  19  20
ENDBRANCH  18  19
ENDBRANCH  11  18
ENDBRANCH   2   7
ENDBRANCH   1   6
BRANCH   1  22
ATOM     22  C   UNL A   1     -24.855  -1.012  30.143  0.00  0.00    +0.053 C 
BRANCH  22  23
ATOM     23  C   UNL A   1     -24.973  -2.505  29.788  0.00  0.00    -0.020 C 
ATOM     24  C   UNL A   1     -23.906  -3.173  29.146  0.00  0.00    -0.004 C 
ATOM     25  C   UNL A   1     -23.989  -4.549  28.853  0.00  0.00    -0.000 C 
ATOM     26  C   UNL A   1     -25.137  -5.280  29.205  0.00  0.00    -0.000 C 
ATOM     27  C   UNL A   1     -26.232  -4.611  29.784  0.00  0.00    -0.000 C 
ATOM     28  C   UNL A   1     -26.155  -3.232  30.065  0.00  0.00    -0.004 C 
ENDBRANCH  22  23
BRANCH  22  29
ATOM     29  C   UNL A   1     -25.387  -0.679  31.571  0.00  0.00    +0.078 C 
ATOM     30  C   UNL A   1     -25.189   0.773  32.028  0.00  0.00    +0.019 C 
ATOM     31  C   UNL A   1     -25.336   0.684  33.544  0.00  0.00    +0.020 C 
ATOM     32  C   UNL A   1     -24.829  -0.715  33.905  0.00  0.00    +0.089 C 
ATOM     33  N   UNL A   1     -24.758  -1.481  32.646  0.00  0.00    -0.219 NA
ENDBRANCH  22  29
ENDBRANCH   1  22
BRANCH   1  34
ATOM     34  C   UNL A   1     -26.732   0.334  28.476  0.00  0.00    +0.016 C 
BRANCH  34  35
ATOM     35  C   UNL A   1     -27.522   1.371  29.335  0.00  0.00    +0.003 C 
BRANCH  35  40
ATOM     36  C   UNL A   1     -29.425   2.384  29.221  0.00  0.00    +0.086 C 
ATOM     37  O   UNL A   1     -34.085   2.460  28.615  0.00  0.00    -0.114 OA
ATOM     38  N   UNL A   1     -33.002   1.828  27.939  0.00  0.00    -0.087 NA
ATOM     39  C   UNL A   1     -29.692   0.201  28.149  0.00  0.00    +0.034 C 
ATOM     40  C   UNL A   1     -29.156   1.183  29.247  0.00  0.00    +0.019 C 
ATOM     41  C   UNL A   1     -33.106   0.998  26.924  0.00  0.00    +0.237 C 
ATOM     42  C   UNL A   1     -31.735   1.848  28.262  0.00  0.00    +0.185 C 
ATOM     43  O   UNL A   1     -31.845   0.172  26.791  0.00  0.00    -0.336 OA
ATOM     44  N   UNL A   1     -30.906   2.727  28.724  0.00  0.00    -0.205 NA
ATOM     45  C   UNL A   1     -30.921   0.872  27.461  0.00  0.00    +0.150 C 
BRANCH  44  47
ATOM     46  O   UNL A   1     -31.752   4.400  30.260  0.00  0.00    -0.157 OA
ATOM     47  S   UNL A   1     -31.023   4.334  28.942  0.00  0.00    -0.019 S 
ATOM     48  C   UNL A   1     -31.742   5.360  27.841  0.00  0.00    +0.096 C 
ATOM     49  C   UNL A   1     -30.224   5.310  27.757  0.00  0.00    +0.096 C 
ENDBRANCH  44  47
BRANCH  41  50
ATOM     50  C   UNL A   1     -34.103   0.854  25.812  0.00  0.00    +0.231 C 
ATOM     51  O   UNL A   1     -33.629   0.195  24.650  0.00  0.00    -0.216 OA
ENDBRANCH  41  50
ENDBRANCH  35  40
ENDBRANCH  34  35
ENDBRANCH   1  34
TORSDOF 14
