REMARK  Name = outputs/IAG933/test6/raw/output_9604_IAG933_linker_design_.xyz
REMARK  11 active torsions:
REMARK  status: ('A' for Active; 'I' for Inactive)
REMARK    1  A    between atoms: C_1  and  C_2
REMARK    2  A    between atoms: C_1  and  C_8
REMARK    3  A    between atoms: C_1  and  C_33
REMARK    4  A    between atoms: C_13  and  C_42
REMARK    5  A    between atoms: C_14  and  C_15
REMARK    6  A    between atoms: C_21  and  O_22
REMARK    7  A    between atoms: O_22  and  C_23
REMARK    8  A    between atoms: C_23  and  C_24
REMARK    9  A    between atoms: N_29  and  C_33
REMARK   10  A    between atoms: C_36  and  C_45
REMARK   11  A    between atoms: S_39  and  C_45
REMARK                            x       y       z     vdW  Elec       q    Type
REMARK                         _______ _______ _______ _____ _____    ______ ____
ROOT
ATOM      1  C   UNL A   1     -25.746  -0.085  29.229  0.00  0.00    +0.067 C 
ATOM      2  S   UNL A   1     -27.451   0.550  28.785  0.00  0.00    -0.039 S 
ENDROOT
BRANCH   1   4
ATOM      3  C   UNL A   1     -23.592   0.135  28.527  0.00  0.00    +0.122 C 
ATOM      4  N   UNL A   1     -24.527   0.383  28.286  0.00  0.00    -0.281 N 
ATOM      5  C   UNL A   1     -21.533   1.114  27.975  0.00  0.00    -0.024 C 
ATOM      6  C   UNL A   1     -22.015   1.941  26.934  0.00  0.00    +0.053 C 
ATOM      7  C   UNL A   1     -24.442   1.219  27.245  0.00  0.00    +0.051 C 
ATOM      8  C   UNL A   1     -23.389   1.916  26.590  0.00  0.00    -0.006 C 
ATOM      9  C   UNL A   1     -22.240   0.149  28.684  0.00  0.00    -0.009 C 
BRANCH   7  10
ATOM     10  C   UNL A   1     -25.688   1.614  26.461  0.00  0.00    +0.051 C 
ATOM     11  C   UNL A   1     -26.250   2.920  26.395  0.00  0.00    +0.078 C 
ATOM     12  C   UNL A   1     -27.438   3.091  25.645  0.00  0.00    +0.107 C 
ATOM     13  N   UNL A   1     -28.075   2.089  25.003  0.00  0.00    -0.208 NA
ATOM     14  C   UNL A   1     -27.543   0.849  25.079  0.00  0.00    +0.253 C 
ATOM     15  C   UNL A   1     -26.354   0.576  25.777  0.00  0.00    +0.194 C 
ATOM     16  F   UNL A   1     -25.860  -0.681  25.795  0.00  0.00    -0.199 F 
BRANCH  11  17
ATOM     17  C   UNL A   1     -25.642   4.093  27.123  0.00  0.00    +0.267 C 
ATOM     18  N   UNL A   1     -25.614   5.252  26.449  0.00  0.00    -0.200 NA
ATOM     19  C   UNL A   1     -25.026   6.479  26.963  0.00  0.00    +0.139 C 
ATOM     20  O   UNL A   1     -25.143   3.966  28.243  0.00  0.00    -0.268 OA
ENDBRANCH  11  17
BRANCH  14  21
ATOM     21  O   UNL A   1     -28.193  -0.208  24.477  0.00  0.00    -0.456 OA
BRANCH  21  22
ATOM     22  C   UNL A   1     -29.460   0.005  23.866  0.00  0.00    +0.243 C 
BRANCH  22  23
ATOM     23  C   UNL A   1     -30.065  -1.377  23.573  0.00  0.00    +0.229 C 
ATOM     24  O   UNL A   1     -30.729  -1.878  24.721  0.00  0.00    -0.216 OA
ENDBRANCH  22  23
ENDBRANCH  21  22
ENDBRANCH  14  21
ENDBRANCH   7  10
ENDBRANCH   1   4
BRANCH   2  25
ATOM     25  C   UNL A   1     -29.024  -0.178  29.391  0.00  0.00    +0.206 C 
ATOM     26  O   UNL A   1     -29.000   0.471  30.658  0.00  0.00    -0.284 OA
BRANCH  25  31
ATOM     27  C   UNL A   1     -32.018  -2.156  28.040  0.00  0.00    +0.175 C 
ATOM     28  O   UNL A   1     -30.452  -0.682  27.082  0.00  0.00    -0.220 OA
ATOM     29  C   UNL A   1     -31.122  -3.485  29.854  0.00  0.00    +0.143 C 
ATOM     30  C   UNL A   1     -30.718  -2.155  30.503  0.00  0.00    +0.040 C 
ATOM     31  C   UNL A   1     -30.039  -1.367  29.388  0.00  0.00    +0.104 C 
ATOM     32  O   UNL A   1     -32.152  -3.342  28.870  0.00  0.00    -0.351 OA
ATOM     33  C   UNL A   1     -32.091  -1.523  31.117  0.00  0.00    +0.003 C 
ATOM     34  C   UNL A   1     -31.130  -0.937  28.340  0.00  0.00    +0.189 C 
ENDBRANCH  25  31
ENDBRANCH   2  25
BRANCH   1  35
ATOM     35  C   UNL A   1     -24.855  -1.012  30.143  0.00  0.00    +0.081 C 
BRANCH  35  36
ATOM     36  C   UNL A   1     -24.973  -2.505  29.788  0.00  0.00    -0.015 C 
ATOM     37  C   UNL A   1     -23.906  -3.173  29.146  0.00  0.00    -0.004 C 
ATOM     38  C   UNL A   1     -23.989  -4.549  28.853  0.00  0.00    -0.000 C 
ATOM     39  C   UNL A   1     -25.137  -5.280  29.205  0.00  0.00    -0.000 C 
ATOM     40  C   UNL A   1     -26.232  -4.611  29.784  0.00  0.00    -0.000 C 
ATOM     41  C   UNL A   1     -26.155  -3.232  30.065  0.00  0.00    -0.004 C 
ENDBRANCH  35  36
BRANCH  35  42
ATOM     42  C   UNL A   1     -25.387  -0.679  31.571  0.00  0.00    +0.083 C 
ATOM     43  C   UNL A   1     -25.189   0.773  32.028  0.00  0.00    +0.020 C 
ATOM     44  C   UNL A   1     -25.336   0.684  33.544  0.00  0.00    +0.020 C 
ATOM     45  C   UNL A   1     -24.829  -0.715  33.905  0.00  0.00    +0.089 C 
ATOM     46  N   UNL A   1     -24.758  -1.481  32.646  0.00  0.00    -0.219 NA
ENDBRANCH  35  42
ENDBRANCH   1  35
TORSDOF 11
