REMARK  Name = outputs/IAG933/test6/raw/output_9606_IAG933_linker_design_.xyz
REMARK  12 active torsions:
REMARK  status: ('A' for Active; 'I' for Inactive)
REMARK    1  A    between atoms: C_1  and  C_2
REMARK    2  A    between atoms: C_1  and  C_8
REMARK    3  A    between atoms: C_1  and  C_32
REMARK    4  A    between atoms: C_13  and  N_29
REMARK    5  A    between atoms: C_14  and  C_15
REMARK    6  A    between atoms: C_21  and  O_22
REMARK    7  A    between atoms: O_22  and  C_23
REMARK    8  A    between atoms: C_23  and  C_24
REMARK    9  A    between atoms: O_28  and  C_32
REMARK   10  A    between atoms: O_28  and  C_39
REMARK   11  A    between atoms: N_29  and  C_31
REMARK   12  A    between atoms: C_32  and  C_34
REMARK                            x       y       z     vdW  Elec       q    Type
REMARK                         _______ _______ _______ _____ _____    ______ ____
ROOT
ATOM      1  C   UNL A   1     -23.795   1.171  27.555  0.00  0.00    +0.079 C 
ATOM      2  C   UNL A   1     -22.629   1.733  26.907  0.00  0.00    +0.073 C 
ATOM      3  C   UNL A   1     -23.663   0.442  28.650  0.00  0.00    +0.021 C 
ATOM      4  C   UNL A   1     -21.366   1.579  27.478  0.00  0.00    +0.013 C 
ATOM      5  C   UNL A   1     -21.244   0.714  28.590  0.00  0.00    +0.001 C 
ATOM      6 CL   UNL A   1     -22.774   2.542  25.416  0.00  0.00    -0.081 Cl
ATOM      7  C   UNL A   1     -22.377   0.171  29.222  0.00  0.00    -0.001 C 
ENDROOT
BRANCH   1   8
ATOM      8  N   UNL A   1     -24.747   1.201  27.251  0.00  0.00    -0.209 NA
BRANCH   8   9
ATOM      9  C   UNL A   1     -25.688   1.614  26.461  0.00  0.00    +0.108 C 
ATOM     10  C   UNL A   1     -26.250   2.920  26.395  0.00  0.00    +0.092 C 
ATOM     11  C   UNL A   1     -27.438   3.091  25.645  0.00  0.00    +0.108 C 
ATOM     12  N   UNL A   1     -28.075   2.089  25.003  0.00  0.00    -0.208 NA
ATOM     13  C   UNL A   1     -27.543   0.849  25.079  0.00  0.00    +0.255 C 
ATOM     14  C   UNL A   1     -26.354   0.576  25.777  0.00  0.00    +0.208 C 
ATOM     15  F   UNL A   1     -25.860  -0.681  25.795  0.00  0.00    -0.198 F 
BRANCH  10  16
ATOM     16  C   UNL A   1     -25.642   4.093  27.123  0.00  0.00    +0.268 C 
ATOM     17  N   UNL A   1     -25.614   5.252  26.449  0.00  0.00    -0.200 NA
ATOM     18  C   UNL A   1     -25.026   6.479  26.963  0.00  0.00    +0.139 C 
ATOM     19  O   UNL A   1     -25.143   3.966  28.243  0.00  0.00    -0.268 OA
ENDBRANCH  10  16
BRANCH  13  20
ATOM     20  O   UNL A   1     -28.193  -0.208  24.477  0.00  0.00    -0.456 OA
BRANCH  20  21
ATOM     21  C   UNL A   1     -29.460   0.005  23.866  0.00  0.00    +0.243 C 
BRANCH  21  22
ATOM     22  C   UNL A   1     -30.065  -1.377  23.573  0.00  0.00    +0.229 C 
ATOM     23  O   UNL A   1     -30.729  -1.878  24.721  0.00  0.00    -0.216 OA
ENDBRANCH  21  22
ENDBRANCH  20  21
ENDBRANCH  13  20
ENDBRANCH   8   9
ENDBRANCH   1   8
BRANCH   3  24
ATOM     24  C   UNL A   1     -24.981  -0.044  29.081  0.00  0.00    +0.144 C 
BRANCH  24  25
ATOM     25  C   UNL A   1     -24.855  -1.012  30.143  0.00  0.00    +0.070 C 
BRANCH  25  26
ATOM     26  C   UNL A   1     -24.973  -2.505  29.788  0.00  0.00    -0.018 C 
ATOM     27  C   UNL A   1     -23.906  -3.173  29.146  0.00  0.00    -0.004 C 
ATOM     28  C   UNL A   1     -23.989  -4.549  28.853  0.00  0.00    -0.000 C 
ATOM     29  C   UNL A   1     -25.137  -5.280  29.205  0.00  0.00    -0.000 C 
ATOM     30  C   UNL A   1     -26.232  -4.611  29.784  0.00  0.00    -0.000 C 
ATOM     31  C   UNL A   1     -26.155  -3.232  30.065  0.00  0.00    -0.004 C 
ENDBRANCH  25  26
BRANCH  25  32
ATOM     32  C   UNL A   1     -25.387  -0.679  31.571  0.00  0.00    +0.080 C 
ATOM     33  C   UNL A   1     -25.189   0.773  32.028  0.00  0.00    +0.019 C 
ATOM     34  C   UNL A   1     -25.336   0.684  33.544  0.00  0.00    +0.020 C 
ATOM     35  C   UNL A   1     -24.829  -0.715  33.905  0.00  0.00    +0.089 C 
ATOM     36  N   UNL A   1     -24.758  -1.481  32.646  0.00  0.00    -0.219 NA
ENDBRANCH  25  32
ENDBRANCH  24  25
BRANCH  24  37
ATOM     37  O   UNL A   1     -26.465   0.298  28.939  0.00  0.00    -0.348 OA
BRANCH  37  41
ATOM     38  C   UNL A   1     -28.374   1.017  30.441  0.00  0.00    +0.214 C 
ATOM     39  O   UNL A   1     -29.972   0.979  28.681  0.00  0.00    -0.218 OA
ATOM     40  O   UNL A   1     -29.330   1.818  29.632  0.00  0.00    -0.218 OA
ATOM     41  C   UNL A   1     -27.858  -0.028  29.397  0.00  0.00    +0.181 C 
ATOM     42  C   UNL A   1     -29.255  -0.214  28.538  0.00  0.00    +0.214 C 
ENDBRANCH  37  41
ENDBRANCH  24  37
ENDBRANCH   3  24
TORSDOF 12
