REMARK  Name = outputs/IAG933/test6/raw/output_9607_IAG933_linker_design_.xyz
REMARK  12 active torsions:
REMARK  status: ('A' for Active; 'I' for Inactive)
REMARK    1  A    between atoms: C_1  and  C_2
REMARK    2  A    between atoms: C_1  and  C_8
REMARK    3  A    between atoms: C_9  and  C_31
REMARK    4  A    between atoms: C_13  and  C_38
REMARK    5  A    between atoms: C_14  and  C_15
REMARK    6  A    between atoms: C_21  and  O_22
REMARK    7  A    between atoms: O_22  and  C_23
REMARK    8  A    between atoms: C_23  and  C_24
REMARK    9  A    between atoms: C_30  and  O_34
REMARK   10  A    between atoms: C_31  and  O_34
REMARK   11  A    between atoms: C_31  and  C_40
REMARK   12  A    between atoms: P_33  and  C_40
REMARK                            x       y       z     vdW  Elec       q    Type
REMARK                         _______ _______ _______ _____ _____    ______ ____
ROOT
ATOM      1  C   UNL A   1     -22.014   1.584  26.941  0.00  0.00    +0.030 C 
ATOM      2  C   UNL A   1     -24.240   1.501  28.658  0.00  0.00    +0.141 C 
ATOM      3  F   UNL A   1     -23.274   1.896  25.058  0.00  0.00    -0.204 F 
ATOM      4  C   UNL A   1     -23.253   1.672  26.371  0.00  0.00    +0.143 C 
ATOM      5  C   UNL A   1     -24.354   1.539  27.089  0.00  0.00    +0.064 C 
ATOM      6  C   UNL A   1     -23.039   1.234  29.118  0.00  0.00    +0.037 C 
ATOM      7  C   UNL A   1     -21.880   1.307  28.265  0.00  0.00    +0.005 C 
ENDROOT
BRANCH   5   8
ATOM      8  C   UNL A   1     -25.688   1.614  26.461  0.00  0.00    +0.043 C 
ATOM      9  C   UNL A   1     -26.250   2.920  26.395  0.00  0.00    +0.077 C 
ATOM     10  C   UNL A   1     -27.438   3.091  25.645  0.00  0.00    +0.107 C 
ATOM     11  N   UNL A   1     -28.075   2.089  25.003  0.00  0.00    -0.208 NA
ATOM     12  C   UNL A   1     -27.543   0.849  25.079  0.00  0.00    +0.253 C 
ATOM     13  C   UNL A   1     -26.354   0.576  25.777  0.00  0.00    +0.193 C 
ATOM     14  F   UNL A   1     -25.860  -0.681  25.795  0.00  0.00    -0.199 F 
BRANCH   9  15
ATOM     15  C   UNL A   1     -25.642   4.093  27.123  0.00  0.00    +0.266 C 
ATOM     16  N   UNL A   1     -25.614   5.252  26.449  0.00  0.00    -0.200 NA
ATOM     17  C   UNL A   1     -25.026   6.479  26.963  0.00  0.00    +0.139 C 
ATOM     18  O   UNL A   1     -25.143   3.966  28.243  0.00  0.00    -0.268 OA
ENDBRANCH   9  15
BRANCH  12  19
ATOM     19  O   UNL A   1     -28.193  -0.208  24.477  0.00  0.00    -0.456 OA
BRANCH  19  20
ATOM     20  C   UNL A   1     -29.460   0.005  23.866  0.00  0.00    +0.243 C 
BRANCH  20  21
ATOM     21  C   UNL A   1     -30.065  -1.377  23.573  0.00  0.00    +0.229 C 
ATOM     22  O   UNL A   1     -30.729  -1.878  24.721  0.00  0.00    -0.216 OA
ENDBRANCH  20  21
ENDBRANCH  19  20
ENDBRANCH  12  19
ENDBRANCH   5   8
BRANCH   2  23
ATOM     23  O   UNL A   1     -25.250   1.819  29.507  0.00  0.00    -0.476 OA
BRANCH  23  24
ATOM     24  C   UNL A   1     -25.471   1.859  30.959  0.00  0.00    +0.207 C 
BRANCH  24  26
ATOM     25  C   UNL A   1     -25.387  -0.679  31.571  0.00  0.00    +0.081 C 
ATOM     26  C   UNL A   1     -25.189   0.773  32.028  0.00  0.00    +0.061 C 
ATOM     27  C   UNL A   1     -25.336   0.684  33.544  0.00  0.00    +0.024 C 
ATOM     28  C   UNL A   1     -24.829  -0.715  33.905  0.00  0.00    +0.089 C 
ATOM     29  N   UNL A   1     -24.758  -1.481  32.646  0.00  0.00    -0.219 NA
BRANCH  25  30
ATOM     30  C   UNL A   1     -24.855  -1.012  30.143  0.00  0.00    +0.044 C 
BRANCH  30  31
ATOM     31  C   UNL A   1     -24.973  -2.505  29.788  0.00  0.00    -0.021 C 
ATOM     32  C   UNL A   1     -23.906  -3.173  29.146  0.00  0.00    -0.004 C 
ATOM     33  C   UNL A   1     -23.989  -4.549  28.853  0.00  0.00    -0.000 C 
ATOM     34  C   UNL A   1     -25.137  -5.280  29.205  0.00  0.00    -0.000 C 
ATOM     35  C   UNL A   1     -26.232  -4.611  29.784  0.00  0.00    -0.000 C 
ATOM     36  C   UNL A   1     -26.155  -3.232  30.065  0.00  0.00    -0.004 C 
ENDBRANCH  30  31
ENDBRANCH  25  30
ENDBRANCH  24  26
BRANCH  24  38
ATOM     37  O   UNL A   1     -27.521   2.199  31.856  0.00  0.00    -0.209 OA
ATOM     38  C   UNL A   1     -26.486   2.639  31.207  0.00  0.00    +0.270 C 
BRANCH  38  40
ATOM     39  O   UNL A   1     -25.489   5.172  30.083  0.00  0.00    -0.284 OA
ATOM     40  P   UNL A   1     -26.310   4.268  31.105  0.00  0.00    +0.287 P 
ATOM     41  O   UNL A   1     -25.381   4.493  32.332  0.00  0.00    -0.165 OA
ATOM     42  C   UNL A   1     -28.045   4.552  30.722  0.00  0.00    +0.102 C 
ENDBRANCH  38  40
ENDBRANCH  24  38
ENDBRANCH  23  24
ENDBRANCH   2  23
TORSDOF 12
