MODEL 960
MODEL 1
REMARK VINA RESULT:    -5.623      0.000      0.000
REMARK INTER + INTRA:          -6.601
REMARK INTER:                  -6.280
REMARK INTRA:                  -0.321
REMARK UNBOUND:                -0.321
REMARK  Name = No_960-gen_results/8p0m/2024-11-27-11-27-31/
REMARK  2 active torsions:
REMARK  status: ('A' for Active; 'I' for Inactive)
REMARK    1  A    between atoms: C_5  and  C_8
REMARK    2  A    between atoms: C_9  and  C_10
REMARK                            x       y       z     vdW  Elec       q    Type
REMARK                         _______ _______ _______ _____ _____    ______ ____
ROOT
ATOM      1  C   UNL A   1     -24.816  -4.988  29.294  0.00  0.00    +0.004 C 
ATOM      2  C   UNL A   1     -25.864  -4.877  29.295  0.00  0.00    +0.001 C 
ATOM      3  C   UNL A   1     -24.103  -3.809  28.803  0.00  0.00    +0.022 C 
ATOM      4  C   UNL A   1     -24.093  -2.763  29.452  0.00  0.00    -0.044 C 
ATOM      5  C   UNL A   1     -23.263  -1.629  29.182  0.00  0.00    -0.009 C 
ATOM      6  C   UNL A   1     -26.469  -3.642  30.045  0.00  0.00    +0.004 C 
ATOM      7  C   UNL A   1     -25.586  -2.490  29.825  0.00  0.00    +0.022 C 
ENDROOT
BRANCH   5   8
ATOM      8  C   UNL A   1     -23.182  -0.671  29.683  0.00  0.00    -0.001 C 
ATOM      9  C   UNL A   1     -22.960   0.553  29.197  0.00  0.00    -0.000 C 
BRANCH   9  10
ATOM     10  C   UNL A   1     -22.998   0.765  27.795  0.00  0.00    -0.000 C 
ATOM     11  C   UNL A   1     -22.257   1.825  27.311  0.00  0.00    -0.000 C 
ENDBRANCH   9  10
ENDBRANCH   5   8
TORSDOF 2
ENDMDL
ENDMDL
