REMARK  Name = No_961-gen_results/8p0m/2024-11-27-11-27-31/
REMARK  1 active torsions:
REMARK  status: ('A' for Active; 'I' for Inactive)
REMARK    1  A    between atoms: C_7  and  C_8
REMARK                            x       y       z     vdW  Elec       q    Type
REMARK                         _______ _______ _______ _____ _____    ______ ____
ROOT
ATOM      1  F   UNL A   1     -28.073  -1.254  28.532  0.00  0.00    -0.204 F 
ATOM      2  C   UNL A   1     -27.061  -0.629  28.872  0.00  0.00    +0.140 A 
ATOM      3  C   UNL A   1     -27.176   0.615  29.369  0.00  0.00    +0.030 A 
ATOM      4  C   UNL A   1     -25.730  -1.269  28.724  0.00  0.00    +0.030 A 
ATOM      5  C   UNL A   1     -24.553  -0.508  29.013  0.00  0.00    +0.009 A 
ATOM      6  C   UNL A   1     -25.954   1.380  29.689  0.00  0.00    +0.009 A 
ATOM      7  C   UNL A   1     -24.658   0.801  29.518  0.00  0.00    +0.080 A 
ENDROOT
BRANCH   7   8
ATOM      8  C   UNL A   1     -23.456   1.540  29.797  0.00  0.00    +0.388 C 
ATOM      9  O   UNL A   1     -23.546   2.497  30.408  0.00  0.00    -0.241 OA
ATOM     10  O   UNL A   1     -22.285   0.937  29.676  0.00  0.00    -0.241 OA
ENDBRANCH   7   8
TORSDOF 1
