REMARK  Name = outputs/IAG933/test6/raw/output_9617_IAG933_linker_design_.xyz
REMARK  14 active torsions:
REMARK  status: ('A' for Active; 'I' for Inactive)
REMARK    1  A    between atoms: C_1  and  C_2
REMARK    2  A    between atoms: C_1  and  C_8
REMARK    3  A    between atoms: C_9  and  C_29
REMARK    4  A    between atoms: C_13  and  C_39
REMARK    5  A    between atoms: C_14  and  C_15
REMARK    6  A    between atoms: C_21  and  O_22
REMARK    7  A    between atoms: O_22  and  C_23
REMARK    8  A    between atoms: C_23  and  C_24
REMARK    9  A    between atoms: C_29  and  O_41
REMARK   10  A    between atoms: C_29  and  N_42
REMARK   11  A    between atoms: O_34  and  C_35
REMARK   12  A    between atoms: O_34  and  C_37
REMARK   13  A    between atoms: C_35  and  O_41
REMARK   14  A    between atoms: C_37  and  O_38
REMARK                            x       y       z     vdW  Elec       q    Type
REMARK                         _______ _______ _______ _____ _____    ______ ____
ROOT
ATOM      1  C   UNL A   1     -24.805   1.320  29.390  0.00  0.00    +0.162 C 
ATOM      2  N   UNL A   1     -23.913   1.373  28.269  0.00  0.00    -0.272 N 
ATOM      3  S   UNL A   1     -21.819   1.723  27.120  0.00  0.00    -0.053 S 
ATOM      4  C   UNL A   1     -22.586   1.353  28.446  0.00  0.00    +0.159 C 
ATOM      5  C   UNL A   1     -23.090   1.909  26.270  0.00  0.00    +0.223 C 
ATOM      6  C   UNL A   1     -24.362   1.555  27.015  0.00  0.00    +0.169 C 
ATOM      7  O   UNL A   1     -23.019   2.494  25.168  0.00  0.00    -0.282 OA
ATOM      8  N   UNL A   1     -24.565   2.307  30.410  0.00  0.00    -0.226 NA
ENDROOT
BRANCH   6   9
ATOM      9  C   UNL A   1     -25.688   1.614  26.461  0.00  0.00    +0.042 C 
ATOM     10  C   UNL A   1     -26.250   2.920  26.395  0.00  0.00    +0.075 C 
ATOM     11  C   UNL A   1     -27.438   3.091  25.645  0.00  0.00    +0.106 C 
ATOM     12  N   UNL A   1     -28.075   2.089  25.003  0.00  0.00    -0.208 NA
ATOM     13  C   UNL A   1     -27.543   0.849  25.079  0.00  0.00    +0.253 C 
ATOM     14  C   UNL A   1     -26.354   0.576  25.777  0.00  0.00    +0.191 C 
ATOM     15  F   UNL A   1     -25.860  -0.681  25.795  0.00  0.00    -0.200 F 
BRANCH  10  16
ATOM     16  C   UNL A   1     -25.642   4.093  27.123  0.00  0.00    +0.266 C 
ATOM     17  N   UNL A   1     -25.614   5.252  26.449  0.00  0.00    -0.200 NA
ATOM     18  C   UNL A   1     -25.026   6.479  26.963  0.00  0.00    +0.139 C 
ATOM     19  O   UNL A   1     -25.143   3.966  28.243  0.00  0.00    -0.268 OA
ENDBRANCH  10  16
BRANCH  13  20
ATOM     20  O   UNL A   1     -28.193  -0.208  24.477  0.00  0.00    -0.456 OA
BRANCH  20  21
ATOM     21  C   UNL A   1     -29.460   0.005  23.866  0.00  0.00    +0.243 C 
BRANCH  21  22
ATOM     22  C   UNL A   1     -30.065  -1.377  23.573  0.00  0.00    +0.229 C 
ATOM     23  O   UNL A   1     -30.729  -1.878  24.721  0.00  0.00    -0.216 OA
ENDBRANCH  21  22
ENDBRANCH  20  21
ENDBRANCH  13  20
ENDBRANCH   6   9
BRANCH   8  24
ATOM     24  C   UNL A   1     -25.139   2.285  31.721  0.00  0.00    +0.224 C 
BRANCH  24  26
ATOM     25  C   UNL A   1     -25.387  -0.679  31.571  0.00  0.00    +0.082 C 
ATOM     26  C   UNL A   1     -25.189   0.773  32.028  0.00  0.00    +0.069 C 
ATOM     27  C   UNL A   1     -25.336   0.684  33.544  0.00  0.00    +0.025 C 
ATOM     28  C   UNL A   1     -24.829  -0.715  33.905  0.00  0.00    +0.089 C 
ATOM     29  N   UNL A   1     -24.758  -1.481  32.646  0.00  0.00    -0.219 NA
BRANCH  25  30
ATOM     30  C   UNL A   1     -24.855  -1.012  30.143  0.00  0.00    +0.044 C 
BRANCH  30  31
ATOM     31  C   UNL A   1     -24.973  -2.505  29.788  0.00  0.00    -0.021 C 
ATOM     32  C   UNL A   1     -23.906  -3.173  29.146  0.00  0.00    -0.004 C 
ATOM     33  C   UNL A   1     -23.989  -4.549  28.853  0.00  0.00    -0.000 C 
ATOM     34  C   UNL A   1     -25.137  -5.280  29.205  0.00  0.00    -0.000 C 
ATOM     35  C   UNL A   1     -26.232  -4.611  29.784  0.00  0.00    -0.000 C 
ATOM     36  C   UNL A   1     -26.155  -3.232  30.065  0.00  0.00    -0.004 C 
ENDBRANCH  30  31
ENDBRANCH  25  30
ENDBRANCH  24  26
BRANCH  24  37
ATOM     37  O   UNL A   1     -24.333   3.125  32.550  0.00  0.00    -0.306 OA
BRANCH  37  38
ATOM     38  C   UNL A   1     -24.488   4.572  32.518  0.00  0.00    +0.297 C 
BRANCH  38  39
ATOM     39  O   UNL A   1     -25.620   5.014  33.322  0.00  0.00    -0.298 OA
BRANCH  39  40
ATOM     40  C   UNL A   1     -26.957   4.619  33.005  0.00  0.00    +0.296 C 
BRANCH  40  42
ATOM     41  C   UNL A   1     -27.933   3.183  34.695  0.00  0.00    +0.177 C 
ATOM     42  O   UNL A   1     -27.230   3.345  33.484  0.00  0.00    -0.324 OA
ENDBRANCH  40  42
ENDBRANCH  39  40
ENDBRANCH  38  39
ENDBRANCH  37  38
ENDBRANCH  24  37
ENDBRANCH   8  24
TORSDOF 14
