MODEL 961
MODEL 1
REMARK VINA RESULT:    -5.143      0.000      0.000
REMARK INTER + INTRA:          -5.483
REMARK INTER:                  -5.444
REMARK INTRA:                  -0.039
REMARK UNBOUND:                -0.039
REMARK  Name = No_961-gen_results/8p0m/2024-11-27-11-27-31/
REMARK  1 active torsions:
REMARK  status: ('A' for Active; 'I' for Inactive)
REMARK    1  A    between atoms: C_7  and  C_8
REMARK                            x       y       z     vdW  Elec       q    Type
REMARK                         _______ _______ _______ _____ _____    ______ ____
ROOT
ATOM      1  F   UNL A   1     -30.263 -10.219  29.409  0.00  0.00    -0.204 F 
ATOM      2  C   UNL A   1     -29.651 -10.569  30.426  0.00  0.00    +0.140 A 
ATOM      3  C   UNL A   1     -29.868  -9.936  31.592  0.00  0.00    +0.030 A 
ATOM      4  C   UNL A   1     -28.681 -11.690  30.338  0.00  0.00    +0.030 A 
ATOM      5  C   UNL A   1     -27.893 -12.023  31.485  0.00  0.00    +0.009 A 
ATOM      6  C   UNL A   1     -29.067 -10.308  32.775  0.00  0.00    +0.009 A 
ATOM      7  C   UNL A   1     -28.098 -11.357  32.708  0.00  0.00    +0.080 A 
ENDROOT
BRANCH   7   8
ATOM      8  C   UNL A   1     -27.289 -11.715  33.841  0.00  0.00    +0.388 C 
ATOM      9  O   UNL A   1     -26.746 -12.715  33.817  0.00  0.00    -0.241 OA
ATOM     10  O   UNL A   1     -26.902 -10.769  34.682  0.00  0.00    -0.241 OA
ENDBRANCH   7   8
TORSDOF 1
ENDMDL
ENDMDL
