REMARK  Name = outputs/IAG933/test6/raw/output_962_IAG933_linker_design_.xyz
REMARK  12 active torsions:
REMARK  status: ('A' for Active; 'I' for Inactive)
REMARK    1  A    between atoms: C_1  and  C_2
REMARK    2  A    between atoms: C_1  and  C_8
REMARK    3  A    between atoms: C_1  and  O_28
REMARK    4  A    between atoms: C_13  and  C_32
REMARK    5  A    between atoms: C_14  and  C_15
REMARK    6  A    between atoms: C_21  and  O_22
REMARK    7  A    between atoms: O_22  and  C_23
REMARK    8  A    between atoms: C_23  and  C_24
REMARK    9  A    between atoms: O_28  and  C_45
REMARK   10  A    between atoms: C_32  and  C_40
REMARK   11  A    between atoms: C_35  and  C_45
REMARK   12  A    between atoms: O_39  and  C_40
REMARK                            x       y       z     vdW  Elec       q    Type
REMARK                         _______ _______ _______ _____ _____    ______ ____
ROOT
ATOM      1  C   UNL A   1     -24.817   1.066  27.436  0.00  0.00    +0.048 C 
ATOM      2  C   UNL A   1     -25.600   0.510  28.533  0.00  0.00    +0.115 C 
ENDROOT
BRANCH   2   7
ATOM      3  C   UNL A   1     -28.869   1.240  29.435  0.00  0.00    +0.070 C 
ATOM      4  O   UNL A   1     -30.610  -0.135  31.677  0.00  0.00    -0.123 OA
ATOM      5  C   UNL A   1     -29.185  -0.062  28.831  0.00  0.00    +0.124 C 
ATOM      6  C   UNL A   1     -27.897  -0.626  28.323  0.00  0.00    +0.037 C 
ATOM      7  C   UNL A   1     -26.897   0.362  28.770  0.00  0.00    +0.060 C 
ATOM      8  O   UNL A   1     -31.914  -0.385  29.722  0.00  0.00    -0.246 OA
ATOM      9  O   UNL A   1     -30.220  -0.101  27.922  0.00  0.00    -0.328 OA
ATOM     10  C   UNL A   1     -31.592  -0.182  28.328  0.00  0.00    +0.307 C 
ATOM     11  C   UNL A   1     -29.781   2.314  29.926  0.00  0.00    +0.085 C 
ATOM     12  N   UNL A   1     -31.000   2.025  30.536  0.00  0.00    -0.188 NA
ATOM     13  C   UNL A   1     -27.488   1.318  29.532  0.00  0.00    +0.016 C 
ATOM     14  C   UNL A   1     -32.907   0.882  31.736  0.00  0.00    +0.133 C 
ATOM     15  S   UNL A   1     -31.512   0.555  30.873  0.00  0.00    +0.124 S 
ENDBRANCH   2   7
BRANCH   1  16
ATOM     16  C   UNL A   1     -25.688   1.614  26.461  0.00  0.00    +0.098 C 
ATOM     17  C   UNL A   1     -26.250   2.920  26.395  0.00  0.00    +0.059 C 
ATOM     18  C   UNL A   1     -27.438   3.091  25.645  0.00  0.00    +0.102 C 
ATOM     19  N   UNL A   1     -28.075   2.089  25.003  0.00  0.00    -0.212 NA
ATOM     20  C   UNL A   1     -27.543   0.849  25.079  0.00  0.00    +0.234 C 
ATOM     21  C   UNL A   1     -26.354   0.576  25.777  0.00  0.00    +0.244 C 
ATOM     22  F   UNL A   1     -25.860  -0.681  25.795  0.00  0.00    -0.227 F 
BRANCH  17  23
ATOM     23  C   UNL A   1     -25.642   4.093  27.123  0.00  0.00    +0.263 C 
ATOM     24  N   UNL A   1     -25.614   5.252  26.449  0.00  0.00    -0.200 NA
ATOM     25  C   UNL A   1     -25.026   6.479  26.963  0.00  0.00    +0.139 C 
ATOM     26  O   UNL A   1     -25.143   3.966  28.243  0.00  0.00    -0.269 OA
ENDBRANCH  17  23
BRANCH  20  27
ATOM     27  O   UNL A   1     -28.193  -0.208  24.477  0.00  0.00    -0.459 OA
BRANCH  27  28
ATOM     28  C   UNL A   1     -29.460   0.005  23.866  0.00  0.00    +0.242 C 
BRANCH  28  29
ATOM     29  C   UNL A   1     -30.065  -1.377  23.573  0.00  0.00    +0.229 C 
ATOM     30  O   UNL A   1     -30.729  -1.878  24.721  0.00  0.00    -0.216 OA
ENDBRANCH  28  29
ENDBRANCH  27  28
ENDBRANCH  20  27
ENDBRANCH   1  16
BRANCH   1  32
ATOM     31  C   UNL A   1     -21.065   1.332  27.472  0.00  0.00    +0.034 C 
ATOM     32  C   UNL A   1     -23.566   1.133  26.977  0.00  0.00    +0.133 C 
ATOM     33  C   UNL A   1     -22.454   1.055  27.945  0.00  0.00    +0.011 C 
BRANCH  32  34
ATOM     34  O   UNL A   1     -23.468   1.307  25.572  0.00  0.00    -0.472 OA
ATOM     35  C   UNL A   1     -22.659   2.421  25.120  0.00  0.00    +0.252 C 
ENDBRANCH  32  34
ENDBRANCH   1  32
BRANCH   2  36
ATOM     36  O   UNL A   1     -24.535   0.018  29.257  0.00  0.00    -0.478 OA
BRANCH  36  37
ATOM     37  C   UNL A   1     -24.855  -1.012  30.143  0.00  0.00    +0.203 C 
BRANCH  37  38
ATOM     38  C   UNL A   1     -24.973  -2.505  29.788  0.00  0.00    +0.019 C 
ATOM     39  C   UNL A   1     -23.906  -3.173  29.146  0.00  0.00    -0.001 C 
ATOM     40  C   UNL A   1     -23.989  -4.549  28.853  0.00  0.00    -0.000 C 
ATOM     41  C   UNL A   1     -25.137  -5.280  29.205  0.00  0.00    -0.000 C 
ATOM     42  C   UNL A   1     -26.232  -4.611  29.784  0.00  0.00    -0.000 C 
ATOM     43  C   UNL A   1     -26.155  -3.232  30.065  0.00  0.00    -0.001 C 
ENDBRANCH  37  38
BRANCH  37  44
ATOM     44  C   UNL A   1     -25.387  -0.679  31.571  0.00  0.00    +0.117 C 
ATOM     45  C   UNL A   1     -25.189   0.773  32.028  0.00  0.00    +0.023 C 
ATOM     46  C   UNL A   1     -25.336   0.684  33.544  0.00  0.00    +0.020 C 
ATOM     47  C   UNL A   1     -24.829  -0.715  33.905  0.00  0.00    +0.089 C 
ATOM     48  N   UNL A   1     -24.758  -1.481  32.646  0.00  0.00    -0.215 NA
ENDBRANCH  37  44
ENDBRANCH  36  37
ENDBRANCH   2  36
TORSDOF 12
