REMARK  Name = outputs/IAG933/test6/raw/output_9622_IAG933_linker_design_.xyz
REMARK  13 active torsions:
REMARK  status: ('A' for Active; 'I' for Inactive)
REMARK    1  A    between atoms: C_1  and  C_2
REMARK    2  A    between atoms: C_1  and  C_8
REMARK    3  A    between atoms: C_1  and  C_34
REMARK    4  A    between atoms: C_13  and  C_43
REMARK    5  A    between atoms: C_14  and  C_15
REMARK    6  A    between atoms: C_21  and  O_22
REMARK    7  A    between atoms: O_22  and  C_23
REMARK    8  A    between atoms: C_23  and  C_24
REMARK    9  A    between atoms: C_31  and  C_34
REMARK   10  A    between atoms: C_31  and  C_35
REMARK   11  A    between atoms: C_34  and  C_47
REMARK   12  A    between atoms: C_43  and  C_44
REMARK   13  A    between atoms: C_43  and  C_47
REMARK                            x       y       z     vdW  Elec       q    Type
REMARK                         _______ _______ _______ _____ _____    ______ ____
ROOT
ATOM      1  C   UNL A   1     -25.511  -0.183  29.009  0.00  0.00    +0.015 C 
ENDROOT
BRANCH   1   3
ATOM      2  C   UNL A   1     -22.625   0.108  28.697  0.00  0.00    +0.000 C 
ATOM      3  C   UNL A   1     -24.167   0.237  28.221  0.00  0.00    +0.005 C 
BRANCH   3   4
ATOM      4  C   UNL A   1     -24.301   1.062  27.129  0.00  0.00    +0.025 C 
BRANCH   4   5
ATOM      5  C   UNL A   1     -25.688   1.614  26.461  0.00  0.00    +0.016 C 
ATOM      6  C   UNL A   1     -26.250   2.920  26.395  0.00  0.00    +0.073 C 
ATOM      7  C   UNL A   1     -27.438   3.091  25.645  0.00  0.00    +0.106 C 
ATOM      8  N   UNL A   1     -28.075   2.089  25.003  0.00  0.00    -0.208 NA
ATOM      9  C   UNL A   1     -27.543   0.849  25.079  0.00  0.00    +0.253 C 
ATOM     10  C   UNL A   1     -26.354   0.576  25.777  0.00  0.00    +0.189 C 
ATOM     11  F   UNL A   1     -25.860  -0.681  25.795  0.00  0.00    -0.200 F 
BRANCH   6  12
ATOM     12  C   UNL A   1     -25.642   4.093  27.123  0.00  0.00    +0.266 C 
ATOM     13  N   UNL A   1     -25.614   5.252  26.449  0.00  0.00    -0.200 NA
ATOM     14  C   UNL A   1     -25.026   6.479  26.963  0.00  0.00    +0.139 C 
ATOM     15  O   UNL A   1     -25.143   3.966  28.243  0.00  0.00    -0.268 OA
ENDBRANCH   6  12
BRANCH   9  16
ATOM     16  O   UNL A   1     -28.193  -0.208  24.477  0.00  0.00    -0.456 OA
BRANCH  16  17
ATOM     17  C   UNL A   1     -29.460   0.005  23.866  0.00  0.00    +0.243 C 
BRANCH  17  18
ATOM     18  C   UNL A   1     -30.065  -1.377  23.573  0.00  0.00    +0.229 C 
ATOM     19  O   UNL A   1     -30.729  -1.878  24.721  0.00  0.00    -0.216 OA
ENDBRANCH  17  18
ENDBRANCH  16  17
ENDBRANCH   9  16
ENDBRANCH   4   5
BRANCH   4  21
ATOM     20  C   UNL A   1     -21.791   1.593  26.327  0.00  0.00    +0.000 C 
ATOM     21  C   UNL A   1     -23.269   1.334  25.932  0.00  0.00    +0.004 C 
ENDBRANCH   4  21
ENDBRANCH   3   4
ENDBRANCH   1   3
BRANCH   1  22
ATOM     22  C   UNL A   1     -24.855  -1.012  30.143  0.00  0.00    +0.039 C 
BRANCH  22  23
ATOM     23  C   UNL A   1     -24.973  -2.505  29.788  0.00  0.00    -0.021 C 
ATOM     24  C   UNL A   1     -23.906  -3.173  29.146  0.00  0.00    -0.004 C 
ATOM     25  C   UNL A   1     -23.989  -4.549  28.853  0.00  0.00    -0.000 C 
ATOM     26  C   UNL A   1     -25.137  -5.280  29.205  0.00  0.00    -0.000 C 
ATOM     27  C   UNL A   1     -26.232  -4.611  29.784  0.00  0.00    -0.000 C 
ATOM     28  C   UNL A   1     -26.155  -3.232  30.065  0.00  0.00    -0.004 C 
ENDBRANCH  22  23
BRANCH  22  29
ATOM     29  C   UNL A   1     -25.387  -0.679  31.571  0.00  0.00    +0.077 C 
ATOM     30  C   UNL A   1     -25.189   0.773  32.028  0.00  0.00    +0.019 C 
ATOM     31  C   UNL A   1     -25.336   0.684  33.544  0.00  0.00    +0.020 C 
ATOM     32  C   UNL A   1     -24.829  -0.715  33.905  0.00  0.00    +0.089 C 
ATOM     33  N   UNL A   1     -24.758  -1.481  32.646  0.00  0.00    -0.219 NA
ENDBRANCH  22  29
ENDBRANCH   1  22
BRANCH   1  34
ATOM     34  C   UNL A   1     -26.547   0.979  29.182  0.00  0.00    +0.086 C 
BRANCH  34  40
ATOM     35  C   UNL A   1     -29.961   2.526  31.481  0.00  0.00    +0.026 C 
ATOM     36  N   UNL A   1     -33.579   3.908  30.738  0.00  0.00    -0.128 NA
ATOM     37  C   UNL A   1     -31.583   3.058  29.646  0.00  0.00    -0.008 C 
ATOM     38  C   UNL A   1     -28.891   2.287  30.682  0.00  0.00    +0.094 C 
ATOM     39  O   UNL A   1     -28.275  -0.818  28.926  0.00  0.00    -0.275 OA
ATOM     40  C   UNL A   1     -27.983   0.387  29.033  0.00  0.00    +0.226 C 
ATOM     41  C   UNL A   1     -30.759   3.934  27.581  0.00  0.00    -0.003 C 
ATOM     42  C   UNL A   1     -32.612   4.995  28.749  0.00  0.00    +0.018 C 
ATOM     43  N   UNL A   1     -28.961   1.404  29.474  0.00  0.00    -0.275 N 
ATOM     44  C   UNL A   1     -31.205   2.475  30.855  0.00  0.00    +0.029 C 
ATOM     45  C   UNL A   1     -30.745   2.885  28.498  0.00  0.00    -0.005 C 
ATOM     46  C   UNL A   1     -31.733   4.943  27.648  0.00  0.00    +0.001 C 
ATOM     47  C   UNL A   1     -32.596   3.992  29.714  0.00  0.00    +0.085 C 
ATOM     48  C   UNL A   1     -29.883   1.639  28.318  0.00  0.00    +0.120 C 
ENDBRANCH  34  40
ENDBRANCH   1  34
TORSDOF 13
