REMARK  Name = outputs/IAG933/test6/raw/output_9624_IAG933_linker_design_.xyz
REMARK  12 active torsions:
REMARK  status: ('A' for Active; 'I' for Inactive)
REMARK    1  A    between atoms: C_1  and  C_2
REMARK    2  A    between atoms: C_1  and  C_8
REMARK    3  A    between atoms: C_1  and  C_32
REMARK    4  A    between atoms: C_13  and  C_46
REMARK    5  A    between atoms: C_14  and  C_15
REMARK    6  A    between atoms: C_21  and  O_22
REMARK    7  A    between atoms: O_22  and  C_23
REMARK    8  A    between atoms: C_23  and  C_24
REMARK    9  A    between atoms: C_32  and  C_43
REMARK   10  A    between atoms: C_34  and  C_35
REMARK   11  A    between atoms: C_35  and  C_37
REMARK   12  A    between atoms: C_37  and  C_44
REMARK                            x       y       z     vdW  Elec       q    Type
REMARK                         _______ _______ _______ _____ _____    ______ ____
ROOT
ATOM      1  C   UNL A   1     -25.503  -0.107  29.085  0.00  0.00    +0.035 C 
ATOM      2  C   UNL A   1     -26.833  -0.229  28.876  0.00  0.00    -0.105 C 
ATOM      3  C   UNL A   1     -28.138  -0.513  28.617  0.00  0.00    +0.055 C 
ENDROOT
BRANCH   1   9
ATOM      4  N   UNL A   1     -23.076   0.624  29.052  0.00  0.00    -0.243 NA
ATOM      5  C   UNL A   1     -21.988   1.596  27.258  0.00  0.00    +0.032 C 
ATOM      6  C   UNL A   1     -21.901   0.985  28.483  0.00  0.00    +0.100 C 
ATOM      7  C   UNL A   1     -23.217   1.801  26.635  0.00  0.00    +0.061 C 
ATOM      8 CL   UNL A   1     -23.094   2.683  25.077  0.00  0.00    -0.082 Cl
ATOM      9  C   UNL A   1     -24.402   0.661  28.468  0.00  0.00    +0.086 C 
ATOM     10  C   UNL A   1     -24.449   1.351  27.174  0.00  0.00    +0.031 C 
BRANCH  10  11
ATOM     11  C   UNL A   1     -25.688   1.614  26.461  0.00  0.00    +0.040 C 
ATOM     12  C   UNL A   1     -26.250   2.920  26.395  0.00  0.00    +0.077 C 
ATOM     13  C   UNL A   1     -27.438   3.091  25.645  0.00  0.00    +0.107 C 
ATOM     14  N   UNL A   1     -28.075   2.089  25.003  0.00  0.00    -0.208 NA
ATOM     15  C   UNL A   1     -27.543   0.849  25.079  0.00  0.00    +0.253 C 
ATOM     16  C   UNL A   1     -26.354   0.576  25.777  0.00  0.00    +0.193 C 
ATOM     17  F   UNL A   1     -25.860  -0.681  25.795  0.00  0.00    -0.199 F 
BRANCH  12  18
ATOM     18  C   UNL A   1     -25.642   4.093  27.123  0.00  0.00    +0.266 C 
ATOM     19  N   UNL A   1     -25.614   5.252  26.449  0.00  0.00    -0.200 NA
ATOM     20  C   UNL A   1     -25.026   6.479  26.963  0.00  0.00    +0.139 C 
ATOM     21  O   UNL A   1     -25.143   3.966  28.243  0.00  0.00    -0.268 OA
ENDBRANCH  12  18
BRANCH  15  22
ATOM     22  O   UNL A   1     -28.193  -0.208  24.477  0.00  0.00    -0.456 OA
BRANCH  22  23
ATOM     23  C   UNL A   1     -29.460   0.005  23.866  0.00  0.00    +0.243 C 
BRANCH  23  24
ATOM     24  C   UNL A   1     -30.065  -1.377  23.573  0.00  0.00    +0.229 C 
ATOM     25  O   UNL A   1     -30.729  -1.878  24.721  0.00  0.00    -0.216 OA
ENDBRANCH  23  24
ENDBRANCH  22  23
ENDBRANCH  15  22
ENDBRANCH  10  11
ENDBRANCH   1   9
BRANCH   3  27
ATOM     26  O   UNL A   1     -29.297   1.365  28.003  0.00  0.00    -0.209 OA
ATOM     27  C   UNL A   1     -29.370  -0.045  28.068  0.00  0.00    +0.239 C 
BRANCH  27  29
ATOM     28  O   UNL A   1     -30.904  -1.647  29.158  0.00  0.00    -0.292 OA
ATOM     29  C   UNL A   1     -30.725  -0.612  28.549  0.00  0.00    +0.200 C 
BRANCH  29  33
ATOM     30  N   UNL A   1     -31.953  -1.020  26.717  0.00  0.00    -0.267 NA
ATOM     31  C   UNL A   1     -32.886   1.008  26.982  0.00  0.00    +0.041 C 
ATOM     32  C   UNL A   1     -33.008  -1.958  27.125  0.00  0.00    +0.090 C 
ATOM     33  C   UNL A   1     -31.920   0.079  27.828  0.00  0.00    +0.120 C 
ATOM     34  C   UNL A   1     -32.329   0.157  25.891  0.00  0.00    +0.074 C 
ENDBRANCH  29  33
ENDBRANCH  27  29
ENDBRANCH   3  27
BRANCH   1  35
ATOM     35  C   UNL A   1     -24.855  -1.012  30.143  0.00  0.00    +0.069 C 
BRANCH  35  36
ATOM     36  C   UNL A   1     -24.973  -2.505  29.788  0.00  0.00    -0.016 C 
ATOM     37  C   UNL A   1     -23.906  -3.173  29.146  0.00  0.00    -0.004 C 
ATOM     38  C   UNL A   1     -23.989  -4.549  28.853  0.00  0.00    -0.000 C 
ATOM     39  C   UNL A   1     -25.137  -5.280  29.205  0.00  0.00    -0.000 C 
ATOM     40  C   UNL A   1     -26.232  -4.611  29.784  0.00  0.00    -0.000 C 
ATOM     41  C   UNL A   1     -26.155  -3.232  30.065  0.00  0.00    -0.004 C 
ENDBRANCH  35  36
BRANCH  35  42
ATOM     42  C   UNL A   1     -25.387  -0.679  31.571  0.00  0.00    +0.082 C 
ATOM     43  C   UNL A   1     -25.189   0.773  32.028  0.00  0.00    +0.019 C 
ATOM     44  C   UNL A   1     -25.336   0.684  33.544  0.00  0.00    +0.020 C 
ATOM     45  C   UNL A   1     -24.829  -0.715  33.905  0.00  0.00    +0.089 C 
ATOM     46  N   UNL A   1     -24.758  -1.481  32.646  0.00  0.00    -0.219 NA
ENDBRANCH  35  42
ENDBRANCH   1  35
TORSDOF 12
