REMARK  Name = outputs/IAG933/test6/raw/output_9625_IAG933_linker_design_.xyz
REMARK  11 active torsions:
REMARK  status: ('A' for Active; 'I' for Inactive)
REMARK    1  A    between atoms: C_1  and  C_2
REMARK    2  A    between atoms: C_1  and  C_8
REMARK    3  A    between atoms: C_1  and  O_60
REMARK    4  A    between atoms: C_14  and  C_15
REMARK    5  A    between atoms: C_28  and  C_57
REMARK    6  A    between atoms: C_30  and  C_62
REMARK    7  A    between atoms: C_33  and  C_62
REMARK    8  A    between atoms: C_37  and  C_47
REMARK    9  A    between atoms: C_37  and  C_56
REMARK   10  A    between atoms: C_41  and  O_60
REMARK   11  A    between atoms: C_42  and  C_57
REMARK                            x       y       z     vdW  Elec       q    Type
REMARK                         _______ _______ _______ _____ _____    ______ ____
ROOT
ATOM      1  C   UNL A   1     -25.688   1.614  26.461  0.00  0.00    +0.079 C 
ATOM      2  C   UNL A   1     -26.250   2.920  26.395  0.00  0.00    +0.055 C 
ATOM      3  C   UNL A   1     -27.438   3.091  25.645  0.00  0.00    +0.102 C 
ATOM      4  N   UNL A   1     -28.075   2.089  25.003  0.00  0.00    -0.212 NA
ATOM      5  C   UNL A   1     -27.543   0.849  25.079  0.00  0.00    +0.234 C 
ATOM      6  O   UNL A   1     -28.193  -0.208  24.477  0.00  0.00    -0.459 OA
ATOM      7  C   UNL A   1     -29.460   0.005  23.866  0.00  0.00    +0.239 C 
ATOM      8  C   UNL A   1     -30.065  -1.377  23.573  0.00  0.00    +0.191 C 
ATOM      9  O   UNL A   1     -30.729  -1.878  24.721  0.00  0.00    -0.336 OA
ATOM     10  C   UNL A   1     -26.354   0.576  25.777  0.00  0.00    +0.240 C 
ATOM     11  F   UNL A   1     -25.860  -0.681  25.795  0.00  0.00    -0.227 F 
ATOM     12  C   UNL A   1     -31.970  -1.337  29.426  0.00  0.00    +0.018 C 
ATOM     13  O   UNL A   1     -29.201  -0.847  29.110  0.00  0.00    -0.474 OA
ATOM     14  C   UNL A   1     -31.585  -1.323  30.874  0.00  0.00    +0.005 C 
ATOM     15  C   UNL A   1     -30.884  -0.306  31.401  0.00  0.00    +0.029 C 
ATOM     16  C   UNL A   1     -29.571   0.572  31.015  0.00  0.00    +0.013 C 
ATOM     17  C   UNL A   1     -32.583  -0.401  25.412  0.00  0.00    +0.121 C 
ATOM     18  C   UNL A   1     -31.382  -0.020  28.617  0.00  0.00    +0.060 C 
ATOM     19  C   UNL A   1     -27.753   2.321  29.700  0.00  0.00    +0.022 C 
ATOM     20  C   UNL A   1     -32.053   0.348  27.739  0.00  0.00    +0.078 C 
ATOM     21  C   UNL A   1     -25.390   0.651  28.668  0.00  0.00    +0.200 C 
ATOM     22  C   UNL A   1     -31.477  -1.307  25.847  0.00  0.00    +0.193 C 
ATOM     23  C   UNL A   1     -24.767   1.524  27.560  0.00  0.00    +0.084 C 
ATOM     24  C   UNL A   1     -29.238   1.821  31.565  0.00  0.00    -0.001 C 
ATOM     25  C   UNL A   1     -28.375   2.677  30.865  0.00  0.00    +0.001 C 
ATOM     26  C   UNL A   1     -27.842   1.008  29.335  0.00  0.00    +0.118 C 
ATOM     27  C   UNL A   1     -30.056  -0.491  28.126  0.00  0.00    +0.207 C 
ATOM     28  N   UNL A   1     -26.863   0.576  28.406  0.00  0.00    -0.212 NA
ATOM     29  N   UNL A   1     -32.532  -0.798  26.746  0.00  0.00    -0.246 NA
ATOM     30  C   UNL A   1     -28.822   0.219  29.857  0.00  0.00    +0.152 C 
ENDROOT
BRANCH   2  31
ATOM     31  C   UNL A   1     -25.642   4.093  27.123  0.00  0.00    +0.263 C 
ATOM     32  N   UNL A   1     -25.614   5.252  26.449  0.00  0.00    -0.200 NA
ATOM     33  C   UNL A   1     -25.026   6.479  26.963  0.00  0.00    +0.139 C 
ATOM     34  O   UNL A   1     -25.143   3.966  28.243  0.00  0.00    -0.269 OA
ENDBRANCH   2  31
BRANCH  23  36
ATOM     35  C   UNL A   1     -22.205   1.093  28.101  0.00  0.00    +0.001 C 
ATOM     36  C   UNL A   1     -23.378   0.982  27.111  0.00  0.00    +0.009 C 
BRANCH  36  37
ATOM     37  C   UNL A   1     -23.110   1.761  25.815  0.00  0.00    +0.001 C 
ATOM     38  C   UNL A   1     -21.692   2.245  25.760  0.00  0.00    +0.000 C 
ENDBRANCH  36  37
ENDBRANCH  23  36
BRANCH  12  39
ATOM     39  C   UNL A   1     -33.235  -0.767  29.218  0.00  0.00    +0.126 C 
BRANCH  39  40
ATOM     40  C   UNL A   1     -34.143  -0.111  29.578  0.00  0.00    +0.391 C 
ATOM     41  N   UNL A   1     -34.248   1.223  29.806  0.00  0.00    +0.158 NA
ATOM     42  N   UNL A   1     -35.370   1.377  30.344  0.00  0.00    +0.176 NA
ATOM     43  N   UNL A   1     -37.439  -0.696  29.874  0.00  0.00    +0.161 NA
ATOM     44  N   UNL A   1     -35.288  -0.894  29.645  0.00  0.00    +0.069 NA
ATOM     45  C   UNL A   1     -36.113  -0.283  29.902  0.00  0.00    +0.565 C 
ENDBRANCH  39  40
ENDBRANCH  12  39
BRANCH  21  46
ATOM     46  O   UNL A   1     -24.261  -0.037  29.279  0.00  0.00    -0.461 OA
BRANCH  46  47
ATOM     47  C   UNL A   1     -24.855  -1.012  30.143  0.00  0.00    +0.205 C 
BRANCH  47  48
ATOM     48  C   UNL A   1     -24.973  -2.505  29.788  0.00  0.00    +0.019 C 
ATOM     49  C   UNL A   1     -23.906  -3.173  29.146  0.00  0.00    -0.001 C 
ATOM     50  C   UNL A   1     -23.989  -4.549  28.853  0.00  0.00    -0.000 C 
ATOM     51  C   UNL A   1     -25.137  -5.280  29.205  0.00  0.00    -0.000 C 
ATOM     52  C   UNL A   1     -26.232  -4.611  29.784  0.00  0.00    -0.000 C 
ATOM     53  C   UNL A   1     -26.155  -3.232  30.065  0.00  0.00    -0.001 C 
ENDBRANCH  47  48
BRANCH  47  54
ATOM     54  C   UNL A   1     -25.387  -0.679  31.571  0.00  0.00    +0.117 C 
ATOM     55  C   UNL A   1     -25.189   0.773  32.028  0.00  0.00    +0.023 C 
ATOM     56  C   UNL A   1     -25.336   0.684  33.544  0.00  0.00    +0.020 C 
ATOM     57  C   UNL A   1     -24.829  -0.715  33.905  0.00  0.00    +0.089 C 
ATOM     58  N   UNL A   1     -24.758  -1.481  32.646  0.00  0.00    -0.215 NA
ENDBRANCH  47  54
ENDBRANCH  46  47
ENDBRANCH  21  46
BRANCH  14  59
ATOM     59  C   UNL A   1     -31.833  -2.612  31.629  0.00  0.00    +0.005 C 
BRANCH  59  60
ATOM     60  C   UNL A   1     -30.437  -3.077  31.756  0.00  0.00    +0.026 C 
ATOM     61  C   UNL A   1     -28.750  -5.105  31.596  0.00  0.00    -0.005 C 
ATOM     62  C   UNL A   1     -28.945  -4.255  30.515  0.00  0.00    -0.026 C 
ATOM     63  C   UNL A   1     -29.748  -3.176  30.576  0.00  0.00    +0.030 C 
ATOM     64  C   UNL A   1     -29.929  -3.566  32.909  0.00  0.00    -0.026 C 
ATOM     65  C   UNL A   1     -29.180  -4.708  32.851  0.00  0.00    -0.005 C 
ENDBRANCH  59  60
ENDBRANCH  14  59
TORSDOF 11
