REMARK  Name = outputs/IAG933/test6/raw/output_9629_IAG933_linker_design_.xyz
REMARK  9 active torsions:
REMARK  status: ('A' for Active; 'I' for Inactive)
REMARK    1  A    between atoms: C_1  and  C_2
REMARK    2  A    between atoms: C_1  and  C_8
REMARK    3  A    between atoms: C_1  and  N_30
REMARK    4  A    between atoms: C_13  and  N_33
REMARK    5  A    between atoms: C_14  and  C_15
REMARK    6  A    between atoms: C_21  and  O_22
REMARK    7  A    between atoms: O_22  and  C_23
REMARK    8  A    between atoms: C_23  and  C_24
REMARK    9  A    between atoms: N_30  and  C_34
REMARK                            x       y       z     vdW  Elec       q    Type
REMARK                         _______ _______ _______ _____ _____    ______ ____
ROOT
ATOM      1  N   UNL A   1     -22.416   1.388  27.377  0.00  0.00    -0.077 N 
ATOM      2  F   UNL A   1     -22.819   1.338  29.828  0.00  0.00    -0.152 F 
ATOM      3  C   UNL A   1     -23.250   1.541  26.433  0.00  0.00    +0.332 C 
ATOM      4  N   UNL A   1     -24.462   1.220  27.012  0.00  0.00    -0.111 N 
ATOM      5  C   UNL A   1     -24.352   0.551  28.226  0.00  0.00    +0.358 C 
ATOM      6  F   UNL A   1     -20.140   1.979  27.440  0.00  0.00    -0.145 F 
ATOM      7  O   UNL A   1     -21.369   1.766  25.349  0.00  0.00    -0.404 OA
ATOM      8  C   UNL A   1     -21.318   1.655  26.778  0.00  0.00    +0.523 C 
ATOM      9  C   UNL A   1     -22.820   1.798  25.131  0.00  0.00    +0.264 C 
ATOM     10  C   UNL A   1     -23.128   0.968  28.673  0.00  0.00    +0.363 C 
ENDROOT
BRANCH   4  11
ATOM     11  C   UNL A   1     -25.688   1.614  26.461  0.00  0.00    +0.184 C 
ATOM     12  C   UNL A   1     -26.250   2.920  26.395  0.00  0.00    +0.114 C 
ATOM     13  C   UNL A   1     -27.438   3.091  25.645  0.00  0.00    +0.110 C 
ATOM     14  N   UNL A   1     -28.075   2.089  25.003  0.00  0.00    -0.208 NA
ATOM     15  C   UNL A   1     -27.543   0.849  25.079  0.00  0.00    +0.257 C 
ATOM     16  C   UNL A   1     -26.354   0.576  25.777  0.00  0.00    +0.230 C 
ATOM     17  F   UNL A   1     -25.860  -0.681  25.795  0.00  0.00    -0.196 F 
BRANCH  12  18
ATOM     18  C   UNL A   1     -25.642   4.093  27.123  0.00  0.00    +0.270 C 
ATOM     19  N   UNL A   1     -25.614   5.252  26.449  0.00  0.00    -0.200 NA
ATOM     20  C   UNL A   1     -25.026   6.479  26.963  0.00  0.00    +0.139 C 
ATOM     21  O   UNL A   1     -25.143   3.966  28.243  0.00  0.00    -0.268 OA
ENDBRANCH  12  18
BRANCH  15  22
ATOM     22  O   UNL A   1     -28.193  -0.208  24.477  0.00  0.00    -0.456 OA
BRANCH  22  23
ATOM     23  C   UNL A   1     -29.460   0.005  23.866  0.00  0.00    +0.243 C 
BRANCH  23  24
ATOM     24  C   UNL A   1     -30.065  -1.377  23.573  0.00  0.00    +0.229 C 
ATOM     25  O   UNL A   1     -30.729  -1.878  24.721  0.00  0.00    -0.216 OA
ENDBRANCH  23  24
ENDBRANCH  22  23
ENDBRANCH  15  22
ENDBRANCH   4  11
BRANCH   5  26
ATOM     26  N   UNL A   1     -25.369  -0.036  29.195  0.00  0.00    -0.119 N 
ATOM     27  O   UNL A   1     -27.608  -0.118  28.582  0.00  0.00    -0.220 OA
ATOM     28  N   UNL A   1     -26.833   1.875  29.279  0.00  0.00    -0.045 NA
ATOM     29  C   UNL A   1     -26.703   0.545  29.059  0.00  0.00    +0.434 C 
BRANCH  26  30
ATOM     30  C   UNL A   1     -24.855  -1.012  30.143  0.00  0.00    +0.208 C 
BRANCH  30  31
ATOM     31  C   UNL A   1     -24.973  -2.505  29.788  0.00  0.00    +0.022 C 
ATOM     32  C   UNL A   1     -23.906  -3.173  29.146  0.00  0.00    -0.000 C 
ATOM     33  C   UNL A   1     -23.989  -4.549  28.853  0.00  0.00    -0.000 C 
ATOM     34  C   UNL A   1     -25.137  -5.280  29.205  0.00  0.00    -0.000 C 
ATOM     35  C   UNL A   1     -26.232  -4.611  29.784  0.00  0.00    -0.000 C 
ATOM     36  C   UNL A   1     -26.155  -3.232  30.065  0.00  0.00    -0.000 C 
ENDBRANCH  30  31
BRANCH  30  37
ATOM     37  C   UNL A   1     -25.387  -0.679  31.571  0.00  0.00    +0.120 C 
ATOM     38  C   UNL A   1     -25.189   0.773  32.028  0.00  0.00    +0.023 C 
ATOM     39  C   UNL A   1     -25.336   0.684  33.544  0.00  0.00    +0.020 C 
ATOM     40  C   UNL A   1     -24.829  -0.715  33.905  0.00  0.00    +0.089 C 
ATOM     41  N   UNL A   1     -24.758  -1.481  32.646  0.00  0.00    -0.215 NA
ENDBRANCH  30  37
ENDBRANCH  26  30
ENDBRANCH   5  26
TORSDOF 9
