MODEL 962
MODEL 1
REMARK VINA RESULT:    -6.132      0.000      0.000
REMARK INTER + INTRA:          -6.852
REMARK INTER:                  -6.849
REMARK INTRA:                  -0.003
REMARK UNBOUND:                -0.003
REMARK  Name = No_962-gen_results/8p0m/2024-11-27-11-27-31/
REMARK  2 active torsions:
REMARK  status: ('A' for Active; 'I' for Inactive)
REMARK    1  A    between atoms: C_2  and  N_14
REMARK    2  A    between atoms: C_6  and  C_11
REMARK                            x       y       z     vdW  Elec       q    Type
REMARK                         _______ _______ _______ _____ _____    ______ ____
ROOT
ATOM      1  N   UNL A   1     -30.863  -9.721  29.267  0.00  0.00    -0.227 NA
ATOM      2  C   UNL A   1     -30.747 -10.184  28.278  0.00  0.00    +0.162 A 
ATOM      3  C   UNL A   1     -30.076 -10.250  30.249  0.00  0.00    +0.083 A 
ATOM      4  C   UNL A   1     -29.982  -9.848  31.620  0.00  0.00    +0.019 A 
ATOM      5  C   UNL A   1     -29.066 -10.542  32.552  0.00  0.00    +0.006 A 
ATOM      6  C   UNL A   1     -28.281 -11.595  32.051  0.00  0.00    +0.057 A 
ATOM      7  C   UNL A   1     -28.353 -12.007  30.773  0.00  0.00    +0.006 A 
ATOM      8  C   UNL A   1     -29.149 -11.349  29.870  0.00  0.00    +0.018 A 
ATOM      9  C   UNL A   1     -29.982 -11.162  27.663  0.00  0.00    +0.039 A 
ATOM     10  C   UNL A   1     -29.157 -11.793  28.494  0.00  0.00    +0.005 A 
ENDROOT
BRANCH   6  11
ATOM     11  C   UNL A   1     -27.396 -12.207  33.106  0.00  0.00    +0.284 C 
ATOM     12  N   UNL A   1     -27.532 -12.077  34.354  0.00  0.00    -0.084 NA
ATOM     13  O   UNL A   1     -26.411 -12.990  32.678  0.00  0.00    -0.267 OA
ENDBRANCH   6  11
BRANCH   2  14
ATOM     14  N   UNL A   1     -31.626  -9.435  27.288  0.00  0.00    -0.230 NA
ATOM     15  C   UNL A   1     -32.830  -9.867  26.940  0.00  0.00    +0.074 C 
ATOM     16  C   UNL A   1     -33.365 -11.007  27.528  0.00  0.00    +0.053 C 
ENDBRANCH   2  14
TORSDOF 2
ENDMDL
ENDMDL
