REMARK  Name = outputs/IAG933/test6/raw/output_9632_IAG933_linker_design_.xyz
REMARK  25 active torsions:
REMARK  status: ('A' for Active; 'I' for Inactive)
REMARK    1  A    between atoms: C_1  and  C_2
REMARK    2  A    between atoms: C_1  and  C_8
REMARK    3  A    between atoms: C_1  and  N_32
REMARK    4  A    between atoms: C_13  and  C_46
REMARK    5  A    between atoms: C_14  and  C_15
REMARK    6  A    between atoms: C_21  and  O_22
REMARK    7  A    between atoms: O_22  and  C_23
REMARK    8  A    between atoms: C_23  and  C_24
REMARK    9  A    between atoms: C_28  and  N_32
REMARK   10  A    between atoms: C_28  and  C_57
REMARK   11  A    between atoms: N_29  and  C_45
REMARK   12  A    between atoms: C_30  and  C_54
REMARK   13  A    between atoms: N_32  and  C_41
REMARK   14  A    between atoms: C_33  and  C_45
REMARK   15  A    between atoms: C_33  and  O_49
REMARK   16  A    between atoms: C_36  and  C_55
REMARK   17  A    between atoms: C_37  and  C_41
REMARK   18  A    between atoms: C_37  and  O_49
REMARK   19  A    between atoms: C_41  and  C_46
REMARK   20  A    between atoms: C_43  and  C_47
REMARK   21  A    between atoms: C_45  and  C_47
REMARK   22  A    between atoms: C_45  and  C_56
REMARK   23  A    between atoms: C_48  and  C_54
REMARK   24  A    between atoms: C_50  and  C_52
REMARK   25  A    between atoms: C_50  and  C_55
REMARK                            x       y       z     vdW  Elec       q    Type
REMARK                         _______ _______ _______ _____ _____    ______ ____
ROOT
ATOM      1  C   UNL A   1     -25.732   0.586  28.418  0.00  0.00    +0.159 C 
ENDROOT
BRANCH   1   3
ATOM      2  O   UNL A   1     -27.677  -0.816  28.898  0.00  0.00    -0.249 OA
ATOM      3  C   UNL A   1     -27.197   0.297  28.838  0.00  0.00    +0.332 C 
BRANCH   3   4
ATOM      4  O   UNL A   1     -28.044   1.344  28.991  0.00  0.00    -0.445 OA
BRANCH   4   5
ATOM      5  C   UNL A   1     -29.361   0.916  28.772  0.00  0.00    +0.234 C 
BRANCH   5   6
ATOM      6  C   UNL A   1     -30.434   1.808  29.253  0.00  0.00    +0.154 C 
BRANCH   6   7
ATOM      7  N   UNL A   1     -30.558   2.765  28.071  0.00  0.00    -0.247 N 
ATOM      8  C   UNL A   1     -31.043   3.475  25.805  0.00  0.00    +0.109 C 
ATOM      9  N   UNL A   1     -30.771   4.561  26.477  0.00  0.00    -0.248 NA
ATOM     10  C   UNL A   1     -30.920   2.377  26.857  0.00  0.00    +0.264 C 
ATOM     11  C   UNL A   1     -30.544   4.314  27.842  0.00  0.00    +0.222 C 
ATOM     12  O   UNL A   1     -31.284   1.187  26.618  0.00  0.00    -0.269 OA
BRANCH   8  13
ATOM     13  C   UNL A   1     -31.076   3.664  24.232  0.00  0.00    +0.050 C 
BRANCH  13  15
ATOM     14  C   UNL A   1     -31.932   2.550  22.098  0.00  0.00    +0.000 C 
ATOM     15  C   UNL A   1     -30.846   2.645  23.186  0.00  0.00    +0.006 C 
ENDBRANCH  13  15
ENDBRANCH   8  13
ENDBRANCH   6   7
BRANCH   6  17
ATOM     16  O   UNL A   1     -29.517   2.616  30.861  0.00  0.00    -0.294 OA
ATOM     17  C   UNL A   1     -29.807   2.772  30.189  0.00  0.00    +0.171 C 
ATOM     18  C   UNL A   1     -29.509   3.412  30.073  0.00  0.00    +0.074 C 
ENDBRANCH   6  17
BRANCH   6  19
ATOM     19  C   UNL A   1     -31.521   1.286  30.159  0.00  0.00    +0.029 C 
BRANCH  19  21
ATOM     20  C   UNL A   1     -32.372   1.783  32.800  0.00  0.00    +0.000 C 
ATOM     21  C   UNL A   1     -31.709   1.654  31.550  0.00  0.00    +0.002 C 
ATOM     22  C   UNL A   1     -31.329   2.882  32.252  0.00  0.00    +0.000 C 
BRANCH  22  23
ATOM     23  C   UNL A   1     -30.372   3.357  33.364  0.00  0.00    +0.003 C 
ATOM     24  C   UNL A   1     -30.174   2.353  34.733  0.00  0.00    +0.000 C 
BRANCH  23  25
ATOM     25  C   UNL A   1     -29.216   2.866  32.520  0.00  0.00    +0.035 C 
BRANCH  25  26
ATOM     26  C   UNL A   1     -27.928   3.737  32.672  0.00  0.00    +0.182 C 
ATOM     27  O   UNL A   1     -26.799   3.092  32.137  0.00  0.00    -0.220 OA
ENDBRANCH  25  26
ENDBRANCH  23  25
ENDBRANCH  22  23
ENDBRANCH  19  21
ENDBRANCH   6  19
ENDBRANCH   5   6
ENDBRANCH   4   5
ENDBRANCH   3   4
ENDBRANCH   1   3
BRANCH   1  28
ATOM     28  C   UNL A   1     -24.902   1.415  27.420  0.00  0.00    +0.035 C 
BRANCH  28  29
ATOM     29  C   UNL A   1     -25.688   1.614  26.461  0.00  0.00    +0.072 C 
ATOM     30  C   UNL A   1     -26.250   2.920  26.395  0.00  0.00    +0.055 C 
ATOM     31  C   UNL A   1     -27.438   3.091  25.645  0.00  0.00    +0.102 C 
ATOM     32  N   UNL A   1     -28.075   2.089  25.003  0.00  0.00    -0.212 NA
ATOM     33  C   UNL A   1     -27.543   0.849  25.079  0.00  0.00    +0.234 C 
ATOM     34  C   UNL A   1     -26.354   0.576  25.777  0.00  0.00    +0.240 C 
ATOM     35  F   UNL A   1     -25.860  -0.681  25.795  0.00  0.00    -0.227 F 
BRANCH  30  36
ATOM     36  C   UNL A   1     -25.642   4.093  27.123  0.00  0.00    +0.262 C 
ATOM     37  N   UNL A   1     -25.614   5.252  26.449  0.00  0.00    -0.200 NA
ATOM     38  C   UNL A   1     -25.026   6.479  26.963  0.00  0.00    +0.139 C 
ATOM     39  O   UNL A   1     -25.143   3.966  28.243  0.00  0.00    -0.269 OA
ENDBRANCH  30  36
BRANCH  33  40
ATOM     40  O   UNL A   1     -28.193  -0.208  24.477  0.00  0.00    -0.459 OA
BRANCH  40  41
ATOM     41  C   UNL A   1     -29.460   0.005  23.866  0.00  0.00    +0.242 C 
BRANCH  41  42
ATOM     42  C   UNL A   1     -30.065  -1.377  23.573  0.00  0.00    +0.229 C 
ATOM     43  O   UNL A   1     -30.729  -1.878  24.721  0.00  0.00    -0.216 OA
ENDBRANCH  41  42
ENDBRANCH  40  41
ENDBRANCH  33  40
ENDBRANCH  28  29
ENDBRANCH   1  28
BRANCH   1  44
ATOM     44  N   UNL A   1     -24.689   0.009  29.234  0.00  0.00    -0.258 NA
BRANCH  44  45
ATOM     45  C   UNL A   1     -24.855  -1.012  30.143  0.00  0.00    +0.097 C 
BRANCH  45  46
ATOM     46  C   UNL A   1     -24.973  -2.505  29.788  0.00  0.00    -0.006 C 
ATOM     47  C   UNL A   1     -23.906  -3.173  29.146  0.00  0.00    -0.003 C 
ATOM     48  C   UNL A   1     -23.989  -4.549  28.853  0.00  0.00    -0.000 C 
ATOM     49  C   UNL A   1     -25.137  -5.280  29.205  0.00  0.00    -0.000 C 
ATOM     50  C   UNL A   1     -26.232  -4.611  29.784  0.00  0.00    -0.000 C 
ATOM     51  C   UNL A   1     -26.155  -3.232  30.065  0.00  0.00    -0.003 C 
ENDBRANCH  45  46
BRANCH  45  52
ATOM     52  C   UNL A   1     -25.387  -0.679  31.571  0.00  0.00    +0.092 C 
ATOM     53  C   UNL A   1     -25.189   0.773  32.028  0.00  0.00    +0.021 C 
ATOM     54  C   UNL A   1     -25.336   0.684  33.544  0.00  0.00    +0.020 C 
ATOM     55  C   UNL A   1     -24.829  -0.715  33.905  0.00  0.00    +0.089 C 
ATOM     56  N   UNL A   1     -24.758  -1.481  32.646  0.00  0.00    -0.218 NA
ENDBRANCH  45  52
ENDBRANCH  44  45
BRANCH  44  57
ATOM     57  C   UNL A   1     -23.181  -0.074  28.730  0.00  0.00    +0.100 C 
BRANCH  57  59
ATOM     58  C   UNL A   1     -21.171   1.295  27.884  0.00  0.00    -0.004 C 
ATOM     59  C   UNL A   1     -22.268   0.942  28.427  0.00  0.00    -0.009 C 
ENDBRANCH  57  59
ENDBRANCH  44  57
ENDBRANCH   1  44
TORSDOF 25
