REMARK  Name = outputs/IAG933/test6/raw/output_9636_IAG933_linker_design_.xyz
REMARK  15 active torsions:
REMARK  status: ('A' for Active; 'I' for Inactive)
REMARK    1  A    between atoms: C_1  and  C_2
REMARK    2  A    between atoms: C_1  and  C_8
REMARK    3  A    between atoms: C_1  and  C_36
REMARK    4  A    between atoms: C_13  and  C_35
REMARK    5  A    between atoms: C_14  and  C_15
REMARK    6  A    between atoms: C_21  and  O_22
REMARK    7  A    between atoms: O_22  and  C_23
REMARK    8  A    between atoms: C_23  and  C_24
REMARK    9  A    between atoms: C_28  and  C_29
REMARK   10  A    between atoms: C_29  and  C_32
REMARK   11  A    between atoms: C_33  and  C_36
REMARK   12  A    between atoms: C_33  and  C_45
REMARK   13  A    between atoms: C_35  and  C_44
REMARK   14  A    between atoms: C_36  and  C_44
REMARK   15  A    between atoms: C_40  and  C_44
REMARK                            x       y       z     vdW  Elec       q    Type
REMARK                         _______ _______ _______ _____ _____    ______ ____
ROOT
ATOM      1  C   UNL A   1     -25.203  -0.097  29.014  0.00  0.00    +0.014 C 
ENDROOT
BRANCH   1   2
ATOM      2  C   UNL A   1     -24.855  -1.012  30.143  0.00  0.00    +0.039 C 
BRANCH   2   3
ATOM      3  C   UNL A   1     -24.973  -2.505  29.788  0.00  0.00    -0.021 C 
ATOM      4  C   UNL A   1     -23.906  -3.173  29.146  0.00  0.00    -0.004 C 
ATOM      5  C   UNL A   1     -23.989  -4.549  28.853  0.00  0.00    -0.000 C 
ATOM      6  C   UNL A   1     -25.137  -5.280  29.205  0.00  0.00    -0.000 C 
ATOM      7  C   UNL A   1     -26.232  -4.611  29.784  0.00  0.00    -0.000 C 
ATOM      8  C   UNL A   1     -26.155  -3.232  30.065  0.00  0.00    -0.004 C 
ENDBRANCH   2   3
BRANCH   2   9
ATOM      9  C   UNL A   1     -25.387  -0.679  31.571  0.00  0.00    +0.077 C 
ATOM     10  C   UNL A   1     -25.189   0.773  32.028  0.00  0.00    +0.019 C 
ATOM     11  C   UNL A   1     -25.336   0.684  33.544  0.00  0.00    +0.020 C 
ATOM     12  C   UNL A   1     -24.829  -0.715  33.905  0.00  0.00    +0.089 C 
ATOM     13  N   UNL A   1     -24.758  -1.481  32.646  0.00  0.00    -0.219 NA
ENDBRANCH   2   9
ENDBRANCH   1   2
BRANCH   1  14
ATOM     14  C   UNL A   1     -26.595  -0.463  28.559  0.00  0.00    +0.038 C 
BRANCH  14  21
ATOM     15  C   UNL A   1     -29.382   2.509  30.447  0.00  0.00    +0.033 C 
ATOM     16  O   UNL A   1     -29.307  -0.152  27.982  0.00  0.00    -0.293 OA
ATOM     17  C   UNL A   1     -29.217   0.090  30.520  0.00  0.00    +0.068 C 
ATOM     18  C   UNL A   1     -28.212   2.601  29.363  0.00  0.00    +0.143 C 
ATOM     19  C   UNL A   1     -28.804   0.115  29.093  0.00  0.00    +0.177 C 
ATOM     20  C   UNL A   1     -29.167   1.288  31.292  0.00  0.00    +0.010 C 
ATOM     21  C   UNL A   1     -27.508   0.657  29.013  0.00  0.00    +0.172 C 
ATOM     22  O   UNL A   1     -27.041   1.790  29.483  0.00  0.00    -0.349 OA
BRANCH  17  23
ATOM     23  C   UNL A   1     -29.564  -1.075  31.250  0.00  0.00    +0.072 C 
BRANCH  23  24
ATOM     24  C   UNL A   1     -30.028  -2.211  30.296  0.00  0.00    +0.151 C 
ATOM     25  O   UNL A   1     -29.470  -3.313  30.237  0.00  0.00    -0.296 OA
ATOM     26  C   UNL A   1     -31.112  -1.725  29.374  0.00  0.00    +0.072 C 
ENDBRANCH  23  24
ENDBRANCH  17  23
ENDBRANCH  14  21
ENDBRANCH   1  14
BRANCH   1  27
ATOM     27  C   UNL A   1     -24.149   0.685  28.306  0.00  0.00    +0.043 C 
BRANCH  27  30
ATOM     28  C   UNL A   1     -21.597   1.409  27.767  0.00  0.00    +0.049 C 
ATOM     29  N   UNL A   1     -22.209  -0.245  29.391  0.00  0.00    -0.157 NA
ATOM     30  C   UNL A   1     -22.688   0.686  28.570  0.00  0.00    +0.059 C 
ENDBRANCH  27  30
BRANCH  27  31
ATOM     31  C   UNL A   1     -24.340   1.304  27.044  0.00  0.00    +0.035 C 
BRANCH  31  32
ATOM     32  C   UNL A   1     -25.688   1.614  26.461  0.00  0.00    +0.016 C 
ATOM     33  C   UNL A   1     -26.250   2.920  26.395  0.00  0.00    +0.073 C 
ATOM     34  C   UNL A   1     -27.438   3.091  25.645  0.00  0.00    +0.106 C 
ATOM     35  N   UNL A   1     -28.075   2.089  25.003  0.00  0.00    -0.208 NA
ATOM     36  C   UNL A   1     -27.543   0.849  25.079  0.00  0.00    +0.253 C 
ATOM     37  C   UNL A   1     -26.354   0.576  25.777  0.00  0.00    +0.189 C 
ATOM     38  F   UNL A   1     -25.860  -0.681  25.795  0.00  0.00    -0.200 F 
BRANCH  33  39
ATOM     39  C   UNL A   1     -25.642   4.093  27.123  0.00  0.00    +0.266 C 
ATOM     40  N   UNL A   1     -25.614   5.252  26.449  0.00  0.00    -0.200 NA
ATOM     41  C   UNL A   1     -25.026   6.479  26.963  0.00  0.00    +0.139 C 
ATOM     42  O   UNL A   1     -25.143   3.966  28.243  0.00  0.00    -0.268 OA
ENDBRANCH  33  39
BRANCH  36  43
ATOM     43  O   UNL A   1     -28.193  -0.208  24.477  0.00  0.00    -0.456 OA
BRANCH  43  44
ATOM     44  C   UNL A   1     -29.460   0.005  23.866  0.00  0.00    +0.243 C 
BRANCH  44  45
ATOM     45  C   UNL A   1     -30.065  -1.377  23.573  0.00  0.00    +0.229 C 
ATOM     46  O   UNL A   1     -30.729  -1.878  24.721  0.00  0.00    -0.216 OA
ENDBRANCH  44  45
ENDBRANCH  43  44
ENDBRANCH  36  43
ENDBRANCH  31  32
ENDBRANCH  27  31
ENDBRANCH   1  27
TORSDOF 15
