REMARK  Name = outputs/IAG933/test6/raw/output_9637_IAG933_linker_design_.xyz
REMARK  16 active torsions:
REMARK  status: ('A' for Active; 'I' for Inactive)
REMARK    1  A    between atoms: C_1  and  C_2
REMARK    2  A    between atoms: C_1  and  C_8
REMARK    3  A    between atoms: C_1  and  C_33
REMARK    4  A    between atoms: C_13  and  C_36
REMARK    5  A    between atoms: C_14  and  C_15
REMARK    6  A    between atoms: C_21  and  O_22
REMARK    7  A    between atoms: O_22  and  C_23
REMARK    8  A    between atoms: C_23  and  C_24
REMARK    9  A    between atoms: C_29  and  C_34
REMARK   10  A    between atoms: C_29  and  C_38
REMARK   11  A    between atoms: N_30  and  C_33
REMARK   12  A    between atoms: C_31  and  C_39
REMARK   13  A    between atoms: C_32  and  O_41
REMARK   14  A    between atoms: C_33  and  C_38
REMARK   15  A    between atoms: C_36  and  C_38
REMARK   16  A    between atoms: C_39  and  O_41
REMARK                            x       y       z     vdW  Elec       q    Type
REMARK                         _______ _______ _______ _____ _____    ______ ____
ROOT
ATOM      1  C   UNL A   1     -24.798   0.042  29.137  0.00  0.00    +0.104 C 
ENDROOT
BRANCH   1   2
ATOM      2  N   UNL A   1     -26.108  -0.010  28.399  0.00  0.00    -0.170 NA
ATOM      3  C   UNL A   1     -27.404   0.050  28.815  0.00  0.00    +0.421 C 
ATOM      4  O   UNL A   1     -28.230  -0.616  28.264  0.00  0.00    -0.225 OA
BRANCH   3   5
ATOM      5  O   UNL A   1     -27.752   1.137  29.578  0.00  0.00    -0.433 OA
BRANCH   5   6
ATOM      6  C   UNL A   1     -28.614   1.190  30.145  0.00  0.00    +0.219 C 
BRANCH   6   8
ATOM      7  C   UNL A   1     -30.080   2.596  28.725  0.00  0.00    -0.000 C 
ATOM      8  C   UNL A   1     -28.929   2.229  29.547  0.00  0.00    +0.089 C 
ATOM      9  C   UNL A   1     -28.155   3.437  29.580  0.00  0.00    -0.017 C 
ATOM     10  C   UNL A   1     -28.759   4.444  28.822  0.00  0.00    +0.014 C 
ATOM     11  N   UNL A   1     -30.613   4.428  27.381  0.00  0.00    -0.128 NA
ATOM     12  C   UNL A   1     -29.847   3.866  28.275  0.00  0.00    +0.085 C 
ENDBRANCH   6   8
ENDBRANCH   5   6
ENDBRANCH   3   5
ENDBRANCH   1   2
BRANCH   1  13
ATOM     13  C   UNL A   1     -24.855  -1.012  30.143  0.00  0.00    +0.058 C 
BRANCH  13  14
ATOM     14  C   UNL A   1     -24.973  -2.505  29.788  0.00  0.00    -0.019 C 
ATOM     15  C   UNL A   1     -23.906  -3.173  29.146  0.00  0.00    -0.004 C 
ATOM     16  C   UNL A   1     -23.989  -4.549  28.853  0.00  0.00    -0.000 C 
ATOM     17  C   UNL A   1     -25.137  -5.280  29.205  0.00  0.00    -0.000 C 
ATOM     18  C   UNL A   1     -26.232  -4.611  29.784  0.00  0.00    -0.000 C 
ATOM     19  C   UNL A   1     -26.155  -3.232  30.065  0.00  0.00    -0.004 C 
ENDBRANCH  13  14
BRANCH  13  20
ATOM     20  C   UNL A   1     -25.387  -0.679  31.571  0.00  0.00    +0.079 C 
ATOM     21  C   UNL A   1     -25.189   0.773  32.028  0.00  0.00    +0.019 C 
ATOM     22  C   UNL A   1     -25.336   0.684  33.544  0.00  0.00    +0.020 C 
ATOM     23  C   UNL A   1     -24.829  -0.715  33.905  0.00  0.00    +0.089 C 
ATOM     24  N   UNL A   1     -24.758  -1.481  32.646  0.00  0.00    -0.219 NA
ENDBRANCH  13  20
ENDBRANCH   1  13
BRANCH   1  25
ATOM     25  C   UNL A   1     -23.785   0.005  27.884  0.00  0.00    +0.025 C 
BRANCH  25  26
ATOM     26  C   UNL A   1     -22.452   0.191  28.616  0.00  0.00    +0.002 C 
BRANCH  26  27
ATOM     27  C   UNL A   1     -21.698   1.493  28.222  0.00  0.00    +0.000 C 
ATOM     28  C   UNL A   1     -21.502   1.924  26.757  0.00  0.00    +0.000 C 
ENDBRANCH  26  27
ENDBRANCH  25  26
BRANCH  25  29
ATOM     29  C   UNL A   1     -24.296   1.156  26.924  0.00  0.00    +0.031 C 
BRANCH  29  30
ATOM     30  C   UNL A   1     -25.688   1.614  26.461  0.00  0.00    +0.016 C 
ATOM     31  C   UNL A   1     -26.250   2.920  26.395  0.00  0.00    +0.073 C 
ATOM     32  C   UNL A   1     -27.438   3.091  25.645  0.00  0.00    +0.106 C 
ATOM     33  N   UNL A   1     -28.075   2.089  25.003  0.00  0.00    -0.208 NA
ATOM     34  C   UNL A   1     -27.543   0.849  25.079  0.00  0.00    +0.253 C 
ATOM     35  C   UNL A   1     -26.354   0.576  25.777  0.00  0.00    +0.189 C 
ATOM     36  F   UNL A   1     -25.860  -0.681  25.795  0.00  0.00    -0.200 F 
BRANCH  31  37
ATOM     37  C   UNL A   1     -25.642   4.093  27.123  0.00  0.00    +0.266 C 
ATOM     38  N   UNL A   1     -25.614   5.252  26.449  0.00  0.00    -0.200 NA
ATOM     39  C   UNL A   1     -25.026   6.479  26.963  0.00  0.00    +0.139 C 
ATOM     40  O   UNL A   1     -25.143   3.966  28.243  0.00  0.00    -0.268 OA
ENDBRANCH  31  37
BRANCH  34  41
ATOM     41  O   UNL A   1     -28.193  -0.208  24.477  0.00  0.00    -0.456 OA
BRANCH  41  42
ATOM     42  C   UNL A   1     -29.460   0.005  23.866  0.00  0.00    +0.243 C 
BRANCH  42  43
ATOM     43  C   UNL A   1     -30.065  -1.377  23.573  0.00  0.00    +0.229 C 
ATOM     44  O   UNL A   1     -30.729  -1.878  24.721  0.00  0.00    -0.216 OA
ENDBRANCH  42  43
ENDBRANCH  41  42
ENDBRANCH  34  41
ENDBRANCH  29  30
ENDBRANCH  25  29
ENDBRANCH   1  25
TORSDOF 16
