REMARK  Name = outputs/IAG933/test6/raw/output_9641_IAG933_linker_design_.xyz
REMARK  12 active torsions:
REMARK  status: ('A' for Active; 'I' for Inactive)
REMARK    1  A    between atoms: C_1  and  C_2
REMARK    2  A    between atoms: C_1  and  C_8
REMARK    3  A    between atoms: C_1  and  C_35
REMARK    4  A    between atoms: C_13  and  C_40
REMARK    5  A    between atoms: C_14  and  C_15
REMARK    6  A    between atoms: C_21  and  O_22
REMARK    7  A    between atoms: O_22  and  C_23
REMARK    8  A    between atoms: C_23  and  C_24
REMARK    9  A    between atoms: N_30  and  C_45
REMARK   10  A    between atoms: C_33  and  C_35
REMARK   11  A    between atoms: C_35  and  S_42
REMARK   12  A    between atoms: S_42  and  C_45
REMARK                            x       y       z     vdW  Elec       q    Type
REMARK                         _______ _______ _______ _____ _____    ______ ____
ROOT
ATOM      1  C   UNL A   1     -23.274   1.800  26.311  0.00  0.00    +0.125 C 
ATOM      2  C   UNL A   1     -21.362   1.567  27.919  0.00  0.00    +0.002 C 
ATOM      3  C   UNL A   1     -24.376   0.537  28.254  0.00  0.00    -0.024 C 
ATOM      4  C   UNL A   1     -21.974   0.802  28.888  0.00  0.00    -0.001 C 
ATOM      5  F   UNL A   1     -23.444   2.188  25.039  0.00  0.00    -0.208 F 
ATOM      6  C   UNL A   1     -23.248   0.334  29.017  0.00  0.00    -0.007 C 
ATOM      7  C   UNL A   1     -24.409   1.288  27.064  0.00  0.00    +0.094 C 
ATOM      8  C   UNL A   1     -21.949   1.980  26.729  0.00  0.00    +0.026 C 
ENDROOT
BRANCH   7   9
ATOM      9  C   UNL A   1     -25.688   1.614  26.461  0.00  0.00    +0.026 C 
ATOM     10  C   UNL A   1     -26.250   2.920  26.395  0.00  0.00    +0.073 C 
ATOM     11  C   UNL A   1     -27.438   3.091  25.645  0.00  0.00    +0.106 C 
ATOM     12  N   UNL A   1     -28.075   2.089  25.003  0.00  0.00    -0.208 NA
ATOM     13  C   UNL A   1     -27.543   0.849  25.079  0.00  0.00    +0.253 C 
ATOM     14  C   UNL A   1     -26.354   0.576  25.777  0.00  0.00    +0.190 C 
ATOM     15  F   UNL A   1     -25.860  -0.681  25.795  0.00  0.00    -0.200 F 
BRANCH  10  16
ATOM     16  C   UNL A   1     -25.642   4.093  27.123  0.00  0.00    +0.266 C 
ATOM     17  N   UNL A   1     -25.614   5.252  26.449  0.00  0.00    -0.200 NA
ATOM     18  C   UNL A   1     -25.026   6.479  26.963  0.00  0.00    +0.139 C 
ATOM     19  O   UNL A   1     -25.143   3.966  28.243  0.00  0.00    -0.268 OA
ENDBRANCH  10  16
BRANCH  13  20
ATOM     20  O   UNL A   1     -28.193  -0.208  24.477  0.00  0.00    -0.456 OA
BRANCH  20  21
ATOM     21  C   UNL A   1     -29.460   0.005  23.866  0.00  0.00    +0.243 C 
BRANCH  21  22
ATOM     22  C   UNL A   1     -30.065  -1.377  23.573  0.00  0.00    +0.229 C 
ATOM     23  O   UNL A   1     -30.729  -1.878  24.721  0.00  0.00    -0.216 OA
ENDBRANCH  21  22
ENDBRANCH  20  21
ENDBRANCH  13  20
ENDBRANCH   7   9
BRANCH   3  24
ATOM     24  C   UNL A   1     -25.530  -0.223  29.029  0.00  0.00    +0.073 C 
BRANCH  24  25
ATOM     25  C   UNL A   1     -24.855  -1.012  30.143  0.00  0.00    +0.052 C 
BRANCH  25  26
ATOM     26  C   UNL A   1     -24.973  -2.505  29.788  0.00  0.00    -0.020 C 
ATOM     27  C   UNL A   1     -23.906  -3.173  29.146  0.00  0.00    -0.004 C 
ATOM     28  C   UNL A   1     -23.989  -4.549  28.853  0.00  0.00    -0.000 C 
ATOM     29  C   UNL A   1     -25.137  -5.280  29.205  0.00  0.00    -0.000 C 
ATOM     30  C   UNL A   1     -26.232  -4.611  29.784  0.00  0.00    -0.000 C 
ATOM     31  C   UNL A   1     -26.155  -3.232  30.065  0.00  0.00    -0.004 C 
ENDBRANCH  25  26
BRANCH  25  32
ATOM     32  C   UNL A   1     -25.387  -0.679  31.571  0.00  0.00    +0.078 C 
ATOM     33  C   UNL A   1     -25.189   0.773  32.028  0.00  0.00    +0.019 C 
ATOM     34  C   UNL A   1     -25.336   0.684  33.544  0.00  0.00    +0.020 C 
ATOM     35  C   UNL A   1     -24.829  -0.715  33.905  0.00  0.00    +0.089 C 
ATOM     36  N   UNL A   1     -24.758  -1.481  32.646  0.00  0.00    -0.219 NA
ENDBRANCH  25  32
ENDBRANCH  24  25
BRANCH  24  37
ATOM     37  S   UNL A   1     -26.837   1.028  29.211  0.00  0.00    -0.121 S 
BRANCH  37  39
ATOM     38  C   UNL A   1     -28.436  -1.180  29.187  0.00  0.00    +0.029 C 
ATOM     39  C   UNL A   1     -28.583   0.345  29.356  0.00  0.00    +0.106 C 
BRANCH  39  41
ATOM     40  C   UNL A   1     -29.124   2.498  29.979  0.00  0.00    +0.073 C 
ATOM     41  N   UNL A   1     -28.893   1.115  30.499  0.00  0.00    -0.265 NA
ATOM     42  C   UNL A   1     -30.027   0.464  31.261  0.00  0.00    +0.073 C 
ATOM     43  C   UNL A   1     -30.380   2.911  30.704  0.00  0.00    +0.017 C 
ATOM     44  C   UNL A   1     -31.500   1.880  30.481  0.00  0.00    +0.003 C 
ATOM     45  C   UNL A   1     -31.130   0.478  30.552  0.00  0.00    +0.017 C 
ENDBRANCH  39  41
ENDBRANCH  37  39
ENDBRANCH  24  37
ENDBRANCH   3  24
TORSDOF 12
