REMARK  Name = outputs/IAG933/test6/raw/output_9642_IAG933_linker_design_.xyz
REMARK  14 active torsions:
REMARK  status: ('A' for Active; 'I' for Inactive)
REMARK    1  A    between atoms: C_1  and  C_2
REMARK    2  A    between atoms: C_1  and  C_8
REMARK    3  A    between atoms: C_1  and  C_30
REMARK    4  A    between atoms: C_13  and  C_46
REMARK    5  A    between atoms: C_14  and  C_15
REMARK    6  A    between atoms: C_21  and  O_22
REMARK    7  A    between atoms: O_22  and  C_23
REMARK    8  A    between atoms: C_23  and  C_24
REMARK    9  A    between atoms: C_30  and  C_43
REMARK   10  A    between atoms: C_30  and  C_47
REMARK   11  A    between atoms: C_31  and  C_44
REMARK   12  A    between atoms: C_37  and  C_40
REMARK   13  A    between atoms: C_37  and  C_42
REMARK   14  A    between atoms: C_41  and  C_44
REMARK                            x       y       z     vdW  Elec       q    Type
REMARK                         _______ _______ _______ _____ _____    ______ ____
ROOT
ATOM      1  C   UNL A   1     -25.362  -0.118  29.051  0.00  0.00    +0.054 C 
ENDROOT
BRANCH   1   7
ATOM      2  N   UNL A   1     -23.151   0.904  28.854  0.00  0.00    -0.265 NA
ATOM      3  C   UNL A   1     -22.427   1.516  27.822  0.00  0.00    +0.104 C 
ATOM      4  C   UNL A   1     -23.357   1.687  26.919  0.00  0.00    +0.074 C 
ATOM      5 CL   UNL A   1     -23.018   2.515  25.316  0.00  0.00    -0.081 Cl
ATOM      6  C   UNL A   1     -24.514   1.288  27.251  0.00  0.00    +0.015 C 
ATOM      7  C   UNL A   1     -24.417   0.736  28.451  0.00  0.00    +0.131 C 
BRANCH   6   8
ATOM      8  C   UNL A   1     -25.688   1.614  26.461  0.00  0.00    +0.037 C 
ATOM      9  C   UNL A   1     -26.250   2.920  26.395  0.00  0.00    +0.076 C 
ATOM     10  C   UNL A   1     -27.438   3.091  25.645  0.00  0.00    +0.107 C 
ATOM     11  N   UNL A   1     -28.075   2.089  25.003  0.00  0.00    -0.208 NA
ATOM     12  C   UNL A   1     -27.543   0.849  25.079  0.00  0.00    +0.253 C 
ATOM     13  C   UNL A   1     -26.354   0.576  25.777  0.00  0.00    +0.193 C 
ATOM     14  F   UNL A   1     -25.860  -0.681  25.795  0.00  0.00    -0.199 F 
BRANCH   9  15
ATOM     15  C   UNL A   1     -25.642   4.093  27.123  0.00  0.00    +0.266 C 
ATOM     16  N   UNL A   1     -25.614   5.252  26.449  0.00  0.00    -0.200 NA
ATOM     17  C   UNL A   1     -25.026   6.479  26.963  0.00  0.00    +0.139 C 
ATOM     18  O   UNL A   1     -25.143   3.966  28.243  0.00  0.00    -0.268 OA
ENDBRANCH   9  15
BRANCH  12  19
ATOM     19  O   UNL A   1     -28.193  -0.208  24.477  0.00  0.00    -0.456 OA
BRANCH  19  20
ATOM     20  C   UNL A   1     -29.460   0.005  23.866  0.00  0.00    +0.243 C 
BRANCH  20  21
ATOM     21  C   UNL A   1     -30.065  -1.377  23.573  0.00  0.00    +0.229 C 
ATOM     22  O   UNL A   1     -30.729  -1.878  24.721  0.00  0.00    -0.216 OA
ENDBRANCH  20  21
ENDBRANCH  19  20
ENDBRANCH  12  19
ENDBRANCH   6   8
ENDBRANCH   1   7
BRANCH   1  24
ATOM     23  C   UNL A   1     -27.965   0.459  29.401  0.00  0.00    -0.031 C 
ATOM     24  C   UNL A   1     -26.802  -0.165  28.827  0.00  0.00    -0.028 C 
BRANCH  23  25
ATOM     25  C   UNL A   1     -27.833   1.383  30.630  0.00  0.00    +0.027 C 
BRANCH  25  27
ATOM     26  N   UNL A   1     -27.543   4.682  29.202  0.00  0.00    -0.219 NA
ATOM     27  C   UNL A   1     -28.260   2.867  30.526  0.00  0.00    +0.022 C 
ATOM     28  C   UNL A   1     -28.683   4.084  28.442  0.00  0.00    +0.089 C 
ATOM     29  C   UNL A   1     -27.061   3.767  30.223  0.00  0.00    +0.077 C 
ATOM     30  C   UNL A   1     -29.196   2.953  29.292  0.00  0.00    +0.021 C 
BRANCH  29  31
ATOM     31  C   UNL A   1     -26.289   4.037  31.420  0.00  0.00    +0.047 C 
BRANCH  31  36
ATOM     32  N   UNL A   1     -24.618   7.201  31.951  0.00  0.00    -0.158 NA
ATOM     33  C   UNL A   1     -24.611   5.266  32.833  0.00  0.00    +0.106 C 
ATOM     34  N   UNL A   1     -24.023   6.444  32.874  0.00  0.00    -0.116 NA
ATOM     35  C   UNL A   1     -25.495   6.558  31.224  0.00  0.00    +0.117 C 
ATOM     36  C   UNL A   1     -25.502   5.278  31.799  0.00  0.00    +0.018 C 
ENDBRANCH  31  36
ENDBRANCH  29  31
ENDBRANCH  25  27
ENDBRANCH  23  25
ENDBRANCH   1  24
BRANCH   1  37
ATOM     37  C   UNL A   1     -24.855  -1.012  30.143  0.00  0.00    +0.044 C 
BRANCH  37  38
ATOM     38  C   UNL A   1     -24.973  -2.505  29.788  0.00  0.00    -0.021 C 
ATOM     39  C   UNL A   1     -23.906  -3.173  29.146  0.00  0.00    -0.004 C 
ATOM     40  C   UNL A   1     -23.989  -4.549  28.853  0.00  0.00    -0.000 C 
ATOM     41  C   UNL A   1     -25.137  -5.280  29.205  0.00  0.00    -0.000 C 
ATOM     42  C   UNL A   1     -26.232  -4.611  29.784  0.00  0.00    -0.000 C 
ATOM     43  C   UNL A   1     -26.155  -3.232  30.065  0.00  0.00    -0.004 C 
ENDBRANCH  37  38
BRANCH  37  44
ATOM     44  C   UNL A   1     -25.387  -0.679  31.571  0.00  0.00    +0.077 C 
ATOM     45  C   UNL A   1     -25.189   0.773  32.028  0.00  0.00    +0.019 C 
ATOM     46  C   UNL A   1     -25.336   0.684  33.544  0.00  0.00    +0.020 C 
ATOM     47  C   UNL A   1     -24.829  -0.715  33.905  0.00  0.00    +0.089 C 
ATOM     48  N   UNL A   1     -24.758  -1.481  32.646  0.00  0.00    -0.219 NA
ENDBRANCH  37  44
ENDBRANCH   1  37
TORSDOF 14
