REMARK  Name = No_965-gen_results/8p0m/2024-11-27-11-27-31/
REMARK  5 active torsions:
REMARK  status: ('A' for Active; 'I' for Inactive)
REMARK    1  A    between atoms: C_1  and  C_8
REMARK    2  A    between atoms: C_5  and  C_11
REMARK    3  A    between atoms: C_8  and  C_9
REMARK    4  A    between atoms: C_14  and  C_15
REMARK    5  A    between atoms: C_15  and  C_16
REMARK                            x       y       z     vdW  Elec       q    Type
REMARK                         _______ _______ _______ _____ _____    ______ ____
ROOT
ATOM      1  C   UNL A   1     -29.189  -0.078  29.433  0.00  0.00    +0.195 C 
ATOM      2  O   UNL A   1     -30.350  -0.683  28.703  0.00  0.00    -0.213 OA
ENDROOT
BRANCH   1   3
ATOM      3  C   UNL A   1     -28.016  -0.814  28.878  0.00  0.00    +0.002 C 
ATOM      4  C   UNL A   1     -27.064  -0.119  28.608  0.00  0.00    -0.046 C 
ATOM      5  C   UNL A   1     -26.972   0.714  27.506  0.00  0.00    +0.022 C 
ATOM      6  C   UNL A   1     -25.820   1.491  27.116  0.00  0.00    +0.016 C 
ATOM      7  C   UNL A   1     -24.858   1.342  27.601  0.00  0.00    +0.104 C 
ATOM      8  C   UNL A   1     -24.622   0.529  28.814  0.00  0.00    +0.016 C 
ATOM      9  C   UNL A   1     -25.734  -0.181  29.191  0.00  0.00    +0.022 C 
BRANCH   7  10
ATOM     10  C   UNL A   1     -23.544   2.182  27.305  0.00  0.00    +0.364 C 
ATOM     11  O   UNL A   1     -23.422   2.527  26.066  0.00  0.00    -0.246 OA
ATOM     12  O   UNL A   1     -22.537   2.287  28.087  0.00  0.00    -0.246 OA
ENDBRANCH   7  10
ENDBRANCH   1   3
BRANCH   1  13
ATOM     13  C   UNL A   1     -29.381  -0.040  30.656  0.00  0.00    +0.006 C 
ATOM     14  C   UNL A   1     -28.803  -0.817  31.631  0.00  0.00    -0.023 C 
BRANCH  14  15
ATOM     15  C   UNL A   1     -28.804  -0.504  32.988  0.00  0.00    +0.052 C 
BRANCH  15  16
ATOM     16  C   UNL A   1     -28.000  -1.054  33.847  0.00  0.00    -0.018 A 
ATOM     17  C   UNL A   1     -28.094  -0.673  35.251  0.00  0.00    -0.004 A 
ATOM     18  C   UNL A   1     -27.156  -1.018  36.179  0.00  0.00    -0.000 A 
ATOM     19  C   UNL A   1     -25.912  -1.621  35.727  0.00  0.00    -0.000 A 
ATOM     20  C   UNL A   1     -25.567  -1.455  34.416  0.00  0.00    -0.000 A 
ATOM     21  C   UNL A   1     -26.466  -0.784  33.637  0.00  0.00    -0.004 A 
ENDBRANCH  15  16
ENDBRANCH  14  15
ENDBRANCH   1  13
TORSDOF 5
