REMARK  Name = outputs/IAG933/test6/raw/output_9650_IAG933_linker_design_.xyz
REMARK  15 active torsions:
REMARK  status: ('A' for Active; 'I' for Inactive)
REMARK    1  A    between atoms: C_1  and  C_2
REMARK    2  A    between atoms: C_1  and  C_8
REMARK    3  A    between atoms: C_1  and  C_39
REMARK    4  A    between atoms: C_13  and  N_29
REMARK    5  A    between atoms: C_14  and  C_15
REMARK    6  A    between atoms: C_21  and  O_22
REMARK    7  A    between atoms: O_22  and  C_23
REMARK    8  A    between atoms: C_23  and  C_24
REMARK    9  A    between atoms: C_28  and  C_33
REMARK   10  A    between atoms: C_28  and  C_45
REMARK   11  A    between atoms: C_30  and  C_35
REMARK   12  A    between atoms: C_33  and  C_37
REMARK   13  A    between atoms: N_34  and  C_40
REMARK   14  A    between atoms: C_37  and  C_41
REMARK   15  A    between atoms: C_40  and  C_41
REMARK                            x       y       z     vdW  Elec       q    Type
REMARK                         _______ _______ _______ _____ _____    ______ ____
ROOT
ATOM      1  N   UNL A   1     -25.060   1.142  27.640  0.00  0.00    -0.189 NA
ATOM      2  C   UNL A   1     -23.919   0.266  27.901  0.00  0.00    +0.153 C 
ATOM      3  O   UNL A   1     -27.468   0.843  30.147  0.00  0.00    -0.274 OA
ATOM      4  C   UNL A   1     -24.639  -0.035  29.220  0.00  0.00    +0.121 C 
ATOM      5  N   UNL A   1     -25.951   0.554  28.580  0.00  0.00    -0.220 N 
ATOM      6  C   UNL A   1     -27.259   0.453  29.059  0.00  0.00    +0.239 C 
ENDROOT
BRANCH   1   7
ATOM      7  C   UNL A   1     -25.688   1.614  26.461  0.00  0.00    +0.146 C 
ATOM      8  C   UNL A   1     -26.250   2.920  26.395  0.00  0.00    +0.071 C 
ATOM      9  C   UNL A   1     -27.438   3.091  25.645  0.00  0.00    +0.103 C 
ATOM     10  N   UNL A   1     -28.075   2.089  25.003  0.00  0.00    -0.212 NA
ATOM     11  C   UNL A   1     -27.543   0.849  25.079  0.00  0.00    +0.236 C 
ATOM     12  C   UNL A   1     -26.354   0.576  25.777  0.00  0.00    +0.256 C 
ATOM     13  F   UNL A   1     -25.860  -0.681  25.795  0.00  0.00    -0.225 F 
BRANCH   8  14
ATOM     14  C   UNL A   1     -25.642   4.093  27.123  0.00  0.00    +0.264 C 
ATOM     15  N   UNL A   1     -25.614   5.252  26.449  0.00  0.00    -0.200 NA
ATOM     16  C   UNL A   1     -25.026   6.479  26.963  0.00  0.00    +0.139 C 
ATOM     17  O   UNL A   1     -25.143   3.966  28.243  0.00  0.00    -0.269 OA
ENDBRANCH   8  14
BRANCH  11  18
ATOM     18  O   UNL A   1     -28.193  -0.208  24.477  0.00  0.00    -0.459 OA
BRANCH  18  19
ATOM     19  C   UNL A   1     -29.460   0.005  23.866  0.00  0.00    +0.242 C 
BRANCH  19  20
ATOM     20  C   UNL A   1     -30.065  -1.377  23.573  0.00  0.00    +0.229 C 
ATOM     21  O   UNL A   1     -30.729  -1.878  24.721  0.00  0.00    -0.216 OA
ENDBRANCH  19  20
ENDBRANCH  18  19
ENDBRANCH  11  18
ENDBRANCH   1   7
BRANCH   2  22
ATOM     22  C   UNL A   1     -22.934   1.565  28.125  0.00  0.00    +0.169 C 
ATOM     23  O   UNL A   1     -23.059   2.223  29.121  0.00  0.00    -0.294 OA
ATOM     24  C   UNL A   1     -21.861   1.683  27.061  0.00  0.00    +0.074 C 
ENDBRANCH   2  22
BRANCH   4  25
ATOM     25  C   UNL A   1     -24.855  -1.012  30.143  0.00  0.00    +0.060 C 
BRANCH  25  26
ATOM     26  C   UNL A   1     -24.973  -2.505  29.788  0.00  0.00    -0.019 C 
ATOM     27  C   UNL A   1     -23.906  -3.173  29.146  0.00  0.00    -0.004 C 
ATOM     28  C   UNL A   1     -23.989  -4.549  28.853  0.00  0.00    -0.000 C 
ATOM     29  C   UNL A   1     -25.137  -5.280  29.205  0.00  0.00    -0.000 C 
ATOM     30  C   UNL A   1     -26.232  -4.611  29.784  0.00  0.00    -0.000 C 
ATOM     31  C   UNL A   1     -26.155  -3.232  30.065  0.00  0.00    -0.004 C 
ENDBRANCH  25  26
BRANCH  25  32
ATOM     32  C   UNL A   1     -25.387  -0.679  31.571  0.00  0.00    +0.079 C 
ATOM     33  C   UNL A   1     -25.189   0.773  32.028  0.00  0.00    +0.019 C 
ATOM     34  C   UNL A   1     -25.336   0.684  33.544  0.00  0.00    +0.020 C 
ATOM     35  C   UNL A   1     -24.829  -0.715  33.905  0.00  0.00    +0.089 C 
ATOM     36  N   UNL A   1     -24.758  -1.481  32.646  0.00  0.00    -0.219 NA
ENDBRANCH  25  32
ENDBRANCH   4  25
BRANCH   6  37
ATOM     37  C   UNL A   1     -28.359  -0.231  28.225  0.00  0.00    +0.087 C 
BRANCH  37  38
ATOM     38  C   UNL A   1     -29.610   0.713  28.158  0.00  0.00    +0.010 C 
BRANCH  38  39
ATOM     39  C   UNL A   1     -30.488   0.898  29.391  0.00  0.00    +0.002 C 
BRANCH  39  40
ATOM     40  C   UNL A   1     -30.625   2.344  29.904  0.00  0.00    +0.023 C 
BRANCH  40  41
ATOM     41  C   UNL A   1     -31.664   2.348  31.057  0.00  0.00    +0.115 C 
BRANCH  41  44
ATOM     42  O   UNL A   1     -34.299   2.169  31.304  0.00  0.00    -0.273 OA
ATOM     43  C   UNL A   1     -33.883   1.554  30.364  0.00  0.00    +0.242 C 
ATOM     44  N   UNL A   1     -32.712   1.489  30.349  0.00  0.00    -0.205 NA
ATOM     45  C   UNL A   1     -34.764   1.000  29.256  0.00  0.00    +0.096 C 
ENDBRANCH  41  44
ENDBRANCH  40  41
ENDBRANCH  39  40
ENDBRANCH  38  39
ENDBRANCH  37  38
ENDBRANCH   6  37
TORSDOF 15
