REMARK  Name = outputs/IAG933/test6/raw/output_9655_IAG933_linker_design_.xyz
REMARK  10 active torsions:
REMARK  status: ('A' for Active; 'I' for Inactive)
REMARK    1  A    between atoms: C_1  and  C_2
REMARK    2  A    between atoms: C_1  and  C_8
REMARK    3  A    between atoms: C_1  and  N_48
REMARK    4  A    between atoms: C_21  and  O_22
REMARK    5  A    between atoms: O_22  and  C_23
REMARK    6  A    between atoms: C_23  and  C_24
REMARK    7  A    between atoms: C_33  and  C_38
REMARK    8  A    between atoms: C_37  and  C_45
REMARK    9  A    between atoms: C_40  and  N_48
REMARK   10  A    between atoms: C_45  and  C_47
REMARK                            x       y       z     vdW  Elec       q    Type
REMARK                         _______ _______ _______ _____ _____    ______ ____
ROOT
ATOM      1  C   UNL A   1     -25.688   1.614  26.461  0.00  0.00    +0.029 C 
ATOM      2  C   UNL A   1     -26.250   2.920  26.395  0.00  0.00    +0.071 C 
ATOM      3  C   UNL A   1     -25.642   4.093  27.123  0.00  0.00    +0.223 C 
ATOM      4  N   UNL A   1     -25.614   5.252  26.449  0.00  0.00    -0.236 NA
ATOM      5  C   UNL A   1     -25.026   6.479  26.963  0.00  0.00    +0.155 C 
ATOM      6  O   UNL A   1     -25.143   3.966  28.243  0.00  0.00    -0.447 OA
ATOM      7  C   UNL A   1     -27.438   3.091  25.645  0.00  0.00    +0.106 C 
ATOM      8  N   UNL A   1     -28.075   2.089  25.003  0.00  0.00    -0.208 NA
ATOM      9  C   UNL A   1     -27.543   0.849  25.079  0.00  0.00    +0.253 C 
ATOM     10  C   UNL A   1     -26.354   0.576  25.777  0.00  0.00    +0.190 C 
ATOM     11  F   UNL A   1     -25.860  -0.681  25.795  0.00  0.00    -0.200 F 
ATOM     12  C   UNL A   1     -25.462   2.973  29.276  0.00  0.00    +0.247 C 
ATOM     13  C   UNL A   1     -22.943   1.664  26.721  0.00  0.00    +0.246 C 
ATOM     14  C   UNL A   1     -22.134   1.013  27.602  0.00  0.00    +0.321 C 
ATOM     15  N   UNL A   1     -24.440   1.876  29.187  0.00  0.00    -0.129 NA
ATOM     16  C   UNL A   1     -24.347   0.894  28.386  0.00  0.00    +0.275 C 
ATOM     17  F   UNL A   1     -20.848   1.298  27.651  0.00  0.00    -0.160 F 
ATOM     18  O   UNL A   1     -22.356   2.510  25.827  0.00  0.00    -0.285 OA
ATOM     19  C   UNL A   1     -24.374   1.398  26.977  0.00  0.00    +0.162 C 
ATOM     20  O   UNL A   1     -22.964   0.446  28.574  0.00  0.00    -0.428 OA
ENDROOT
BRANCH  12  26
ATOM     21  C   UNL A   1     -26.221   6.223  30.883  0.00  0.00    +0.008 C 
ATOM     22  C   UNL A   1     -24.808   5.239  32.771  0.00  0.00    +0.000 C 
ATOM     23  C   UNL A   1     -24.680   3.928  31.960  0.00  0.00    +0.006 C 
ATOM     24  C   UNL A   1     -25.193   6.411  31.954  0.00  0.00    +0.000 C 
ATOM     25  C   UNL A   1     -26.680   4.701  30.753  0.00  0.00    +0.068 C 
ATOM     26  C   UNL A   1     -25.406   3.821  30.642  0.00  0.00    +0.065 C 
BRANCH  25  28
ATOM     27  O   UNL A   1     -28.040   2.928  31.831  0.00  0.00    -0.290 OA
ATOM     28  C   UNL A   1     -27.748   4.150  31.751  0.00  0.00    +0.188 C 
BRANCH  28  31
ATOM     29  C   UNL A   1     -28.244   5.212  34.109  0.00  0.00    +0.057 C 
ATOM     30  N   UNL A   1     -29.421   5.836  32.163  0.00  0.00    -0.150 NA
ATOM     31  C   UNL A   1     -28.492   5.104  32.614  0.00  0.00    +0.115 C 
ENDBRANCH  28  31
ENDBRANCH  25  28
ENDBRANCH  12  26
BRANCH   9  32
ATOM     32  O   UNL A   1     -28.193  -0.208  24.477  0.00  0.00    -0.456 OA
BRANCH  32  33
ATOM     33  C   UNL A   1     -29.460   0.005  23.866  0.00  0.00    +0.243 C 
BRANCH  33  34
ATOM     34  C   UNL A   1     -30.065  -1.377  23.573  0.00  0.00    +0.229 C 
ATOM     35  O   UNL A   1     -30.729  -1.878  24.721  0.00  0.00    -0.216 OA
ENDBRANCH  33  34
ENDBRANCH  32  33
ENDBRANCH   9  32
BRANCH  16  36
ATOM     36  N   UNL A   1     -25.369  -0.181  29.040  0.00  0.00    -0.164 NA
BRANCH  36  37
ATOM     37  C   UNL A   1     -24.855  -1.012  30.143  0.00  0.00    +0.116 C 
BRANCH  37  38
ATOM     38  C   UNL A   1     -24.973  -2.505  29.788  0.00  0.00    -0.005 C 
ATOM     39  C   UNL A   1     -23.906  -3.173  29.146  0.00  0.00    -0.003 C 
ATOM     40  C   UNL A   1     -23.989  -4.549  28.853  0.00  0.00    -0.000 C 
ATOM     41  C   UNL A   1     -25.137  -5.280  29.205  0.00  0.00    -0.000 C 
ATOM     42  C   UNL A   1     -26.232  -4.611  29.784  0.00  0.00    -0.000 C 
ATOM     43  C   UNL A   1     -26.155  -3.232  30.065  0.00  0.00    -0.003 C 
ENDBRANCH  37  38
BRANCH  37  44
ATOM     44  C   UNL A   1     -25.387  -0.679  31.571  0.00  0.00    +0.093 C 
ATOM     45  C   UNL A   1     -25.189   0.773  32.028  0.00  0.00    +0.021 C 
ATOM     46  C   UNL A   1     -25.336   0.684  33.544  0.00  0.00    +0.020 C 
ATOM     47  C   UNL A   1     -24.829  -0.715  33.905  0.00  0.00    +0.089 C 
ATOM     48  N   UNL A   1     -24.758  -1.481  32.646  0.00  0.00    -0.218 NA
ENDBRANCH  37  44
ENDBRANCH  36  37
ENDBRANCH  16  36
TORSDOF 10
