REMARK  Name = outputs/IAG933/test6/raw/output_9656_IAG933_linker_design_.xyz
REMARK  9 active torsions:
REMARK  status: ('A' for Active; 'I' for Inactive)
REMARK    1  A    between atoms: C_1  and  C_2
REMARK    2  A    between atoms: C_13  and  C_33
REMARK    3  A    between atoms: C_14  and  C_15
REMARK    4  A    between atoms: C_21  and  O_22
REMARK    5  A    between atoms: O_22  and  C_23
REMARK    6  A    between atoms: C_23  and  C_24
REMARK    7  A    between atoms: O_30  and  C_38
REMARK    8  A    between atoms: C_31  and  O_35
REMARK    9  A    between atoms: C_36  and  C_38
REMARK                            x       y       z     vdW  Elec       q    Type
REMARK                         _______ _______ _______ _____ _____    ______ ____
ROOT
ATOM      1  C   UNL A   1     -24.855  -1.012  30.143  0.00  0.00    +0.066 C 
ATOM      2  C   UNL A   1     -25.387  -0.679  31.571  0.00  0.00    +0.079 C 
ATOM      3  C   UNL A   1     -25.189   0.773  32.028  0.00  0.00    +0.020 C 
ATOM      4  C   UNL A   1     -25.336   0.684  33.544  0.00  0.00    +0.020 C 
ATOM      5  C   UNL A   1     -24.829  -0.715  33.905  0.00  0.00    +0.089 C 
ATOM      6  N   UNL A   1     -24.758  -1.481  32.646  0.00  0.00    -0.219 NA
ATOM      7  C   UNL A   1     -23.492   1.365  27.545  0.00  0.00    +0.123 C 
ATOM      8  C   UNL A   1     -25.134  -0.103  28.835  0.00  0.00    +0.121 C 
ATOM      9  C   UNL A   1     -22.718   1.181  28.701  0.00  0.00    +0.127 C 
ATOM     10  C   UNL A   1     -24.818   1.116  27.559  0.00  0.00    +0.047 C 
ATOM     11  O   UNL A   1     -21.501   1.789  26.868  0.00  0.00    -0.348 OA
ATOM     12  C   UNL A   1     -24.357   1.442  31.007  0.00  0.00    +0.033 C 
ATOM     13  C   UNL A   1     -22.770   1.927  26.397  0.00  0.00    +0.338 C 
ATOM     14  O   UNL A   1     -23.124   2.543  25.364  0.00  0.00    -0.248 OA
ATOM     15  N   UNL A   1     -21.453   1.317  28.288  0.00  0.00    -0.025 NA
ATOM     16  C   UNL A   1     -23.278   1.062  30.027  0.00  0.00    +0.024 C 
ENDROOT
BRANCH  10  17
ATOM     17  C   UNL A   1     -25.688   1.614  26.461  0.00  0.00    +0.073 C 
ATOM     18  C   UNL A   1     -26.250   2.920  26.395  0.00  0.00    +0.055 C 
ATOM     19  C   UNL A   1     -27.438   3.091  25.645  0.00  0.00    +0.102 C 
ATOM     20  N   UNL A   1     -28.075   2.089  25.003  0.00  0.00    -0.212 NA
ATOM     21  C   UNL A   1     -27.543   0.849  25.079  0.00  0.00    +0.234 C 
ATOM     22  C   UNL A   1     -26.354   0.576  25.777  0.00  0.00    +0.240 C 
ATOM     23  F   UNL A   1     -25.860  -0.681  25.795  0.00  0.00    -0.227 F 
BRANCH  18  24
ATOM     24  C   UNL A   1     -25.642   4.093  27.123  0.00  0.00    +0.262 C 
ATOM     25  N   UNL A   1     -25.614   5.252  26.449  0.00  0.00    -0.200 NA
ATOM     26  C   UNL A   1     -25.026   6.479  26.963  0.00  0.00    +0.139 C 
ATOM     27  O   UNL A   1     -25.143   3.966  28.243  0.00  0.00    -0.269 OA
ENDBRANCH  18  24
BRANCH  21  28
ATOM     28  O   UNL A   1     -28.193  -0.208  24.477  0.00  0.00    -0.459 OA
BRANCH  28  29
ATOM     29  C   UNL A   1     -29.460   0.005  23.866  0.00  0.00    +0.242 C 
BRANCH  29  30
ATOM     30  C   UNL A   1     -30.065  -1.377  23.573  0.00  0.00    +0.229 C 
ATOM     31  O   UNL A   1     -30.729  -1.878  24.721  0.00  0.00    -0.216 OA
ENDBRANCH  29  30
ENDBRANCH  28  29
ENDBRANCH  21  28
ENDBRANCH  10  17
BRANCH   1  32
ATOM     32  C   UNL A   1     -24.973  -2.505  29.788  0.00  0.00    -0.019 C 
ATOM     33  C   UNL A   1     -23.906  -3.173  29.146  0.00  0.00    -0.004 C 
ATOM     34  C   UNL A   1     -23.989  -4.549  28.853  0.00  0.00    -0.000 C 
ATOM     35  C   UNL A   1     -25.137  -5.280  29.205  0.00  0.00    -0.000 C 
ATOM     36  C   UNL A   1     -26.232  -4.611  29.784  0.00  0.00    -0.000 C 
ATOM     37  C   UNL A   1     -26.155  -3.232  30.065  0.00  0.00    -0.004 C 
ENDBRANCH   1  32
BRANCH   8  39
ATOM     38  C   UNL A   1     -27.281  -0.483  28.737  0.00  0.00    +0.174 C 
ATOM     39  O   UNL A   1     -26.169  -1.037  27.943  0.00  0.00    -0.353 OA
ENDBRANCH   8  39
BRANCH  12  40
ATOM     40  C   UNL A   1     -24.956   2.796  31.152  0.00  0.00    +0.142 C 
BRANCH  40  41
ATOM     41  O   UNL A   1     -24.300   3.262  32.316  0.00  0.00    -0.351 OA
ATOM     42  C   UNL A   1     -24.490   4.683  32.286  0.00  0.00    +0.174 C 
ENDBRANCH  40  41
ENDBRANCH  12  40
TORSDOF 9
