REMARK  Name = outputs/IAG933/test6/raw/output_9657_IAG933_linker_design_.xyz
REMARK  15 active torsions:
REMARK  status: ('A' for Active; 'I' for Inactive)
REMARK    1  A    between atoms: C_1  and  C_2
REMARK    2  A    between atoms: C_1  and  C_8
REMARK    3  A    between atoms: C_1  and  C_44
REMARK    4  A    between atoms: C_13  and  C_38
REMARK    5  A    between atoms: C_14  and  C_15
REMARK    6  A    between atoms: C_21  and  O_22
REMARK    7  A    between atoms: O_22  and  C_23
REMARK    8  A    between atoms: C_23  and  C_24
REMARK    9  A    between atoms: C_28  and  N_37
REMARK   10  A    between atoms: C_28  and  C_39
REMARK   11  A    between atoms: C_32  and  C_36
REMARK   12  A    between atoms: C_32  and  C_39
REMARK   13  A    between atoms: N_34  and  C_38
REMARK   14  A    between atoms: N_34  and  C_44
REMARK   15  A    between atoms: C_36  and  C_44
REMARK                            x       y       z     vdW  Elec       q    Type
REMARK                         _______ _______ _______ _____ _____    ______ ____
ROOT
ATOM      1  C   UNL A   1     -25.836  -0.382  29.143  0.00  0.00    +0.086 C 
ENDROOT
BRANCH   1   2
ATOM      2  C   UNL A   1     -24.855  -1.012  30.143  0.00  0.00    +0.055 C 
BRANCH   2   3
ATOM      3  C   UNL A   1     -24.973  -2.505  29.788  0.00  0.00    -0.020 C 
ATOM      4  C   UNL A   1     -23.906  -3.173  29.146  0.00  0.00    -0.004 C 
ATOM      5  C   UNL A   1     -23.989  -4.549  28.853  0.00  0.00    -0.000 C 
ATOM      6  C   UNL A   1     -25.137  -5.280  29.205  0.00  0.00    -0.000 C 
ATOM      7  C   UNL A   1     -26.232  -4.611  29.784  0.00  0.00    -0.000 C 
ATOM      8  C   UNL A   1     -26.155  -3.232  30.065  0.00  0.00    -0.004 C 
ENDBRANCH   2   3
BRANCH   2   9
ATOM      9  C   UNL A   1     -25.387  -0.679  31.571  0.00  0.00    +0.078 C 
ATOM     10  C   UNL A   1     -25.189   0.773  32.028  0.00  0.00    +0.019 C 
ATOM     11  C   UNL A   1     -25.336   0.684  33.544  0.00  0.00    +0.020 C 
ATOM     12  C   UNL A   1     -24.829  -0.715  33.905  0.00  0.00    +0.089 C 
ATOM     13  N   UNL A   1     -24.758  -1.481  32.646  0.00  0.00    -0.219 NA
ENDBRANCH   2   9
ENDBRANCH   1   2
BRANCH   1  14
ATOM     14  N   UNL A   1     -25.544   0.883  28.591  0.00  0.00    -0.217 NA
BRANCH  14  17
ATOM     15  C   UNL A   1     -23.237   0.620  28.016  0.00  0.00    +0.020 C 
ATOM     16  C   UNL A   1     -21.330   1.752  26.835  0.00  0.00    +0.002 C 
ATOM     17  C   UNL A   1     -24.529   1.223  27.416  0.00  0.00    +0.081 C 
ATOM     18  C   UNL A   1     -22.585   0.330  29.385  0.00  0.00    +0.002 C 
ATOM     19  C   UNL A   1     -23.003   1.833  27.040  0.00  0.00    +0.020 C 
BRANCH  17  20
ATOM     20  C   UNL A   1     -25.688   1.614  26.461  0.00  0.00    +0.030 C 
ATOM     21  C   UNL A   1     -26.250   2.920  26.395  0.00  0.00    +0.074 C 
ATOM     22  C   UNL A   1     -27.438   3.091  25.645  0.00  0.00    +0.106 C 
ATOM     23  N   UNL A   1     -28.075   2.089  25.003  0.00  0.00    -0.208 NA
ATOM     24  C   UNL A   1     -27.543   0.849  25.079  0.00  0.00    +0.253 C 
ATOM     25  C   UNL A   1     -26.354   0.576  25.777  0.00  0.00    +0.190 C 
ATOM     26  F   UNL A   1     -25.860  -0.681  25.795  0.00  0.00    -0.200 F 
BRANCH  21  27
ATOM     27  C   UNL A   1     -25.642   4.093  27.123  0.00  0.00    +0.266 C 
ATOM     28  N   UNL A   1     -25.614   5.252  26.449  0.00  0.00    -0.200 NA
ATOM     29  C   UNL A   1     -25.026   6.479  26.963  0.00  0.00    +0.139 C 
ATOM     30  O   UNL A   1     -25.143   3.966  28.243  0.00  0.00    -0.268 OA
ENDBRANCH  21  27
BRANCH  24  31
ATOM     31  O   UNL A   1     -28.193  -0.208  24.477  0.00  0.00    -0.456 OA
BRANCH  31  32
ATOM     32  C   UNL A   1     -29.460   0.005  23.866  0.00  0.00    +0.243 C 
BRANCH  32  33
ATOM     33  C   UNL A   1     -30.065  -1.377  23.573  0.00  0.00    +0.229 C 
ATOM     34  O   UNL A   1     -30.729  -1.878  24.721  0.00  0.00    -0.216 OA
ENDBRANCH  32  33
ENDBRANCH  31  32
ENDBRANCH  24  31
ENDBRANCH  17  20
ENDBRANCH  14  17
ENDBRANCH   1  14
BRANCH   1  35
ATOM     35  C   UNL A   1     -27.161  -0.795  28.646  0.00  0.00    +0.085 C 
BRANCH  35  36
ATOM     36  C   UNL A   1     -28.216  -0.004  28.989  0.00  0.00    +0.184 C 
ATOM     37  O   UNL A   1     -27.932   1.189  29.303  0.00  0.00    -0.293 OA
BRANCH  36  39
ATOM     38  O   UNL A   1     -30.145  -1.016  27.736  0.00  0.00    -0.213 OA
ATOM     39  C   UNL A   1     -29.705  -0.481  29.018  0.00  0.00    +0.231 C 
BRANCH  39  40
ATOM     40  C   UNL A   1     -30.039  -1.313  30.341  0.00  0.00    +0.142 C 
ATOM     41  C   UNL A   1     -30.821  -2.633  30.340  0.00  0.00    +0.029 C 
BRANCH  40  43
ATOM     42  N   UNL A   1     -31.700  -0.946  32.608  0.00  0.00    -0.104 NA
ATOM     43  N   UNL A   1     -29.471  -1.012  31.449  0.00  0.00    -0.250 NA
ATOM     44  C   UNL A   1     -30.264  -0.900  32.591  0.00  0.00    +0.200 C 
ENDBRANCH  40  43
ENDBRANCH  39  40
ENDBRANCH  36  39
ENDBRANCH  35  36
ENDBRANCH   1  35
TORSDOF 15
