MODEL 965
MODEL 1
REMARK VINA RESULT:    -6.689      0.000      0.000
REMARK INTER + INTRA:          -9.574
REMARK INTER:                  -8.644
REMARK INTRA:                  -0.931
REMARK UNBOUND:                -0.931
REMARK  Name = No_965-gen_results/8p0m/2024-11-27-11-27-31/
REMARK  5 active torsions:
REMARK  status: ('A' for Active; 'I' for Inactive)
REMARK    1  A    between atoms: C_1  and  C_8
REMARK    2  A    between atoms: C_5  and  C_11
REMARK    3  A    between atoms: C_8  and  C_9
REMARK    4  A    between atoms: C_14  and  C_15
REMARK    5  A    between atoms: C_15  and  C_16
REMARK                            x       y       z     vdW  Elec       q    Type
REMARK                         _______ _______ _______ _____ _____    ______ ____
ROOT
ATOM      1  C   UNL A   1     -21.761   0.459  28.062  0.00  0.00    +0.195 C 
ATOM      2  O   UNL A   1     -20.305   0.630  28.376  0.00  0.00    -0.213 OA
ENDROOT
BRANCH   1   3
ATOM      3  C   UNL A   1     -22.127   1.759  27.427  0.00  0.00    +0.002 C 
ATOM      4  C   UNL A   1     -23.275   1.834  27.055  0.00  0.00    -0.046 C 
ATOM      5  C   UNL A   1     -23.789   1.220  25.926  0.00  0.00    +0.022 C 
ATOM      6  C   UNL A   1     -25.132   1.358  25.415  0.00  0.00    +0.016 C 
ATOM      7  C   UNL A   1     -25.806   2.110  25.817  0.00  0.00    +0.104 C 
ATOM      8  C   UNL A   1     -25.563   2.926  27.027  0.00  0.00    +0.016 C 
ATOM      9  C   UNL A   1     -24.293   2.762  27.520  0.00  0.00    +0.022 C 
BRANCH   7  10
ATOM     10  C   UNL A   1     -27.320   2.308  25.383  0.00  0.00    +0.364 C 
ATOM     11  O   UNL A   1     -27.975   1.200  25.280  0.00  0.00    -0.246 OA
ATOM     12  O   UNL A   1     -27.818   3.379  24.891  0.00  0.00    -0.246 OA
ENDBRANCH   7  10
ENDBRANCH   1   3
BRANCH   1  13
ATOM     13  C   UNL A   1     -22.398   0.039  29.037  0.00  0.00    +0.006 C 
ATOM     14  C   UNL A   1     -23.375  -0.927  29.061  0.00  0.00    -0.023 C 
BRANCH  14  15
ATOM     15  C   UNL A   1     -23.803  -1.582  30.213  0.00  0.00    +0.052 C 
BRANCH  15  16
ATOM     16  C   UNL A   1     -24.471  -2.696  30.193  0.00  0.00    -0.018 A 
ATOM     17  C   UNL A   1     -24.137  -3.705  29.195  0.00  0.00    -0.004 A 
ATOM     18  C   UNL A   1     -24.919  -4.795  28.949  0.00  0.00    -0.000 A 
ATOM     19  C   UNL A   1     -26.238  -4.863  29.559  0.00  0.00    -0.000 A 
ATOM     20  C   UNL A   1     -26.788  -3.697  30.009  0.00  0.00    -0.000 A 
ATOM     21  C   UNL A   1     -26.010  -2.580  29.896  0.00  0.00    -0.004 A 
ENDBRANCH  15  16
ENDBRANCH  14  15
ENDBRANCH   1  13
TORSDOF 5
ENDMDL
ENDMDL
