REMARK  Name = No_966-gen_results/8p0m/2024-11-27-11-27-31/
REMARK  3 active torsions:
REMARK  status: ('A' for Active; 'I' for Inactive)
REMARK    1  A    between atoms: C_5  and  C_22
REMARK    2  A    between atoms: N_8  and  C_13
REMARK    3  A    between atoms: C_11  and  C_19
REMARK                            x       y       z     vdW  Elec       q    Type
REMARK                         _______ _______ _______ _____ _____    ______ ____
ROOT
ATOM      1  C   UNL A   1     -28.016  -0.814  28.878  0.00  0.00    +0.122 C 
ATOM      2  C   UNL A   1     -27.064  -0.119  28.608  0.00  0.00    -0.002 A 
ATOM      3  C   UNL A   1     -27.001   0.691  27.491  0.00  0.00    -0.002 A 
ATOM      4  C   UNL A   1     -25.855   1.482  27.083  0.00  0.00    +0.004 A 
ATOM      5  C   UNL A   1     -24.690   1.453  27.881  0.00  0.00    +0.071 A 
ATOM      6  C   UNL A   1     -24.738   0.601  29.042  0.00  0.00    +0.004 A 
ATOM      7  C   UNL A   1     -25.823  -0.169  29.389  0.00  0.00    -0.003 A 
ATOM      8  N   UNL A   1     -28.757  -0.548  30.019  0.00  0.00    -0.281 N 
ATOM      9  C   UNL A   1     -28.932   0.389  30.503  0.00  0.00    +0.066 C 
ATOM     10  C   UNL A   1     -29.049   1.538  29.945  0.00  0.00    +0.023 C 
ATOM     11  C   UNL A   1     -29.367   1.683  28.643  0.00  0.00    +0.081 C 
ATOM     12  C   UNL A   1     -28.500   1.745  27.581  0.00  0.00    +0.006 C 
ENDROOT
BRANCH   8  13
ATOM     13  C   UNL A   1     -29.171  -2.009  30.629  0.00  0.00    +0.052 A 
ATOM     14  C   UNL A   1     -28.649  -3.026  30.164  0.00  0.00    +0.015 A 
ATOM     15  C   UNL A   1     -29.200  -4.355  30.536  0.00  0.00    +0.001 A 
ATOM     16  C   UNL A   1     -30.237  -4.447  31.402  0.00  0.00    +0.000 A 
ATOM     17  C   UNL A   1     -30.782  -3.262  31.895  0.00  0.00    +0.001 A 
ATOM     18  C   UNL A   1     -30.348  -1.994  31.475  0.00  0.00    +0.015 A 
ENDBRANCH   8  13
BRANCH   5  19
ATOM     19  C   UNL A   1     -23.469   2.087  27.465  0.00  0.00    +0.419 C 
ATOM     20  F   UNL A   1     -23.671   3.124  26.775  0.00  0.00    -0.166 F 
ATOM     21  F   UNL A   1     -22.786   2.625  28.565  0.00  0.00    -0.166 F 
ATOM     22  F   UNL A   1     -22.626   1.230  26.907  0.00  0.00    -0.166 F 
ENDBRANCH   5  19
BRANCH  11  23
ATOM     23  C   UNL A   1     -30.694   1.750  28.127  0.00  0.00    +0.388 C 
ATOM     24  O   UNL A   1     -31.108   1.810  27.115  0.00  0.00    -0.241 OA
ATOM     25  O   UNL A   1     -31.633   2.008  29.128  0.00  0.00    -0.241 OA
ENDBRANCH  11  23
TORSDOF 3
