REMARK  Name = No_967-gen_results/8p0m/2024-11-27-11-27-31/
REMARK  2 active torsions:
REMARK  status: ('A' for Active; 'I' for Inactive)
REMARK    1  A    between atoms: C_10  and  N_12
REMARK    2  A    between atoms: N_12  and  C_13
REMARK                            x       y       z     vdW  Elec       q    Type
REMARK                         _______ _______ _______ _____ _____    ______ ____
ROOT
ATOM      1  C   UNL A   1     -28.016  -0.814  28.878  0.00  0.00    +0.051 A 
ATOM      2  C   UNL A   1     -28.469  -0.785  29.829  0.00  0.00    +0.266 C 
ATOM      3  C   UNL A   1     -28.182   0.428  28.113  0.00  0.00    -0.014 A 
ATOM      4  C   UNL A   1     -27.450   0.643  26.850  0.00  0.00    -0.004 A 
ATOM      5  C   UNL A   1     -26.181   0.036  26.715  0.00  0.00    -0.000 A 
ATOM      6  C   UNL A   1     -25.780  -0.933  27.694  0.00  0.00    +0.000 A 
ATOM      7  C   UNL A   1     -26.557  -1.213  28.741  0.00  0.00    +0.004 A 
ATOM      8  N   UNL A   1     -29.610  -0.278  30.194  0.00  0.00    -0.182 NA
ATOM      9  O   UNL A   1     -28.244  -1.903  30.750  0.00  0.00    -0.268 OA
ATOM     10  C   UNL A   1     -30.096   0.855  29.585  0.00  0.00    +0.180 C 
ATOM     11  C   UNL A   1     -29.449   1.133  28.343  0.00  0.00    +0.069 C 
ENDROOT
BRANCH  10  12
ATOM     12  N   UNL A   1     -31.231   1.462  29.896  0.00  0.00    -0.242 N 
ATOM     13  C   UNL A   1     -31.690   1.183  31.324  0.00  0.00    +0.231 C 
ATOM     14  O   UNL A   1     -31.400   0.260  31.931  0.00  0.00    -0.275 OA
ATOM     15  C   UNL A   1     -32.706   2.201  31.799  0.00  0.00    +0.095 C 
BRANCH  12  16
ATOM     16  C   UNL A   1     -31.995   2.076  29.208  0.00  0.00    +0.055 A 
ATOM     17  C   UNL A   1     -32.348   3.275  29.616  0.00  0.00    +0.015 A 
ATOM     18  C   UNL A   1     -32.980   4.291  28.840  0.00  0.00    +0.001 A 
ATOM     19  C   UNL A   1     -33.417   3.867  27.558  0.00  0.00    +0.000 A 
ATOM     20  C   UNL A   1     -33.037   2.631  27.062  0.00  0.00    +0.001 A 
ATOM     21  C   UNL A   1     -32.257   1.787  27.846  0.00  0.00    +0.015 A 
ENDBRANCH  12  16
ENDBRANCH  10  12
TORSDOF 2
