REMARK  Name = outputs/IAG933/test6/raw/output_9672_IAG933_linker_design_.xyz
REMARK  16 active torsions:
REMARK  status: ('A' for Active; 'I' for Inactive)
REMARK    1  A    between atoms: C_1  and  C_2
REMARK    2  A    between atoms: C_1  and  C_8
REMARK    3  A    between atoms: C_1  and  C_31
REMARK    4  A    between atoms: C_13  and  C_42
REMARK    5  A    between atoms: C_14  and  C_15
REMARK    6  A    between atoms: C_21  and  O_22
REMARK    7  A    between atoms: O_22  and  C_23
REMARK    8  A    between atoms: C_23  and  C_24
REMARK    9  A    between atoms: C_30  and  C_43
REMARK   10  A    between atoms: C_31  and  C_34
REMARK   11  A    between atoms: C_31  and  N_36
REMARK   12  A    between atoms: C_33  and  C_44
REMARK   13  A    between atoms: C_34  and  N_37
REMARK   14  A    between atoms: N_36  and  C_44
REMARK   15  A    between atoms: C_38  and  C_43
REMARK   16  A    between atoms: C_42  and  C_44
REMARK                            x       y       z     vdW  Elec       q    Type
REMARK                         _______ _______ _______ _____ _____    ______ ____
ROOT
ATOM      1  C   UNL A   1     -25.583  -0.077  29.218  0.00  0.00    +0.098 C 
ENDROOT
BRANCH   1   2
ATOM      2  C   UNL A   1     -24.855  -1.012  30.143  0.00  0.00    +0.056 C 
BRANCH   2   3
ATOM      3  C   UNL A   1     -24.973  -2.505  29.788  0.00  0.00    -0.020 C 
ATOM      4  C   UNL A   1     -23.906  -3.173  29.146  0.00  0.00    -0.004 C 
ATOM      5  C   UNL A   1     -23.989  -4.549  28.853  0.00  0.00    -0.000 C 
ATOM      6  C   UNL A   1     -25.137  -5.280  29.205  0.00  0.00    -0.000 C 
ATOM      7  C   UNL A   1     -26.232  -4.611  29.784  0.00  0.00    -0.000 C 
ATOM      8  C   UNL A   1     -26.155  -3.232  30.065  0.00  0.00    -0.004 C 
ENDBRANCH   2   3
BRANCH   2   9
ATOM      9  C   UNL A   1     -25.387  -0.679  31.571  0.00  0.00    +0.078 C 
ATOM     10  C   UNL A   1     -25.189   0.773  32.028  0.00  0.00    +0.019 C 
ATOM     11  C   UNL A   1     -25.336   0.684  33.544  0.00  0.00    +0.020 C 
ATOM     12  C   UNL A   1     -24.829  -0.715  33.905  0.00  0.00    +0.089 C 
ATOM     13  N   UNL A   1     -24.758  -1.481  32.646  0.00  0.00    -0.219 NA
ENDBRANCH   2   9
ENDBRANCH   1   2
BRANCH   1  14
ATOM     14  C   UNL A   1     -27.095  -0.264  29.208  0.00  0.00    +0.111 C 
BRANCH  14  17
ATOM     15  C   UNL A   1     -29.560  -0.217  29.448  0.00  0.00    +0.225 C 
ATOM     16  O   UNL A   1     -30.166  -0.322  30.479  0.00  0.00    -0.275 OA
ATOM     17  N   UNL A   1     -28.373   0.347  29.261  0.00  0.00    -0.278 N 
ATOM     18  C   UNL A   1     -30.137  -0.337  28.007  0.00  0.00    +0.078 C 
ATOM     19  C   UNL A   1     -29.999   1.191  27.769  0.00  0.00    +0.031 C 
ATOM     20  C   UNL A   1     -28.701   1.565  28.505  0.00  0.00    +0.094 C 
BRANCH  18  21
ATOM     21  C   UNL A   1     -31.285  -1.329  27.744  0.00  0.00    +0.009 C 
BRANCH  21  22
ATOM     22  C   UNL A   1     -31.625  -2.352  28.823  0.00  0.00    +0.001 C 
ATOM     23  C   UNL A   1     -30.876  -3.512  29.402  0.00  0.00    +0.000 C 
ATOM     24  C   UNL A   1     -31.995  -3.608  28.147  0.00  0.00    +0.000 C 
ENDBRANCH  21  22
ENDBRANCH  18  21
ENDBRANCH  14  17
ENDBRANCH   1  14
BRANCH   1  25
ATOM     25  N   UNL A   1     -24.823   0.797  28.688  0.00  0.00    -0.219 NA
BRANCH  25  26
ATOM     26  C   UNL A   1     -23.727   0.597  27.741  0.00  0.00    +0.073 C 
BRANCH  26  28
ATOM     27  C   UNL A   1     -21.284   1.329  27.543  0.00  0.00    +0.002 C 
ATOM     28  C   UNL A   1     -22.411   0.980  28.517  0.00  0.00    +0.017 C 
ENDBRANCH  26  28
BRANCH  26  29
ATOM     29  C   UNL A   1     -24.135   1.510  26.555  0.00  0.00    +0.025 C 
BRANCH  29  30
ATOM     30  C   UNL A   1     -25.688   1.614  26.461  0.00  0.00    +0.071 C 
ATOM     31  C   UNL A   1     -26.250   2.920  26.395  0.00  0.00    +0.055 C 
ATOM     32  C   UNL A   1     -27.438   3.091  25.645  0.00  0.00    +0.102 C 
ATOM     33  N   UNL A   1     -28.075   2.089  25.003  0.00  0.00    -0.212 NA
ATOM     34  C   UNL A   1     -27.543   0.849  25.079  0.00  0.00    +0.234 C 
ATOM     35  C   UNL A   1     -26.354   0.576  25.777  0.00  0.00    +0.240 C 
ATOM     36  F   UNL A   1     -25.860  -0.681  25.795  0.00  0.00    -0.227 F 
BRANCH  31  37
ATOM     37  C   UNL A   1     -25.642   4.093  27.123  0.00  0.00    +0.262 C 
ATOM     38  N   UNL A   1     -25.614   5.252  26.449  0.00  0.00    -0.200 NA
ATOM     39  C   UNL A   1     -25.026   6.479  26.963  0.00  0.00    +0.139 C 
ATOM     40  O   UNL A   1     -25.143   3.966  28.243  0.00  0.00    -0.269 OA
ENDBRANCH  31  37
BRANCH  34  41
ATOM     41  O   UNL A   1     -28.193  -0.208  24.477  0.00  0.00    -0.459 OA
BRANCH  41  42
ATOM     42  C   UNL A   1     -29.460   0.005  23.866  0.00  0.00    +0.242 C 
BRANCH  42  43
ATOM     43  C   UNL A   1     -30.065  -1.377  23.573  0.00  0.00    +0.229 C 
ATOM     44  O   UNL A   1     -30.729  -1.878  24.721  0.00  0.00    -0.216 OA
ENDBRANCH  42  43
ENDBRANCH  41  42
ENDBRANCH  34  41
ENDBRANCH  29  30
ENDBRANCH  26  29
ENDBRANCH  25  26
ENDBRANCH   1  25
TORSDOF 16
