REMARK  Name = outputs/IAG933/test6/raw/output_9675_IAG933_linker_design_.xyz
REMARK  11 active torsions:
REMARK  status: ('A' for Active; 'I' for Inactive)
REMARK    1  A    between atoms: C_1  and  C_2
REMARK    2  A    between atoms: C_1  and  C_8
REMARK    3  A    between atoms: C_1  and  N_32
REMARK    4  A    between atoms: C_13  and  N_35
REMARK    5  A    between atoms: C_14  and  C_15
REMARK    6  A    between atoms: C_21  and  O_22
REMARK    7  A    between atoms: O_22  and  C_23
REMARK    8  A    between atoms: C_23  and  C_24
REMARK    9  A    between atoms: C_28  and  C_30
REMARK   10  A    between atoms: C_30  and  N_32
REMARK   11  A    between atoms: C_30  and  N_35
REMARK                            x       y       z     vdW  Elec       q    Type
REMARK                         _______ _______ _______ _____ _____    ______ ____
ROOT
ATOM      1  C   UNL A   1     -24.816   0.952  28.604  0.00  0.00    +0.248 C 
ATOM      2  N   UNL A   1     -25.375   2.123  29.468  0.00  0.00    -0.091 NA
ENDROOT
BRANCH   1   3
ATOM      3  C   UNL A   1     -23.453   0.980  28.303  0.00  0.00    +0.145 C 
ATOM      4  C   UNL A   1     -21.308   0.138  29.101  0.00  0.00    +0.099 C 
ATOM      5  C   UNL A   1     -20.596   0.721  28.069  0.00  0.00    +0.024 C 
ATOM      6  O   UNL A   1     -23.188   2.392  26.128  0.00  0.00    -0.285 OA
ATOM      7  N   UNL A   1     -22.667   0.252  29.242  0.00  0.00    -0.241 NA
ATOM      8  C   UNL A   1     -22.644   1.593  27.226  0.00  0.00    +0.213 C 
ATOM      9  C   UNL A   1     -21.282   1.482  27.139  0.00  0.00    +0.045 C 
ENDBRANCH   1   3
BRANCH   1  10
ATOM     10  N   UNL A   1     -25.369  -0.113  29.141  0.00  0.00    -0.095 NA
ATOM     11  O   UNL A   1     -26.168  -0.753  28.411  0.00  0.00    -0.115 OA
BRANCH  10  12
ATOM     12  C   UNL A   1     -24.855  -1.012  30.143  0.00  0.00    +0.128 C 
BRANCH  12  13
ATOM     13  C   UNL A   1     -24.973  -2.505  29.788  0.00  0.00    -0.004 C 
ATOM     14  C   UNL A   1     -23.906  -3.173  29.146  0.00  0.00    -0.003 C 
ATOM     15  C   UNL A   1     -23.989  -4.549  28.853  0.00  0.00    -0.000 C 
ATOM     16  C   UNL A   1     -25.137  -5.280  29.205  0.00  0.00    -0.000 C 
ATOM     17  C   UNL A   1     -26.232  -4.611  29.784  0.00  0.00    -0.000 C 
ATOM     18  C   UNL A   1     -26.155  -3.232  30.065  0.00  0.00    -0.003 C 
ENDBRANCH  12  13
BRANCH  12  19
ATOM     19  C   UNL A   1     -25.387  -0.679  31.571  0.00  0.00    +0.094 C 
ATOM     20  C   UNL A   1     -25.189   0.773  32.028  0.00  0.00    +0.021 C 
ATOM     21  C   UNL A   1     -25.336   0.684  33.544  0.00  0.00    +0.020 C 
ATOM     22  C   UNL A   1     -24.829  -0.715  33.905  0.00  0.00    +0.089 C 
ATOM     23  N   UNL A   1     -24.758  -1.481  32.646  0.00  0.00    -0.218 NA
ENDBRANCH  12  19
ENDBRANCH  10  12
ENDBRANCH   1  10
BRANCH   1  24
ATOM     24  N   UNL A   1     -24.813   1.196  27.523  0.00  0.00    -0.177 NA
BRANCH  24  25
ATOM     25  C   UNL A   1     -25.688   1.614  26.461  0.00  0.00    +0.146 C 
ATOM     26  C   UNL A   1     -26.250   2.920  26.395  0.00  0.00    +0.071 C 
ATOM     27  C   UNL A   1     -27.438   3.091  25.645  0.00  0.00    +0.103 C 
ATOM     28  N   UNL A   1     -28.075   2.089  25.003  0.00  0.00    -0.212 NA
ATOM     29  C   UNL A   1     -27.543   0.849  25.079  0.00  0.00    +0.236 C 
ATOM     30  C   UNL A   1     -26.354   0.576  25.777  0.00  0.00    +0.256 C 
ATOM     31  F   UNL A   1     -25.860  -0.681  25.795  0.00  0.00    -0.225 F 
BRANCH  26  32
ATOM     32  C   UNL A   1     -25.642   4.093  27.123  0.00  0.00    +0.264 C 
ATOM     33  N   UNL A   1     -25.614   5.252  26.449  0.00  0.00    -0.200 NA
ATOM     34  C   UNL A   1     -25.026   6.479  26.963  0.00  0.00    +0.139 C 
ATOM     35  O   UNL A   1     -25.143   3.966  28.243  0.00  0.00    -0.269 OA
ENDBRANCH  26  32
BRANCH  29  36
ATOM     36  O   UNL A   1     -28.193  -0.208  24.477  0.00  0.00    -0.459 OA
BRANCH  36  37
ATOM     37  C   UNL A   1     -29.460   0.005  23.866  0.00  0.00    +0.242 C 
BRANCH  37  38
ATOM     38  C   UNL A   1     -30.065  -1.377  23.573  0.00  0.00    +0.229 C 
ATOM     39  O   UNL A   1     -30.729  -1.878  24.721  0.00  0.00    -0.216 OA
ENDBRANCH  37  38
ENDBRANCH  36  37
ENDBRANCH  29  36
ENDBRANCH  24  25
ENDBRANCH   1  24
TORSDOF 11
