MODEL 967
MODEL 1
REMARK VINA RESULT:    -6.808      0.000      0.000
REMARK INTER + INTRA:          -8.046
REMARK INTER:                  -7.604
REMARK INTRA:                  -0.442
REMARK UNBOUND:                -0.442
REMARK  Name = No_967-gen_results/8p0m/2024-11-27-11-27-31/
REMARK  2 active torsions:
REMARK  status: ('A' for Active; 'I' for Inactive)
REMARK    1  A    between atoms: C_10  and  N_12
REMARK    2  A    between atoms: N_12  and  C_13
REMARK                            x       y       z     vdW  Elec       q    Type
REMARK                         _______ _______ _______ _____ _____    ______ ____
ROOT
ATOM      1  C   UNL A   1     -26.753   0.398  25.709  0.00  0.00    +0.051 A 
ATOM      2  C   UNL A   1     -25.733   0.143  25.787  0.00  0.00    +0.266 C 
ATOM      3  C   UNL A   1     -27.384   0.690  27.002  0.00  0.00    -0.014 A 
ATOM      4  C   UNL A   1     -28.745   1.256  27.070  0.00  0.00    -0.004 A 
ATOM      5  C   UNL A   1     -29.161   2.094  26.011  0.00  0.00    -0.000 A 
ATOM      6  C   UNL A   1     -28.347   2.161  24.832  0.00  0.00    +0.000 A 
ATOM      7  C   UNL A   1     -27.193   1.496  24.757  0.00  0.00    +0.004 A 
ATOM      8  N   UNL A   1     -25.123  -0.593  26.669  0.00  0.00    -0.182 NA
ATOM      9  O   UNL A   1     -24.952  -0.020  24.558  0.00  0.00    -0.268 OA
ATOM     10  C   UNL A   1     -25.548  -0.610  27.977  0.00  0.00    +0.180 C 
ATOM     11  C   UNL A   1     -26.868  -0.090  28.134  0.00  0.00    +0.069 C 
ENDROOT
BRANCH  10  12
ATOM     12  N   UNL A   1     -24.984  -1.305  28.953  0.00  0.00    -0.242 N 
ATOM     13  C   UNL A   1     -24.142  -0.447  29.892  0.00  0.00    +0.231 C 
ATOM     14  O   UNL A   1     -23.662   0.549  29.607  0.00  0.00    -0.275 OA
ATOM     15  C   UNL A   1     -23.882  -1.144  31.212  0.00  0.00    +0.095 C 
BRANCH  12  16
ATOM     16  C   UNL A   1     -24.934  -2.488  29.133  0.00  0.00    +0.055 A 
ATOM     17  C   UNL A   1     -26.000  -3.070  29.637  0.00  0.00    +0.015 A 
ATOM     18  C   UNL A   1     -26.285  -4.467  29.651  0.00  0.00    +0.001 A 
ATOM     19  C   UNL A   1     -25.210  -5.293  29.232  0.00  0.00    +0.000 A 
ATOM     20  C   UNL A   1     -24.082  -4.734  28.654  0.00  0.00    +0.001 A 
ATOM     21  C   UNL A   1     -23.991  -3.352  28.524  0.00  0.00    +0.015 A 
ENDBRANCH  12  16
ENDBRANCH  10  12
TORSDOF 2
ENDMDL
ENDMDL
