REMARK  Name = outputs/IAG933/test6/raw/output_9683_IAG933_linker_design_.xyz
REMARK  14 active torsions:
REMARK  status: ('A' for Active; 'I' for Inactive)
REMARK    1  A    between atoms: C_1  and  C_2
REMARK    2  A    between atoms: C_1  and  C_8
REMARK    3  A    between atoms: C_1  and  C_36
REMARK    4  A    between atoms: C_13  and  C_40
REMARK    5  A    between atoms: C_14  and  C_15
REMARK    6  A    between atoms: C_21  and  O_22
REMARK    7  A    between atoms: O_22  and  C_23
REMARK    8  A    between atoms: C_23  and  C_24
REMARK    9  A    between atoms: C_30  and  C_33
REMARK   10  A    between atoms: C_30  and  C_35
REMARK   11  A    between atoms: C_32  and  C_36
REMARK   12  A    between atoms: C_33  and  C_37
REMARK   13  A    between atoms: C_35  and  N_39
REMARK   14  A    between atoms: C_36  and  N_39
REMARK                            x       y       z     vdW  Elec       q    Type
REMARK                         _______ _______ _______ _____ _____    ______ ____
ROOT
ATOM      1  F   UNL A   1     -21.014   1.885  26.993  0.00  0.00    -0.203 F 
ATOM      2  C   UNL A   1     -22.143   0.665  28.605  0.00  0.00    +0.030 C 
ATOM      3  C   UNL A   1     -24.595   0.579  28.422  0.00  0.00    +0.022 C 
ATOM      4  C   UNL A   1     -23.451   0.278  29.112  0.00  0.00    +0.002 C 
ATOM      5  C   UNL A   1     -22.177   1.437  27.470  0.00  0.00    +0.151 C 
ATOM      6  C   UNL A   1     -24.540   1.343  27.293  0.00  0.00    +0.015 C 
ATOM      7 CL   UNL A   1     -23.232   2.572  25.269  0.00  0.00    -0.080 Cl
ATOM      8  C   UNL A   1     -23.344   1.766  26.778  0.00  0.00    +0.085 C 
ENDROOT
BRANCH   6   9
ATOM      9  C   UNL A   1     -25.688   1.614  26.461  0.00  0.00    +0.039 C 
ATOM     10  C   UNL A   1     -26.250   2.920  26.395  0.00  0.00    +0.077 C 
ATOM     11  C   UNL A   1     -27.438   3.091  25.645  0.00  0.00    +0.107 C 
ATOM     12  N   UNL A   1     -28.075   2.089  25.003  0.00  0.00    -0.208 NA
ATOM     13  C   UNL A   1     -27.543   0.849  25.079  0.00  0.00    +0.253 C 
ATOM     14  C   UNL A   1     -26.354   0.576  25.777  0.00  0.00    +0.193 C 
ATOM     15  F   UNL A   1     -25.860  -0.681  25.795  0.00  0.00    -0.199 F 
BRANCH  10  16
ATOM     16  C   UNL A   1     -25.642   4.093  27.123  0.00  0.00    +0.266 C 
ATOM     17  N   UNL A   1     -25.614   5.252  26.449  0.00  0.00    -0.200 NA
ATOM     18  C   UNL A   1     -25.026   6.479  26.963  0.00  0.00    +0.139 C 
ATOM     19  O   UNL A   1     -25.143   3.966  28.243  0.00  0.00    -0.268 OA
ENDBRANCH  10  16
BRANCH  13  20
ATOM     20  O   UNL A   1     -28.193  -0.208  24.477  0.00  0.00    -0.456 OA
BRANCH  20  21
ATOM     21  C   UNL A   1     -29.460   0.005  23.866  0.00  0.00    +0.243 C 
BRANCH  21  22
ATOM     22  C   UNL A   1     -30.065  -1.377  23.573  0.00  0.00    +0.229 C 
ATOM     23  O   UNL A   1     -30.729  -1.878  24.721  0.00  0.00    -0.216 OA
ENDBRANCH  21  22
ENDBRANCH  20  21
ENDBRANCH  13  20
ENDBRANCH   6   9
BRANCH   3  25
ATOM     24  O   UNL A   1     -26.571  -0.846  28.462  0.00  0.00    -0.203 OA
ATOM     25  C   UNL A   1     -25.750   0.010  29.078  0.00  0.00    +0.210 C 
BRANCH  25  26
ATOM     26  C   UNL A   1     -24.855  -1.012  30.143  0.00  0.00    +0.086 C 
BRANCH  26  27
ATOM     27  C   UNL A   1     -24.973  -2.505  29.788  0.00  0.00    -0.017 C 
ATOM     28  C   UNL A   1     -23.906  -3.173  29.146  0.00  0.00    -0.004 C 
ATOM     29  C   UNL A   1     -23.989  -4.549  28.853  0.00  0.00    -0.000 C 
ATOM     30  C   UNL A   1     -25.137  -5.280  29.205  0.00  0.00    -0.000 C 
ATOM     31  C   UNL A   1     -26.232  -4.611  29.784  0.00  0.00    -0.000 C 
ATOM     32  C   UNL A   1     -26.155  -3.232  30.065  0.00  0.00    -0.004 C 
ENDBRANCH  26  27
BRANCH  26  33
ATOM     33  C   UNL A   1     -25.387  -0.679  31.571  0.00  0.00    +0.081 C 
ATOM     34  C   UNL A   1     -25.189   0.773  32.028  0.00  0.00    +0.019 C 
ATOM     35  C   UNL A   1     -25.336   0.684  33.544  0.00  0.00    +0.020 C 
ATOM     36  C   UNL A   1     -24.829  -0.715  33.905  0.00  0.00    +0.089 C 
ATOM     37  N   UNL A   1     -24.758  -1.481  32.646  0.00  0.00    -0.219 NA
ENDBRANCH  26  33
ENDBRANCH  25  26
BRANCH  25  38
ATOM     38  N   UNL A   1     -26.562   1.241  29.263  0.00  0.00    -0.189 NA
BRANCH  38  39
ATOM     39  C   UNL A   1     -27.991   1.440  29.018  0.00  0.00    +0.092 C 
BRANCH  39  40
ATOM     40  C   UNL A   1     -28.394   2.201  30.294  0.00  0.00    +0.029 C 
BRANCH  40  41
ATOM     41  C   UNL A   1     -27.832   3.625  30.167  0.00  0.00    +0.090 C 
BRANCH  41  42
ATOM     42  C   UNL A   1     -28.974   4.461  30.475  0.00  0.00    +0.261 C 
ATOM     43  O   UNL A   1     -29.545   4.153  31.569  0.00  0.00    -0.272 OA
ATOM     44  N   UNL A   1     -29.290   5.366  29.654  0.00  0.00    -0.088 NA
ENDBRANCH  41  42
ENDBRANCH  40  41
ENDBRANCH  39  40
ENDBRANCH  38  39
ENDBRANCH  25  38
ENDBRANCH   3  25
TORSDOF 14
