REMARK  Name = outputs/IAG933/test6/raw/output_9685_IAG933_linker_design_.xyz
REMARK  15 active torsions:
REMARK  status: ('A' for Active; 'I' for Inactive)
REMARK    1  A    between atoms: C_1  and  C_2
REMARK    2  A    between atoms: C_1  and  C_8
REMARK    3  A    between atoms: C_1  and  C_40
REMARK    4  A    between atoms: C_13  and  C_38
REMARK    5  A    between atoms: C_14  and  C_15
REMARK    6  A    between atoms: C_21  and  O_22
REMARK    7  A    between atoms: O_22  and  C_23
REMARK    8  A    between atoms: C_23  and  C_24
REMARK    9  A    between atoms: N_28  and  C_30
REMARK   10  A    between atoms: N_28  and  C_40
REMARK   11  A    between atoms: C_30  and  O_36
REMARK   12  A    between atoms: C_32  and  N_34
REMARK   13  A    between atoms: C_32  and  C_39
REMARK   14  A    between atoms: N_33  and  C_35
REMARK   15  A    between atoms: N_34  and  C_40
REMARK                            x       y       z     vdW  Elec       q    Type
REMARK                         _______ _______ _______ _____ _____    ______ ____
ROOT
ATOM      1  C   UNL A   1     -25.053  -0.129  28.840  0.00  0.00    +0.173 C 
ENDROOT
BRANCH   1   2
ATOM      2  C   UNL A   1     -24.855  -1.012  30.143  0.00  0.00    +0.075 C 
BRANCH   2   3
ATOM      3  C   UNL A   1     -24.973  -2.505  29.788  0.00  0.00    -0.018 C 
ATOM      4  C   UNL A   1     -23.906  -3.173  29.146  0.00  0.00    -0.004 C 
ATOM      5  C   UNL A   1     -23.989  -4.549  28.853  0.00  0.00    -0.000 C 
ATOM      6  C   UNL A   1     -25.137  -5.280  29.205  0.00  0.00    -0.000 C 
ATOM      7  C   UNL A   1     -26.232  -4.611  29.784  0.00  0.00    -0.000 C 
ATOM      8  C   UNL A   1     -26.155  -3.232  30.065  0.00  0.00    -0.004 C 
ENDBRANCH   2   3
BRANCH   2   9
ATOM      9  C   UNL A   1     -25.387  -0.679  31.571  0.00  0.00    +0.080 C 
ATOM     10  C   UNL A   1     -25.189   0.773  32.028  0.00  0.00    +0.019 C 
ATOM     11  C   UNL A   1     -25.336   0.684  33.544  0.00  0.00    +0.020 C 
ATOM     12  C   UNL A   1     -24.829  -0.715  33.905  0.00  0.00    +0.089 C 
ATOM     13  N   UNL A   1     -24.758  -1.481  32.646  0.00  0.00    -0.219 NA
ENDBRANCH   2   9
ENDBRANCH   1   2
BRANCH   1  14
ATOM     14  N   UNL A   1     -23.537   0.118  28.328  0.00  0.00    -0.189 NA
BRANCH  14  15
ATOM     15  C   UNL A   1     -23.527   1.142  27.495  0.00  0.00    +0.207 C 
ATOM     16  C   UNL A   1     -24.458   1.549  26.819  0.00  0.00    +0.036 C 
BRANCH  16  17
ATOM     17  C   UNL A   1     -25.688   1.614  26.461  0.00  0.00    +0.097 C 
ATOM     18  C   UNL A   1     -26.250   2.920  26.395  0.00  0.00    +0.059 C 
ATOM     19  C   UNL A   1     -27.438   3.091  25.645  0.00  0.00    +0.102 C 
ATOM     20  N   UNL A   1     -28.075   2.089  25.003  0.00  0.00    -0.212 NA
ATOM     21  C   UNL A   1     -27.543   0.849  25.079  0.00  0.00    +0.234 C 
ATOM     22  C   UNL A   1     -26.354   0.576  25.777  0.00  0.00    +0.244 C 
ATOM     23  F   UNL A   1     -25.860  -0.681  25.795  0.00  0.00    -0.227 F 
BRANCH  18  24
ATOM     24  C   UNL A   1     -25.642   4.093  27.123  0.00  0.00    +0.263 C 
ATOM     25  N   UNL A   1     -25.614   5.252  26.449  0.00  0.00    -0.200 NA
ATOM     26  C   UNL A   1     -25.026   6.479  26.963  0.00  0.00    +0.139 C 
ATOM     27  O   UNL A   1     -25.143   3.966  28.243  0.00  0.00    -0.269 OA
ENDBRANCH  18  24
BRANCH  21  28
ATOM     28  O   UNL A   1     -28.193  -0.208  24.477  0.00  0.00    -0.459 OA
BRANCH  28  29
ATOM     29  C   UNL A   1     -29.460   0.005  23.866  0.00  0.00    +0.242 C 
BRANCH  29  30
ATOM     30  C   UNL A   1     -30.065  -1.377  23.573  0.00  0.00    +0.229 C 
ATOM     31  O   UNL A   1     -30.729  -1.878  24.721  0.00  0.00    -0.216 OA
ENDBRANCH  29  30
ENDBRANCH  28  29
ENDBRANCH  21  28
ENDBRANCH  16  17
BRANCH  15  33
ATOM     32  C   UNL A   1     -21.088   1.400  27.690  0.00  0.00    +0.254 C 
ATOM     33  O   UNL A   1     -22.356   1.759  27.147  0.00  0.00    -0.458 OA
ENDBRANCH  15  33
ENDBRANCH  14  15
ENDBRANCH   1  14
BRANCH   1  34
ATOM     34  N   UNL A   1     -26.284   0.706  28.742  0.00  0.00    -0.189 NA
BRANCH  34  35
ATOM     35  C   UNL A   1     -27.424   0.089  29.099  0.00  0.00    +0.177 C 
BRANCH  35  38
ATOM     36  O   UNL A   1     -28.954  -0.749  29.459  0.00  0.00    -0.272 OA
ATOM     37  N   UNL A   1     -29.015   1.585  29.824  0.00  0.00    -0.206 NA
ATOM     38  C   UNL A   1     -28.563   0.300  29.506  0.00  0.00    +0.259 C 
BRANCH  37  39
ATOM     39  C   UNL A   1     -30.206   1.986  29.059  0.00  0.00    +0.095 C 
ATOM     40  C   UNL A   1     -30.222   0.676  27.190  0.00  0.00    +0.002 C 
ATOM     41  C   UNL A   1     -30.056   3.442  28.742  0.00  0.00    +0.023 C 
ATOM     42  C   UNL A   1     -30.115   2.196  27.683  0.00  0.00    +0.022 C 
ENDBRANCH  37  39
ENDBRANCH  35  38
ENDBRANCH  34  35
ENDBRANCH   1  34
TORSDOF 15
