MODEL 968
MODEL 1
REMARK VINA RESULT:    -6.504      0.000      0.000
REMARK INTER + INTRA:          -7.211
REMARK INTER:                  -6.884
REMARK INTRA:                  -0.326
REMARK UNBOUND:                -0.326
REMARK  Name = No_968-gen_results/8p0m/2024-11-27-11-27-31/
REMARK  1 active torsions:
REMARK  status: ('A' for Active; 'I' for Inactive)
REMARK    1  A    between atoms: C_3  and  C_7
REMARK                            x       y       z     vdW  Elec       q    Type
REMARK                         _______ _______ _______ _____ _____    ______ ____
ROOT
ATOM      1  C   UNL A   1     -24.797  -5.010  29.002  0.00  0.00    +0.000 A 
ATOM      2  C   UNL A   1     -24.124  -4.049  28.708  0.00  0.00    +0.000 A 
ATOM      3  C   UNL A   1     -24.498  -2.733  28.979  0.00  0.00    +0.000 A 
ATOM      4  C   UNL A   1     -25.786  -2.477  29.594  0.00  0.00    +0.000 A 
ATOM      5  C   UNL A   1     -26.520  -3.646  29.900  0.00  0.00    +0.000 A 
ATOM      6  C   UNL A   1     -26.088  -4.844  29.601  0.00  0.00    +0.000 A 
ENDROOT
BRANCH   3   7
ATOM      7  C   UNL A   1     -23.718  -1.509  28.658  0.00  0.00    +0.000 A 
ATOM      8  C   UNL A   1     -22.574  -1.249  29.237  0.00  0.00    +0.000 A 
ATOM      9  C   UNL A   1     -21.872  -0.028  28.964  0.00  0.00    +0.000 A 
ATOM     10  C   UNL A   1     -22.400   0.980  28.225  0.00  0.00    +0.000 A 
ATOM     11  C   UNL A   1     -24.312  -0.449  27.865  0.00  0.00    +0.000 A 
ATOM     12  C   UNL A   1     -23.630   0.780  27.663  0.00  0.00    +0.000 A 
ENDBRANCH   3   7
TORSDOF 1
ENDMDL
ENDMDL
