REMARK  Name = outputs/IAG933/test6/raw/output_969_IAG933_linker_design_.xyz
REMARK  12 active torsions:
REMARK  status: ('A' for Active; 'I' for Inactive)
REMARK    1  A    between atoms: C_1  and  C_2
REMARK    2  A    between atoms: C_1  and  C_8
REMARK    3  A    between atoms: C_1  and  C_34
REMARK    4  A    between atoms: C_13  and  C_29
REMARK    5  A    between atoms: C_14  and  C_15
REMARK    6  A    between atoms: C_21  and  O_22
REMARK    7  A    between atoms: O_22  and  C_23
REMARK    8  A    between atoms: C_23  and  C_24
REMARK    9  A    between atoms: S_33  and  C_37
REMARK   10  A    between atoms: S_33  and  N_43
REMARK   11  A    between atoms: C_34  and  C_41
REMARK   12  A    between atoms: C_34  and  N_43
REMARK                            x       y       z     vdW  Elec       q    Type
REMARK                         _______ _______ _______ _____ _____    ______ ____
ROOT
ATOM      1  N   UNL A   1     -21.058   0.765  28.965  0.00  0.00    -0.105 NA
ATOM      2  C   UNL A   1     -24.522   1.279  27.119  0.00  0.00    +0.047 A 
ATOM      3  C   UNL A   1     -22.172   0.718  28.318  0.00  0.00    +0.199 A 
ATOM      4  F   UNL A   1     -21.089   1.736  26.585  0.00  0.00    -0.199 F 
ATOM      5  C   UNL A   1     -23.315   1.727  26.569  0.00  0.00    +0.172 A 
ATOM      6  N   UNL A   1     -23.222   0.071  28.798  0.00  0.00    -0.228 NA
ATOM      7  F   UNL A   1     -23.139   2.492  25.500  0.00  0.00    -0.202 F 
ATOM      8  C   UNL A   1     -22.198   1.386  27.146  0.00  0.00    +0.202 A 
ATOM      9  C   UNL A   1     -24.462   0.442  28.311  0.00  0.00    +0.081 A 
ENDROOT
BRANCH   2  10
ATOM     10  C   UNL A   1     -25.688   1.614  26.461  0.00  0.00    +0.042 C 
ATOM     11  C   UNL A   1     -26.250   2.920  26.395  0.00  0.00    +0.077 C 
ATOM     12  C   UNL A   1     -27.438   3.091  25.645  0.00  0.00    +0.107 C 
ATOM     13  N   UNL A   1     -28.075   2.089  25.003  0.00  0.00    -0.208 NA
ATOM     14  C   UNL A   1     -27.543   0.849  25.079  0.00  0.00    +0.253 C 
ATOM     15  C   UNL A   1     -26.354   0.576  25.777  0.00  0.00    +0.193 C 
ATOM     16  F   UNL A   1     -25.860  -0.681  25.795  0.00  0.00    -0.199 F 
BRANCH  11  17
ATOM     17  C   UNL A   1     -25.642   4.093  27.123  0.00  0.00    +0.266 C 
ATOM     18  N   UNL A   1     -25.614   5.252  26.449  0.00  0.00    -0.200 NA
ATOM     19  C   UNL A   1     -25.026   6.479  26.963  0.00  0.00    +0.139 C 
ATOM     20  O   UNL A   1     -25.143   3.966  28.243  0.00  0.00    -0.268 OA
ENDBRANCH  11  17
BRANCH  14  21
ATOM     21  O   UNL A   1     -28.193  -0.208  24.477  0.00  0.00    -0.456 OA
BRANCH  21  22
ATOM     22  C   UNL A   1     -29.460   0.005  23.866  0.00  0.00    +0.243 C 
BRANCH  22  23
ATOM     23  C   UNL A   1     -30.065  -1.377  23.573  0.00  0.00    +0.229 C 
ATOM     24  O   UNL A   1     -30.729  -1.878  24.721  0.00  0.00    -0.216 OA
ENDBRANCH  22  23
ENDBRANCH  21  22
ENDBRANCH  14  21
ENDBRANCH   2  10
BRANCH   9  25
ATOM     25  C   UNL A   1     -25.430  -0.146  29.154  0.00  0.00    +0.142 C 
BRANCH  25  26
ATOM     26  C   UNL A   1     -24.855  -1.012  30.143  0.00  0.00    +0.062 C 
BRANCH  26  27
ATOM     27  C   UNL A   1     -24.973  -2.505  29.788  0.00  0.00    -0.019 C 
ATOM     28  C   UNL A   1     -23.906  -3.173  29.146  0.00  0.00    -0.004 C 
ATOM     29  C   UNL A   1     -23.989  -4.549  28.853  0.00  0.00    -0.000 C 
ATOM     30  C   UNL A   1     -25.137  -5.280  29.205  0.00  0.00    -0.000 C 
ATOM     31  C   UNL A   1     -26.232  -4.611  29.784  0.00  0.00    -0.000 C 
ATOM     32  C   UNL A   1     -26.155  -3.232  30.065  0.00  0.00    -0.004 C 
ENDBRANCH  26  27
BRANCH  26  33
ATOM     33  C   UNL A   1     -25.387  -0.679  31.571  0.00  0.00    +0.079 C 
ATOM     34  C   UNL A   1     -25.189   0.773  32.028  0.00  0.00    +0.019 C 
ATOM     35  C   UNL A   1     -25.336   0.684  33.544  0.00  0.00    +0.020 C 
ATOM     36  C   UNL A   1     -24.829  -0.715  33.905  0.00  0.00    +0.089 C 
ATOM     37  N   UNL A   1     -24.758  -1.481  32.646  0.00  0.00    -0.219 NA
ENDBRANCH  26  33
ENDBRANCH  25  26
BRANCH  25  38
ATOM     38  N   UNL A   1     -26.756   0.003  29.286  0.00  0.00    -0.077 NA
BRANCH  38  40
ATOM     39  O   UNL A   1     -29.426   0.146  30.173  0.00  0.00    -0.156 OA
ATOM     40  S   UNL A   1     -28.352   0.460  29.219  0.00  0.00    +0.058 S 
ATOM     41  O   UNL A   1     -28.756   0.017  27.948  0.00  0.00    -0.156 OA
BRANCH  40  43
ATOM     42  C   UNL A   1     -29.096   3.047  28.832  0.00  0.00    +0.029 C 
ATOM     43  C   UNL A   1     -28.200   2.194  29.700  0.00  0.00    +0.171 C 
ENDBRANCH  40  43
ENDBRANCH  38  40
ENDBRANCH  25  38
ENDBRANCH   9  25
TORSDOF 12
