REMARK  Name = outputs/IAG933/test6/raw/output_9692_IAG933_linker_design_.xyz
REMARK  19 active torsions:
REMARK  status: ('A' for Active; 'I' for Inactive)
REMARK    1  A    between atoms: C_1  and  C_2
REMARK    2  A    between atoms: C_1  and  C_8
REMARK    3  A    between atoms: C_1  and  O_32
REMARK    4  A    between atoms: C_13  and  C_38
REMARK    5  A    between atoms: C_14  and  C_15
REMARK    6  A    between atoms: C_21  and  O_22
REMARK    7  A    between atoms: O_22  and  C_23
REMARK    8  A    between atoms: C_23  and  C_24
REMARK    9  A    between atoms: O_30  and  C_31
REMARK   10  A    between atoms: C_31  and  C_35
REMARK   11  A    between atoms: C_31  and  S_39
REMARK   12  A    between atoms: O_32  and  C_44
REMARK   13  A    between atoms: N_33  and  C_38
REMARK   14  A    between atoms: N_33  and  C_43
REMARK   15  A    between atoms: C_38  and  C_42
REMARK   16  A    between atoms: S_39  and  C_45
REMARK   17  A    between atoms: C_40  and  C_42
REMARK   18  A    between atoms: C_40  and  C_44
REMARK   19  A    between atoms: C_43  and  C_45
REMARK                            x       y       z     vdW  Elec       q    Type
REMARK                         _______ _______ _______ _____ _____    ______ ____
ROOT
ATOM      1  C   UNL A   1     -24.863   1.008  27.636  0.00  0.00    +0.080 C 
ENDROOT
BRANCH   1   2
ATOM      2  C   UNL A   1     -25.688   1.614  26.461  0.00  0.00    +0.086 C 
ATOM      3  C   UNL A   1     -26.250   2.920  26.395  0.00  0.00    +0.056 C 
ATOM      4  C   UNL A   1     -27.438   3.091  25.645  0.00  0.00    +0.102 C 
ATOM      5  N   UNL A   1     -28.075   2.089  25.003  0.00  0.00    -0.212 NA
ATOM      6  C   UNL A   1     -27.543   0.849  25.079  0.00  0.00    +0.234 C 
ATOM      7  C   UNL A   1     -26.354   0.576  25.777  0.00  0.00    +0.241 C 
ATOM      8  F   UNL A   1     -25.860  -0.681  25.795  0.00  0.00    -0.227 F 
BRANCH   3   9
ATOM      9  C   UNL A   1     -25.642   4.093  27.123  0.00  0.00    +0.263 C 
ATOM     10  N   UNL A   1     -25.614   5.252  26.449  0.00  0.00    -0.200 NA
ATOM     11  C   UNL A   1     -25.026   6.479  26.963  0.00  0.00    +0.139 C 
ATOM     12  O   UNL A   1     -25.143   3.966  28.243  0.00  0.00    -0.269 OA
ENDBRANCH   3   9
BRANCH   6  13
ATOM     13  O   UNL A   1     -28.193  -0.208  24.477  0.00  0.00    -0.459 OA
BRANCH  13  14
ATOM     14  C   UNL A   1     -29.460   0.005  23.866  0.00  0.00    +0.242 C 
BRANCH  14  15
ATOM     15  C   UNL A   1     -30.065  -1.377  23.573  0.00  0.00    +0.229 C 
ATOM     16  O   UNL A   1     -30.729  -1.878  24.721  0.00  0.00    -0.216 OA
ENDBRANCH  14  15
ENDBRANCH  13  14
ENDBRANCH   6  13
ENDBRANCH   1   2
BRANCH   1  17
ATOM     17  C   UNL A   1     -23.406   1.207  27.107  0.00  0.00    +0.020 C 
BRANCH  17  19
ATOM     18  C   UNL A   1     -21.068   1.340  27.961  0.00  0.00    +0.003 C 
ATOM     19  C   UNL A   1     -22.431   0.667  28.141  0.00  0.00    +0.031 C 
BRANCH  19  20
ATOM     20  C   UNL A   1     -23.015   0.812  29.543  0.00  0.00    +0.142 C 
BRANCH  20  21
ATOM     21  O   UNL A   1     -23.539  -0.487  30.024  0.00  0.00    -0.350 OA
BRANCH  21  22
ATOM     22  C   UNL A   1     -24.855  -1.012  30.143  0.00  0.00    +0.153 C 
BRANCH  22  23
ATOM     23  C   UNL A   1     -24.973  -2.505  29.788  0.00  0.00    +0.006 C 
ATOM     24  C   UNL A   1     -23.906  -3.173  29.146  0.00  0.00    -0.002 C 
ATOM     25  C   UNL A   1     -23.989  -4.549  28.853  0.00  0.00    -0.000 C 
ATOM     26  C   UNL A   1     -25.137  -5.280  29.205  0.00  0.00    -0.000 C 
ATOM     27  C   UNL A   1     -26.232  -4.611  29.784  0.00  0.00    -0.000 C 
ATOM     28  C   UNL A   1     -26.155  -3.232  30.065  0.00  0.00    -0.002 C 
ENDBRANCH  22  23
BRANCH  22  29
ATOM     29  C   UNL A   1     -25.387  -0.679  31.571  0.00  0.00    +0.104 C 
ATOM     30  C   UNL A   1     -25.189   0.773  32.028  0.00  0.00    +0.022 C 
ATOM     31  C   UNL A   1     -25.336   0.684  33.544  0.00  0.00    +0.020 C 
ATOM     32  C   UNL A   1     -24.829  -0.715  33.905  0.00  0.00    +0.089 C 
ATOM     33  N   UNL A   1     -24.758  -1.481  32.646  0.00  0.00    -0.217 NA
ENDBRANCH  22  29
ENDBRANCH  21  22
ENDBRANCH  20  21
ENDBRANCH  19  20
ENDBRANCH  17  19
ENDBRANCH   1  17
BRANCH   1  34
ATOM     34  N   UNL A   1     -25.596   1.092  28.844  0.00  0.00    -0.217 NA
BRANCH  34  35
ATOM     35  C   UNL A   1     -26.846   0.359  28.988  0.00  0.00    +0.114 C 
BRANCH  35  36
ATOM     36  C   UNL A   1     -27.964   1.372  28.791  0.00  0.00    +0.173 C 
BRANCH  36  39
ATOM     37  O   UNL A   1     -29.242  -0.494  27.238  0.00  0.00    -0.170 OA
ATOM     38  O   UNL A   1     -30.368   1.714  27.632  0.00  0.00    -0.170 OA
ATOM     39  S   UNL A   1     -29.529   0.611  28.233  0.00  0.00    +0.027 S 
BRANCH  39  40
ATOM     40  C   UNL A   1     -30.594  -0.262  29.311  0.00  0.00    +0.348 C 
BRANCH  40  41
ATOM     41  C   UNL A   1     -29.920  -1.339  30.256  0.00  0.00    +0.414 C 
ATOM     42  O   UNL A   1     -29.814  -1.100  31.443  0.00  0.00    -0.241 OA
ATOM     43  O   UNL A   1     -29.421  -2.358  29.794  0.00  0.00    -0.241 OA
ENDBRANCH  40  41
BRANCH  40  45
ATOM     44  C   UNL A   1     -32.530  -1.549  29.770  0.00  0.00    +0.177 C 
ATOM     45  O   UNL A   1     -31.816  -0.780  28.809  0.00  0.00    -0.324 OA
ENDBRANCH  40  45
ENDBRANCH  39  40
ENDBRANCH  36  39
ENDBRANCH  35  36
ENDBRANCH  34  35
ENDBRANCH   1  34
TORSDOF 19
