MODEL 969
MODEL 1
REMARK VINA RESULT:    -8.290      0.000      0.000
REMARK INTER + INTRA:         -12.968
REMARK INTER:                 -11.198
REMARK INTRA:                  -1.771
REMARK UNBOUND:                -1.771
REMARK  Name = No_969-gen_results/8p0m/2024-11-27-11-27-31/
REMARK  6 active torsions:
REMARK  status: ('A' for Active; 'I' for Inactive)
REMARK    1  A    between atoms: C_3  and  O_16
REMARK    2  A    between atoms: C_4  and  C_8
REMARK    3  A    between atoms: O_16  and  C_17
REMARK    4  A    between atoms: C_17  and  C_19
REMARK    5  A    between atoms: C_23  and  C_26
REMARK    6  A    between atoms: C_31  and  C_32
REMARK                            x       y       z     vdW  Elec       q    Type
REMARK                         _______ _______ _______ _____ _____    ______ ____
ROOT
ATOM      1  C   UNL A   1     -30.267 -14.653  25.460  0.00  0.00    +0.145 C 
ATOM      2  C   UNL A   1     -30.752 -15.943  25.637  0.00  0.00    +0.041 C 
ENDROOT
BRANCH   1   3
ATOM      3  C   UNL A   1     -30.676 -13.664  26.332  0.00  0.00    +0.031 A 
ATOM      4  C   UNL A   1     -31.847 -13.040  26.228  0.00  0.00    +0.003 A 
ATOM      5  C   UNL A   1     -32.167 -12.112  27.174  0.00  0.00    +0.000 A 
ATOM      6  C   UNL A   1     -31.557 -12.032  28.301  0.00  0.00    -0.000 A 
ATOM      7  C   UNL A   1     -30.279 -12.720  28.475  0.00  0.00    -0.004 A 
ATOM      8  C   UNL A   1     -29.878 -13.513  27.535  0.00  0.00    -0.019 A 
ATOM      9  C   UNL A   1     -28.765 -12.570  27.247  0.00  0.00    +0.031 C 
BRANCH   7  10
ATOM     10  C   UNL A   1     -29.682 -12.637  29.863  0.00  0.00    -0.004 A 
ATOM     11  C   UNL A   1     -29.800 -13.712  30.687  0.00  0.00    -0.022 A 
ATOM     12  C   UNL A   1     -29.040 -11.415  30.306  0.00  0.00    -0.000 A 
ATOM     13  C   UNL A   1     -28.325 -11.406  31.508  0.00  0.00    +0.007 A 
ATOM     14  C   UNL A   1     -29.142 -13.649  31.971  0.00  0.00    +0.002 A 
ATOM     15  C   UNL A   1     -28.468 -12.497  32.356  0.00  0.00    +0.080 A 
ATOM     16  C   UNL A   1     -30.492 -14.914  30.316  0.00  0.00    +0.031 C 
BRANCH  15  17
ATOM     17  C   UNL A   1     -27.788 -12.498  33.698  0.00  0.00    +0.388 C 
ATOM     18  O   UNL A   1     -26.634 -12.581  33.869  0.00  0.00    -0.241 OA
ATOM     19  O   UNL A   1     -28.622 -12.780  34.728  0.00  0.00    -0.241 OA
ENDBRANCH  15  17
ENDBRANCH   7  10
ENDBRANCH   1   3
BRANCH   1  20
ATOM     20  O   UNL A   1     -29.451 -14.474  24.365  0.00  0.00    -0.454 OA
BRANCH  20  23
ATOM     21  C   UNL A   1     -27.491 -15.805  24.805  0.00  0.00    +0.049 A 
ATOM     22  C   UNL A   1     -26.753 -16.429  24.384  0.00  0.00    +0.061 A 
ATOM     23  C   UNL A   1     -28.615 -15.409  23.874  0.00  0.00    +0.143 A 
ATOM     24  C   UNL A   1     -28.688 -15.991  22.591  0.00  0.00    +0.021 A 
ATOM     25  C   UNL A   1     -26.610 -17.185  23.119  0.00  0.00    +0.011 A 
ATOM     26  C   UNL A   1     -27.631 -16.851  22.239  0.00  0.00    +0.000 A 
ATOM     27 CL   UNL A   1     -25.398 -16.917  25.507  0.00  0.00    -0.082 Cl
BRANCH  24  28
ATOM     28  C   UNL A   1     -29.745 -15.636  21.679  0.00  0.00    +0.103 C 
ATOM     29  C   UNL A   1     -29.579 -14.316  21.038  0.00  0.00    +0.017 C 
ATOM     30  C   UNL A   1     -30.764 -13.583  20.780  0.00  0.00    +0.042 C 
ATOM     31  C   UNL A   1     -32.031 -14.262  20.886  0.00  0.00    +0.186 C 
ATOM     32  N   UNL A   1     -32.094 -15.430  21.510  0.00  0.00    -0.187 NA
ATOM     33  C   UNL A   1     -31.007 -16.062  21.957  0.00  0.00    +0.246 C 
ATOM     34  O   UNL A   1     -31.121 -17.204  22.465  0.00  0.00    -0.273 OA
ATOM     35  N   UNL A   1     -33.074 -13.518  20.503  0.00  0.00    -0.109 NA
ENDBRANCH  24  28
ENDBRANCH  20  23
ENDBRANCH   1  20
TORSDOF 6
ENDMDL
ENDMDL
