MODEL 96
MODEL 1
REMARK VINA RESULT:    -6.025      0.000      0.000
REMARK INTER + INTRA:          -7.006
REMARK INTER:                  -6.729
REMARK INTRA:                  -0.277
REMARK UNBOUND:                -0.277
REMARK  Name = No_96-gen_results/8p0m/2024-11-27-11-27-31/
REMARK  2 active torsions:
REMARK  status: ('A' for Active; 'I' for Inactive)
REMARK    1  A    between atoms: C_2  and  C_11
REMARK    2  A    between atoms: C_3  and  C_7
REMARK                            x       y       z     vdW  Elec       q    Type
REMARK                         _______ _______ _______ _____ _____    ______ ____
ROOT
ATOM      1  C   UNL A   1     -28.323 -11.926  31.131  0.00  0.00    +0.010 A 
ATOM      2  C   UNL A   1     -28.195 -11.634  32.135  0.00  0.00    +0.080 A 
ATOM      3  C   UNL A   1     -29.211 -11.172  30.333  0.00  0.00    +0.072 A 
ATOM      4  C   UNL A   1     -29.909 -10.092  30.838  0.00  0.00    +0.004 A 
ATOM      5  C   UNL A   1     -28.805 -10.536  32.910  0.00  0.00    +0.007 A 
ATOM      6  C   UNL A   1     -29.665  -9.789  32.183  0.00  0.00    +0.000 A 
ENDROOT
BRANCH   3   7
ATOM      7  C   UNL A   1     -29.455 -11.460  28.880  0.00  0.00    +0.419 C 
ATOM      8  F   UNL A   1     -28.541 -11.730  28.235  0.00  0.00    -0.166 F 
ATOM      9  F   UNL A   1     -30.452 -12.457  28.707  0.00  0.00    -0.166 F 
ATOM     10  F   UNL A   1     -30.181 -10.302  28.311  0.00  0.00    -0.166 F 
ENDBRANCH   3   7
BRANCH   2  11
ATOM     11  C   UNL A   1     -27.123 -12.383  33.074  0.00  0.00    +0.388 C 
ATOM     12  O   UNL A   1     -26.348 -12.929  32.540  0.00  0.00    -0.241 OA
ATOM     13  O   UNL A   1     -27.202 -12.249  34.389  0.00  0.00    -0.241 OA
ENDBRANCH   2  11
TORSDOF 2
ENDMDL
ENDMDL
