REMARK  Name = outputs/IAG933/test6/raw/output_9702_IAG933_linker_design_.xyz
REMARK  11 active torsions:
REMARK  status: ('A' for Active; 'I' for Inactive)
REMARK    1  A    between atoms: C_1  and  C_2
REMARK    2  A    between atoms: C_1  and  C_8
REMARK    3  A    between atoms: C_1  and  C_35
REMARK    4  A    between atoms: C_13  and  C_29
REMARK    5  A    between atoms: C_14  and  C_15
REMARK    6  A    between atoms: C_21  and  O_22
REMARK    7  A    between atoms: O_22  and  C_23
REMARK    8  A    between atoms: C_23  and  C_24
REMARK    9  A    between atoms: C_30  and  C_40
REMARK   10  A    between atoms: C_35  and  C_38
REMARK   11  A    between atoms: C_35  and  C_40
REMARK                            x       y       z     vdW  Elec       q    Type
REMARK                         _______ _______ _______ _____ _____    ______ ____
ROOT
ATOM      1  C   UNL A   1     -25.374  -0.034  29.172  0.00  0.00    +0.068 C 
ENDROOT
BRANCH   1   5
ATOM      2  C   UNL A   1     -24.561   1.350  27.229  0.00  0.00    +0.101 C 
ATOM      3  C   UNL A   1     -22.384   1.242  27.654  0.00  0.00    +0.433 C 
ATOM      4  N   UNL A   1     -23.333   1.673  26.797  0.00  0.00    -0.165 N 
ATOM      5  C   UNL A   1     -24.402   0.689  28.453  0.00  0.00    +0.136 C 
ATOM      6  O   UNL A   1     -23.039   0.798  28.829  0.00  0.00    -0.437 OA
ATOM      7 CL   UNL A   1     -22.930   2.529  25.427  0.00  0.00    +0.008 Cl
ATOM      8  F   UNL A   1     -21.120   1.301  27.476  0.00  0.00    -0.166 F 
BRANCH   2   9
ATOM      9  C   UNL A   1     -25.688   1.614  26.461  0.00  0.00    +0.055 C 
ATOM     10  C   UNL A   1     -26.250   2.920  26.395  0.00  0.00    +0.078 C 
ATOM     11  C   UNL A   1     -27.438   3.091  25.645  0.00  0.00    +0.107 C 
ATOM     12  N   UNL A   1     -28.075   2.089  25.003  0.00  0.00    -0.208 NA
ATOM     13  C   UNL A   1     -27.543   0.849  25.079  0.00  0.00    +0.253 C 
ATOM     14  C   UNL A   1     -26.354   0.576  25.777  0.00  0.00    +0.194 C 
ATOM     15  F   UNL A   1     -25.860  -0.681  25.795  0.00  0.00    -0.199 F 
BRANCH  10  16
ATOM     16  C   UNL A   1     -25.642   4.093  27.123  0.00  0.00    +0.267 C 
ATOM     17  N   UNL A   1     -25.614   5.252  26.449  0.00  0.00    -0.200 NA
ATOM     18  C   UNL A   1     -25.026   6.479  26.963  0.00  0.00    +0.139 C 
ATOM     19  O   UNL A   1     -25.143   3.966  28.243  0.00  0.00    -0.268 OA
ENDBRANCH  10  16
BRANCH  13  20
ATOM     20  O   UNL A   1     -28.193  -0.208  24.477  0.00  0.00    -0.456 OA
BRANCH  20  21
ATOM     21  C   UNL A   1     -29.460   0.005  23.866  0.00  0.00    +0.243 C 
BRANCH  21  22
ATOM     22  C   UNL A   1     -30.065  -1.377  23.573  0.00  0.00    +0.229 C 
ATOM     23  O   UNL A   1     -30.729  -1.878  24.721  0.00  0.00    -0.216 OA
ENDBRANCH  21  22
ENDBRANCH  20  21
ENDBRANCH  13  20
ENDBRANCH   2   9
ENDBRANCH   1   5
BRANCH   1  24
ATOM     24  C   UNL A   1     -24.855  -1.012  30.143  0.00  0.00    +0.046 C 
BRANCH  24  25
ATOM     25  C   UNL A   1     -24.973  -2.505  29.788  0.00  0.00    -0.021 C 
ATOM     26  C   UNL A   1     -23.906  -3.173  29.146  0.00  0.00    -0.004 C 
ATOM     27  C   UNL A   1     -23.989  -4.549  28.853  0.00  0.00    -0.000 C 
ATOM     28  C   UNL A   1     -25.137  -5.280  29.205  0.00  0.00    -0.000 C 
ATOM     29  C   UNL A   1     -26.232  -4.611  29.784  0.00  0.00    -0.000 C 
ATOM     30  C   UNL A   1     -26.155  -3.232  30.065  0.00  0.00    -0.004 C 
ENDBRANCH  24  25
BRANCH  24  31
ATOM     31  C   UNL A   1     -25.387  -0.679  31.571  0.00  0.00    +0.077 C 
ATOM     32  C   UNL A   1     -25.189   0.773  32.028  0.00  0.00    +0.019 C 
ATOM     33  C   UNL A   1     -25.336   0.684  33.544  0.00  0.00    +0.020 C 
ATOM     34  C   UNL A   1     -24.829  -0.715  33.905  0.00  0.00    +0.089 C 
ATOM     35  N   UNL A   1     -24.758  -1.481  32.646  0.00  0.00    -0.219 NA
ENDBRANCH  24  31
ENDBRANCH   1  24
BRANCH   1  36
ATOM     36  C   UNL A   1     -26.750   0.041  28.914  0.00  0.00    +0.039 C 
BRANCH  36  38
ATOM     37  C   UNL A   1     -28.305   2.420  29.718  0.00  0.00    +0.248 C 
ATOM     38  C   UNL A   1     -27.819   1.109  29.102  0.00  0.00    +0.032 C 
ATOM     39  C   UNL A   1     -30.207   2.340  28.320  0.00  0.00    +0.032 C 
ATOM     40  C   UNL A   1     -28.782   0.488  28.258  0.00  0.00    +0.001 C 
ATOM     41  C   UNL A   1     -31.666   2.714  27.848  0.00  0.00    +0.048 C 
ATOM     42  C   UNL A   1     -29.940   1.024  27.844  0.00  0.00    +0.010 C 
ATOM     43  N   UNL A   1     -29.227   2.905  28.981  0.00  0.00    -0.257 N 
ATOM     44  O   UNL A   1     -27.928   2.888  30.768  0.00  0.00    -0.270 OA
ATOM     45  C   UNL A   1     -29.600   4.125  28.412  0.00  0.00    +0.120 C 
ENDBRANCH  36  38
ENDBRANCH   1  36
TORSDOF 11
