REMARK  Name = outputs/IAG933/test6/raw/output_9706_IAG933_linker_design_.xyz
REMARK  10 active torsions:
REMARK  status: ('A' for Active; 'I' for Inactive)
REMARK    1  A    between atoms: C_1  and  C_2
REMARK    2  A    between atoms: C_1  and  C_8
REMARK    3  A    between atoms: C_1  and  N_37
REMARK    4  A    between atoms: C_13  and  C_44
REMARK    5  A    between atoms: C_14  and  C_15
REMARK    6  A    between atoms: C_21  and  O_22
REMARK    7  A    between atoms: O_22  and  C_23
REMARK    8  A    between atoms: C_23  and  C_24
REMARK    9  A    between atoms: C_32  and  N_37
REMARK   10  A    between atoms: C_35  and  C_46
REMARK                            x       y       z     vdW  Elec       q    Type
REMARK                         _______ _______ _______ _____ _____    ______ ____
ROOT
ATOM      1  C   UNL A   1     -20.777  -0.128  28.720  0.00  0.00    +0.005 C 
ATOM      2  C   UNL A   1     -24.503   0.574  28.306  0.00  0.00    +0.036 C 
ATOM      3  C   UNL A   1     -22.375   1.039  27.498  0.00  0.00    -0.029 C 
ATOM      4  C   UNL A   1     -20.942   0.853  27.672  0.00  0.00    +0.023 C 
ATOM      5  C   UNL A   1     -23.163   1.593  26.596  0.00  0.00    +0.051 C 
ATOM      6 CL   UNL A   1     -22.388   2.234  25.128  0.00  0.00    -0.083 Cl
ATOM      7  C   UNL A   1     -22.145  -0.373  29.367  0.00  0.00    +0.010 C 
ATOM      8  C   UNL A   1     -24.562   1.297  27.109  0.00  0.00    +0.022 C 
ATOM      9  C   UNL A   1     -23.139   0.477  28.508  0.00  0.00    +0.055 C 
ENDROOT
BRANCH   8  10
ATOM     10  C   UNL A   1     -25.688   1.614  26.461  0.00  0.00    +0.040 C 
ATOM     11  C   UNL A   1     -26.250   2.920  26.395  0.00  0.00    +0.077 C 
ATOM     12  C   UNL A   1     -27.438   3.091  25.645  0.00  0.00    +0.107 C 
ATOM     13  N   UNL A   1     -28.075   2.089  25.003  0.00  0.00    -0.208 NA
ATOM     14  C   UNL A   1     -27.543   0.849  25.079  0.00  0.00    +0.253 C 
ATOM     15  C   UNL A   1     -26.354   0.576  25.777  0.00  0.00    +0.193 C 
ATOM     16  F   UNL A   1     -25.860  -0.681  25.795  0.00  0.00    -0.199 F 
BRANCH  11  17
ATOM     17  C   UNL A   1     -25.642   4.093  27.123  0.00  0.00    +0.266 C 
ATOM     18  N   UNL A   1     -25.614   5.252  26.449  0.00  0.00    -0.200 NA
ATOM     19  C   UNL A   1     -25.026   6.479  26.963  0.00  0.00    +0.139 C 
ATOM     20  O   UNL A   1     -25.143   3.966  28.243  0.00  0.00    -0.268 OA
ENDBRANCH  11  17
BRANCH  14  21
ATOM     21  O   UNL A   1     -28.193  -0.208  24.477  0.00  0.00    -0.456 OA
BRANCH  21  22
ATOM     22  C   UNL A   1     -29.460   0.005  23.866  0.00  0.00    +0.243 C 
BRANCH  22  23
ATOM     23  C   UNL A   1     -30.065  -1.377  23.573  0.00  0.00    +0.229 C 
ATOM     24  O   UNL A   1     -30.729  -1.878  24.721  0.00  0.00    -0.216 OA
ENDBRANCH  22  23
ENDBRANCH  21  22
ENDBRANCH  14  21
ENDBRANCH   8  10
BRANCH   2  26
ATOM     25  O   UNL A   1     -27.702  -0.806  28.876  0.00  0.00    -0.270 OA
ATOM     26  N   UNL A   1     -25.456  -0.114  29.147  0.00  0.00    -0.255 N 
ATOM     27  C   UNL A   1     -26.891   0.123  29.309  0.00  0.00    +0.253 C 
BRANCH  27  32
ATOM     28  C   UNL A   1     -28.933   1.572  29.937  0.00  0.00    +0.005 C 
ATOM     29  C   UNL A   1     -29.473   2.829  30.308  0.00  0.00    +0.002 C 
ATOM     30  C   UNL A   1     -27.250   3.721  30.723  0.00  0.00    +0.089 C 
ATOM     31  C   UNL A   1     -28.631   3.920  30.621  0.00  0.00    +0.018 C 
ATOM     32  C   UNL A   1     -27.537   1.385  29.901  0.00  0.00    +0.055 C 
ATOM     33  C   UNL A   1     -26.718   2.441  30.376  0.00  0.00    +0.023 C 
ATOM     34  N   UNL A   1     -26.429   4.695  31.282  0.00  0.00    -0.128 NA
ENDBRANCH  27  32
BRANCH  26  35
ATOM     35  C   UNL A   1     -24.855  -1.012  30.143  0.00  0.00    +0.118 C 
BRANCH  35  36
ATOM     36  C   UNL A   1     -24.973  -2.505  29.788  0.00  0.00    -0.003 C 
ATOM     37  C   UNL A   1     -23.906  -3.173  29.146  0.00  0.00    -0.003 C 
ATOM     38  C   UNL A   1     -23.989  -4.549  28.853  0.00  0.00    -0.000 C 
ATOM     39  C   UNL A   1     -25.137  -5.280  29.205  0.00  0.00    -0.000 C 
ATOM     40  C   UNL A   1     -26.232  -4.611  29.784  0.00  0.00    -0.000 C 
ATOM     41  C   UNL A   1     -26.155  -3.232  30.065  0.00  0.00    -0.003 C 
ENDBRANCH  35  36
BRANCH  35  42
ATOM     42  C   UNL A   1     -25.387  -0.679  31.571  0.00  0.00    +0.096 C 
ATOM     43  C   UNL A   1     -25.189   0.773  32.028  0.00  0.00    +0.021 C 
ATOM     44  C   UNL A   1     -25.336   0.684  33.544  0.00  0.00    +0.020 C 
ATOM     45  C   UNL A   1     -24.829  -0.715  33.905  0.00  0.00    +0.089 C 
ATOM     46  N   UNL A   1     -24.758  -1.481  32.646  0.00  0.00    -0.217 NA
ENDBRANCH  35  42
ENDBRANCH  26  35
ENDBRANCH   2  26
TORSDOF 10
