REMARK  Name = outputs/IAG933/test6/raw/output_9716_IAG933_linker_design_.xyz
REMARK  12 active torsions:
REMARK  status: ('A' for Active; 'I' for Inactive)
REMARK    1  A    between atoms: C_1  and  C_2
REMARK    2  A    between atoms: C_1  and  C_8
REMARK    3  A    between atoms: C_1  and  C_41
REMARK    4  A    between atoms: C_13  and  N_38
REMARK    5  A    between atoms: C_14  and  C_15
REMARK    6  A    between atoms: C_21  and  O_22
REMARK    7  A    between atoms: O_22  and  C_23
REMARK    8  A    between atoms: C_23  and  C_24
REMARK    9  A    between atoms: S_29  and  C_32
REMARK   10  A    between atoms: C_32  and  N_38
REMARK   11  A    between atoms: O_33  and  C_34
REMARK   12  A    between atoms: O_33  and  C_41
REMARK                            x       y       z     vdW  Elec       q    Type
REMARK                         _______ _______ _______ _____ _____    ______ ____
ROOT
ATOM      1  C   UNL A   1     -24.657   0.777  28.331  0.00  0.00    +0.219 C 
ATOM      2  C   UNL A   1     -25.611  -0.093  29.240  0.00  0.00    +0.155 C 
ENDROOT
BRANCH   1   3
ATOM      3  S   UNL A   1     -22.898   1.183  27.924  0.00  0.00    +0.098 S 
ATOM      4  O   UNL A   1     -22.686  -0.029  29.038  0.00  0.00    -0.152 OA
ATOM      5  O   UNL A   1     -23.104   2.257  26.688  0.00  0.00    -0.152 OA
ATOM      6 CL   UNL A   1     -20.865   1.312  27.702  0.00  0.00    +0.062 Cl
ENDBRANCH   1   3
BRANCH   2   7
ATOM      7  C   UNL A   1     -24.855  -1.012  30.143  0.00  0.00    +0.098 C 
BRANCH   7   8
ATOM      8  C   UNL A   1     -24.973  -2.505  29.788  0.00  0.00    -0.014 C 
ATOM      9  C   UNL A   1     -23.906  -3.173  29.146  0.00  0.00    -0.004 C 
ATOM     10  C   UNL A   1     -23.989  -4.549  28.853  0.00  0.00    -0.000 C 
ATOM     11  C   UNL A   1     -25.137  -5.280  29.205  0.00  0.00    -0.000 C 
ATOM     12  C   UNL A   1     -26.232  -4.611  29.784  0.00  0.00    -0.000 C 
ATOM     13  C   UNL A   1     -26.155  -3.232  30.065  0.00  0.00    -0.004 C 
ENDBRANCH   7   8
BRANCH   7  14
ATOM     14  C   UNL A   1     -25.387  -0.679  31.571  0.00  0.00    +0.084 C 
ATOM     15  C   UNL A   1     -25.189   0.773  32.028  0.00  0.00    +0.020 C 
ATOM     16  C   UNL A   1     -25.336   0.684  33.544  0.00  0.00    +0.020 C 
ATOM     17  C   UNL A   1     -24.829  -0.715  33.905  0.00  0.00    +0.089 C 
ATOM     18  N   UNL A   1     -24.758  -1.481  32.646  0.00  0.00    -0.219 NA
ENDBRANCH   7  14
ENDBRANCH   2   7
BRANCH   2  19
ATOM     19  O   UNL A   1     -26.910   0.213  29.218  0.00  0.00    -0.469 OA
BRANCH  19  22
ATOM     20  N   UNL A   1     -30.321   0.768  27.520  0.00  0.00    -0.108 NA
ATOM     21  O   UNL A   1     -29.251  -1.173  28.296  0.00  0.00    -0.268 OA
ATOM     22  C   UNL A   1     -28.109   0.780  28.574  0.00  0.00    +0.261 C 
ATOM     23  N   UNL A   1     -30.132   2.026  28.025  0.00  0.00    -0.106 NA
ATOM     24  C   UNL A   1     -29.215  -0.011  28.091  0.00  0.00    +0.299 C 
ATOM     25  C   UNL A   1     -28.650   2.444  30.352  0.00  0.00    +0.025 C 
ATOM     26  C   UNL A   1     -29.009   2.104  28.897  0.00  0.00    +0.145 C 
ENDBRANCH  19  22
ENDBRANCH   2  19
BRANCH   1  27
ATOM     27  N   UNL A   1     -25.404   1.500  27.804  0.00  0.00    -0.211 NA
BRANCH  27  28
ATOM     28  C   UNL A   1     -25.688   1.614  26.461  0.00  0.00    +0.164 C 
ATOM     29  C   UNL A   1     -26.250   2.920  26.395  0.00  0.00    +0.075 C 
ATOM     30  C   UNL A   1     -27.438   3.091  25.645  0.00  0.00    +0.104 C 
ATOM     31  N   UNL A   1     -28.075   2.089  25.003  0.00  0.00    -0.212 NA
ATOM     32  C   UNL A   1     -27.543   0.849  25.079  0.00  0.00    +0.236 C 
ATOM     33  C   UNL A   1     -26.354   0.576  25.777  0.00  0.00    +0.260 C 
ATOM     34  F   UNL A   1     -25.860  -0.681  25.795  0.00  0.00    -0.225 F 
BRANCH  29  35
ATOM     35  C   UNL A   1     -25.642   4.093  27.123  0.00  0.00    +0.264 C 
ATOM     36  N   UNL A   1     -25.614   5.252  26.449  0.00  0.00    -0.200 NA
ATOM     37  C   UNL A   1     -25.026   6.479  26.963  0.00  0.00    +0.139 C 
ATOM     38  O   UNL A   1     -25.143   3.966  28.243  0.00  0.00    -0.269 OA
ENDBRANCH  29  35
BRANCH  32  39
ATOM     39  O   UNL A   1     -28.193  -0.208  24.477  0.00  0.00    -0.459 OA
BRANCH  39  40
ATOM     40  C   UNL A   1     -29.460   0.005  23.866  0.00  0.00    +0.242 C 
BRANCH  40  41
ATOM     41  C   UNL A   1     -30.065  -1.377  23.573  0.00  0.00    +0.229 C 
ATOM     42  O   UNL A   1     -30.729  -1.878  24.721  0.00  0.00    -0.216 OA
ENDBRANCH  40  41
ENDBRANCH  39  40
ENDBRANCH  32  39
ENDBRANCH  27  28
ENDBRANCH   1  27
TORSDOF 12
