REMARK  Name = outputs/IAG933/test6/raw/output_9718_IAG933_linker_design_.xyz
REMARK  21 active torsions:
REMARK  status: ('A' for Active; 'I' for Inactive)
REMARK    1  A    between atoms: C_1  and  C_2
REMARK    2  A    between atoms: C_1  and  C_8
REMARK    3  A    between atoms: C_1  and  C_31
REMARK    4  A    between atoms: C_9  and  C_58
REMARK    5  A    between atoms: C_13  and  C_40
REMARK    6  A    between atoms: C_14  and  C_15
REMARK    7  A    between atoms: C_21  and  O_22
REMARK    8  A    between atoms: O_22  and  C_23
REMARK    9  A    between atoms: C_23  and  C_24
REMARK   10  A    between atoms: C_28  and  O_42
REMARK   11  A    between atoms: C_30  and  N_50
REMARK   12  A    between atoms: N_33  and  C_51
REMARK   13  A    between atoms: O_35  and  C_41
REMARK   14  A    between atoms: O_35  and  C_53
REMARK   15  A    between atoms: C_36  and  C_53
REMARK   16  A    between atoms: C_38  and  C_46
REMARK   17  A    between atoms: C_40  and  N_50
REMARK   18  A    between atoms: O_42  and  C_56
REMARK   19  A    between atoms: C_46  and  C_58
REMARK   20  A    between atoms: C_56  and  C_58
REMARK   21  A    between atoms: C_57  and  C_59
REMARK                            x       y       z     vdW  Elec       q    Type
REMARK                         _______ _______ _______ _____ _____    ______ ____
ROOT
ATOM      1  C   UNL A   1     -25.387  -0.679  31.571  0.00  0.00    +0.077 C 
ATOM      2  C   UNL A   1     -25.189   0.773  32.028  0.00  0.00    +0.023 C 
ATOM      3  C   UNL A   1     -25.336   0.684  33.544  0.00  0.00    +0.020 C 
ATOM      4  C   UNL A   1     -24.829  -0.715  33.905  0.00  0.00    +0.089 C 
ATOM      5  N   UNL A   1     -24.758  -1.481  32.646  0.00  0.00    -0.219 NA
ENDROOT
BRANCH   1   6
ATOM      6  C   UNL A   1     -24.855  -1.012  30.143  0.00  0.00    +0.041 C 
BRANCH   6   7
ATOM      7  C   UNL A   1     -24.973  -2.505  29.788  0.00  0.00    -0.021 C 
ATOM      8  C   UNL A   1     -23.906  -3.173  29.146  0.00  0.00    -0.004 C 
ATOM      9  C   UNL A   1     -23.989  -4.549  28.853  0.00  0.00    -0.000 C 
ATOM     10  C   UNL A   1     -25.137  -5.280  29.205  0.00  0.00    -0.000 C 
ATOM     11  C   UNL A   1     -26.232  -4.611  29.784  0.00  0.00    -0.000 C 
ATOM     12  C   UNL A   1     -26.155  -3.232  30.065  0.00  0.00    -0.004 C 
ENDBRANCH   6   7
BRANCH   6  14
ATOM     13  C   UNL A   1     -23.675   1.351  29.472  0.00  0.00    +0.086 C 
ATOM     14  C   UNL A   1     -23.544  -0.124  29.896  0.00  0.00    +0.036 C 
ATOM     15  C   UNL A   1     -22.364   0.644  29.234  0.00  0.00    +0.083 C 
BRANCH  15  17
ATOM     16  C   UNL A   1     -20.473   1.813  27.883  0.00  0.00    -0.014 C 
ATOM     17  C   UNL A   1     -21.501   1.230  28.293  0.00  0.00    -0.077 C 
ENDBRANCH  15  17
BRANCH  13  18
ATOM     18  N   UNL A   1     -24.790   1.563  28.641  0.00  0.00    -0.214 NA
BRANCH  18  19
ATOM     19  C   UNL A   1     -24.483   1.272  27.144  0.00  0.00    +0.117 C 
BRANCH  19  20
ATOM     20  C   UNL A   1     -25.688   1.614  26.461  0.00  0.00    +0.033 C 
ATOM     21  C   UNL A   1     -26.250   2.920  26.395  0.00  0.00    +0.074 C 
ATOM     22  C   UNL A   1     -27.438   3.091  25.645  0.00  0.00    +0.106 C 
ATOM     23  N   UNL A   1     -28.075   2.089  25.003  0.00  0.00    -0.208 NA
ATOM     24  C   UNL A   1     -27.543   0.849  25.079  0.00  0.00    +0.253 C 
ATOM     25  C   UNL A   1     -26.354   0.576  25.777  0.00  0.00    +0.191 C 
ATOM     26  F   UNL A   1     -25.860  -0.681  25.795  0.00  0.00    -0.200 F 
BRANCH  21  27
ATOM     27  C   UNL A   1     -25.642   4.093  27.123  0.00  0.00    +0.266 C 
ATOM     28  N   UNL A   1     -25.614   5.252  26.449  0.00  0.00    -0.200 NA
ATOM     29  C   UNL A   1     -25.026   6.479  26.963  0.00  0.00    +0.139 C 
ATOM     30  O   UNL A   1     -25.143   3.966  28.243  0.00  0.00    -0.268 OA
ENDBRANCH  21  27
BRANCH  24  31
ATOM     31  O   UNL A   1     -28.193  -0.208  24.477  0.00  0.00    -0.456 OA
BRANCH  31  32
ATOM     32  C   UNL A   1     -29.460   0.005  23.866  0.00  0.00    +0.243 C 
BRANCH  32  33
ATOM     33  C   UNL A   1     -30.065  -1.377  23.573  0.00  0.00    +0.229 C 
ATOM     34  O   UNL A   1     -30.729  -1.878  24.721  0.00  0.00    -0.216 OA
ENDBRANCH  32  33
ENDBRANCH  31  32
ENDBRANCH  24  31
ENDBRANCH  19  20
ENDBRANCH  18  19
ENDBRANCH  13  18
ENDBRANCH   6  14
ENDBRANCH   1   6
BRANCH   2  35
ATOM     35  C   UNL A   1     -25.877   2.120  31.573  0.00  0.00    +0.066 C 
BRANCH  35  37
ATOM     36  O   UNL A   1     -27.917   2.663  33.090  0.00  0.00    -0.218 OA
ATOM     37  C   UNL A   1     -27.383   2.195  31.901  0.00  0.00    +0.177 C 
BRANCH  37  38
ATOM     38  C   UNL A   1     -28.212   1.490  30.992  0.00  0.00    +0.009 C 
ATOM     39  C   UNL A   1     -29.313   0.797  31.518  0.00  0.00    +0.015 C 
ATOM     40  C   UNL A   1     -27.826   1.336  29.661  0.00  0.00    -0.002 C 
ATOM     41  C   UNL A   1     -29.783  -0.292  30.789  0.00  0.00    +0.075 C 
ATOM     42  C   UNL A   1     -29.230  -0.643  29.559  0.00  0.00    +0.017 C 
ATOM     43  C   UNL A   1     -28.310   0.224  28.923  0.00  0.00    +0.001 C 
BRANCH  41  45
ATOM     44  N   UNL A   1     -32.586   0.111  32.020  0.00  0.00    -0.068 NA
ATOM     45  N   UNL A   1     -30.794  -1.088  31.398  0.00  0.00    -0.160 NA
ATOM     46  C   UNL A   1     -31.573  -0.654  32.408  0.00  0.00    +0.363 C 
ATOM     47  O   UNL A   1     -31.363  -0.880  33.595  0.00  0.00    -0.247 OA
ENDBRANCH  41  45
ENDBRANCH  37  38
ENDBRANCH  35  37
BRANCH  35  48
ATOM     48  C   UNL A   1     -25.512   3.716  31.616  0.00  0.00    +0.148 C 
BRANCH  48  49
ATOM     49  O   UNL A   1     -25.886   4.299  32.883  0.00  0.00    -0.330 OA
BRANCH  49  50
ATOM     50  C   UNL A   1     -25.390   5.593  33.403  0.00  0.00    +0.238 C 
ATOM     51  C   UNL A   1     -23.896   7.291  34.260  0.00  0.00    +0.292 C 
ATOM     52  C   UNL A   1     -23.739   7.105  32.710  0.00  0.00    +0.082 C 
ATOM     53  C   UNL A   1     -25.040   6.470  32.301  0.00  0.00    +0.068 C 
ATOM     54  O   UNL A   1     -24.653   6.302  34.708  0.00  0.00    -0.295 OA
BRANCH  51  55
ATOM     55  O   UNL A   1     -22.797   7.458  35.086  0.00  0.00    -0.422 OA
BRANCH  55  57
ATOM     56  O   UNL A   1     -20.835   8.131  33.584  0.00  0.00    -0.247 OA
ATOM     57  C   UNL A   1     -21.549   7.958  34.722  0.00  0.00    +0.353 C 
BRANCH  57  59
ATOM     58  O   UNL A   1     -19.670   9.197  35.637  0.00  0.00    -0.208 OA
ATOM     59  C   UNL A   1     -20.887   8.628  35.965  0.00  0.00    +0.291 C 
ENDBRANCH  57  59
ENDBRANCH  55  57
ENDBRANCH  51  55
ENDBRANCH  49  50
ENDBRANCH  48  49
ENDBRANCH  35  48
ENDBRANCH   2  35
TORSDOF 21
