REMARK  Name = outputs/IAG933/test6/raw/output_9719_IAG933_linker_design_.xyz
REMARK  14 active torsions:
REMARK  status: ('A' for Active; 'I' for Inactive)
REMARK    1  A    between atoms: C_1  and  C_2
REMARK    2  A    between atoms: C_1  and  C_8
REMARK    3  A    between atoms: C_1  and  C_32
REMARK    4  A    between atoms: C_13  and  C_41
REMARK    5  A    between atoms: C_14  and  C_15
REMARK    6  A    between atoms: C_21  and  O_22
REMARK    7  A    between atoms: O_22  and  C_23
REMARK    8  A    between atoms: C_23  and  C_24
REMARK    9  A    between atoms: O_28  and  C_42
REMARK   10  A    between atoms: C_31  and  C_46
REMARK   11  A    between atoms: N_33  and  C_41
REMARK   12  A    between atoms: C_39  and  O_44
REMARK   13  A    between atoms: C_41  and  C_45
REMARK   14  A    between atoms: C_42  and  C_45
REMARK                            x       y       z     vdW  Elec       q    Type
REMARK                         _______ _______ _______ _____ _____    ______ ____
ROOT
ATOM      1  C   UNL A   1     -28.074   0.736  29.487  0.00  0.00    +0.040 C 
ATOM      2  C   UNL A   1     -25.779  -0.135  29.249  0.00  0.00    +0.063 C 
ATOM      3  N   UNL A   1     -25.760   1.323  28.869  0.00  0.00    -0.274 NA
ATOM      4  C   UNL A   1     -27.075   1.881  29.305  0.00  0.00    +0.076 C 
ATOM      5  C   UNL A   1     -27.324  -0.507  29.038  0.00  0.00    +0.022 C 
ENDROOT
BRANCH   1  11
ATOM      6  C   UNL A   1     -30.925   0.696  26.994  0.00  0.00    +0.003 C 
ATOM      7  C   UNL A   1     -30.044   2.067  29.221  0.00  0.00    +0.033 C 
ATOM      8  C   UNL A   1     -31.448   1.972  27.304  0.00  0.00    +0.037 C 
ATOM      9  C   UNL A   1     -31.008   2.643  28.432  0.00  0.00    +0.138 C 
ATOM     10  C   UNL A   1     -29.915   0.117  27.776  0.00  0.00    -0.004 C 
ATOM     11  C   UNL A   1     -29.378   0.942  28.796  0.00  0.00    -0.018 C 
BRANCH   9  13
ATOM     12  C   UNL A   1     -32.570   4.287  27.913  0.00  0.00    +0.253 C 
ATOM     13  O   UNL A   1     -31.409   3.903  28.704  0.00  0.00    -0.471 OA
ENDBRANCH   9  13
ENDBRANCH   1  11
BRANCH   2  14
ATOM     14  C   UNL A   1     -24.855  -1.012  30.143  0.00  0.00    +0.053 C 
BRANCH  14  15
ATOM     15  C   UNL A   1     -24.973  -2.505  29.788  0.00  0.00    -0.020 C 
ATOM     16  C   UNL A   1     -23.906  -3.173  29.146  0.00  0.00    -0.004 C 
ATOM     17  C   UNL A   1     -23.989  -4.549  28.853  0.00  0.00    -0.000 C 
ATOM     18  C   UNL A   1     -25.137  -5.280  29.205  0.00  0.00    -0.000 C 
ATOM     19  C   UNL A   1     -26.232  -4.611  29.784  0.00  0.00    -0.000 C 
ATOM     20  C   UNL A   1     -26.155  -3.232  30.065  0.00  0.00    -0.004 C 
ENDBRANCH  14  15
BRANCH  14  21
ATOM     21  C   UNL A   1     -25.387  -0.679  31.571  0.00  0.00    +0.078 C 
ATOM     22  C   UNL A   1     -25.189   0.773  32.028  0.00  0.00    +0.019 C 
ATOM     23  C   UNL A   1     -25.336   0.684  33.544  0.00  0.00    +0.020 C 
ATOM     24  C   UNL A   1     -24.829  -0.715  33.905  0.00  0.00    +0.089 C 
ATOM     25  N   UNL A   1     -24.758  -1.481  32.646  0.00  0.00    -0.219 NA
ENDBRANCH  14  21
ENDBRANCH   2  14
BRANCH   3  26
ATOM     26  C   UNL A   1     -25.127   1.128  27.733  0.00  0.00    +0.076 C 
BRANCH  26  27
ATOM     27  C   UNL A   1     -25.688   1.614  26.461  0.00  0.00    +0.085 C 
ATOM     28  C   UNL A   1     -26.250   2.920  26.395  0.00  0.00    +0.056 C 
ATOM     29  C   UNL A   1     -27.438   3.091  25.645  0.00  0.00    +0.102 C 
ATOM     30  N   UNL A   1     -28.075   2.089  25.003  0.00  0.00    -0.212 NA
ATOM     31  C   UNL A   1     -27.543   0.849  25.079  0.00  0.00    +0.234 C 
ATOM     32  C   UNL A   1     -26.354   0.576  25.777  0.00  0.00    +0.241 C 
ATOM     33  F   UNL A   1     -25.860  -0.681  25.795  0.00  0.00    -0.227 F 
BRANCH  28  34
ATOM     34  C   UNL A   1     -25.642   4.093  27.123  0.00  0.00    +0.263 C 
ATOM     35  N   UNL A   1     -25.614   5.252  26.449  0.00  0.00    -0.200 NA
ATOM     36  C   UNL A   1     -25.026   6.479  26.963  0.00  0.00    +0.139 C 
ATOM     37  O   UNL A   1     -25.143   3.966  28.243  0.00  0.00    -0.269 OA
ENDBRANCH  28  34
BRANCH  31  38
ATOM     38  O   UNL A   1     -28.193  -0.208  24.477  0.00  0.00    -0.459 OA
BRANCH  38  39
ATOM     39  C   UNL A   1     -29.460   0.005  23.866  0.00  0.00    +0.242 C 
BRANCH  39  40
ATOM     40  C   UNL A   1     -30.065  -1.377  23.573  0.00  0.00    +0.229 C 
ATOM     41  O   UNL A   1     -30.729  -1.878  24.721  0.00  0.00    -0.216 OA
ENDBRANCH  39  40
ENDBRANCH  38  39
ENDBRANCH  31  38
ENDBRANCH  26  27
BRANCH  26  42
ATOM     42  C   UNL A   1     -23.875   0.441  27.564  0.00  0.00    +0.126 C 
BRANCH  42  44
ATOM     43  O   UNL A   1     -22.401   0.083  29.384  0.00  0.00    -0.250 OA
ATOM     44  C   UNL A   1     -22.756   0.680  28.568  0.00  0.00    +0.319 C 
BRANCH  44  45
ATOM     45  O   UNL A   1     -22.225   1.880  27.908  0.00  0.00    -0.444 OA
ATOM     46  C   UNL A   1     -20.907   1.605  27.447  0.00  0.00    +0.256 C 
ENDBRANCH  44  45
ENDBRANCH  42  44
ENDBRANCH  26  42
ENDBRANCH   3  26
TORSDOF 14
