MODEL 971
MODEL 1
REMARK VINA RESULT:    -6.738      0.000      0.000
REMARK INTER + INTRA:          -7.515
REMARK INTER:                  -7.131
REMARK INTRA:                  -0.384
REMARK UNBOUND:                -0.384
REMARK  Name = No_971-gen_results/8p0m/2024-11-27-11-27-31/
REMARK  1 active torsions:
REMARK  status: ('A' for Active; 'I' for Inactive)
REMARK    1  A    between atoms: C_4  and  C_6
REMARK                            x       y       z     vdW  Elec       q    Type
REMARK                         _______ _______ _______ _____ _____    ______ ____
ROOT
ATOM      1  C   UNL A   1     -23.753   0.662  27.627  0.00  0.00    +0.030 A 
ATOM      2  C   UNL A   1     -24.362  -0.337  27.934  0.00  0.00    +0.140 A 
ATOM      3  F   UNL A   1     -25.506  -0.579  27.465  0.00  0.00    -0.204 F 
ATOM      4  C   UNL A   1     -23.836  -1.468  28.699  0.00  0.00    +0.028 A 
ATOM      5  C   UNL A   1     -22.506   0.938  28.350  0.00  0.00    +0.002 A 
ATOM      6  C   UNL A   1     -21.923  -0.112  29.007  0.00  0.00    +0.000 A 
ATOM      7  C   UNL A   1     -22.601  -1.321  29.263  0.00  0.00    +0.002 A 
ENDROOT
BRANCH   4   8
ATOM      8  C   UNL A   1     -24.562  -2.687  28.914  0.00  0.00    +0.002 A 
ATOM      9  C   UNL A   1     -23.983  -3.903  28.631  0.00  0.00    +0.000 A 
ATOM     10  C   UNL A   1     -24.716  -5.106  28.937  0.00  0.00    +0.000 A 
ATOM     11  C   UNL A   1     -25.936  -4.994  29.559  0.00  0.00    +0.000 A 
ATOM     12  C   UNL A   1     -25.816  -2.938  29.596  0.00  0.00    +0.000 A 
ATOM     13  C   UNL A   1     -26.507  -3.937  29.878  0.00  0.00    +0.000 A 
ENDBRANCH   4   8
TORSDOF 1
ENDMDL
ENDMDL
