REMARK  Name = outputs/IAG933/test6/raw/output_972_IAG933_linker_design_.xyz
REMARK  7 active torsions:
REMARK  status: ('A' for Active; 'I' for Inactive)
REMARK    1  A    between atoms: C_1  and  C_2
REMARK    2  A    between atoms: C_1  and  C_8
REMARK    3  A    between atoms: C_1  and  C_33
REMARK    4  A    between atoms: C_21  and  O_22
REMARK    5  A    between atoms: O_22  and  C_23
REMARK    6  A    between atoms: C_23  and  C_24
REMARK    7  A    between atoms: C_34  and  C_36
REMARK                            x       y       z     vdW  Elec       q    Type
REMARK                         _______ _______ _______ _____ _____    ______ ____
ROOT
ATOM      1  C   UNL A   1     -25.688   1.614  26.461  0.00  0.00    +0.083 C 
ATOM      2  C   UNL A   1     -26.250   2.920  26.395  0.00  0.00    +0.053 C 
ATOM      3  C   UNL A   1     -25.642   4.093  27.123  0.00  0.00    +0.218 C 
ATOM      4  N   UNL A   1     -25.614   5.252  26.449  0.00  0.00    -0.236 NA
ATOM      5  C   UNL A   1     -25.026   6.479  26.963  0.00  0.00    +0.155 C 
ATOM      6  O   UNL A   1     -25.143   3.966  28.243  0.00  0.00    -0.463 OA
ATOM      7  C   UNL A   1     -27.438   3.091  25.645  0.00  0.00    +0.102 C 
ATOM      8  N   UNL A   1     -28.075   2.089  25.003  0.00  0.00    -0.212 NA
ATOM      9  C   UNL A   1     -27.543   0.849  25.079  0.00  0.00    +0.234 C 
ATOM     10  C   UNL A   1     -26.354   0.576  25.777  0.00  0.00    +0.241 C 
ATOM     11  F   UNL A   1     -25.860  -0.681  25.795  0.00  0.00    -0.227 F 
ATOM     12  N   UNL A   1     -25.354   1.335  29.105  0.00  0.00    -0.276 N 
ATOM     13  C   UNL A   1     -26.231   4.865  30.193  0.00  0.00    +0.049 C 
ATOM     14  F   UNL A   1     -21.277   1.258  28.032  0.00  0.00    -0.236 F 
ATOM     15  F   UNL A   1     -22.355  -0.125  29.914  0.00  0.00    -0.233 F 
ATOM     16  C   UNL A   1     -25.699   0.000  29.218  0.00  0.00    +0.231 C 
ATOM     17  C   UNL A   1     -24.010   1.190  26.731  0.00  0.00    +0.135 C 
ATOM     18  C   UNL A   1     -22.540   0.654  27.874  0.00  0.00    +0.177 C 
ATOM     19  C   UNL A   1     -27.589   2.473  29.858  0.00  0.00    +0.025 C 
ATOM     20  C   UNL A   1     -26.090   2.529  29.477  0.00  0.00    +0.115 C 
ATOM     21  C   UNL A   1     -23.209   0.700  29.248  0.00  0.00    +0.209 C 
ATOM     22  C   UNL A   1     -23.951   1.861  28.942  0.00  0.00    +0.114 C 
ATOM     23  C   UNL A   1     -23.601   2.114  27.806  0.00  0.00    +0.068 C 
ATOM     24  O   UNL A   1     -26.749  -0.521  28.867  0.00  0.00    -0.275 OA
ATOM     25  C   UNL A   1     -25.495   3.733  29.538  0.00  0.00    +0.185 C 
ENDROOT
BRANCH  17  27
ATOM     26  O   UNL A   1     -23.506   0.969  24.368  0.00  0.00    -0.246 OA
ATOM     27  C   UNL A   1     -23.054   1.242  25.532  0.00  0.00    +0.367 C 
ATOM     28  O   UNL A   1     -21.913   1.928  25.450  0.00  0.00    -0.246 OA
ENDBRANCH  17  27
BRANCH  16  29
ATOM     29  C   UNL A   1     -24.855  -1.012  30.143  0.00  0.00    +0.115 C 
BRANCH  29  30
ATOM     30  C   UNL A   1     -24.973  -2.505  29.788  0.00  0.00    -0.013 C 
ATOM     31  C   UNL A   1     -23.906  -3.173  29.146  0.00  0.00    -0.004 C 
ATOM     32  C   UNL A   1     -23.989  -4.549  28.853  0.00  0.00    -0.000 C 
ATOM     33  C   UNL A   1     -25.137  -5.280  29.205  0.00  0.00    -0.000 C 
ATOM     34  C   UNL A   1     -26.232  -4.611  29.784  0.00  0.00    -0.000 C 
ATOM     35  C   UNL A   1     -26.155  -3.232  30.065  0.00  0.00    -0.004 C 
ENDBRANCH  29  30
BRANCH  29  36
ATOM     36  C   UNL A   1     -25.387  -0.679  31.571  0.00  0.00    +0.086 C 
ATOM     37  C   UNL A   1     -25.189   0.773  32.028  0.00  0.00    +0.020 C 
ATOM     38  C   UNL A   1     -25.336   0.684  33.544  0.00  0.00    +0.020 C 
ATOM     39  C   UNL A   1     -24.829  -0.715  33.905  0.00  0.00    +0.089 C 
ATOM     40  N   UNL A   1     -24.758  -1.481  32.646  0.00  0.00    -0.219 NA
ENDBRANCH  29  36
ENDBRANCH  16  29
BRANCH   9  41
ATOM     41  O   UNL A   1     -28.193  -0.208  24.477  0.00  0.00    -0.459 OA
BRANCH  41  42
ATOM     42  C   UNL A   1     -29.460   0.005  23.866  0.00  0.00    +0.242 C 
BRANCH  42  43
ATOM     43  C   UNL A   1     -30.065  -1.377  23.573  0.00  0.00    +0.229 C 
ATOM     44  O   UNL A   1     -30.729  -1.878  24.721  0.00  0.00    -0.216 OA
ENDBRANCH  42  43
ENDBRANCH  41  42
ENDBRANCH   9  41
TORSDOF 7
