REMARK  Name = outputs/IAG933/test6/raw/output_9721_IAG933_linker_design_.xyz
REMARK  9 active torsions:
REMARK  status: ('A' for Active; 'I' for Inactive)
REMARK    1  A    between atoms: C_1  and  C_2
REMARK    2  A    between atoms: C_13  and  C_45
REMARK    3  A    between atoms: C_14  and  C_15
REMARK    4  A    between atoms: C_21  and  O_22
REMARK    5  A    between atoms: O_22  and  C_23
REMARK    6  A    between atoms: C_23  and  C_24
REMARK    7  A    between atoms: C_31  and  N_34
REMARK    8  A    between atoms: O_35  and  C_40
REMARK    9  A    between atoms: C_37  and  C_43
REMARK                            x       y       z     vdW  Elec       q    Type
REMARK                         _______ _______ _______ _____ _____    ______ ____
ROOT
ATOM      1  C   UNL A   1     -24.855  -1.012  30.143  0.00  0.00    +0.114 C 
ATOM      2  C   UNL A   1     -25.387  -0.679  31.571  0.00  0.00    +0.097 C 
ATOM      3  C   UNL A   1     -25.189   0.773  32.028  0.00  0.00    +0.040 C 
ATOM      4  C   UNL A   1     -25.336   0.684  33.544  0.00  0.00    +0.022 C 
ATOM      5  C   UNL A   1     -24.829  -0.715  33.905  0.00  0.00    +0.089 C 
ATOM      6  N   UNL A   1     -24.758  -1.481  32.646  0.00  0.00    -0.217 NA
ATOM      7  O   UNL A   1     -22.473   0.893  30.284  0.00  0.00    -0.275 OA
ATOM      8  C   UNL A   1     -23.015   0.316  29.523  0.00  0.00    +0.226 C 
ATOM      9  N   UNL A   1     -24.243  -0.037  29.380  0.00  0.00    -0.276 N 
ATOM     10  C   UNL A   1     -25.345   1.555  30.607  0.00  0.00    +0.100 C 
ATOM     11  C   UNL A   1     -22.804   0.244  28.163  0.00  0.00    +0.088 C 
ATOM     12  C   UNL A   1     -23.363   1.122  27.309  0.00  0.00    +0.044 C 
ATOM     13  C   UNL A   1     -25.185   1.044  28.970  0.00  0.00    +0.094 C 
ATOM     14  C   UNL A   1     -24.736   1.292  27.445  0.00  0.00    +0.030 C 
ENDROOT
BRANCH  14  15
ATOM     15  C   UNL A   1     -25.688   1.614  26.461  0.00  0.00    +0.072 C 
ATOM     16  C   UNL A   1     -26.250   2.920  26.395  0.00  0.00    +0.055 C 
ATOM     17  C   UNL A   1     -27.438   3.091  25.645  0.00  0.00    +0.102 C 
ATOM     18  N   UNL A   1     -28.075   2.089  25.003  0.00  0.00    -0.212 NA
ATOM     19  C   UNL A   1     -27.543   0.849  25.079  0.00  0.00    +0.234 C 
ATOM     20  C   UNL A   1     -26.354   0.576  25.777  0.00  0.00    +0.240 C 
ATOM     21  F   UNL A   1     -25.860  -0.681  25.795  0.00  0.00    -0.227 F 
BRANCH  16  22
ATOM     22  C   UNL A   1     -25.642   4.093  27.123  0.00  0.00    +0.262 C 
ATOM     23  N   UNL A   1     -25.614   5.252  26.449  0.00  0.00    -0.200 NA
ATOM     24  C   UNL A   1     -25.026   6.479  26.963  0.00  0.00    +0.139 C 
ATOM     25  O   UNL A   1     -25.143   3.966  28.243  0.00  0.00    -0.269 OA
ENDBRANCH  16  22
BRANCH  19  26
ATOM     26  O   UNL A   1     -28.193  -0.208  24.477  0.00  0.00    -0.459 OA
BRANCH  26  27
ATOM     27  C   UNL A   1     -29.460   0.005  23.866  0.00  0.00    +0.242 C 
BRANCH  27  28
ATOM     28  C   UNL A   1     -30.065  -1.377  23.573  0.00  0.00    +0.229 C 
ATOM     29  O   UNL A   1     -30.729  -1.878  24.721  0.00  0.00    -0.216 OA
ENDBRANCH  27  28
ENDBRANCH  26  27
ENDBRANCH  19  26
ENDBRANCH  14  15
BRANCH  10  30
ATOM     30  N   UNL A   1     -26.312   2.715  30.696  0.00  0.00    -0.223 N 
ATOM     31  C   UNL A   1     -25.987   3.601  31.650  0.00  0.00    +0.406 C 
ATOM     32  O   UNL A   1     -26.667   3.451  32.859  0.00  0.00    -0.434 OA
ATOM     33  C   UNL A   1     -27.680   3.201  30.255  0.00  0.00    +0.200 C 
ATOM     34  C   UNL A   1     -28.054   3.277  32.748  0.00  0.00    +0.214 C 
ATOM     35  O   UNL A   1     -25.224   4.516  31.350  0.00  0.00    -0.226 OA
ATOM     36  C   UNL A   1     -28.599   2.727  31.441  0.00  0.00    +0.099 C 
BRANCH  33  38
ATOM     37  C   UNL A   1     -29.181   4.756  29.310  0.00  0.00    +0.176 C 
ATOM     38  O   UNL A   1     -27.975   4.628  30.091  0.00  0.00    -0.335 OA
ENDBRANCH  33  38
ENDBRANCH  10  30
BRANCH   1  39
ATOM     39  C   UNL A   1     -24.973  -2.505  29.788  0.00  0.00    -0.003 C 
ATOM     40  C   UNL A   1     -23.906  -3.173  29.146  0.00  0.00    -0.003 C 
ATOM     41  C   UNL A   1     -23.989  -4.549  28.853  0.00  0.00    -0.000 C 
ATOM     42  C   UNL A   1     -25.137  -5.280  29.205  0.00  0.00    -0.000 C 
ATOM     43  C   UNL A   1     -26.232  -4.611  29.784  0.00  0.00    -0.000 C 
ATOM     44  C   UNL A   1     -26.155  -3.232  30.065  0.00  0.00    -0.003 C 
ENDBRANCH   1  39
BRANCH  12  46
ATOM     45  F   UNL A   1     -21.197   1.700  26.959  0.00  0.00    -0.237 F 
ATOM     46  C   UNL A   1     -22.493   1.652  26.483  0.00  0.00    +0.162 C 
ATOM     47  C   UNL A   1     -22.696   2.311  25.187  0.00  0.00    +0.038 C 
ENDBRANCH  12  46
TORSDOF 9
