REMARK  Name = outputs/IAG933/test6/raw/output_9723_IAG933_linker_design_.xyz
REMARK  13 active torsions:
REMARK  status: ('A' for Active; 'I' for Inactive)
REMARK    1  A    between atoms: C_1  and  C_2
REMARK    2  A    between atoms: C_1  and  C_8
REMARK    3  A    between atoms: C_1  and  C_37
REMARK    4  A    between atoms: C_13  and  C_44
REMARK    5  A    between atoms: C_14  and  C_15
REMARK    6  A    between atoms: C_21  and  O_22
REMARK    7  A    between atoms: O_22  and  C_23
REMARK    8  A    between atoms: C_23  and  C_24
REMARK    9  A    between atoms: C_29  and  C_39
REMARK   10  A    between atoms: C_33  and  C_43
REMARK   11  A    between atoms: N_36  and  C_37
REMARK   12  A    between atoms: C_37  and  C_39
REMARK   13  A    between atoms: C_43  and  C_46
REMARK                            x       y       z     vdW  Elec       q    Type
REMARK                         _______ _______ _______ _____ _____    ______ ____
ROOT
ATOM      1  C   UNL A   1     -22.956   0.923  28.604  0.00  0.00    +0.260 C 
ATOM      2 CL   UNL A   1     -22.694   1.960  24.896  0.00  0.00    -0.109 Cl
ATOM      3  N   UNL A   1     -24.262   0.814  28.305  0.00  0.00    -0.275 N 
ATOM      4  C   UNL A   1     -22.206   1.425  27.457  0.00  0.00    +0.253 C 
ATOM      5  F   UNL A   1     -20.872   1.633  27.380  0.00  0.00    -0.226 F 
ATOM      6  O   UNL A   1     -22.402   0.664  29.669  0.00  0.00    -0.272 OA
ATOM      7  C   UNL A   1     -24.411   1.479  27.093  0.00  0.00    +0.118 C 
ATOM      8  C   UNL A   1     -23.112   1.745  26.491  0.00  0.00    +0.144 C 
ENDROOT
BRANCH   7   9
ATOM      9  C   UNL A   1     -25.688   1.614  26.461  0.00  0.00    +0.035 C 
ATOM     10  C   UNL A   1     -26.250   2.920  26.395  0.00  0.00    +0.074 C 
ATOM     11  C   UNL A   1     -27.438   3.091  25.645  0.00  0.00    +0.106 C 
ATOM     12  N   UNL A   1     -28.075   2.089  25.003  0.00  0.00    -0.208 NA
ATOM     13  C   UNL A   1     -27.543   0.849  25.079  0.00  0.00    +0.253 C 
ATOM     14  C   UNL A   1     -26.354   0.576  25.777  0.00  0.00    +0.191 C 
ATOM     15  F   UNL A   1     -25.860  -0.681  25.795  0.00  0.00    -0.200 F 
BRANCH  10  16
ATOM     16  C   UNL A   1     -25.642   4.093  27.123  0.00  0.00    +0.266 C 
ATOM     17  N   UNL A   1     -25.614   5.252  26.449  0.00  0.00    -0.200 NA
ATOM     18  C   UNL A   1     -25.026   6.479  26.963  0.00  0.00    +0.139 C 
ATOM     19  O   UNL A   1     -25.143   3.966  28.243  0.00  0.00    -0.268 OA
ENDBRANCH  10  16
BRANCH  13  20
ATOM     20  O   UNL A   1     -28.193  -0.208  24.477  0.00  0.00    -0.456 OA
BRANCH  20  21
ATOM     21  C   UNL A   1     -29.460   0.005  23.866  0.00  0.00    +0.243 C 
BRANCH  21  22
ATOM     22  C   UNL A   1     -30.065  -1.377  23.573  0.00  0.00    +0.229 C 
ATOM     23  O   UNL A   1     -30.729  -1.878  24.721  0.00  0.00    -0.216 OA
ENDBRANCH  21  22
ENDBRANCH  20  21
ENDBRANCH  13  20
ENDBRANCH   7   9
BRANCH   3  24
ATOM     24  C   UNL A   1     -25.380  -0.140  28.867  0.00  0.00    +0.081 C 
BRANCH  24  25
ATOM     25  C   UNL A   1     -24.855  -1.012  30.143  0.00  0.00    +0.057 C 
BRANCH  25  26
ATOM     26  C   UNL A   1     -24.973  -2.505  29.788  0.00  0.00    -0.019 C 
ATOM     27  C   UNL A   1     -23.906  -3.173  29.146  0.00  0.00    -0.004 C 
ATOM     28  C   UNL A   1     -23.989  -4.549  28.853  0.00  0.00    -0.000 C 
ATOM     29  C   UNL A   1     -25.137  -5.280  29.205  0.00  0.00    -0.000 C 
ATOM     30  C   UNL A   1     -26.232  -4.611  29.784  0.00  0.00    -0.000 C 
ATOM     31  C   UNL A   1     -26.155  -3.232  30.065  0.00  0.00    -0.004 C 
ENDBRANCH  25  26
BRANCH  25  32
ATOM     32  C   UNL A   1     -25.387  -0.679  31.571  0.00  0.00    +0.078 C 
ATOM     33  C   UNL A   1     -25.189   0.773  32.028  0.00  0.00    +0.019 C 
ATOM     34  C   UNL A   1     -25.336   0.684  33.544  0.00  0.00    +0.020 C 
ATOM     35  C   UNL A   1     -24.829  -0.715  33.905  0.00  0.00    +0.089 C 
ATOM     36  N   UNL A   1     -24.758  -1.481  32.646  0.00  0.00    -0.219 NA
ENDBRANCH  25  32
ENDBRANCH  24  25
BRANCH  24  37
ATOM     37  C   UNL A   1     -27.178  -0.379  28.980  0.00  0.00    +0.020 C 
BRANCH  37  39
ATOM     38  C   UNL A   1     -27.672   1.968  29.715  0.00  0.00    +0.000 C 
ATOM     39  C   UNL A   1     -28.285   0.527  29.822  0.00  0.00    +0.002 C 
ATOM     40  C   UNL A   1     -29.499   0.697  30.719  0.00  0.00    +0.001 C 
ATOM     41  C   UNL A   1     -28.894   2.946  29.937  0.00  0.00    +0.001 C 
ATOM     42  C   UNL A   1     -29.915   2.155  30.243  0.00  0.00    +0.011 C 
BRANCH  42  43
ATOM     43  C   UNL A   1     -30.855   1.851  29.045  0.00  0.00    +0.114 C 
BRANCH  43  45
ATOM     44  O   UNL A   1     -30.656  -0.418  28.101  0.00  0.00    -0.246 OA
ATOM     45  C   UNL A   1     -31.071   0.740  27.899  0.00  0.00    +0.365 C 
ATOM     46  O   UNL A   1     -31.604   1.186  26.928  0.00  0.00    -0.246 OA
ENDBRANCH  43  45
ENDBRANCH  42  43
ENDBRANCH  37  39
ENDBRANCH  24  37
ENDBRANCH   3  24
TORSDOF 13
