MODEL 972
MODEL 1
REMARK VINA RESULT:    -7.329      0.000      0.000
REMARK INTER + INTRA:          -9.921
REMARK INTER:                  -9.042
REMARK INTRA:                  -0.879
REMARK UNBOUND:                -0.879
REMARK  Name = No_972-gen_results/8p0m/2024-11-27-11-27-31/
REMARK  4 active torsions:
REMARK  status: ('A' for Active; 'I' for Inactive)
REMARK    1  A    between atoms: C_1  and  C_2
REMARK    2  A    between atoms: C_5  and  C_9
REMARK    3  A    between atoms: N_8  and  C_13
REMARK    4  A    between atoms: C_16  and  C_19
REMARK                            x       y       z     vdW  Elec       q    Type
REMARK                         _______ _______ _______ _____ _____    ______ ____
ROOT
ATOM      1  C   UNL A   1     -30.239   1.277  23.842  0.00  0.00    +0.269 C 
ATOM      2  N   UNL A   1     -28.912   1.887  23.765  0.00  0.00    -0.175 NA
ATOM      3  O   UNL A   1     -30.647   1.327  25.063  0.00  0.00    -0.268 OA
ENDROOT
BRANCH   1   4
ATOM      4  C   UNL A   1     -31.007   1.435  22.922  0.00  0.00    +0.055 A 
ATOM      5  C   UNL A   1     -31.983   0.553  22.588  0.00  0.00    +0.005 A 
ATOM      6  C   UNL A   1     -32.933   0.733  21.467  0.00  0.00    +0.005 A 
ATOM      7  C   UNL A   1     -32.813   1.940  20.703  0.00  0.00    +0.059 A 
ATOM      8  C   UNL A   1     -31.833   2.866  21.127  0.00  0.00    +0.005 A 
ATOM      9  C   UNL A   1     -30.985   2.630  22.178  0.00  0.00    +0.005 A 
BRANCH   7  10
ATOM     10  C   UNL A   1     -33.679   2.237  19.602  0.00  0.00    +0.297 C 
ATOM     11  N   UNL A   1     -33.317   2.792  18.513  0.00  0.00    -0.102 NA
ATOM     12  O   UNL A   1     -34.877   1.748  19.677  0.00  0.00    -0.264 OA
ENDBRANCH   7  10
ENDBRANCH   1   4
BRANCH   2  13
ATOM     13  C   UNL A   1     -27.964   1.717  24.320  0.00  0.00    +0.074 A 
ATOM     14  C   UNL A   1     -27.441   0.406  24.402  0.00  0.00    +0.017 A 
ATOM     15  C   UNL A   1     -26.230   0.207  25.146  0.00  0.00    +0.001 A 
ATOM     16  C   UNL A   1     -25.613   1.261  25.820  0.00  0.00    +0.000 A 
ATOM     17  C   UNL A   1     -26.143   2.547  25.747  0.00  0.00    +0.001 A 
ATOM     18  C   UNL A   1     -27.296   2.716  25.108  0.00  0.00    +0.017 A 
BRANCH  16  19
ATOM     19  C   UNL A   1     -24.354   1.060  26.598  0.00  0.00    +0.000 A 
ATOM     20  C   UNL A   1     -23.335   1.972  26.285  0.00  0.00    +0.000 A 
ATOM     21  C   UNL A   1     -22.249   1.873  27.016  0.00  0.00    +0.000 A 
ATOM     22  C   UNL A   1     -24.256   0.084  27.533  0.00  0.00    +0.000 A 
ATOM     23  C   UNL A   1     -23.097  -0.079  28.274  0.00  0.00    +0.000 A 
ATOM     24  C   UNL A   1     -22.063   0.836  28.021  0.00  0.00    +0.000 A 
ENDBRANCH  16  19
ENDBRANCH   2  13
TORSDOF 4
ENDMDL
ENDMDL
