REMARK  Name = No_973-gen_results/8p0m/2024-11-27-11-27-31/
REMARK  2 active torsions:
REMARK  status: ('A' for Active; 'I' for Inactive)
REMARK    1  A    between atoms: C_2  and  C_8
REMARK    2  A    between atoms: C_5  and  O_7
REMARK                            x       y       z     vdW  Elec       q    Type
REMARK                         _______ _______ _______ _____ _____    ______ ____
ROOT
ATOM      1  C   UNL A   1     -28.016  -0.814  28.878  0.00  0.00    +0.003 A 
ATOM      2  C   UNL A   1     -27.064  -0.119  28.608  0.00  0.00    +0.000 A 
ATOM      3  C   UNL A   1     -26.972   0.714  27.506  0.00  0.00    +0.003 A 
ATOM      4  C   UNL A   1     -28.105   0.774  26.642  0.00  0.00    +0.037 A 
ATOM      5  C   UNL A   1     -29.201   0.104  27.053  0.00  0.00    +0.139 A 
ATOM      6  C   UNL A   1     -29.210  -0.603  28.185  0.00  0.00    +0.037 A 
ENDROOT
BRANCH   2   7
ATOM      7  C   UNL A   1     -25.719  -0.221  29.401  0.00  0.00    +0.000 A 
ATOM      8  C   UNL A   1     -25.378  -1.098  29.981  0.00  0.00    +0.000 A 
ATOM      9  C   UNL A   1     -24.102  -1.230  30.741  0.00  0.00    +0.000 A 
ATOM     10  C   UNL A   1     -23.201  -0.176  30.649  0.00  0.00    +0.000 A 
ATOM     11  C   UNL A   1     -23.575   0.940  29.833  0.00  0.00    +0.000 A 
ATOM     12  C   UNL A   1     -24.849   0.970  29.169  0.00  0.00    +0.000 A 
ENDBRANCH   2   7
BRANCH   5  13
ATOM     13  O   UNL A   1     -30.299   0.228  26.257  0.00  0.00    -0.471 OA
ATOM     14  C   UNL A   1     -30.249  -0.261  25.027  0.00  0.00    +0.253 C 
ENDBRANCH   5  13
TORSDOF 2
