REMARK  Name = outputs/IAG933/test6/raw/output_9731_IAG933_linker_design_.xyz
REMARK  13 active torsions:
REMARK  status: ('A' for Active; 'I' for Inactive)
REMARK    1  A    between atoms: C_1  and  C_2
REMARK    2  A    between atoms: C_1  and  C_8
REMARK    3  A    between atoms: C_1  and  N_36
REMARK    4  A    between atoms: C_13  and  C_43
REMARK    5  A    between atoms: C_14  and  C_15
REMARK    6  A    between atoms: C_21  and  O_22
REMARK    7  A    between atoms: O_22  and  C_23
REMARK    8  A    between atoms: C_23  and  C_24
REMARK    9  A    between atoms: C_28  and  O_41
REMARK   10  A    between atoms: C_31  and  C_44
REMARK   11  A    between atoms: C_33  and  C_43
REMARK   12  A    between atoms: N_36  and  C_45
REMARK   13  A    between atoms: C_43  and  C_44
REMARK                            x       y       z     vdW  Elec       q    Type
REMARK                         _______ _______ _______ _____ _____    ______ ____
ROOT
ATOM      1  C   UNL A   1     -25.399   1.161  27.810  0.00  0.00    +0.038 C 
ENDROOT
BRANCH   1   2
ATOM      2  C   UNL A   1     -25.688   1.614  26.461  0.00  0.00    +0.075 C 
ATOM      3  C   UNL A   1     -26.250   2.920  26.395  0.00  0.00    +0.055 C 
ATOM      4  C   UNL A   1     -27.438   3.091  25.645  0.00  0.00    +0.102 C 
ATOM      5  N   UNL A   1     -28.075   2.089  25.003  0.00  0.00    -0.212 NA
ATOM      6  C   UNL A   1     -27.543   0.849  25.079  0.00  0.00    +0.234 C 
ATOM      7  C   UNL A   1     -26.354   0.576  25.777  0.00  0.00    +0.240 C 
ATOM      8  F   UNL A   1     -25.860  -0.681  25.795  0.00  0.00    -0.227 F 
BRANCH   3   9
ATOM      9  C   UNL A   1     -25.642   4.093  27.123  0.00  0.00    +0.262 C 
ATOM     10  N   UNL A   1     -25.614   5.252  26.449  0.00  0.00    -0.200 NA
ATOM     11  C   UNL A   1     -25.026   6.479  26.963  0.00  0.00    +0.139 C 
ATOM     12  O   UNL A   1     -25.143   3.966  28.243  0.00  0.00    -0.269 OA
ENDBRANCH   3   9
BRANCH   6  13
ATOM     13  O   UNL A   1     -28.193  -0.208  24.477  0.00  0.00    -0.459 OA
BRANCH  13  14
ATOM     14  C   UNL A   1     -29.460   0.005  23.866  0.00  0.00    +0.242 C 
BRANCH  14  15
ATOM     15  C   UNL A   1     -30.065  -1.377  23.573  0.00  0.00    +0.229 C 
ATOM     16  O   UNL A   1     -30.729  -1.878  24.721  0.00  0.00    -0.216 OA
ENDBRANCH  14  15
ENDBRANCH  13  14
ENDBRANCH   6  13
ENDBRANCH   1   2
BRANCH   1  19
ATOM     17  C   UNL A   1     -23.115   1.688  27.095  0.00  0.00    -0.001 C 
ATOM     18  O   UNL A   1     -22.325   0.018  29.074  0.00  0.00    -0.462 OA
ATOM     19  C   UNL A   1     -24.119   1.041  27.971  0.00  0.00    +0.028 C 
ATOM     20  C   UNL A   1     -21.792   1.477  27.401  0.00  0.00    +0.016 C 
ATOM     21  C   UNL A   1     -21.458   0.523  28.305  0.00  0.00    +0.190 C 
ATOM     22  C   UNL A   1     -20.081   0.009  28.470  0.00  0.00    +0.052 C 
ATOM     23  C   UNL A   1     -23.629   0.281  28.872  0.00  0.00    +0.206 C 
BRANCH  23  24
ATOM     24  N   UNL A   1     -24.525  -0.248  29.365  0.00  0.00    -0.202 NA
BRANCH  24  25
ATOM     25  C   UNL A   1     -24.855  -1.012  30.143  0.00  0.00    +0.134 C 
BRANCH  25  26
ATOM     26  C   UNL A   1     -24.973  -2.505  29.788  0.00  0.00    -0.001 C 
ATOM     27  C   UNL A   1     -23.906  -3.173  29.146  0.00  0.00    -0.003 C 
ATOM     28  C   UNL A   1     -23.989  -4.549  28.853  0.00  0.00    -0.000 C 
ATOM     29  C   UNL A   1     -25.137  -5.280  29.205  0.00  0.00    -0.000 C 
ATOM     30  C   UNL A   1     -26.232  -4.611  29.784  0.00  0.00    -0.000 C 
ATOM     31  C   UNL A   1     -26.155  -3.232  30.065  0.00  0.00    -0.003 C 
ENDBRANCH  25  26
BRANCH  25  32
ATOM     32  C   UNL A   1     -25.387  -0.679  31.571  0.00  0.00    +0.097 C 
ATOM     33  C   UNL A   1     -25.189   0.773  32.028  0.00  0.00    +0.021 C 
ATOM     34  C   UNL A   1     -25.336   0.684  33.544  0.00  0.00    +0.020 C 
ATOM     35  C   UNL A   1     -24.829  -0.715  33.905  0.00  0.00    +0.089 C 
ATOM     36  N   UNL A   1     -24.758  -1.481  32.646  0.00  0.00    -0.217 NA
ENDBRANCH  25  32
ENDBRANCH  24  25
ENDBRANCH  23  24
ENDBRANCH   1  19
BRANCH   1  37
ATOM     37  C   UNL A   1     -26.745   0.569  28.361  0.00  0.00    +0.031 C 
BRANCH  37  39
ATOM     38  C   UNL A   1     -29.739   3.451  29.034  0.00  0.00    +0.139 C 
ATOM     39  C   UNL A   1     -27.933   1.422  28.834  0.00  0.00    -0.022 C 
ATOM     40  C   UNL A   1     -28.430   3.772  29.296  0.00  0.00    +0.037 C 
ATOM     41  C   UNL A   1     -30.175   2.187  28.696  0.00  0.00    +0.037 C 
ATOM     42  C   UNL A   1     -27.588   2.698  29.258  0.00  0.00    -0.001 C 
ATOM     43  C   UNL A   1     -29.269   1.134  28.627  0.00  0.00    -0.001 C 
BRANCH  38  45
ATOM     44  C   UNL A   1     -31.654   4.187  30.039  0.00  0.00    +0.253 C 
ATOM     45  O   UNL A   1     -30.601   4.455  29.115  0.00  0.00    -0.471 OA
ENDBRANCH  38  45
ENDBRANCH  37  39
ENDBRANCH   1  37
TORSDOF 13
