REMARK  Name = outputs/IAG933/test6/raw/output_9737_IAG933_linker_design_.xyz
REMARK  7 active torsions:
REMARK  status: ('A' for Active; 'I' for Inactive)
REMARK    1  A    between atoms: C_1  and  C_2
REMARK    2  A    between atoms: C_1  and  C_8
REMARK    3  A    between atoms: C_1  and  C_35
REMARK    4  A    between atoms: C_14  and  C_15
REMARK    5  A    between atoms: C_23  and  C_24
REMARK    6  A    between atoms: C_28  and  C_33
REMARK    7  A    between atoms: C_28  and  C_39
REMARK                            x       y       z     vdW  Elec       q    Type
REMARK                         _______ _______ _______ _____ _____    ______ ____
ROOT
ATOM      1  C   UNL A   1     -25.688   1.614  26.461  0.00  0.00    +0.037 C 
ATOM      2  C   UNL A   1     -26.250   2.920  26.395  0.00  0.00    +0.076 C 
ATOM      3  C   UNL A   1     -27.438   3.091  25.645  0.00  0.00    +0.107 C 
ATOM      4  N   UNL A   1     -28.075   2.089  25.003  0.00  0.00    -0.208 NA
ATOM      5  C   UNL A   1     -27.543   0.849  25.079  0.00  0.00    +0.253 C 
ATOM      6  O   UNL A   1     -28.193  -0.208  24.477  0.00  0.00    -0.459 OA
ATOM      7  C   UNL A   1     -29.460   0.005  23.866  0.00  0.00    +0.208 C 
ATOM      8  C   UNL A   1     -26.354   0.576  25.777  0.00  0.00    +0.193 C 
ATOM      9  F   UNL A   1     -25.860  -0.681  25.795  0.00  0.00    -0.199 F 
ATOM     10  O   UNL A   1     -26.858  -0.060  29.025  0.00  0.00    -0.356 OA
ATOM     11  N   UNL A   1     -23.214   0.919  29.261  0.00  0.00    -0.126 NA
ATOM     12 CL   UNL A   1     -22.929   2.415  25.066  0.00  0.00    -0.070 Cl
ATOM     13  C   UNL A   1     -25.416   0.004  29.221  0.00  0.00    +0.142 C 
ATOM     14  O   UNL A   1     -31.544  -0.329  26.075  0.00  0.00    -0.296 OA
ATOM     15 CL   UNL A   1     -21.411   1.822  27.404  0.00  0.00    -0.070 Cl
ATOM     16  C   UNL A   1     -30.637   0.541  25.985  0.00  0.00    +0.154 C 
ATOM     17  C   UNL A   1     -28.214   0.408  28.864  0.00  0.00    +0.118 C 
ATOM     18  C   UNL A   1     -30.379   0.980  27.604  0.00  0.00    +0.067 C 
ATOM     19  C   UNL A   1     -30.346   0.946  24.589  0.00  0.00    +0.111 C 
ATOM     20  C   UNL A   1     -29.356   0.026  28.102  0.00  0.00    +0.037 C 
ATOM     21  C   UNL A   1     -23.022   1.668  26.715  0.00  0.00    +0.112 C 
ATOM     22  C   UNL A   1     -24.413   0.853  28.578  0.00  0.00    +0.143 C 
ATOM     23  C   UNL A   1     -24.381   1.384  27.184  0.00  0.00    +0.021 C 
ENDROOT
BRANCH   2  24
ATOM     24  C   UNL A   1     -25.642   4.093  27.123  0.00  0.00    +0.266 C 
ATOM     25  N   UNL A   1     -25.614   5.252  26.449  0.00  0.00    -0.200 NA
ATOM     26  C   UNL A   1     -25.026   6.479  26.963  0.00  0.00    +0.139 C 
ATOM     27  O   UNL A   1     -25.143   3.966  28.243  0.00  0.00    -0.268 OA
ENDBRANCH   2  24
BRANCH   7  28
ATOM     28  C   UNL A   1     -30.065  -1.377  23.573  0.00  0.00    +0.226 C 
ATOM     29  O   UNL A   1     -30.729  -1.878  24.721  0.00  0.00    -0.216 OA
ENDBRANCH   7  28
BRANCH  17  30
ATOM     30  C   UNL A   1     -28.402   1.946  29.397  0.00  0.00    +0.060 C 
ATOM     31  C   UNL A   1     -29.068   3.277  28.799  0.00  0.00    +0.005 C 
BRANCH  30  32
ATOM     32  C   UNL A   1     -29.075   1.758  30.791  0.00  0.00    +0.184 C 
ATOM     33  O   UNL A   1     -29.715   0.485  30.814  0.00  0.00    -0.220 OA
ENDBRANCH  30  32
ENDBRANCH  17  30
BRANCH  13  34
ATOM     34  C   UNL A   1     -24.855  -1.012  30.143  0.00  0.00    +0.067 C 
BRANCH  34  35
ATOM     35  C   UNL A   1     -24.973  -2.505  29.788  0.00  0.00    -0.019 C 
ATOM     36  C   UNL A   1     -23.906  -3.173  29.146  0.00  0.00    -0.004 C 
ATOM     37  C   UNL A   1     -23.989  -4.549  28.853  0.00  0.00    -0.000 C 
ATOM     38  C   UNL A   1     -25.137  -5.280  29.205  0.00  0.00    -0.000 C 
ATOM     39  C   UNL A   1     -26.232  -4.611  29.784  0.00  0.00    -0.000 C 
ATOM     40  C   UNL A   1     -26.155  -3.232  30.065  0.00  0.00    -0.004 C 
ENDBRANCH  34  35
BRANCH  34  41
ATOM     41  C   UNL A   1     -25.387  -0.679  31.571  0.00  0.00    +0.079 C 
ATOM     42  C   UNL A   1     -25.189   0.773  32.028  0.00  0.00    +0.019 C 
ATOM     43  C   UNL A   1     -25.336   0.684  33.544  0.00  0.00    +0.020 C 
ATOM     44  C   UNL A   1     -24.829  -0.715  33.905  0.00  0.00    +0.089 C 
ATOM     45  N   UNL A   1     -24.758  -1.481  32.646  0.00  0.00    -0.219 NA
ENDBRANCH  34  41
ENDBRANCH  13  34
TORSDOF 7
