MODEL 973
MODEL 1
REMARK VINA RESULT:    -6.015      0.000      0.000
REMARK INTER + INTRA:          -7.139
REMARK INTER:                  -6.718
REMARK INTRA:                  -0.422
REMARK UNBOUND:                -0.422
REMARK  Name = No_973-gen_results/8p0m/2024-11-27-11-27-31/
REMARK  2 active torsions:
REMARK  status: ('A' for Active; 'I' for Inactive)
REMARK    1  A    between atoms: C_2  and  C_8
REMARK    2  A    between atoms: C_5  and  O_7
REMARK                            x       y       z     vdW  Elec       q    Type
REMARK                         _______ _______ _______ _____ _____    ______ ____
ROOT
ATOM      1  C   UNL A   1     -24.110  -3.260  28.695  0.00  0.00    +0.003 A 
ATOM      2  C   UNL A   1     -24.278  -2.135  29.106  0.00  0.00    +0.000 A 
ATOM      3  C   UNL A   1     -25.395  -1.697  29.798  0.00  0.00    +0.003 A 
ATOM      4  C   UNL A   1     -26.409  -2.662  30.069  0.00  0.00    +0.037 A 
ATOM      5  C   UNL A   1     -26.123  -3.936  29.729  0.00  0.00    +0.139 A 
ATOM      6  C   UNL A   1     -24.971  -4.265  29.141  0.00  0.00    +0.037 A 
ENDROOT
BRANCH   2   7
ATOM      7  C   UNL A   1     -23.303  -0.969  28.736  0.00  0.00    +0.000 A 
ATOM      8  C   UNL A   1     -22.236  -0.907  29.019  0.00  0.00    +0.000 A 
ATOM      9  C   UNL A   1     -21.279   0.184  28.677  0.00  0.00    +0.000 A 
ATOM     10  C   UNL A   1     -21.746   1.195  27.846  0.00  0.00    +0.000 A 
ATOM     11  C   UNL A   1     -23.100   1.099  27.389  0.00  0.00    +0.000 A 
ATOM     12  C   UNL A   1     -23.941   0.013  27.810  0.00  0.00    +0.000 A 
ENDBRANCH   2   7
BRANCH   5  13
ATOM     13  O   UNL A   1     -27.069  -4.859  30.059  0.00  0.00    -0.471 OA
ATOM     14  C   UNL A   1     -28.252  -4.434  30.475  0.00  0.00    +0.253 C 
ENDBRANCH   5  13
TORSDOF 2
ENDMDL
ENDMDL
