REMARK  Name = outputs/IAG933/test6/raw/output_9741_IAG933_linker_design_.xyz
REMARK  11 active torsions:
REMARK  status: ('A' for Active; 'I' for Inactive)
REMARK    1  A    between atoms: C_1  and  C_2
REMARK    2  A    between atoms: C_1  and  C_8
REMARK    3  A    between atoms: C_1  and  C_34
REMARK    4  A    between atoms: C_13  and  C_35
REMARK    5  A    between atoms: C_14  and  C_15
REMARK    6  A    between atoms: C_21  and  O_22
REMARK    7  A    between atoms: O_22  and  C_23
REMARK    8  A    between atoms: C_23  and  C_24
REMARK    9  A    between atoms: N_28  and  C_34
REMARK   10  A    between atoms: N_28  and  C_43
REMARK   11  A    between atoms: S_36  and  N_45
REMARK                            x       y       z     vdW  Elec       q    Type
REMARK                         _______ _______ _______ _____ _____    ______ ____
ROOT
ATOM      1  C   UNL A   1     -23.182   2.152  26.583  0.00  0.00    +0.069 C 
ATOM      2  C   UNL A   1     -25.166  -0.150  29.004  0.00  0.00    +0.046 C 
ATOM      3  C   UNL A   1     -24.371   1.420  27.105  0.00  0.00    +0.058 C 
ATOM      4  O   UNL A   1     -22.056  -0.179  29.151  0.00  0.00    -0.206 OA
ATOM      5  C   UNL A   1     -24.229   0.751  28.340  0.00  0.00    +0.012 C 
ATOM      6  C   UNL A   1     -22.795   0.990  28.792  0.00  0.00    +0.219 C 
ATOM      7  S   UNL A   1     -21.900   1.589  27.395  0.00  0.00    -0.104 S 
ENDROOT
BRANCH   3   8
ATOM      8  C   UNL A   1     -25.688   1.614  26.461  0.00  0.00    +0.020 C 
ATOM      9  C   UNL A   1     -26.250   2.920  26.395  0.00  0.00    +0.073 C 
ATOM     10  C   UNL A   1     -27.438   3.091  25.645  0.00  0.00    +0.106 C 
ATOM     11  N   UNL A   1     -28.075   2.089  25.003  0.00  0.00    -0.208 NA
ATOM     12  C   UNL A   1     -27.543   0.849  25.079  0.00  0.00    +0.253 C 
ATOM     13  C   UNL A   1     -26.354   0.576  25.777  0.00  0.00    +0.189 C 
ATOM     14  F   UNL A   1     -25.860  -0.681  25.795  0.00  0.00    -0.200 F 
BRANCH   9  15
ATOM     15  C   UNL A   1     -25.642   4.093  27.123  0.00  0.00    +0.266 C 
ATOM     16  N   UNL A   1     -25.614   5.252  26.449  0.00  0.00    -0.200 NA
ATOM     17  C   UNL A   1     -25.026   6.479  26.963  0.00  0.00    +0.139 C 
ATOM     18  O   UNL A   1     -25.143   3.966  28.243  0.00  0.00    -0.268 OA
ENDBRANCH   9  15
BRANCH  12  19
ATOM     19  O   UNL A   1     -28.193  -0.208  24.477  0.00  0.00    -0.456 OA
BRANCH  19  20
ATOM     20  C   UNL A   1     -29.460   0.005  23.866  0.00  0.00    +0.243 C 
BRANCH  20  21
ATOM     21  C   UNL A   1     -30.065  -1.377  23.573  0.00  0.00    +0.229 C 
ATOM     22  O   UNL A   1     -30.729  -1.878  24.721  0.00  0.00    -0.216 OA
ENDBRANCH  20  21
ENDBRANCH  19  20
ENDBRANCH  12  19
ENDBRANCH   3   8
BRANCH   2  23
ATOM     23  C   UNL A   1     -24.855  -1.012  30.143  0.00  0.00    +0.075 C 
BRANCH  23  24
ATOM     24  C   UNL A   1     -24.973  -2.505  29.788  0.00  0.00    -0.016 C 
ATOM     25  C   UNL A   1     -23.906  -3.173  29.146  0.00  0.00    -0.004 C 
ATOM     26  C   UNL A   1     -23.989  -4.549  28.853  0.00  0.00    -0.000 C 
ATOM     27  C   UNL A   1     -25.137  -5.280  29.205  0.00  0.00    -0.000 C 
ATOM     28  C   UNL A   1     -26.232  -4.611  29.784  0.00  0.00    -0.000 C 
ATOM     29  C   UNL A   1     -26.155  -3.232  30.065  0.00  0.00    -0.004 C 
ENDBRANCH  23  24
BRANCH  23  30
ATOM     30  C   UNL A   1     -25.387  -0.679  31.571  0.00  0.00    +0.082 C 
ATOM     31  C   UNL A   1     -25.189   0.773  32.028  0.00  0.00    +0.020 C 
ATOM     32  C   UNL A   1     -25.336   0.684  33.544  0.00  0.00    +0.020 C 
ATOM     33  C   UNL A   1     -24.829  -0.715  33.905  0.00  0.00    +0.089 C 
ATOM     34  N   UNL A   1     -24.758  -1.481  32.646  0.00  0.00    -0.219 NA
ENDBRANCH  23  30
ENDBRANCH   2  23
BRANCH   2  35
ATOM     35  N   UNL A   1     -26.479  -0.263  28.493  0.00  0.00    -0.214 NA
BRANCH  35  40
ATOM     36  C   UNL A   1     -30.760  -0.294  29.837  0.00  0.00    +0.116 C 
ATOM     37  C   UNL A   1     -28.552   0.947  29.620  0.00  0.00    +0.136 C 
ATOM     38  O   UNL A   1     -28.359  -1.303  29.629  0.00  0.00    -0.334 OA
ATOM     39  C   UNL A   1     -29.848  -1.437  29.298  0.00  0.00    +0.162 C 
ATOM     40  C   UNL A   1     -27.803  -0.197  29.136  0.00  0.00    +0.225 C 
ATOM     41  N   UNL A   1     -30.032   0.784  29.081  0.00  0.00    -0.215 NA
BRANCH  41  45
ATOM     42  O   UNL A   1     -30.538   3.096  28.030  0.00  0.00    -0.157 OA
ATOM     43  C   UNL A   1     -30.555   0.794  26.735  0.00  0.00    +0.096 C 
ATOM     44  C   UNL A   1     -32.653   1.833  27.888  0.00  0.00    +0.096 C 
ATOM     45  S   UNL A   1     -30.991   1.768  28.121  0.00  0.00    -0.020 S 
ENDBRANCH  41  45
ENDBRANCH  35  40
ENDBRANCH   2  35
TORSDOF 11
