REMARK  Name = outputs/IAG933/test6/raw/output_9743_IAG933_linker_design_.xyz
REMARK  15 active torsions:
REMARK  status: ('A' for Active; 'I' for Inactive)
REMARK    1  A    between atoms: C_1  and  C_2
REMARK    2  A    between atoms: C_1  and  C_8
REMARK    3  A    between atoms: C_1  and  N_28
REMARK    4  A    between atoms: C_13  and  N_34
REMARK    5  A    between atoms: C_14  and  C_15
REMARK    6  A    between atoms: C_21  and  O_22
REMARK    7  A    between atoms: O_22  and  C_23
REMARK    8  A    between atoms: C_23  and  C_24
REMARK    9  A    between atoms: N_28  and  C_37
REMARK   10  A    between atoms: N_34  and  C_37
REMARK   11  A    between atoms: N_34  and  C_39
REMARK   12  A    between atoms: N_35  and  C_37
REMARK   13  A    between atoms: S_36  and  C_44
REMARK   14  A    between atoms: C_39  and  C_41
REMARK   15  A    between atoms: C_40  and  C_41
REMARK                            x       y       z     vdW  Elec       q    Type
REMARK                         _______ _______ _______ _____ _____    ______ ____
ROOT
ATOM      1  C   UNL A   1     -25.889   1.118  28.809  0.00  0.00    +0.198 C 
ENDROOT
BRANCH   1   4
ATOM      2  C   UNL A   1     -27.679  -0.654  28.939  0.00  0.00    +0.086 C 
ATOM      3  C   UNL A   1     -28.242  -0.722  30.357  0.00  0.00    +0.076 C 
ATOM      4  N   UNL A   1     -27.466   0.804  28.914  0.00  0.00    -0.244 NA
ATOM      5  C   UNL A   1     -28.591   1.549  28.556  0.00  0.00    +0.097 C 
ATOM      6  C   UNL A   1     -29.785   0.813  29.210  0.00  0.00    +0.120 C 
ATOM      7  S   UNL A   1     -29.430   0.544  30.923  0.00  0.00    -0.127 S 
BRANCH   6   9
ATOM      8  C   UNL A   1     -31.351  -0.067  26.976  0.00  0.00    +0.081 C 
ATOM      9  S   UNL A   1     -31.044  -0.210  28.601  0.00  0.00    -0.060 S 
ATOM     10  O   UNL A   1     -30.521  -1.556  28.768  0.00  0.00    -0.170 OA
ATOM     11  C   UNL A   1     -32.389   0.034  29.467  0.00  0.00    +0.081 C 
ENDBRANCH   6   9
ENDBRANCH   1   4
BRANCH   1  12
ATOM     12  N   UNL A   1     -24.693   0.034  29.287  0.00  0.00    -0.184 NA
BRANCH  12  13
ATOM     13  C   UNL A   1     -24.855  -1.012  30.143  0.00  0.00    +0.114 C 
BRANCH  13  14
ATOM     14  C   UNL A   1     -24.973  -2.505  29.788  0.00  0.00    -0.005 C 
ATOM     15  C   UNL A   1     -23.906  -3.173  29.146  0.00  0.00    -0.003 C 
ATOM     16  C   UNL A   1     -23.989  -4.549  28.853  0.00  0.00    -0.000 C 
ATOM     17  C   UNL A   1     -25.137  -5.280  29.205  0.00  0.00    -0.000 C 
ATOM     18  C   UNL A   1     -26.232  -4.611  29.784  0.00  0.00    -0.000 C 
ATOM     19  C   UNL A   1     -26.155  -3.232  30.065  0.00  0.00    -0.003 C 
ENDBRANCH  13  14
BRANCH  13  20
ATOM     20  C   UNL A   1     -25.387  -0.679  31.571  0.00  0.00    +0.093 C 
ATOM     21  C   UNL A   1     -25.189   0.773  32.028  0.00  0.00    +0.021 C 
ATOM     22  C   UNL A   1     -25.336   0.684  33.544  0.00  0.00    +0.020 C 
ATOM     23  C   UNL A   1     -24.829  -0.715  33.905  0.00  0.00    +0.089 C 
ATOM     24  N   UNL A   1     -24.758  -1.481  32.646  0.00  0.00    -0.218 NA
ENDBRANCH  13  20
ENDBRANCH  12  13
ENDBRANCH   1  12
BRANCH   1  25
ATOM     25  N   UNL A   1     -24.834   1.510  27.607  0.00  0.00    -0.242 NA
BRANCH  25  26
ATOM     26  C   UNL A   1     -25.688   1.614  26.461  0.00  0.00    +0.130 C 
ATOM     27  C   UNL A   1     -26.250   2.920  26.395  0.00  0.00    +0.070 C 
ATOM     28  C   UNL A   1     -27.438   3.091  25.645  0.00  0.00    +0.103 C 
ATOM     29  N   UNL A   1     -28.075   2.089  25.003  0.00  0.00    -0.212 NA
ATOM     30  C   UNL A   1     -27.543   0.849  25.079  0.00  0.00    +0.235 C 
ATOM     31  C   UNL A   1     -26.354   0.576  25.777  0.00  0.00    +0.255 C 
ATOM     32  F   UNL A   1     -25.860  -0.681  25.795  0.00  0.00    -0.225 F 
BRANCH  27  33
ATOM     33  C   UNL A   1     -25.642   4.093  27.123  0.00  0.00    +0.264 C 
ATOM     34  N   UNL A   1     -25.614   5.252  26.449  0.00  0.00    -0.200 NA
ATOM     35  C   UNL A   1     -25.026   6.479  26.963  0.00  0.00    +0.139 C 
ATOM     36  O   UNL A   1     -25.143   3.966  28.243  0.00  0.00    -0.269 OA
ENDBRANCH  27  33
BRANCH  30  37
ATOM     37  O   UNL A   1     -28.193  -0.208  24.477  0.00  0.00    -0.459 OA
BRANCH  37  38
ATOM     38  C   UNL A   1     -29.460   0.005  23.866  0.00  0.00    +0.242 C 
BRANCH  38  39
ATOM     39  C   UNL A   1     -30.065  -1.377  23.573  0.00  0.00    +0.229 C 
ATOM     40  O   UNL A   1     -30.729  -1.878  24.721  0.00  0.00    -0.216 OA
ENDBRANCH  38  39
ENDBRANCH  37  38
ENDBRANCH  30  37
ENDBRANCH  25  26
BRANCH  25  41
ATOM     41  C   UNL A   1     -23.397   1.071  27.025  0.00  0.00    +0.075 C 
BRANCH  41  43
ATOM     42  C   UNL A   1     -21.044   1.279  27.796  0.00  0.00    +0.001 C 
ATOM     43  C   UNL A   1     -22.509   1.510  28.295  0.00  0.00    +0.016 C 
BRANCH  43  45
ATOM     44  C   UNL A   1     -22.043  -0.647  29.445  0.00  0.00    +0.000 C 
ATOM     45  C   UNL A   1     -22.867   0.597  29.570  0.00  0.00    +0.001 C 
ENDBRANCH  43  45
ENDBRANCH  41  43
ENDBRANCH  25  41
ENDBRANCH   1  25
TORSDOF 15
