REMARK  Name = outputs/IAG933/test6/raw/output_9746_IAG933_linker_design_.xyz
REMARK  13 active torsions:
REMARK  status: ('A' for Active; 'I' for Inactive)
REMARK    1  A    between atoms: C_1  and  C_2
REMARK    2  A    between atoms: C_1  and  C_8
REMARK    3  A    between atoms: C_9  and  C_42
REMARK    4  A    between atoms: C_13  and  C_46
REMARK    5  A    between atoms: C_14  and  C_15
REMARK    6  A    between atoms: C_21  and  O_22
REMARK    7  A    between atoms: O_22  and  C_23
REMARK    8  A    between atoms: C_23  and  C_24
REMARK    9  A    between atoms: C_29  and  C_42
REMARK   10  A    between atoms: C_30  and  C_44
REMARK   11  A    between atoms: C_34  and  N_47
REMARK   12  A    between atoms: C_37  and  C_41
REMARK   13  A    between atoms: C_42  and  N_47
REMARK                            x       y       z     vdW  Elec       q    Type
REMARK                         _______ _______ _______ _____ _____    ______ ____
ROOT
ATOM      1  C   UNL A   1     -22.359   1.315  27.571  0.00  0.00    +0.154 C 
ATOM      2  C   UNL A   1     -24.331   1.329  28.631  0.00  0.00    +0.082 C 
ATOM      3  C   UNL A   1     -23.255   1.586  26.560  0.00  0.00    +0.040 C 
ATOM      4  C   UNL A   1     -23.022   0.994  28.776  0.00  0.00    +0.247 C 
ATOM      5  F   UNL A   1     -21.053   1.461  27.438  0.00  0.00    -0.206 F 
ATOM      6  F   UNL A   1     -22.544   0.344  29.848  0.00  0.00    -0.224 F 
ATOM      7  C   UNL A   1     -24.505   1.476  27.205  0.00  0.00    +0.017 C 
ENDROOT
BRANCH   7   8
ATOM      8  C   UNL A   1     -25.688   1.614  26.461  0.00  0.00    +0.039 C 
ATOM      9  C   UNL A   1     -26.250   2.920  26.395  0.00  0.00    +0.077 C 
ATOM     10  C   UNL A   1     -27.438   3.091  25.645  0.00  0.00    +0.107 C 
ATOM     11  N   UNL A   1     -28.075   2.089  25.003  0.00  0.00    -0.208 NA
ATOM     12  C   UNL A   1     -27.543   0.849  25.079  0.00  0.00    +0.253 C 
ATOM     13  C   UNL A   1     -26.354   0.576  25.777  0.00  0.00    +0.193 C 
ATOM     14  F   UNL A   1     -25.860  -0.681  25.795  0.00  0.00    -0.199 F 
BRANCH   9  15
ATOM     15  C   UNL A   1     -25.642   4.093  27.123  0.00  0.00    +0.266 C 
ATOM     16  N   UNL A   1     -25.614   5.252  26.449  0.00  0.00    -0.200 NA
ATOM     17  C   UNL A   1     -25.026   6.479  26.963  0.00  0.00    +0.139 C 
ATOM     18  O   UNL A   1     -25.143   3.966  28.243  0.00  0.00    -0.268 OA
ENDBRANCH   9  15
BRANCH  12  19
ATOM     19  O   UNL A   1     -28.193  -0.208  24.477  0.00  0.00    -0.456 OA
BRANCH  19  20
ATOM     20  C   UNL A   1     -29.460   0.005  23.866  0.00  0.00    +0.243 C 
BRANCH  20  21
ATOM     21  C   UNL A   1     -30.065  -1.377  23.573  0.00  0.00    +0.229 C 
ATOM     22  O   UNL A   1     -30.729  -1.878  24.721  0.00  0.00    -0.216 OA
ENDBRANCH  20  21
ENDBRANCH  19  20
ENDBRANCH  12  19
ENDBRANCH   7   8
BRANCH   3  23
ATOM     23  C   UNL A   1     -22.893   1.948  25.236  0.00  0.00    +0.222 C 
ATOM     24  F   UNL A   1     -21.577   2.282  25.085  0.00  0.00    -0.229 F 
ENDBRANCH   3  23
BRANCH   2  25
ATOM     25  N   UNL A   1     -25.049   1.830  29.768  0.00  0.00    -0.234 NA
BRANCH  25  26
ATOM     26  C   UNL A   1     -24.489   1.917  31.172  0.00  0.00    +0.133 C 
BRANCH  26  27
ATOM     27  C   UNL A   1     -24.776   3.264  31.908  0.00  0.00    +0.079 C 
ATOM     28  N   UNL A   1     -26.070   3.382  32.135  0.00  0.00    -0.244 NA
ATOM     29  C   UNL A   1     -24.327   5.165  33.459  0.00  0.00    +0.003 C 
ATOM     30  C   UNL A   1     -25.691   5.046  33.847  0.00  0.00    +0.023 C 
ATOM     31  C   UNL A   1     -23.799   4.286  32.421  0.00  0.00    +0.016 C 
ATOM     32  C   UNL A   1     -26.519   4.096  33.140  0.00  0.00    +0.152 C 
BRANCH  32  34
ATOM     33  F   UNL A   1     -28.092   2.679  34.189  0.00  0.00    -0.164 F 
ATOM     34  C   UNL A   1     -27.962   3.747  33.363  0.00  0.00    +0.435 C 
ATOM     35  F   UNL A   1     -28.480   3.315  32.144  0.00  0.00    -0.164 F 
ATOM     36  F   UNL A   1     -28.679   4.787  33.807  0.00  0.00    -0.164 F 
ENDBRANCH  32  34
ENDBRANCH  26  27
BRANCH  26  38
ATOM     37  C   UNL A   1     -25.387  -0.679  31.571  0.00  0.00    +0.079 C 
ATOM     38  C   UNL A   1     -25.189   0.773  32.028  0.00  0.00    +0.043 C 
ATOM     39  C   UNL A   1     -25.336   0.684  33.544  0.00  0.00    +0.022 C 
ATOM     40  C   UNL A   1     -24.829  -0.715  33.905  0.00  0.00    +0.089 C 
ATOM     41  N   UNL A   1     -24.758  -1.481  32.646  0.00  0.00    -0.219 NA
BRANCH  37  42
ATOM     42  C   UNL A   1     -24.855  -1.012  30.143  0.00  0.00    +0.044 C 
BRANCH  42  43
ATOM     43  C   UNL A   1     -24.973  -2.505  29.788  0.00  0.00    -0.021 C 
ATOM     44  C   UNL A   1     -23.906  -3.173  29.146  0.00  0.00    -0.004 C 
ATOM     45  C   UNL A   1     -23.989  -4.549  28.853  0.00  0.00    -0.000 C 
ATOM     46  C   UNL A   1     -25.137  -5.280  29.205  0.00  0.00    -0.000 C 
ATOM     47  C   UNL A   1     -26.232  -4.611  29.784  0.00  0.00    -0.000 C 
ATOM     48  C   UNL A   1     -26.155  -3.232  30.065  0.00  0.00    -0.004 C 
ENDBRANCH  42  43
ENDBRANCH  37  42
ENDBRANCH  26  38
ENDBRANCH  25  26
ENDBRANCH   2  25
TORSDOF 13
