REMARK  Name = outputs/IAG933/test6/raw/output_9749_IAG933_linker_design_.xyz
REMARK  20 active torsions:
REMARK  status: ('A' for Active; 'I' for Inactive)
REMARK    1  A    between atoms: C_1  and  C_2
REMARK    2  A    between atoms: C_1  and  C_8
REMARK    3  A    between atoms: C_1  and  O_42
REMARK    4  A    between atoms: C_14  and  C_15
REMARK    5  A    between atoms: C_15  and  O_18
REMARK    6  A    between atoms: O_18  and  C_36
REMARK    7  A    between atoms: C_21  and  O_22
REMARK    8  A    between atoms: O_22  and  C_23
REMARK    9  A    between atoms: C_23  and  C_24
REMARK   10  A    between atoms: C_30  and  C_35
REMARK   11  A    between atoms: C_31  and  C_44
REMARK   12  A    between atoms: C_31  and  N_46
REMARK   13  A    between atoms: C_32  and  N_38
REMARK   14  A    between atoms: C_34  and  C_41
REMARK   15  A    between atoms: C_34  and  O_42
REMARK   16  A    between atoms: C_34  and  N_46
REMARK   17  A    between atoms: C_35  and  N_37
REMARK   18  A    between atoms: C_36  and  C_41
REMARK   19  A    between atoms: C_36  and  C_43
REMARK   20  A    between atoms: N_37  and  C_45
REMARK                            x       y       z     vdW  Elec       q    Type
REMARK                         _______ _______ _______ _____ _____    ______ ____
ROOT
ATOM      1  C   UNL A   1     -25.381   2.887  29.091  0.00  0.00    +0.172 C 
ENDROOT
BRANCH   1   6
ATOM      2  C   UNL A   1     -28.623   3.100  30.836  0.00  0.00    +0.098 C 
ATOM      3  C   UNL A   1     -27.848   3.034  29.500  0.00  0.00    +0.026 C 
ATOM      4  C   UNL A   1     -26.945   5.014  31.455  0.00  0.00    +0.230 C 
ATOM      5  N   UNL A   1     -28.028   4.183  31.669  0.00  0.00    -0.256 N 
ATOM      6  C   UNL A   1     -26.396   3.446  29.886  0.00  0.00    +0.051 C 
ATOM      7  C   UNL A   1     -26.404   4.925  30.064  0.00  0.00    +0.089 C 
ATOM      8  O   UNL A   1     -26.371   5.592  32.377  0.00  0.00    -0.275 OA
BRANCH   5   9
ATOM      9  C   UNL A   1     -28.460   4.372  32.985  0.00  0.00    +0.085 C 
ATOM     10  C   UNL A   1     -28.628   5.658  33.578  0.00  0.00    +0.096 C 
BRANCH  10  11
ATOM     11  N   UNL A   1     -28.370   7.143  33.424  0.00  0.00    -0.232 NA
BRANCH  11  12
ATOM     12  C   UNL A   1     -28.375   7.740  34.516  0.00  0.00    +0.148 C 
BRANCH  12  13
ATOM     13  C   UNL A   1     -27.566   9.130  34.229  0.00  0.00    +0.205 C 
ATOM     14  O   UNL A   1     -28.217  10.232  33.860  0.00  0.00    -0.218 OA
ENDBRANCH  12  13
ENDBRANCH  11  12
ENDBRANCH  10  11
ENDBRANCH   5   9
ENDBRANCH   1   6
BRANCH   1  15
ATOM     15  O   UNL A   1     -25.143   3.966  28.243  0.00  0.00    -0.464 OA
BRANCH  15  16
ATOM     16  C   UNL A   1     -25.642   4.093  27.123  0.00  0.00    +0.222 C 
ATOM     17  N   UNL A   1     -25.614   5.252  26.449  0.00  0.00    -0.236 NA
ATOM     18  C   UNL A   1     -25.026   6.479  26.963  0.00  0.00    +0.155 C 
BRANCH  16  20
ATOM     19  C   UNL A   1     -25.688   1.614  26.461  0.00  0.00    +0.041 C 
ATOM     20  C   UNL A   1     -26.250   2.920  26.395  0.00  0.00    +0.074 C 
ATOM     21  C   UNL A   1     -27.438   3.091  25.645  0.00  0.00    +0.107 C 
ATOM     22  N   UNL A   1     -28.075   2.089  25.003  0.00  0.00    -0.208 NA
ATOM     23  C   UNL A   1     -27.543   0.849  25.079  0.00  0.00    +0.253 C 
ATOM     24  C   UNL A   1     -26.354   0.576  25.777  0.00  0.00    +0.193 C 
ATOM     25  F   UNL A   1     -25.860  -0.681  25.795  0.00  0.00    -0.199 F 
BRANCH  23  26
ATOM     26  O   UNL A   1     -28.193  -0.208  24.477  0.00  0.00    -0.456 OA
BRANCH  26  27
ATOM     27  C   UNL A   1     -29.460   0.005  23.866  0.00  0.00    +0.243 C 
BRANCH  27  28
ATOM     28  C   UNL A   1     -30.065  -1.377  23.573  0.00  0.00    +0.229 C 
ATOM     29  O   UNL A   1     -30.729  -1.878  24.721  0.00  0.00    -0.216 OA
ENDBRANCH  27  28
ENDBRANCH  26  27
ENDBRANCH  23  26
ENDBRANCH  16  20
ENDBRANCH  15  16
ENDBRANCH   1  15
BRANCH   1  30
ATOM     30  C   UNL A   1     -24.061   2.218  29.648  0.00  0.00    +0.092 C 
BRANCH  30  31
ATOM     31  C   UNL A   1     -23.662   0.730  29.280  0.00  0.00    +0.194 C 
BRANCH  31  32
ATOM     32  O   UNL A   1     -24.738  -0.136  29.255  0.00  0.00    -0.336 OA
BRANCH  32  33
ATOM     33  C   UNL A   1     -24.855  -1.012  30.143  0.00  0.00    +0.155 C 
BRANCH  33  34
ATOM     34  C   UNL A   1     -24.973  -2.505  29.788  0.00  0.00    +0.006 C 
ATOM     35  C   UNL A   1     -23.906  -3.173  29.146  0.00  0.00    -0.002 C 
ATOM     36  C   UNL A   1     -23.989  -4.549  28.853  0.00  0.00    -0.000 C 
ATOM     37  C   UNL A   1     -25.137  -5.280  29.205  0.00  0.00    -0.000 C 
ATOM     38  C   UNL A   1     -26.232  -4.611  29.784  0.00  0.00    -0.000 C 
ATOM     39  C   UNL A   1     -26.155  -3.232  30.065  0.00  0.00    -0.002 C 
ENDBRANCH  33  34
BRANCH  33  40
ATOM     40  C   UNL A   1     -25.387  -0.679  31.571  0.00  0.00    +0.104 C 
ATOM     41  C   UNL A   1     -25.189   0.773  32.028  0.00  0.00    +0.022 C 
ATOM     42  C   UNL A   1     -25.336   0.684  33.544  0.00  0.00    +0.020 C 
ATOM     43  C   UNL A   1     -24.829  -0.715  33.905  0.00  0.00    +0.089 C 
ATOM     44  N   UNL A   1     -24.758  -1.481  32.646  0.00  0.00    -0.217 NA
ENDBRANCH  33  40
ENDBRANCH  32  33
ENDBRANCH  31  32
BRANCH  31  45
ATOM     45  N   UNL A   1     -22.532   0.180  29.140  0.00  0.00    -0.175 NA
BRANCH  45  46
ATOM     46  C   UNL A   1     -21.426   0.716  28.434  0.00  0.00    +0.196 C 
BRANCH  46  48
ATOM     47  N   UNL A   1     -21.864   2.166  26.572  0.00  0.00    -0.194 NA
ATOM     48  C   UNL A   1     -21.651   1.583  27.486  0.00  0.00    +0.093 C 
ENDBRANCH  46  48
ENDBRANCH  45  46
ENDBRANCH  31  45
ENDBRANCH  30  31
ENDBRANCH   1  30
TORSDOF 20
