MODEL 974
MODEL 1
REMARK VINA RESULT:    -9.589      0.000      0.000
REMARK INTER + INTRA:         -15.332
REMARK INTER:                 -13.513
REMARK INTRA:                  -1.818
REMARK UNBOUND:                -1.818
REMARK  Name = No_974-gen_results/8p0m/2024-11-27-11-27-31/
REMARK  7 active torsions:
REMARK  status: ('A' for Active; 'I' for Inactive)
REMARK    1  A    between atoms: C_2  and  N_7
REMARK    2  A    between atoms: C_3  and  C_17
REMARK    3  A    between atoms: N_7  and  C_8
REMARK    4  A    between atoms: N_7  and  C_28
REMARK    5  A    between atoms: C_9  and  C_10
REMARK    6  A    between atoms: C_17  and  C_18
REMARK    7  A    between atoms: C_33  and  C_34
REMARK                            x       y       z     vdW  Elec       q    Type
REMARK                         _______ _______ _______ _____ _____    ______ ____
ROOT
ATOM      1  N   UNL A   1     -25.027  -1.333  29.321  0.00  0.00    -0.251 N 
ENDROOT
BRANCH   1   2
ATOM      2  C   UNL A   1     -24.512  -0.633  30.309  0.00  0.00    +0.141 A 
ATOM      3  C   UNL A   1     -23.997   0.404  30.232  0.00  0.00    +0.032 A 
ATOM      4  N   UNL A   1     -24.766  -1.266  31.525  0.00  0.00    -0.202 NA
ATOM      5  C   UNL A   1     -24.246   1.464  31.252  0.00  0.00    +0.007 A 
ATOM      6  C   UNL A   1     -24.726   1.138  32.413  0.00  0.00    +0.050 A 
ATOM      7  C   UNL A   1     -25.050  -0.308  32.567  0.00  0.00    +0.223 A 
ATOM      8  F   UNL A   1     -25.555  -0.727  33.674  0.00  0.00    -0.183 F 
BRANCH   3   9
ATOM      9  C   UNL A   1     -23.022   0.646  29.445  0.00  0.00    +0.003 A 
ATOM     10  C   UNL A   1     -23.018   1.651  28.334  0.00  0.00    +0.000 A 
ATOM     11  C   UNL A   1     -21.927   1.815  27.418  0.00  0.00    +0.000 A 
ATOM     12  C   UNL A   1     -20.816   0.919  27.560  0.00  0.00    +0.000 A 
ATOM     13  C   UNL A   1     -20.827  -0.076  28.548  0.00  0.00    +0.000 A 
ATOM     14  C   UNL A   1     -21.834  -0.225  29.342  0.00  0.00    +0.000 A 
ENDBRANCH   3   9
ENDBRANCH   1   2
BRANCH   1  16
ATOM     15  C   UNL A   1     -25.703  -0.485  27.314  0.00  0.00    +0.011 A 
ATOM     16  C   UNL A   1     -25.916  -0.568  28.343  0.00  0.00    +0.057 A 
ATOM     17  C   UNL A   1     -26.681   0.346  26.513  0.00  0.00    -0.017 A 
ATOM     18  C   UNL A   1     -27.698   1.056  27.186  0.00  0.00    -0.004 A 
ATOM     19  C   UNL A   1     -26.865   0.080  29.277  0.00  0.00    +0.015 A 
ATOM     20  C   UNL A   1     -27.776   0.858  28.577  0.00  0.00    +0.001 A 
BRANCH  17  21
ATOM     21  C   UNL A   1     -26.621   0.515  25.027  0.00  0.00    +0.053 C 
BRANCH  21  22
ATOM     22  C   UNL A   1     -27.846   0.711  24.325  0.00  0.00    -0.018 A 
ATOM     23  C   UNL A   1     -28.255   1.884  23.980  0.00  0.00    -0.004 A 
ATOM     24  C   UNL A   1     -28.776  -0.357  24.165  0.00  0.00    -0.004 A 
ATOM     25  C   UNL A   1     -30.022  -0.130  23.522  0.00  0.00    -0.000 A 
ATOM     26  C   UNL A   1     -29.435   2.207  23.284  0.00  0.00    -0.000 A 
ATOM     27  C   UNL A   1     -30.358   1.114  23.140  0.00  0.00    -0.000 A 
ENDBRANCH  21  22
ENDBRANCH  17  21
ENDBRANCH   1  16
BRANCH   1  28
ATOM     28  C   UNL A   1     -25.038  -2.786  29.209  0.00  0.00    +0.057 A 
ATOM     29  C   UNL A   1     -23.995  -3.369  28.620  0.00  0.00    +0.015 A 
ATOM     30  C   UNL A   1     -23.929  -4.642  28.583  0.00  0.00    +0.001 A 
ATOM     31  C   UNL A   1     -24.980  -5.487  28.937  0.00  0.00    +0.000 A 
ATOM     32  C   UNL A   1     -26.081  -4.867  29.542  0.00  0.00    +0.001 A 
ATOM     33  C   UNL A   1     -26.116  -3.516  29.719  0.00  0.00    +0.014 A 
BRANCH  33  34
ATOM     34  C   UNL A   1     -27.309  -2.889  30.352  0.00  0.00    +0.001 C 
ATOM     35  C   UNL A   1     -28.328  -3.780  30.833  0.00  0.00    +0.000 C 
ENDBRANCH  33  34
ENDBRANCH   1  28
TORSDOF 7
ENDMDL
ENDMDL
