REMARK  Name = No_975-gen_results/8p0m/2024-11-27-11-27-31/
REMARK  7 active torsions:
REMARK  status: ('A' for Active; 'I' for Inactive)
REMARK    1  A    between atoms: C_3  and  O_11
REMARK    2  A    between atoms: C_5  and  C_8
REMARK    3  A    between atoms: O_11  and  C_12
REMARK    4  A    between atoms: C_12  and  C_13
REMARK    5  A    between atoms: N_17  and  C_18
REMARK    6  A    between atoms: C_19  and  C_20
REMARK    7  A    between atoms: C_21  and  C_22
REMARK                            x       y       z     vdW  Elec       q    Type
REMARK                         _______ _______ _______ _____ _____    ______ ____
ROOT
ATOM      1  C   UNL A   1     -27.610   3.134  29.605  0.00  0.00    +0.303 C 
ATOM      2  N   UNL A   1     -27.734   3.629  28.309  0.00  0.00    -0.207 NA
ENDROOT
BRANCH   1   3
ATOM      3  C   UNL A   1     -27.524   3.983  30.613  0.00  0.00    +0.470 C 
ATOM      4  F   UNL A   1     -28.111   3.574  31.688  0.00  0.00    -0.162 F 
ATOM      5  F   UNL A   1     -27.913   5.293  30.383  0.00  0.00    -0.162 F 
ATOM      6  F   UNL A   1     -26.180   4.154  31.020  0.00  0.00    -0.162 F 
ENDBRANCH   1   3
BRANCH   2   7
ATOM      7  C   UNL A   1     -27.650   2.808  27.156  0.00  0.00    +0.102 C 
ATOM      8  C   UNL A   1     -28.472   3.160  26.303  0.00  0.00    +0.021 C 
BRANCH   8   9
ATOM      9  C   UNL A   1     -28.481   2.421  25.135  0.00  0.00    +0.002 C 
ATOM     10  C   UNL A   1     -29.516   2.505  24.167  0.00  0.00    +0.000 C 
BRANCH  10  11
ATOM     11  C   UNL A   1     -30.534   3.504  24.285  0.00  0.00    +0.000 C 
ATOM     12  C   UNL A   1     -30.477   4.317  25.446  0.00  0.00    +0.000 C 
ENDBRANCH  10  11
ENDBRANCH   8   9
ENDBRANCH   2   7
BRANCH   1  13
ATOM     13  O   UNL A   1     -27.715   1.873  29.691  0.00  0.00    -0.432 OA
BRANCH  13  16
ATOM     14 CL   UNL A   1     -28.149  -0.820  28.908  0.00  0.00    -0.079 Cl
ATOM     15  C   UNL A   1     -26.912  -0.080  28.945  0.00  0.00    +0.092 A 
ATOM     16  C   UNL A   1     -26.738   1.044  29.253  0.00  0.00    +0.158 A 
ATOM     17  C   UNL A   1     -25.424   1.576  29.424  0.00  0.00    +0.045 A 
ATOM     18  C   UNL A   1     -24.263   0.848  29.032  0.00  0.00    +0.083 A 
ATOM     19  C   UNL A   1     -24.487  -0.440  28.673  0.00  0.00    +0.008 A 
ATOM     20  C   UNL A   1     -25.722  -0.928  28.616  0.00  0.00    +0.015 A 
BRANCH  18  21
ATOM     21  C   UNL A   1     -22.915   1.429  29.074  0.00  0.00    +0.388 C 
ATOM     22  O   UNL A   1     -21.899   0.727  29.013  0.00  0.00    -0.241 OA
ATOM     23  O   UNL A   1     -22.727   2.690  28.796  0.00  0.00    -0.241 OA
ENDBRANCH  18  21
ENDBRANCH  13  16
ENDBRANCH   1  13
TORSDOF 7
