REMARK  Name = outputs/IAG933/test6/raw/output_9750_IAG933_linker_design_.xyz
REMARK  9 active torsions:
REMARK  status: ('A' for Active; 'I' for Inactive)
REMARK    1  A    between atoms: C_1  and  C_2
REMARK    2  A    between atoms: C_1  and  C_8
REMARK    3  A    between atoms: C_1  and  N_35
REMARK    4  A    between atoms: C_13  and  N_33
REMARK    5  A    between atoms: C_14  and  C_15
REMARK    6  A    between atoms: C_21  and  O_22
REMARK    7  A    between atoms: O_22  and  C_23
REMARK    8  A    between atoms: C_23  and  C_24
REMARK    9  A    between atoms: C_30  and  C_31
REMARK                            x       y       z     vdW  Elec       q    Type
REMARK                         _______ _______ _______ _____ _____    ______ ____
ROOT
ATOM      1  F   UNL A   1     -23.562   1.970  24.641  0.00  0.00    -0.161 F 
ATOM      2  O   UNL A   1     -23.304   1.800  30.019  0.00  0.00    -0.204 OA
ATOM      3  C   UNL A   1     -23.119   0.692  29.229  0.00  0.00    +0.201 C 
ATOM      4  C   UNL A   1     -25.295  -0.178  28.072  0.00  0.00    +0.175 C 
ATOM      5  N   UNL A   1     -24.767   1.216  27.278  0.00  0.00    -0.266 N 
ATOM      6  N   UNL A   1     -24.558   0.167  29.339  0.00  0.00    -0.226 NA
ATOM      7  C   UNL A   1     -22.961   1.846  25.826  0.00  0.00    +0.303 A 
ATOM      8  O   UNL A   1     -21.666   2.093  25.971  0.00  0.00    -0.402 OA
ATOM      9  C   UNL A   1     -23.443   1.311  27.080  0.00  0.00    +0.122 A 
ATOM     10  C   UNL A   1     -22.625   1.203  27.885  0.00  0.00    +0.102 A 
ATOM     11  C   UNL A   1     -21.491   1.700  27.247  0.00  0.00    +0.290 A 
ATOM     12  F   UNL A   1     -20.303   1.884  27.720  0.00  0.00    -0.163 F 
ENDROOT
BRANCH   5  13
ATOM     13  C   UNL A   1     -25.688   1.614  26.461  0.00  0.00    +0.091 C 
ATOM     14  C   UNL A   1     -26.250   2.920  26.395  0.00  0.00    +0.090 C 
ATOM     15  C   UNL A   1     -27.438   3.091  25.645  0.00  0.00    +0.108 C 
ATOM     16  N   UNL A   1     -28.075   2.089  25.003  0.00  0.00    -0.208 NA
ATOM     17  C   UNL A   1     -27.543   0.849  25.079  0.00  0.00    +0.255 C 
ATOM     18  C   UNL A   1     -26.354   0.576  25.777  0.00  0.00    +0.207 C 
ATOM     19  F   UNL A   1     -25.860  -0.681  25.795  0.00  0.00    -0.198 F 
BRANCH  14  20
ATOM     20  C   UNL A   1     -25.642   4.093  27.123  0.00  0.00    +0.268 C 
ATOM     21  N   UNL A   1     -25.614   5.252  26.449  0.00  0.00    -0.200 NA
ATOM     22  C   UNL A   1     -25.026   6.479  26.963  0.00  0.00    +0.139 C 
ATOM     23  O   UNL A   1     -25.143   3.966  28.243  0.00  0.00    -0.268 OA
ENDBRANCH  14  20
BRANCH  17  24
ATOM     24  O   UNL A   1     -28.193  -0.208  24.477  0.00  0.00    -0.456 OA
BRANCH  24  25
ATOM     25  C   UNL A   1     -29.460   0.005  23.866  0.00  0.00    +0.243 C 
BRANCH  25  26
ATOM     26  C   UNL A   1     -30.065  -1.377  23.573  0.00  0.00    +0.229 C 
ATOM     27  O   UNL A   1     -30.729  -1.878  24.721  0.00  0.00    -0.216 OA
ENDBRANCH  25  26
ENDBRANCH  24  25
ENDBRANCH  17  24
ENDBRANCH   5  13
BRANCH   3  28
ATOM     28  C   UNL A   1     -22.161  -0.243  29.759  0.00  0.00    +0.051 C 
ATOM     29  C   UNL A   1     -21.119  -0.512  28.912  0.00  0.00    +0.004 C 
ENDBRANCH   3  28
BRANCH   6  30
ATOM     30  C   UNL A   1     -24.855  -1.012  30.143  0.00  0.00    +0.100 C 
BRANCH  30  31
ATOM     31  C   UNL A   1     -24.973  -2.505  29.788  0.00  0.00    -0.006 C 
ATOM     32  C   UNL A   1     -23.906  -3.173  29.146  0.00  0.00    -0.003 C 
ATOM     33  C   UNL A   1     -23.989  -4.549  28.853  0.00  0.00    -0.000 C 
ATOM     34  C   UNL A   1     -25.137  -5.280  29.205  0.00  0.00    -0.000 C 
ATOM     35  C   UNL A   1     -26.232  -4.611  29.784  0.00  0.00    -0.000 C 
ATOM     36  C   UNL A   1     -26.155  -3.232  30.065  0.00  0.00    -0.003 C 
ENDBRANCH  30  31
BRANCH  30  37
ATOM     37  C   UNL A   1     -25.387  -0.679  31.571  0.00  0.00    +0.092 C 
ATOM     38  C   UNL A   1     -25.189   0.773  32.028  0.00  0.00    +0.021 C 
ATOM     39  C   UNL A   1     -25.336   0.684  33.544  0.00  0.00    +0.020 C 
ATOM     40  C   UNL A   1     -24.829  -0.715  33.905  0.00  0.00    +0.089 C 
ATOM     41  N   UNL A   1     -24.758  -1.481  32.646  0.00  0.00    -0.218 NA
ENDBRANCH  30  37
ENDBRANCH   6  30
TORSDOF 9
