REMARK  Name = outputs/IAG933/test6/raw/output_9754_IAG933_linker_design_.xyz
REMARK  13 active torsions:
REMARK  status: ('A' for Active; 'I' for Inactive)
REMARK    1  A    between atoms: C_1  and  C_2
REMARK    2  A    between atoms: C_1  and  C_8
REMARK    3  A    between atoms: C_1  and  C_38
REMARK    4  A    between atoms: C_13  and  C_42
REMARK    5  A    between atoms: C_14  and  C_15
REMARK    6  A    between atoms: C_21  and  O_22
REMARK    7  A    between atoms: O_22  and  C_23
REMARK    8  A    between atoms: C_23  and  C_24
REMARK    9  A    between atoms: C_28  and  C_29
REMARK   10  A    between atoms: C_28  and  C_35
REMARK   11  A    between atoms: C_29  and  C_40
REMARK   12  A    between atoms: C_32  and  C_40
REMARK   13  A    between atoms: N_36  and  C_41
REMARK                            x       y       z     vdW  Elec       q    Type
REMARK                         _______ _______ _______ _____ _____    ______ ____
ROOT
ATOM      1  C   UNL A   1     -25.219   0.792  28.717  0.00  0.00    +0.047 A 
ATOM      2  N   UNL A   1     -23.338   1.326  27.472  0.00  0.00    -0.234 N 
ATOM      3  C   UNL A   1     -23.957   0.070  29.379  0.00  0.00    +0.021 A 
ATOM      4  C   UNL A   1     -22.731   0.752  28.409  0.00  0.00    +0.160 A 
ATOM      5  C   UNL A   1     -24.724   1.187  27.512  0.00  0.00    +0.062 A 
ATOM      6  N   UNL A   1     -21.319   0.865  28.209  0.00  0.00    -0.108 NA
ENDROOT
BRANCH   5   7
ATOM      7  C   UNL A   1     -25.688   1.614  26.461  0.00  0.00    +0.110 C 
ATOM      8  C   UNL A   1     -26.250   2.920  26.395  0.00  0.00    +0.060 C 
ATOM      9  C   UNL A   1     -27.438   3.091  25.645  0.00  0.00    +0.102 C 
ATOM     10  N   UNL A   1     -28.075   2.089  25.003  0.00  0.00    -0.212 NA
ATOM     11  C   UNL A   1     -27.543   0.849  25.079  0.00  0.00    +0.234 C 
ATOM     12  C   UNL A   1     -26.354   0.576  25.777  0.00  0.00    +0.245 C 
ATOM     13  F   UNL A   1     -25.860  -0.681  25.795  0.00  0.00    -0.227 F 
BRANCH   8  14
ATOM     14  C   UNL A   1     -25.642   4.093  27.123  0.00  0.00    +0.263 C 
ATOM     15  N   UNL A   1     -25.614   5.252  26.449  0.00  0.00    -0.200 NA
ATOM     16  C   UNL A   1     -25.026   6.479  26.963  0.00  0.00    +0.139 C 
ATOM     17  O   UNL A   1     -25.143   3.966  28.243  0.00  0.00    -0.269 OA
ENDBRANCH   8  14
BRANCH  11  18
ATOM     18  O   UNL A   1     -28.193  -0.208  24.477  0.00  0.00    -0.459 OA
BRANCH  18  19
ATOM     19  C   UNL A   1     -29.460   0.005  23.866  0.00  0.00    +0.242 C 
BRANCH  19  20
ATOM     20  C   UNL A   1     -30.065  -1.377  23.573  0.00  0.00    +0.229 C 
ATOM     21  O   UNL A   1     -30.729  -1.878  24.721  0.00  0.00    -0.216 OA
ENDBRANCH  19  20
ENDBRANCH  18  19
ENDBRANCH  11  18
ENDBRANCH   5   7
BRANCH   1  23
ATOM     22  O   UNL A   1     -27.313  -0.597  28.570  0.00  0.00    -0.291 OA
ATOM     23  C   UNL A   1     -26.874   0.456  28.916  0.00  0.00    +0.174 C 
BRANCH  23  24
ATOM     24  C   UNL A   1     -27.846   1.558  29.326  0.00  0.00    +0.074 C 
BRANCH  24  25
ATOM     25  C   UNL A   1     -29.339   1.664  28.823  0.00  0.00    +0.035 C 
BRANCH  25  28
ATOM     26  C   UNL A   1     -29.214   5.404  28.145  0.00  0.00    -0.000 C 
ATOM     27  C   UNL A   1     -29.034   4.154  28.730  0.00  0.00    -0.004 C 
ATOM     28  C   UNL A   1     -29.686   3.025  28.192  0.00  0.00    -0.022 C 
ATOM     29  C   UNL A   1     -30.572   3.183  27.124  0.00  0.00    -0.004 C 
ATOM     30  C   UNL A   1     -30.061   5.563  27.056  0.00  0.00    -0.000 C 
ATOM     31  C   UNL A   1     -30.740   4.462  26.554  0.00  0.00    -0.000 C 
ENDBRANCH  25  28
ENDBRANCH  24  25
ENDBRANCH  23  24
ENDBRANCH   1  23
BRANCH   2  33
ATOM     32  N   UNL A   1     -22.530   2.389  25.316  0.00  0.00    -0.171 NA
ATOM     33  C   UNL A   1     -22.829   1.946  26.345  0.00  0.00    +0.190 C 
ENDBRANCH   2  33
BRANCH   3  34
ATOM     34  C   UNL A   1     -24.855  -1.012  30.143  0.00  0.00    +0.064 C 
BRANCH  34  35
ATOM     35  C   UNL A   1     -24.973  -2.505  29.788  0.00  0.00    -0.017 C 
ATOM     36  C   UNL A   1     -23.906  -3.173  29.146  0.00  0.00    -0.004 C 
ATOM     37  C   UNL A   1     -23.989  -4.549  28.853  0.00  0.00    -0.000 C 
ATOM     38  C   UNL A   1     -25.137  -5.280  29.205  0.00  0.00    -0.000 C 
ATOM     39  C   UNL A   1     -26.232  -4.611  29.784  0.00  0.00    -0.000 C 
ATOM     40  C   UNL A   1     -26.155  -3.232  30.065  0.00  0.00    -0.004 C 
ENDBRANCH  34  35
BRANCH  34  41
ATOM     41  C   UNL A   1     -25.387  -0.679  31.571  0.00  0.00    +0.081 C 
ATOM     42  C   UNL A   1     -25.189   0.773  32.028  0.00  0.00    +0.019 C 
ATOM     43  C   UNL A   1     -25.336   0.684  33.544  0.00  0.00    +0.020 C 
ATOM     44  C   UNL A   1     -24.829  -0.715  33.905  0.00  0.00    +0.089 C 
ATOM     45  N   UNL A   1     -24.758  -1.481  32.646  0.00  0.00    -0.219 NA
ENDBRANCH  34  41
ENDBRANCH   3  34
TORSDOF 13
