REMARK  Name = outputs/IAG933/test6/raw/output_9759_IAG933_linker_design_.xyz
REMARK  12 active torsions:
REMARK  status: ('A' for Active; 'I' for Inactive)
REMARK    1  A    between atoms: C_1  and  C_2
REMARK    2  A    between atoms: C_1  and  C_8
REMARK    3  A    between atoms: C_1  and  N_49
REMARK    4  A    between atoms: C_13  and  C_39
REMARK    5  A    between atoms: C_14  and  C_15
REMARK    6  A    between atoms: C_21  and  O_22
REMARK    7  A    between atoms: O_22  and  C_23
REMARK    8  A    between atoms: C_23  and  C_24
REMARK    9  A    between atoms: C_32  and  C_34
REMARK   10  A    between atoms: C_32  and  C_43
REMARK   11  A    between atoms: C_46  and  N_48
REMARK   12  A    between atoms: N_48  and  N_49
REMARK                            x       y       z     vdW  Elec       q    Type
REMARK                         _______ _______ _______ _____ _____    ______ ____
ROOT
ATOM      1  C   UNL A   1     -23.302   1.839  26.649  0.00  0.00    +0.041 C 
ATOM      2  C   UNL A   1     -22.134   1.617  27.292  0.00  0.00    +0.187 C 
ATOM      3  N   UNL A   1     -23.152   0.160  28.917  0.00  0.00    -0.032 NA
ATOM      4  C   UNL A   1     -24.355   0.479  28.310  0.00  0.00    +0.346 C 
ATOM      5  C   UNL A   1     -24.458   1.273  27.169  0.00  0.00    +0.089 C 
ATOM      6  C   UNL A   1     -22.080   0.725  28.344  0.00  0.00    +0.265 C 
ATOM      7  F   UNL A   1     -20.980   2.231  26.884  0.00  0.00    -0.200 F 
ATOM      8  N   UNL A   1     -25.364  -0.073  29.119  0.00  0.00    -0.084 N 
ENDROOT
BRANCH   5   9
ATOM      9  C   UNL A   1     -25.688   1.614  26.461  0.00  0.00    +0.045 C 
ATOM     10  C   UNL A   1     -26.250   2.920  26.395  0.00  0.00    +0.077 C 
ATOM     11  C   UNL A   1     -27.438   3.091  25.645  0.00  0.00    +0.107 C 
ATOM     12  N   UNL A   1     -28.075   2.089  25.003  0.00  0.00    -0.208 NA
ATOM     13  C   UNL A   1     -27.543   0.849  25.079  0.00  0.00    +0.253 C 
ATOM     14  C   UNL A   1     -26.354   0.576  25.777  0.00  0.00    +0.193 C 
ATOM     15  F   UNL A   1     -25.860  -0.681  25.795  0.00  0.00    -0.199 F 
BRANCH  10  16
ATOM     16  C   UNL A   1     -25.642   4.093  27.123  0.00  0.00    +0.266 C 
ATOM     17  N   UNL A   1     -25.614   5.252  26.449  0.00  0.00    -0.200 NA
ATOM     18  C   UNL A   1     -25.026   6.479  26.963  0.00  0.00    +0.139 C 
ATOM     19  O   UNL A   1     -25.143   3.966  28.243  0.00  0.00    -0.268 OA
ENDBRANCH  10  16
BRANCH  13  20
ATOM     20  O   UNL A   1     -28.193  -0.208  24.477  0.00  0.00    -0.456 OA
BRANCH  20  21
ATOM     21  C   UNL A   1     -29.460   0.005  23.866  0.00  0.00    +0.243 C 
BRANCH  21  22
ATOM     22  C   UNL A   1     -30.065  -1.377  23.573  0.00  0.00    +0.229 C 
ATOM     23  O   UNL A   1     -30.729  -1.878  24.721  0.00  0.00    -0.216 OA
ENDBRANCH  21  22
ENDBRANCH  20  21
ENDBRANCH  13  20
ENDBRANCH   5   9
BRANCH   8  24
ATOM     24  C   UNL A   1     -24.855  -1.012  30.143  0.00  0.00    +0.223 C 
BRANCH  24  25
ATOM     25  C   UNL A   1     -24.973  -2.505  29.788  0.00  0.00    +0.023 C 
ATOM     26  C   UNL A   1     -23.906  -3.173  29.146  0.00  0.00    -0.000 C 
ATOM     27  C   UNL A   1     -23.989  -4.549  28.853  0.00  0.00    -0.000 C 
ATOM     28  C   UNL A   1     -25.137  -5.280  29.205  0.00  0.00    -0.000 C 
ATOM     29  C   UNL A   1     -26.232  -4.611  29.784  0.00  0.00    -0.000 C 
ATOM     30  C   UNL A   1     -26.155  -3.232  30.065  0.00  0.00    -0.000 C 
ENDBRANCH  24  25
BRANCH  24  31
ATOM     31  C   UNL A   1     -25.387  -0.679  31.571  0.00  0.00    +0.122 C 
ATOM     32  C   UNL A   1     -25.189   0.773  32.028  0.00  0.00    +0.023 C 
ATOM     33  C   UNL A   1     -25.336   0.684  33.544  0.00  0.00    +0.020 C 
ATOM     34  C   UNL A   1     -24.829  -0.715  33.905  0.00  0.00    +0.089 C 
ATOM     35  N   UNL A   1     -24.758  -1.481  32.646  0.00  0.00    -0.215 NA
ENDBRANCH  24  31
ENDBRANCH   8  24
BRANCH   8  36
ATOM     36  N   UNL A   1     -26.434   0.682  29.196  0.00  0.00    -0.052 NA
BRANCH  36  43
ATOM     37  C   UNL A   1     -28.640   3.474  29.285  0.00  0.00    +0.048 C 
ATOM     38  C   UNL A   1     -31.063   0.769  29.274  0.00  0.00    +0.115 C 
ATOM     39  C   UNL A   1     -28.653   0.777  28.773  0.00  0.00    +0.268 C 
ATOM     40  C   UNL A   1     -27.468   2.755  29.517  0.00  0.00    +0.000 C 
ATOM     41  C   UNL A   1     -29.709   2.833  28.677  0.00  0.00    +0.082 C 
ATOM     42  O   UNL A   1     -28.575  -0.370  28.239  0.00  0.00    -0.268 OA
ATOM     43  C   UNL A   1     -27.449   1.407  29.166  0.00  0.00    +0.159 C 
ATOM     44  N   UNL A   1     -29.797   1.443  28.913  0.00  0.00    -0.274 N 
BRANCH  41  45
ATOM     45  C   UNL A   1     -30.456   3.639  27.727  0.00  0.00    +0.047 C 
ATOM     46  C   UNL A   1     -31.033   3.369  26.346  0.00  0.00    +0.004 C 
BRANCH  45  47
ATOM     47  C   UNL A   1     -30.463   5.171  28.093  0.00  0.00    +0.128 C 
ATOM     48  C   UNL A   1     -32.009   5.296  28.009  0.00  0.00    +0.033 C 
ATOM     49  C   UNL A   1     -29.368   5.884  27.170  0.00  0.00    +0.033 C 
ATOM     50  O   UNL A   1     -30.065   5.753  29.372  0.00  0.00    -0.226 OA
ENDBRANCH  45  47
ENDBRANCH  41  45
ENDBRANCH  36  43
ENDBRANCH   8  36
TORSDOF 12
