MODEL 975
MODEL 1
REMARK VINA RESULT:    -6.232      0.000      0.000
REMARK INTER + INTRA:          -9.866
REMARK INTER:                  -8.782
REMARK INTRA:                  -1.083
REMARK UNBOUND:                -1.083
REMARK  Name = No_975-gen_results/8p0m/2024-11-27-11-27-31/
REMARK  7 active torsions:
REMARK  status: ('A' for Active; 'I' for Inactive)
REMARK    1  A    between atoms: C_3  and  O_11
REMARK    2  A    between atoms: C_5  and  C_8
REMARK    3  A    between atoms: O_11  and  C_12
REMARK    4  A    between atoms: C_12  and  C_13
REMARK    5  A    between atoms: N_17  and  C_18
REMARK    6  A    between atoms: C_19  and  C_20
REMARK    7  A    between atoms: C_21  and  C_22
REMARK                            x       y       z     vdW  Elec       q    Type
REMARK                         _______ _______ _______ _____ _____    ______ ____
ROOT
ATOM      1  C   UNL A   1     -23.925   1.099  27.206  0.00  0.00    +0.303 C 
ATOM      2  N   UNL A   1     -24.559   1.002  25.970  0.00  0.00    -0.207 NA
ENDROOT
BRANCH   1   3
ATOM      3  C   UNL A   1     -22.648   1.434  27.250  0.00  0.00    +0.470 C 
ATOM      4  F   UNL A   1     -22.183   1.858  26.122  0.00  0.00    -0.162 F 
ATOM      5  F   UNL A   1     -21.758   0.501  27.758  0.00  0.00    -0.162 F 
ATOM      6  F   UNL A   1     -22.439   2.529  28.121  0.00  0.00    -0.162 F 
ENDBRANCH   1   3
BRANCH   2   7
ATOM      7  C   UNL A   1     -25.867   0.476  25.810  0.00  0.00    +0.102 C 
ATOM      8  C   UNL A   1     -26.144   0.339  24.614  0.00  0.00    +0.021 C 
BRANCH   8   9
ATOM      9  C   UNL A   1     -27.403  -0.163  24.342  0.00  0.00    +0.002 C 
ATOM     10  C   UNL A   1     -28.471   0.634  23.852  0.00  0.00    +0.000 C 
BRANCH  10  11
ATOM     11  C   UNL A   1     -28.236   1.988  23.454  0.00  0.00    +0.000 C 
ATOM     12  C   UNL A   1     -28.733   2.989  24.328  0.00  0.00    +0.000 C 
ENDBRANCH  10  11
ENDBRANCH   8   9
ENDBRANCH   2   7
BRANCH   1  13
ATOM     13  O   UNL A   1     -24.702   0.966  28.200  0.00  0.00    -0.432 OA
BRANCH  13  16
ATOM     14 CL   UNL A   1     -23.795   1.531  30.829  0.00  0.00    -0.079 Cl
ATOM     15  C   UNL A   1     -24.097   0.252  30.235  0.00  0.00    +0.092 A 
ATOM     16  C   UNL A   1     -24.491   0.023  29.148  0.00  0.00    +0.158 A 
ATOM     17  C   UNL A   1     -24.557  -1.312  28.645  0.00  0.00    +0.045 A 
ATOM     18  C   UNL A   1     -24.354  -2.443  29.489  0.00  0.00    +0.083 A 
ATOM     19  C   UNL A   1     -23.909  -2.155  30.737  0.00  0.00    +0.008 A 
ATOM     20  C   UNL A   1     -23.771  -0.896  31.139  0.00  0.00    +0.015 A 
BRANCH  18  21
ATOM     21  C   UNL A   1     -24.550  -3.821  29.023  0.00  0.00    +0.388 C 
ATOM     22  O   UNL A   1     -23.616  -4.502  28.584  0.00  0.00    -0.241 OA
ATOM     23  O   UNL A   1     -25.598  -4.505  29.394  0.00  0.00    -0.241 OA
ENDBRANCH  18  21
ENDBRANCH  13  16
ENDBRANCH   1  13
TORSDOF 7
ENDMDL
ENDMDL
