REMARK  Name = outputs/IAG933/test6/raw/output_9765_IAG933_linker_design_.xyz
REMARK  17 active torsions:
REMARK  status: ('A' for Active; 'I' for Inactive)
REMARK    1  A    between atoms: C_1  and  C_2
REMARK    2  A    between atoms: C_1  and  C_8
REMARK    3  A    between atoms: C_1  and  C_35
REMARK    4  A    between atoms: C_14  and  C_15
REMARK    5  A    between atoms: C_15  and  O_18
REMARK    6  A    between atoms: O_18  and  C_38
REMARK    7  A    between atoms: C_21  and  O_22
REMARK    8  A    between atoms: O_22  and  C_23
REMARK    9  A    between atoms: C_23  and  C_24
REMARK   10  A    between atoms: C_28  and  C_29
REMARK   11  A    between atoms: C_28  and  N_41
REMARK   12  A    between atoms: C_29  and  C_35
REMARK   13  A    between atoms: C_29  and  C_43
REMARK   14  A    between atoms: C_30  and  C_43
REMARK   15  A    between atoms: C_36  and  N_44
REMARK   16  A    between atoms: C_38  and  N_41
REMARK   17  A    between atoms: C_38  and  C_42
REMARK                            x       y       z     vdW  Elec       q    Type
REMARK                         _______ _______ _______ _____ _____    ______ ____
ROOT
ATOM      1  C   UNL A   1     -25.309   3.228  29.518  0.00  0.00    +0.322 C 
ENDROOT
BRANCH   1   3
ATOM      2  O   UNL A   1     -27.523   2.389  29.428  0.00  0.00    -0.267 OA
ATOM      3  C   UNL A   1     -26.806   3.253  29.815  0.00  0.00    +0.304 C 
ATOM      4  N   UNL A   1     -27.310   4.369  30.486  0.00  0.00    -0.175 NA
BRANCH   4   8
ATOM      5  C   UNL A   1     -25.412   5.134  31.907  0.00  0.00    +0.017 C 
ATOM      6  C   UNL A   1     -24.729   6.188  32.520  0.00  0.00    +0.001 C 
ATOM      7  C   UNL A   1     -26.284   7.800  31.501  0.00  0.00    +0.001 C 
ATOM      8  C   UNL A   1     -26.567   5.420  31.122  0.00  0.00    +0.073 C 
ATOM      9  C   UNL A   1     -25.187   7.504  32.331  0.00  0.00    +0.000 C 
ATOM     10  C   UNL A   1     -26.986   6.744  30.907  0.00  0.00    +0.017 C 
ENDBRANCH   4   8
ENDBRANCH   1   3
BRANCH   1  11
ATOM     11  N   UNL A   1     -24.858   1.903  29.111  0.00  0.00    -0.172 NA
BRANCH  11  12
ATOM     12  C   UNL A   1     -23.405   1.806  29.297  0.00  0.00    +0.093 C 
BRANCH  12  13
ATOM     13  C   UNL A   1     -22.911   0.426  28.804  0.00  0.00    +0.021 C 
BRANCH  13  14
ATOM     14  C   UNL A   1     -21.503   0.486  28.123  0.00  0.00    +0.037 C 
BRANCH  14  15
ATOM     15  C   UNL A   1     -21.262   1.834  27.449  0.00  0.00    +0.182 C 
ATOM     16  O   UNL A   1     -22.165   2.114  26.417  0.00  0.00    -0.220 OA
ENDBRANCH  14  15
ENDBRANCH  13  14
BRANCH  13  17
ATOM     17  C   UNL A   1     -23.319  -0.569  30.017  0.00  0.00    +0.007 C 
BRANCH  17  18
ATOM     18  C   UNL A   1     -24.855  -1.012  30.143  0.00  0.00    +0.038 C 
BRANCH  18  19
ATOM     19  C   UNL A   1     -24.973  -2.505  29.788  0.00  0.00    -0.021 C 
ATOM     20  C   UNL A   1     -23.906  -3.173  29.146  0.00  0.00    -0.004 C 
ATOM     21  C   UNL A   1     -23.989  -4.549  28.853  0.00  0.00    -0.000 C 
ATOM     22  C   UNL A   1     -25.137  -5.280  29.205  0.00  0.00    -0.000 C 
ATOM     23  C   UNL A   1     -26.232  -4.611  29.784  0.00  0.00    -0.000 C 
ATOM     24  C   UNL A   1     -26.155  -3.232  30.065  0.00  0.00    -0.004 C 
ENDBRANCH  18  19
BRANCH  18  25
ATOM     25  C   UNL A   1     -25.387  -0.679  31.571  0.00  0.00    +0.077 C 
ATOM     26  C   UNL A   1     -25.189   0.773  32.028  0.00  0.00    +0.019 C 
ATOM     27  C   UNL A   1     -25.336   0.684  33.544  0.00  0.00    +0.020 C 
ATOM     28  C   UNL A   1     -24.829  -0.715  33.905  0.00  0.00    +0.089 C 
ATOM     29  N   UNL A   1     -24.758  -1.481  32.646  0.00  0.00    -0.219 NA
ENDBRANCH  18  25
ENDBRANCH  17  18
ENDBRANCH  13  17
ENDBRANCH  12  13
ENDBRANCH  11  12
ENDBRANCH   1  11
BRANCH   1  30
ATOM     30  O   UNL A   1     -25.143   3.966  28.243  0.00  0.00    -0.438 OA
BRANCH  30  31
ATOM     31  C   UNL A   1     -25.642   4.093  27.123  0.00  0.00    +0.224 C 
ATOM     32  N   UNL A   1     -25.614   5.252  26.449  0.00  0.00    -0.236 NA
ATOM     33  C   UNL A   1     -25.026   6.479  26.963  0.00  0.00    +0.155 C 
BRANCH  31  35
ATOM     34  C   UNL A   1     -25.688   1.614  26.461  0.00  0.00    +0.041 C 
ATOM     35  C   UNL A   1     -26.250   2.920  26.395  0.00  0.00    +0.074 C 
ATOM     36  C   UNL A   1     -27.438   3.091  25.645  0.00  0.00    +0.107 C 
ATOM     37  N   UNL A   1     -28.075   2.089  25.003  0.00  0.00    -0.208 NA
ATOM     38  C   UNL A   1     -27.543   0.849  25.079  0.00  0.00    +0.253 C 
ATOM     39  C   UNL A   1     -26.354   0.576  25.777  0.00  0.00    +0.193 C 
ATOM     40  F   UNL A   1     -25.860  -0.681  25.795  0.00  0.00    -0.199 F 
BRANCH  38  41
ATOM     41  O   UNL A   1     -28.193  -0.208  24.477  0.00  0.00    -0.456 OA
BRANCH  41  42
ATOM     42  C   UNL A   1     -29.460   0.005  23.866  0.00  0.00    +0.243 C 
BRANCH  42  43
ATOM     43  C   UNL A   1     -30.065  -1.377  23.573  0.00  0.00    +0.229 C 
ATOM     44  O   UNL A   1     -30.729  -1.878  24.721  0.00  0.00    -0.216 OA
ENDBRANCH  42  43
ENDBRANCH  41  42
ENDBRANCH  38  41
ENDBRANCH  31  35
ENDBRANCH  30  31
ENDBRANCH   1  30
TORSDOF 17
