REMARK  Name = outputs/IAG933/test6/raw/output_9766_IAG933_linker_design_.xyz
REMARK  13 active torsions:
REMARK  status: ('A' for Active; 'I' for Inactive)
REMARK    1  A    between atoms: C_1  and  C_2
REMARK    2  A    between atoms: C_1  and  C_8
REMARK    3  A    between atoms: C_1  and  N_38
REMARK    4  A    between atoms: C_13  and  C_33
REMARK    5  A    between atoms: C_14  and  C_15
REMARK    6  A    between atoms: C_21  and  O_22
REMARK    7  A    between atoms: O_22  and  C_23
REMARK    8  A    between atoms: C_23  and  C_24
REMARK    9  A    between atoms: C_28  and  C_30
REMARK   10  A    between atoms: C_28  and  N_38
REMARK   11  A    between atoms: C_32  and  C_33
REMARK   12  A    between atoms: C_33  and  C_41
REMARK   13  A    between atoms: N_38  and  C_41
REMARK                            x       y       z     vdW  Elec       q    Type
REMARK                         _______ _______ _______ _____ _____    ______ ____
ROOT
ATOM      1  C   UNL A   1     -23.458   1.380  29.364  0.00  0.00    +0.018 C 
ATOM      2  C   UNL A   1     -24.458   0.657  28.593  0.00  0.00    +0.069 C 
ENDROOT
BRANCH   2   3
ATOM      3  C   UNL A   1     -24.592   1.487  27.176  0.00  0.00    +0.100 C 
BRANCH   3   4
ATOM      4  C   UNL A   1     -25.688   1.614  26.461  0.00  0.00    +0.024 C 
ATOM      5  C   UNL A   1     -26.250   2.920  26.395  0.00  0.00    +0.073 C 
ATOM      6  C   UNL A   1     -27.438   3.091  25.645  0.00  0.00    +0.106 C 
ATOM      7  N   UNL A   1     -28.075   2.089  25.003  0.00  0.00    -0.208 NA
ATOM      8  C   UNL A   1     -27.543   0.849  25.079  0.00  0.00    +0.253 C 
ATOM      9  C   UNL A   1     -26.354   0.576  25.777  0.00  0.00    +0.190 C 
ATOM     10  F   UNL A   1     -25.860  -0.681  25.795  0.00  0.00    -0.200 F 
BRANCH   5  11
ATOM     11  C   UNL A   1     -25.642   4.093  27.123  0.00  0.00    +0.266 C 
ATOM     12  N   UNL A   1     -25.614   5.252  26.449  0.00  0.00    -0.200 NA
ATOM     13  C   UNL A   1     -25.026   6.479  26.963  0.00  0.00    +0.139 C 
ATOM     14  O   UNL A   1     -25.143   3.966  28.243  0.00  0.00    -0.268 OA
ENDBRANCH   5  11
BRANCH   8  15
ATOM     15  O   UNL A   1     -28.193  -0.208  24.477  0.00  0.00    -0.456 OA
BRANCH  15  16
ATOM     16  C   UNL A   1     -29.460   0.005  23.866  0.00  0.00    +0.243 C 
BRANCH  16  17
ATOM     17  C   UNL A   1     -30.065  -1.377  23.573  0.00  0.00    +0.229 C 
ATOM     18  O   UNL A   1     -30.729  -1.878  24.721  0.00  0.00    -0.216 OA
ENDBRANCH  16  17
ENDBRANCH  15  16
ENDBRANCH   8  15
ENDBRANCH   3   4
BRANCH   3  20
ATOM     19  C   UNL A   1     -21.460   1.913  25.450  0.00  0.00    +0.429 C 
ATOM     20  C   UNL A   1     -23.269   1.599  26.848  0.00  0.00    +0.162 C 
ATOM     21  O   UNL A   1     -21.030   1.675  26.651  0.00  0.00    -0.432 OA
ATOM     22  C   UNL A   1     -22.054   1.547  27.647  0.00  0.00    +0.209 C 
ATOM     23  O   UNL A   1     -22.930   1.928  25.491  0.00  0.00    -0.439 OA
ENDBRANCH   3  20
ENDBRANCH   2   3
BRANCH   2  24
ATOM     24  N   UNL A   1     -25.133  -0.252  28.972  0.00  0.00    -0.270 NA
BRANCH  24  25
ATOM     25  C   UNL A   1     -24.855  -1.012  30.143  0.00  0.00    +0.096 C 
BRANCH  25  26
ATOM     26  C   UNL A   1     -24.973  -2.505  29.788  0.00  0.00    -0.006 C 
ATOM     27  C   UNL A   1     -23.906  -3.173  29.146  0.00  0.00    -0.003 C 
ATOM     28  C   UNL A   1     -23.989  -4.549  28.853  0.00  0.00    -0.000 C 
ATOM     29  C   UNL A   1     -25.137  -5.280  29.205  0.00  0.00    -0.000 C 
ATOM     30  C   UNL A   1     -26.232  -4.611  29.784  0.00  0.00    -0.000 C 
ATOM     31  C   UNL A   1     -26.155  -3.232  30.065  0.00  0.00    -0.003 C 
ENDBRANCH  25  26
BRANCH  25  32
ATOM     32  C   UNL A   1     -25.387  -0.679  31.571  0.00  0.00    +0.092 C 
ATOM     33  C   UNL A   1     -25.189   0.773  32.028  0.00  0.00    +0.021 C 
ATOM     34  C   UNL A   1     -25.336   0.684  33.544  0.00  0.00    +0.020 C 
ATOM     35  C   UNL A   1     -24.829  -0.715  33.905  0.00  0.00    +0.089 C 
ATOM     36  N   UNL A   1     -24.758  -1.481  32.646  0.00  0.00    -0.218 NA
ENDBRANCH  25  32
ENDBRANCH  24  25
BRANCH  24  37
ATOM     37  C   UNL A   1     -26.305  -0.442  28.464  0.00  0.00    +0.075 C 
BRANCH  37  38
ATOM     38  C   UNL A   1     -27.138   0.589  28.866  0.00  0.00    +0.046 C 
ATOM     39  C   UNL A   1     -27.129   1.734  29.648  0.00  0.00    +0.004 C 
ATOM     40  C   UNL A   1     -28.295   0.127  28.549  0.00  0.00    +0.153 C 
ATOM     41  C   UNL A   1     -29.228   0.818  29.460  0.00  0.00    +0.033 C 
ATOM     42  C   UNL A   1     -28.381   1.773  30.127  0.00  0.00    +0.003 C 
ATOM     43  O   UNL A   1     -28.483  -0.877  27.753  0.00  0.00    -0.223 OA
ENDBRANCH  37  38
ENDBRANCH  24  37
ENDBRANCH   2  24
TORSDOF 13
