REMARK  Name = outputs/IAG933/test6/raw/output_9767_IAG933_linker_design_.xyz
REMARK  16 active torsions:
REMARK  status: ('A' for Active; 'I' for Inactive)
REMARK    1  A    between atoms: C_1  and  C_2
REMARK    2  A    between atoms: C_1  and  C_8
REMARK    3  A    between atoms: C_1  and  C_30
REMARK    4  A    between atoms: C_13  and  C_39
REMARK    5  A    between atoms: C_14  and  C_15
REMARK    6  A    between atoms: C_21  and  O_22
REMARK    7  A    between atoms: O_22  and  C_23
REMARK    8  A    between atoms: C_23  and  C_24
REMARK    9  A    between atoms: C_30  and  N_45
REMARK   10  A    between atoms: C_30  and  N_47
REMARK   11  A    between atoms: O_32  and  C_34
REMARK   12  A    between atoms: O_32  and  C_38
REMARK   13  A    between atoms: C_33  and  C_40
REMARK   14  A    between atoms: C_33  and  N_47
REMARK   15  A    between atoms: C_39  and  C_41
REMARK   16  A    between atoms: C_39  and  N_45
REMARK                            x       y       z     vdW  Elec       q    Type
REMARK                         _______ _______ _______ _____ _____    ______ ____
ROOT
ATOM      1  C   UNL A   1     -25.828  -0.291  29.286  0.00  0.00    +0.151 C 
ENDROOT
BRANCH   1   2
ATOM      2  C   UNL A   1     -24.855  -1.012  30.143  0.00  0.00    +0.071 C 
BRANCH   2   3
ATOM      3  C   UNL A   1     -24.973  -2.505  29.788  0.00  0.00    -0.018 C 
ATOM      4  C   UNL A   1     -23.906  -3.173  29.146  0.00  0.00    -0.004 C 
ATOM      5  C   UNL A   1     -23.989  -4.549  28.853  0.00  0.00    -0.000 C 
ATOM      6  C   UNL A   1     -25.137  -5.280  29.205  0.00  0.00    -0.000 C 
ATOM      7  C   UNL A   1     -26.232  -4.611  29.784  0.00  0.00    -0.000 C 
ATOM      8  C   UNL A   1     -26.155  -3.232  30.065  0.00  0.00    -0.004 C 
ENDBRANCH   2   3
BRANCH   2   9
ATOM      9  C   UNL A   1     -25.387  -0.679  31.571  0.00  0.00    +0.080 C 
ATOM     10  C   UNL A   1     -25.189   0.773  32.028  0.00  0.00    +0.019 C 
ATOM     11  C   UNL A   1     -25.336   0.684  33.544  0.00  0.00    +0.020 C 
ATOM     12  C   UNL A   1     -24.829  -0.715  33.905  0.00  0.00    +0.089 C 
ATOM     13  N   UNL A   1     -24.758  -1.481  32.646  0.00  0.00    -0.219 NA
ENDBRANCH   2   9
ENDBRANCH   1   2
BRANCH   1  14
ATOM     14  N   UNL A   1     -25.430  -0.130  28.063  0.00  0.00    -0.198 NA
BRANCH  14  15
ATOM     15  C   UNL A   1     -25.034   1.119  27.511  0.00  0.00    +0.106 C 
BRANCH  15  16
ATOM     16  C   UNL A   1     -25.688   1.614  26.461  0.00  0.00    +0.090 C 
ATOM     17  C   UNL A   1     -26.250   2.920  26.395  0.00  0.00    +0.057 C 
ATOM     18  C   UNL A   1     -27.438   3.091  25.645  0.00  0.00    +0.102 C 
ATOM     19  N   UNL A   1     -28.075   2.089  25.003  0.00  0.00    -0.212 NA
ATOM     20  C   UNL A   1     -27.543   0.849  25.079  0.00  0.00    +0.234 C 
ATOM     21  C   UNL A   1     -26.354   0.576  25.777  0.00  0.00    +0.242 C 
ATOM     22  F   UNL A   1     -25.860  -0.681  25.795  0.00  0.00    -0.227 F 
BRANCH  17  23
ATOM     23  C   UNL A   1     -25.642   4.093  27.123  0.00  0.00    +0.263 C 
ATOM     24  N   UNL A   1     -25.614   5.252  26.449  0.00  0.00    -0.200 NA
ATOM     25  C   UNL A   1     -25.026   6.479  26.963  0.00  0.00    +0.139 C 
ATOM     26  O   UNL A   1     -25.143   3.966  28.243  0.00  0.00    -0.269 OA
ENDBRANCH  17  23
BRANCH  20  27
ATOM     27  O   UNL A   1     -28.193  -0.208  24.477  0.00  0.00    -0.459 OA
BRANCH  27  28
ATOM     28  C   UNL A   1     -29.460   0.005  23.866  0.00  0.00    +0.242 C 
BRANCH  28  29
ATOM     29  C   UNL A   1     -30.065  -1.377  23.573  0.00  0.00    +0.229 C 
ATOM     30  O   UNL A   1     -30.729  -1.878  24.721  0.00  0.00    -0.216 OA
ENDBRANCH  28  29
ENDBRANCH  27  28
ENDBRANCH  20  27
ENDBRANCH  15  16
BRANCH  15  34
ATOM     31  C   UNL A   1     -23.360   2.381  25.008  0.00  0.00    +0.072 C 
ATOM     32  O   UNL A   1     -21.621   2.058  26.553  0.00  0.00    -0.455 OA
ATOM     33  C   UNL A   1     -22.942   1.955  26.278  0.00  0.00    +0.121 C 
ATOM     34  C   UNL A   1     -23.627   1.291  27.383  0.00  0.00    +0.028 C 
ATOM     35  C   UNL A   1     -22.673   0.903  28.345  0.00  0.00    +0.040 C 
ATOM     36  C   UNL A   1     -21.419   1.428  27.765  0.00  0.00    +0.179 C 
ENDBRANCH  15  34
ENDBRANCH  14  15
ENDBRANCH   1  14
BRANCH   1  37
ATOM     37  N   UNL A   1     -27.089   0.020  29.687  0.00  0.00    -0.202 NA
BRANCH  37  38
ATOM     38  C   UNL A   1     -28.227  -0.819  29.228  0.00  0.00    +0.093 C 
BRANCH  38  41
ATOM     39  C   UNL A   1     -31.002  -0.476  28.743  0.00  0.00    +0.097 C 
ATOM     40  C   UNL A   1     -29.916   0.705  27.973  0.00  0.00    +0.031 C 
ATOM     41  C   UNL A   1     -29.567  -0.035  29.162  0.00  0.00    +0.045 C 
ATOM     42  C   UNL A   1     -31.215   0.356  27.498  0.00  0.00    +0.030 C 
BRANCH  39  43
ATOM     43  O   UNL A   1     -31.000  -1.964  28.602  0.00  0.00    -0.335 OA
BRANCH  43  46
ATOM     44  C   UNL A   1     -30.810  -3.194  30.694  0.00  0.00    +0.067 C 
ATOM     45  F   UNL A   1     -32.224  -3.793  28.956  0.00  0.00    -0.210 F 
ATOM     46  C   UNL A   1     -31.721  -2.661  29.577  0.00  0.00    +0.227 C 
ATOM     47  C   UNL A   1     -32.830  -1.804  30.218  0.00  0.00    +0.067 C 
ENDBRANCH  43  46
ENDBRANCH  39  43
ENDBRANCH  38  41
ENDBRANCH  37  38
ENDBRANCH   1  37
TORSDOF 16
