REMARK  Name = outputs/IAG933/test6/raw/output_9768_IAG933_linker_design_.xyz
REMARK  14 active torsions:
REMARK  status: ('A' for Active; 'I' for Inactive)
REMARK    1  A    between atoms: C_1  and  C_2
REMARK    2  A    between atoms: C_1  and  C_8
REMARK    3  A    between atoms: C_1  and  N_28
REMARK    4  A    between atoms: C_13  and  C_37
REMARK    5  A    between atoms: C_14  and  C_15
REMARK    6  A    between atoms: C_21  and  O_22
REMARK    7  A    between atoms: O_22  and  C_23
REMARK    8  A    between atoms: C_23  and  C_24
REMARK    9  A    between atoms: N_28  and  C_32
REMARK   10  A    between atoms: N_31  and  C_32
REMARK   11  A    between atoms: N_31  and  C_38
REMARK   12  A    between atoms: C_32  and  C_37
REMARK   13  A    between atoms: C_33  and  C_37
REMARK   14  A    between atoms: C_33  and  C_39
REMARK                            x       y       z     vdW  Elec       q    Type
REMARK                         _______ _______ _______ _____ _____    ______ ____
ROOT
ATOM      1  C   UNL A   1     -24.848   1.167  27.434  0.00  0.00    +0.074 C 
ENDROOT
BRANCH   1   2
ATOM      2  C   UNL A   1     -25.688   1.614  26.461  0.00  0.00    +0.075 C 
ATOM      3  C   UNL A   1     -26.250   2.920  26.395  0.00  0.00    +0.055 C 
ATOM      4  C   UNL A   1     -27.438   3.091  25.645  0.00  0.00    +0.102 C 
ATOM      5  N   UNL A   1     -28.075   2.089  25.003  0.00  0.00    -0.212 NA
ATOM      6  C   UNL A   1     -27.543   0.849  25.079  0.00  0.00    +0.234 C 
ATOM      7  C   UNL A   1     -26.354   0.576  25.777  0.00  0.00    +0.240 C 
ATOM      8  F   UNL A   1     -25.860  -0.681  25.795  0.00  0.00    -0.227 F 
BRANCH   3   9
ATOM      9  C   UNL A   1     -25.642   4.093  27.123  0.00  0.00    +0.262 C 
ATOM     10  N   UNL A   1     -25.614   5.252  26.449  0.00  0.00    -0.200 NA
ATOM     11  C   UNL A   1     -25.026   6.479  26.963  0.00  0.00    +0.139 C 
ATOM     12  O   UNL A   1     -25.143   3.966  28.243  0.00  0.00    -0.269 OA
ENDBRANCH   3   9
BRANCH   6  13
ATOM     13  O   UNL A   1     -28.193  -0.208  24.477  0.00  0.00    -0.459 OA
BRANCH  13  14
ATOM     14  C   UNL A   1     -29.460   0.005  23.866  0.00  0.00    +0.242 C 
BRANCH  14  15
ATOM     15  C   UNL A   1     -30.065  -1.377  23.573  0.00  0.00    +0.229 C 
ATOM     16  O   UNL A   1     -30.729  -1.878  24.721  0.00  0.00    -0.216 OA
ENDBRANCH  14  15
ENDBRANCH  13  14
ENDBRANCH   6  13
ENDBRANCH   1   2
BRANCH   1  17
ATOM     17  C   UNL A   1     -23.410   0.977  27.497  0.00  0.00    +0.203 C 
ATOM     18  O   UNL A   1     -22.893  -0.040  28.101  0.00  0.00    -0.219 OA
BRANCH  17  21
ATOM     19  F   UNL A   1     -21.165   1.841  27.197  0.00  0.00    -0.216 F 
ATOM     20 CL   UNL A   1     -22.938   2.515  25.426  0.00  0.00    -0.074 Cl
ATOM     21  C   UNL A   1     -22.495   1.787  26.831  0.00  0.00    +0.269 C 
ENDBRANCH  17  21
ENDBRANCH   1  17
BRANCH   1  22
ATOM     22  C   UNL A   1     -25.641   0.673  28.591  0.00  0.00    +0.151 C 
BRANCH  22  23
ATOM     23  N   UNL A   1     -25.143  -0.200  29.254  0.00  0.00    -0.198 NA
BRANCH  23  24
ATOM     24  C   UNL A   1     -24.855  -1.012  30.143  0.00  0.00    +0.112 C 
BRANCH  24  25
ATOM     25  C   UNL A   1     -24.973  -2.505  29.788  0.00  0.00    -0.005 C 
ATOM     26  C   UNL A   1     -23.906  -3.173  29.146  0.00  0.00    -0.003 C 
ATOM     27  C   UNL A   1     -23.989  -4.549  28.853  0.00  0.00    -0.000 C 
ATOM     28  C   UNL A   1     -25.137  -5.280  29.205  0.00  0.00    -0.000 C 
ATOM     29  C   UNL A   1     -26.232  -4.611  29.784  0.00  0.00    -0.000 C 
ATOM     30  C   UNL A   1     -26.155  -3.232  30.065  0.00  0.00    -0.003 C 
ENDBRANCH  24  25
BRANCH  24  31
ATOM     31  C   UNL A   1     -25.387  -0.679  31.571  0.00  0.00    +0.093 C 
ATOM     32  C   UNL A   1     -25.189   0.773  32.028  0.00  0.00    +0.021 C 
ATOM     33  C   UNL A   1     -25.336   0.684  33.544  0.00  0.00    +0.020 C 
ATOM     34  C   UNL A   1     -24.829  -0.715  33.905  0.00  0.00    +0.089 C 
ATOM     35  N   UNL A   1     -24.758  -1.481  32.646  0.00  0.00    -0.218 NA
ENDBRANCH  24  31
ENDBRANCH  23  24
ENDBRANCH  22  23
BRANCH  22  36
ATOM     36  N   UNL A   1     -26.876   1.129  28.866  0.00  0.00    -0.173 NA
BRANCH  36  39
ATOM     37  O   UNL A   1     -28.264  -0.451  27.943  0.00  0.00    -0.204 OA
ATOM     38  C   UNL A   1     -29.145   0.944  29.648  0.00  0.00    +0.056 C 
ATOM     39  C   UNL A   1     -27.952   0.206  29.119  0.00  0.00    +0.227 C 
ENDBRANCH  36  39
ENDBRANCH  22  36
ENDBRANCH   1  22
TORSDOF 14
