MODEL 976
MODEL 1
REMARK VINA RESULT:    -6.515      0.000      0.000
REMARK INTER + INTRA:          -7.286
REMARK INTER:                  -6.896
REMARK INTRA:                  -0.390
REMARK UNBOUND:                -0.390
REMARK  Name = No_976-gen_results/8p0m/2024-11-27-11-27-31/
REMARK  1 active torsions:
REMARK  status: ('A' for Active; 'I' for Inactive)
REMARK    1  A    between atoms: C_3  and  C_7
REMARK                            x       y       z     vdW  Elec       q    Type
REMARK                         _______ _______ _______ _____ _____    ______ ____
ROOT
ATOM      1  C   UNL A   1     -25.874  -2.610  29.648  0.00  0.00    +0.000 A 
ATOM      2  C   UNL A   1     -26.319  -3.546  29.833  0.00  0.00    +0.000 A 
ATOM      3  C   UNL A   1     -24.617  -2.594  29.003  0.00  0.00    +0.000 A 
ATOM      4  C   UNL A   1     -23.972  -3.757  28.632  0.00  0.00    +0.000 A 
ATOM      5  C   UNL A   1     -25.853  -4.916  29.541  0.00  0.00    +0.000 A 
ATOM      6  C   UNL A   1     -24.652  -4.946  28.924  0.00  0.00    +0.000 A 
ENDROOT
BRANCH   3   7
ATOM      7  C   UNL A   1     -23.893  -1.327  28.649  0.00  0.00    +0.000 A 
ATOM      8  C   UNL A   1     -22.644  -1.230  29.196  0.00  0.00    +0.000 A 
ATOM      9  C   UNL A   1     -24.430  -0.349  27.843  0.00  0.00    +0.000 A 
ATOM     10  C   UNL A   1     -23.635   0.708  27.467  0.00  0.00    +0.000 A 
ATOM     11  C   UNL A   1     -21.887  -0.054  28.925  0.00  0.00    +0.000 A 
ATOM     12  C   UNL A   1     -22.404   0.891  28.022  0.00  0.00    +0.000 A 
ENDBRANCH   3   7
TORSDOF 1
ENDMDL
ENDMDL
