REMARK  Name = outputs/IAG933/test6/raw/output_977_IAG933_linker_design_.xyz
REMARK  10 active torsions:
REMARK  status: ('A' for Active; 'I' for Inactive)
REMARK    1  A    between atoms: C_1  and  C_2
REMARK    2  A    between atoms: C_1  and  C_8
REMARK    3  A    between atoms: C_1  and  C_43
REMARK    4  A    between atoms: C_13  and  C_30
REMARK    5  A    between atoms: C_14  and  C_15
REMARK    6  A    between atoms: C_21  and  O_22
REMARK    7  A    between atoms: O_22  and  C_23
REMARK    8  A    between atoms: C_23  and  C_24
REMARK    9  A    between atoms: C_35  and  C_36
REMARK   10  A    between atoms: C_36  and  C_44
REMARK                            x       y       z     vdW  Elec       q    Type
REMARK                         _______ _______ _______ _____ _____    ______ ____
ROOT
ATOM      1  C   UNL A   1     -21.843   0.504  28.101  0.00  0.00    +0.234 C 
ATOM      2  C   UNL A   1     -23.308   1.782  26.755  0.00  0.00    +0.125 C 
ATOM      3  C   UNL A   1     -24.687   1.397  27.327  0.00  0.00    +0.036 C 
ATOM      4  N   UNL A   1     -20.492   0.260  28.117  0.00  0.00    -0.088 NA
ATOM      5  C   UNL A   1     -22.900  -0.148  28.906  0.00  0.00    +0.053 C 
ATOM      6  C   UNL A   1     -25.375   0.500  28.443  0.00  0.00    +0.038 C 
ATOM      7  O   UNL A   1     -22.103   1.520  27.269  0.00  0.00    -0.441 OA
ATOM      8  C   UNL A   1     -23.206   2.610  25.455  0.00  0.00    +0.072 C 
ATOM      9  C   UNL A   1     -24.401  -0.163  29.005  0.00  0.00    -0.009 C 
ENDROOT
BRANCH   3  10
ATOM     10  C   UNL A   1     -25.688   1.614  26.461  0.00  0.00    +0.041 C 
ATOM     11  C   UNL A   1     -26.250   2.920  26.395  0.00  0.00    +0.077 C 
ATOM     12  C   UNL A   1     -27.438   3.091  25.645  0.00  0.00    +0.107 C 
ATOM     13  N   UNL A   1     -28.075   2.089  25.003  0.00  0.00    -0.208 NA
ATOM     14  C   UNL A   1     -27.543   0.849  25.079  0.00  0.00    +0.253 C 
ATOM     15  C   UNL A   1     -26.354   0.576  25.777  0.00  0.00    +0.193 C 
ATOM     16  F   UNL A   1     -25.860  -0.681  25.795  0.00  0.00    -0.199 F 
BRANCH  11  17
ATOM     17  C   UNL A   1     -25.642   4.093  27.123  0.00  0.00    +0.266 C 
ATOM     18  N   UNL A   1     -25.614   5.252  26.449  0.00  0.00    -0.200 NA
ATOM     19  C   UNL A   1     -25.026   6.479  26.963  0.00  0.00    +0.139 C 
ATOM     20  O   UNL A   1     -25.143   3.966  28.243  0.00  0.00    -0.268 OA
ENDBRANCH  11  17
BRANCH  14  21
ATOM     21  O   UNL A   1     -28.193  -0.208  24.477  0.00  0.00    -0.456 OA
BRANCH  21  22
ATOM     22  C   UNL A   1     -29.460   0.005  23.866  0.00  0.00    +0.243 C 
BRANCH  22  23
ATOM     23  C   UNL A   1     -30.065  -1.377  23.573  0.00  0.00    +0.229 C 
ATOM     24  O   UNL A   1     -30.729  -1.878  24.721  0.00  0.00    -0.216 OA
ENDBRANCH  22  23
ENDBRANCH  21  22
ENDBRANCH  14  21
ENDBRANCH   3  10
BRANCH   6  25
ATOM     25  C   UNL A   1     -26.966  -0.054  28.635  0.00  0.00    +0.195 C 
ATOM     26  O   UNL A   1     -27.096  -1.205  28.382  0.00  0.00    -0.287 OA
BRANCH  25  32
ATOM     27  C   UNL A   1     -30.468   0.245  29.948  0.00  0.00    +0.000 C 
ATOM     28  C   UNL A   1     -29.885   2.418  29.311  0.00  0.00    +0.000 C 
ATOM     29  C   UNL A   1     -28.614   2.002  28.997  0.00  0.00    +0.003 C 
ATOM     30  C   UNL A   1     -30.839   1.552  29.796  0.00  0.00    +0.000 C 
ATOM     31  C   UNL A   1     -29.208  -0.168  29.667  0.00  0.00    +0.003 C 
ATOM     32  C   UNL A   1     -28.288   0.669  29.107  0.00  0.00    +0.039 C 
ENDBRANCH  25  32
ENDBRANCH   6  25
BRANCH   9  33
ATOM     33  C   UNL A   1     -24.855  -1.012  30.143  0.00  0.00    +0.061 C 
BRANCH  33  34
ATOM     34  C   UNL A   1     -24.973  -2.505  29.788  0.00  0.00    -0.017 C 
ATOM     35  C   UNL A   1     -23.906  -3.173  29.146  0.00  0.00    -0.004 C 
ATOM     36  C   UNL A   1     -23.989  -4.549  28.853  0.00  0.00    -0.000 C 
ATOM     37  C   UNL A   1     -25.137  -5.280  29.205  0.00  0.00    -0.000 C 
ATOM     38  C   UNL A   1     -26.232  -4.611  29.784  0.00  0.00    -0.000 C 
ATOM     39  C   UNL A   1     -26.155  -3.232  30.065  0.00  0.00    -0.004 C 
ENDBRANCH  33  34
BRANCH  33  40
ATOM     40  C   UNL A   1     -25.387  -0.679  31.571  0.00  0.00    +0.081 C 
ATOM     41  C   UNL A   1     -25.189   0.773  32.028  0.00  0.00    +0.019 C 
ATOM     42  C   UNL A   1     -25.336   0.684  33.544  0.00  0.00    +0.020 C 
ATOM     43  C   UNL A   1     -24.829  -0.715  33.905  0.00  0.00    +0.089 C 
ATOM     44  N   UNL A   1     -24.758  -1.481  32.646  0.00  0.00    -0.219 NA
ENDBRANCH  33  40
ENDBRANCH   9  33
TORSDOF 10
