REMARK  Name = outputs/IAG933/test6/raw/output_9772_IAG933_linker_design_.xyz
REMARK  10 active torsions:
REMARK  status: ('A' for Active; 'I' for Inactive)
REMARK    1  A    between atoms: C_1  and  C_2
REMARK    2  A    between atoms: C_1  and  C_8
REMARK    3  A    between atoms: C_1  and  N_37
REMARK    4  A    between atoms: C_13  and  C_35
REMARK    5  A    between atoms: C_14  and  C_15
REMARK    6  A    between atoms: C_21  and  O_22
REMARK    7  A    between atoms: O_22  and  C_23
REMARK    8  A    between atoms: C_23  and  C_24
REMARK    9  A    between atoms: N_28  and  C_40
REMARK   10  A    between atoms: N_38  and  C_43
REMARK                            x       y       z     vdW  Elec       q    Type
REMARK                         _______ _______ _______ _____ _____    ______ ____
ROOT
ATOM      1  F   UNL A   1     -21.054   1.419  27.893  0.00  0.00    -0.199 F 
ATOM      2  C   UNL A   1     -24.557   1.336  27.339  0.00  0.00    +0.060 C 
ATOM      3  N   UNL A   1     -24.148  -0.065  29.197  0.00  0.00    -0.282 N 
ATOM      4  O   UNL A   1     -22.785   2.489  25.970  0.00  0.00    -0.284 OA
ATOM      5  C   UNL A   1     -24.954   0.718  28.541  0.00  0.00    +0.199 C 
ATOM      6  C   UNL A   1     -23.223   1.681  26.977  0.00  0.00    +0.223 C 
ATOM      7  C   UNL A   1     -22.728   0.068  28.886  0.00  0.00    +0.096 C 
ATOM      8  C   UNL A   1     -22.316   1.004  27.965  0.00  0.00    +0.193 C 
ENDROOT
BRANCH   2   9
ATOM      9  C   UNL A   1     -25.688   1.614  26.461  0.00  0.00    +0.041 C 
ATOM     10  C   UNL A   1     -26.250   2.920  26.395  0.00  0.00    +0.076 C 
ATOM     11  C   UNL A   1     -27.438   3.091  25.645  0.00  0.00    +0.107 C 
ATOM     12  N   UNL A   1     -28.075   2.089  25.003  0.00  0.00    -0.208 NA
ATOM     13  C   UNL A   1     -27.543   0.849  25.079  0.00  0.00    +0.253 C 
ATOM     14  C   UNL A   1     -26.354   0.576  25.777  0.00  0.00    +0.193 C 
ATOM     15  F   UNL A   1     -25.860  -0.681  25.795  0.00  0.00    -0.199 F 
BRANCH  10  16
ATOM     16  C   UNL A   1     -25.642   4.093  27.123  0.00  0.00    +0.266 C 
ATOM     17  N   UNL A   1     -25.614   5.252  26.449  0.00  0.00    -0.200 NA
ATOM     18  C   UNL A   1     -25.026   6.479  26.963  0.00  0.00    +0.139 C 
ATOM     19  O   UNL A   1     -25.143   3.966  28.243  0.00  0.00    -0.268 OA
ENDBRANCH  10  16
BRANCH  13  20
ATOM     20  O   UNL A   1     -28.193  -0.208  24.477  0.00  0.00    -0.456 OA
BRANCH  20  21
ATOM     21  C   UNL A   1     -29.460   0.005  23.866  0.00  0.00    +0.243 C 
BRANCH  21  22
ATOM     22  C   UNL A   1     -30.065  -1.377  23.573  0.00  0.00    +0.229 C 
ATOM     23  O   UNL A   1     -30.729  -1.878  24.721  0.00  0.00    -0.216 OA
ENDBRANCH  21  22
ENDBRANCH  20  21
ENDBRANCH  13  20
ENDBRANCH   2   9
BRANCH   5  24
ATOM     24  N   UNL A   1     -26.208   0.891  29.075  0.00  0.00    -0.164 NA
ATOM     25  O   UNL A   1     -28.099  -0.422  29.294  0.00  0.00    -0.249 OA
ATOM     26  C   UNL A   1     -27.463   0.537  29.708  0.00  0.00    +0.341 C 
ATOM     27  N   UNL A   1     -27.724   1.364  30.683  0.00  0.00    -0.184 NA
BRANCH  27  33
ATOM     28  C   UNL A   1     -28.955   4.235  32.291  0.00  0.00    -0.029 C 
ATOM     29  C   UNL A   1     -30.108   2.342  33.224  0.00  0.00    +0.007 C 
ATOM     30  C   UNL A   1     -29.577   1.511  32.139  0.00  0.00    +0.027 C 
ATOM     31  C   UNL A   1     -29.496   3.641  33.369  0.00  0.00    +0.026 C 
ATOM     32  C   UNL A   1     -28.467   3.497  31.233  0.00  0.00    -0.009 C 
ATOM     33  C   UNL A   1     -28.765   2.068  31.053  0.00  0.00    +0.118 C 
ENDBRANCH  27  33
ENDBRANCH   5  24
BRANCH   3  34
ATOM     34  C   UNL A   1     -24.855  -1.012  30.143  0.00  0.00    +0.113 C 
BRANCH  34  35
ATOM     35  C   UNL A   1     -24.973  -2.505  29.788  0.00  0.00    -0.003 C 
ATOM     36  C   UNL A   1     -23.906  -3.173  29.146  0.00  0.00    -0.003 C 
ATOM     37  C   UNL A   1     -23.989  -4.549  28.853  0.00  0.00    -0.000 C 
ATOM     38  C   UNL A   1     -25.137  -5.280  29.205  0.00  0.00    -0.000 C 
ATOM     39  C   UNL A   1     -26.232  -4.611  29.784  0.00  0.00    -0.000 C 
ATOM     40  C   UNL A   1     -26.155  -3.232  30.065  0.00  0.00    -0.003 C 
ENDBRANCH  34  35
BRANCH  34  41
ATOM     41  C   UNL A   1     -25.387  -0.679  31.571  0.00  0.00    +0.095 C 
ATOM     42  C   UNL A   1     -25.189   0.773  32.028  0.00  0.00    +0.021 C 
ATOM     43  C   UNL A   1     -25.336   0.684  33.544  0.00  0.00    +0.020 C 
ATOM     44  C   UNL A   1     -24.829  -0.715  33.905  0.00  0.00    +0.089 C 
ATOM     45  N   UNL A   1     -24.758  -1.481  32.646  0.00  0.00    -0.217 NA
ENDBRANCH  34  41
ENDBRANCH   3  34
TORSDOF 10
