REMARK  Name = outputs/IAG933/test6/raw/output_9775_IAG933_linker_design_.xyz
REMARK  13 active torsions:
REMARK  status: ('A' for Active; 'I' for Inactive)
REMARK    1  A    between atoms: C_1  and  C_2
REMARK    2  A    between atoms: C_1  and  C_8
REMARK    3  A    between atoms: C_1  and  C_45
REMARK    4  A    between atoms: C_13  and  C_36
REMARK    5  A    between atoms: C_14  and  C_15
REMARK    6  A    between atoms: C_21  and  O_22
REMARK    7  A    between atoms: O_22  and  C_23
REMARK    8  A    between atoms: C_23  and  C_24
REMARK    9  A    between atoms: C_28  and  C_32
REMARK   10  A    between atoms: C_28  and  C_43
REMARK   11  A    between atoms: C_32  and  O_41
REMARK   12  A    between atoms: O_41  and  C_45
REMARK   13  A    between atoms: C_44  and  C_45
REMARK                            x       y       z     vdW  Elec       q    Type
REMARK                         _______ _______ _______ _____ _____    ______ ____
ROOT
ATOM      1  C   UNL A   1     -25.400  -0.184  28.916  0.00  0.00    +0.143 C 
ENDROOT
BRANCH   1   8
ATOM      2  C   UNL A   1     -21.684   0.965  28.182  0.00  0.00    +0.001 C 
ATOM      3  C   UNL A   1     -24.303   1.324  27.000  0.00  0.00    +0.011 C 
ATOM      4  C   UNL A   1     -22.866   0.390  28.800  0.00  0.00    -0.002 C 
ATOM      5  C   UNL A   1     -21.810   1.651  26.939  0.00  0.00    +0.011 C 
ATOM      6 CL   UNL A   1     -23.111   2.288  24.720  0.00  0.00    -0.082 Cl
ATOM      7  C   UNL A   1     -23.138   1.716  26.288  0.00  0.00    +0.058 C 
ATOM      8  C   UNL A   1     -24.210   0.573  28.279  0.00  0.00    +0.006 C 
BRANCH   3   9
ATOM      9  C   UNL A   1     -25.688   1.614  26.461  0.00  0.00    +0.039 C 
ATOM     10  C   UNL A   1     -26.250   2.920  26.395  0.00  0.00    +0.077 C 
ATOM     11  C   UNL A   1     -27.438   3.091  25.645  0.00  0.00    +0.107 C 
ATOM     12  N   UNL A   1     -28.075   2.089  25.003  0.00  0.00    -0.208 NA
ATOM     13  C   UNL A   1     -27.543   0.849  25.079  0.00  0.00    +0.253 C 
ATOM     14  C   UNL A   1     -26.354   0.576  25.777  0.00  0.00    +0.193 C 
ATOM     15  F   UNL A   1     -25.860  -0.681  25.795  0.00  0.00    -0.199 F 
BRANCH  10  16
ATOM     16  C   UNL A   1     -25.642   4.093  27.123  0.00  0.00    +0.266 C 
ATOM     17  N   UNL A   1     -25.614   5.252  26.449  0.00  0.00    -0.200 NA
ATOM     18  C   UNL A   1     -25.026   6.479  26.963  0.00  0.00    +0.139 C 
ATOM     19  O   UNL A   1     -25.143   3.966  28.243  0.00  0.00    -0.268 OA
ENDBRANCH  10  16
BRANCH  13  20
ATOM     20  O   UNL A   1     -28.193  -0.208  24.477  0.00  0.00    -0.456 OA
BRANCH  20  21
ATOM     21  C   UNL A   1     -29.460   0.005  23.866  0.00  0.00    +0.243 C 
BRANCH  21  22
ATOM     22  C   UNL A   1     -30.065  -1.377  23.573  0.00  0.00    +0.229 C 
ATOM     23  O   UNL A   1     -30.729  -1.878  24.721  0.00  0.00    -0.216 OA
ENDBRANCH  21  22
ENDBRANCH  20  21
ENDBRANCH  13  20
ENDBRANCH   3   9
ENDBRANCH   1   8
BRANCH   1  24
ATOM     24  C   UNL A   1     -24.855  -1.012  30.143  0.00  0.00    +0.070 C 
BRANCH  24  25
ATOM     25  C   UNL A   1     -24.973  -2.505  29.788  0.00  0.00    -0.018 C 
ATOM     26  C   UNL A   1     -23.906  -3.173  29.146  0.00  0.00    -0.004 C 
ATOM     27  C   UNL A   1     -23.989  -4.549  28.853  0.00  0.00    -0.000 C 
ATOM     28  C   UNL A   1     -25.137  -5.280  29.205  0.00  0.00    -0.000 C 
ATOM     29  C   UNL A   1     -26.232  -4.611  29.784  0.00  0.00    -0.000 C 
ATOM     30  C   UNL A   1     -26.155  -3.232  30.065  0.00  0.00    -0.004 C 
ENDBRANCH  24  25
BRANCH  24  31
ATOM     31  C   UNL A   1     -25.387  -0.679  31.571  0.00  0.00    +0.080 C 
ATOM     32  C   UNL A   1     -25.189   0.773  32.028  0.00  0.00    +0.019 C 
ATOM     33  C   UNL A   1     -25.336   0.684  33.544  0.00  0.00    +0.020 C 
ATOM     34  C   UNL A   1     -24.829  -0.715  33.905  0.00  0.00    +0.089 C 
ATOM     35  N   UNL A   1     -24.758  -1.481  32.646  0.00  0.00    -0.219 NA
ENDBRANCH  24  31
ENDBRANCH   1  24
BRANCH   1  36
ATOM     36  O   UNL A   1     -26.638   0.638  28.968  0.00  0.00    -0.348 OA
BRANCH  36  37
ATOM     37  C   UNL A   1     -27.919   0.063  29.317  0.00  0.00    +0.180 C 
BRANCH  37  38
ATOM     38  C   UNL A   1     -28.617   0.888  30.343  0.00  0.00    +0.204 C 
ATOM     39  O   UNL A   1     -30.069   0.721  30.212  0.00  0.00    -0.216 OA
BRANCH  38  45
ATOM     40  C   UNL A   1     -28.912   2.839  31.784  0.00  0.00    -0.002 C 
ATOM     41  C   UNL A   1     -27.583   4.896  31.656  0.00  0.00    -0.000 C 
ATOM     42  C   UNL A   1     -28.536   4.086  32.333  0.00  0.00    -0.000 C 
ATOM     43  C   UNL A   1     -27.021   4.481  30.413  0.00  0.00    -0.000 C 
ATOM     44  C   UNL A   1     -27.398   3.195  29.861  0.00  0.00    -0.002 C 
ATOM     45  C   UNL A   1     -28.299   2.344  30.611  0.00  0.00    +0.010 C 
ENDBRANCH  38  45
ENDBRANCH  37  38
ENDBRANCH  36  37
ENDBRANCH   1  36
TORSDOF 13
