MODEL 977
MODEL 1
REMARK VINA RESULT:    -7.466      0.000      0.000
REMARK INTER + INTRA:         -10.739
REMARK INTER:                  -9.648
REMARK INTRA:                  -1.091
REMARK UNBOUND:                -1.091
REMARK  Name = No_977-gen_results/8p0m/2024-11-27-11-27-31/
REMARK  5 active torsions:
REMARK  status: ('A' for Active; 'I' for Inactive)
REMARK    1  A    between atoms: C_4  and  C_11
REMARK    2  A    between atoms: C_12  and  O_17
REMARK    3  A    between atoms: O_17  and  C_18
REMARK    4  A    between atoms: C_21  and  O_25
REMARK    5  A    between atoms: C_22  and  O_23
REMARK                            x       y       z     vdW  Elec       q    Type
REMARK                         _______ _______ _______ _____ _____    ______ ____
ROOT
ATOM      1  C   UNL A   1     -24.628  -2.523  29.007  0.00  0.00    +0.034 A 
ATOM      2  C   UNL A   1     -25.680  -2.375  29.726  0.00  0.00    +0.139 A 
ATOM      3  C   UNL A   1     -26.391  -3.493  30.199  0.00  0.00    +0.037 A 
ATOM      4  C   UNL A   1     -24.191  -3.728  28.524  0.00  0.00    +0.003 A 
ATOM      5  C   UNL A   1     -24.888  -4.900  28.845  0.00  0.00    +0.000 A 
ATOM      6  C   UNL A   1     -26.062  -4.770  29.620  0.00  0.00    +0.003 A 
ENDROOT
BRANCH   1  10
ATOM      7  C   UNL A   1     -25.698   0.348  26.014  0.00  0.00    +0.000 A 
ATOM      8  C   UNL A   1     -25.401  -0.460  26.864  0.00  0.00    +0.000 A 
ATOM      9  C   UNL A   1     -24.258  -0.361  27.656  0.00  0.00    +0.000 A 
ATOM     10  C   UNL A   1     -23.814  -1.301  28.703  0.00  0.00    +0.003 A 
ATOM     11  C   UNL A   1     -22.604  -1.189  29.476  0.00  0.00    +0.000 A 
ATOM     12  C   UNL A   1     -21.927   0.026  29.329  0.00  0.00    +0.000 A 
ATOM     13  C   UNL A   1     -24.694   1.421  25.700  0.00  0.00    +0.000 A 
ATOM     14  C   UNL A   1     -23.587   1.647  26.486  0.00  0.00    +0.000 A 
ATOM     15  C   UNL A   1     -23.277   0.743  27.486  0.00  0.00    +0.000 A 
ATOM     16  C   UNL A   1     -22.173   0.929  28.317  0.00  0.00    +0.000 A 
ENDBRANCH   1  10
BRANCH   2  17
ATOM     17  O   UNL A   1     -26.154  -1.201  30.241  0.00  0.00    -0.472 OA
BRANCH  17  18
ATOM     18  C   UNL A   1     -26.188  -0.775  31.542  0.00  0.00    +0.217 C 
ATOM     19  C   UNL A   1     -24.931  -0.622  32.114  0.00  0.00    +0.017 C 
ATOM     20  C   UNL A   1     -24.939  -0.447  33.305  0.00  0.00    +0.004 C 
ATOM     21  C   UNL A   1     -26.144  -0.215  34.036  0.00  0.00    +0.168 C 
ATOM     22  C   UNL A   1     -27.221  -0.644  32.419  0.00  0.00    +0.190 C 
BRANCH  22  23
ATOM     23  O   UNL A   1     -28.393  -0.667  31.774  0.00  0.00    -0.347 OA
ATOM     24  C   UNL A   1     -28.489   0.754  31.411  0.00  0.00    +0.174 C 
ENDBRANCH  22  23
BRANCH  21  25
ATOM     25  O   UNL A   1     -27.351  -0.363  34.174  0.00  0.00    -0.347 OA
ATOM     26  C   UNL A   1     -27.906  -0.160  35.434  0.00  0.00    +0.175 C 
ENDBRANCH  21  25
ENDBRANCH  17  18
ENDBRANCH   2  17
TORSDOF 5
ENDMDL
ENDMDL
