REMARK  Name = outputs/IAG933/test6/raw/output_978_IAG933_linker_design_.xyz
REMARK  15 active torsions:
REMARK  status: ('A' for Active; 'I' for Inactive)
REMARK    1  A    between atoms: C_1  and  C_2
REMARK    2  A    between atoms: C_1  and  C_8
REMARK    3  A    between atoms: C_1  and  C_31
REMARK    4  A    between atoms: C_9  and  C_29
REMARK    5  A    between atoms: C_13  and  N_37
REMARK    6  A    between atoms: C_14  and  C_15
REMARK    7  A    between atoms: C_21  and  O_22
REMARK    8  A    between atoms: O_22  and  C_23
REMARK    9  A    between atoms: C_23  and  C_24
REMARK   10  A    between atoms: C_29  and  O_34
REMARK   11  A    between atoms: C_31  and  C_32
REMARK   12  A    between atoms: C_32  and  C_40
REMARK   13  A    between atoms: C_33  and  C_36
REMARK   14  A    between atoms: C_35  and  C_36
REMARK   15  A    between atoms: C_39  and  C_41
REMARK                            x       y       z     vdW  Elec       q    Type
REMARK                         _______ _______ _______ _____ _____    ______ ____
ROOT
ATOM      1  C   UNL A   1     -22.926  -0.149  29.004  0.00  0.00    -0.032 C 
ATOM      2  C   UNL A   1     -21.603  -0.588  29.223  0.00  0.00    -0.029 C 
ENDROOT
BRANCH   1   5
ATOM      3  N   UNL A   1     -24.727   1.162  27.419  0.00  0.00    -0.254 NA
ATOM      4  C   UNL A   1     -23.582   1.344  27.257  0.00  0.00    +0.181 C 
ATOM      5  C   UNL A   1     -23.376   0.604  28.189  0.00  0.00    +0.102 C 
BRANCH   3   6
ATOM      6  C   UNL A   1     -25.688   1.614  26.461  0.00  0.00    +0.129 C 
ATOM      7  C   UNL A   1     -26.250   2.920  26.395  0.00  0.00    +0.070 C 
ATOM      8  C   UNL A   1     -27.438   3.091  25.645  0.00  0.00    +0.103 C 
ATOM      9  N   UNL A   1     -28.075   2.089  25.003  0.00  0.00    -0.212 NA
ATOM     10  C   UNL A   1     -27.543   0.849  25.079  0.00  0.00    +0.235 C 
ATOM     11  C   UNL A   1     -26.354   0.576  25.777  0.00  0.00    +0.255 C 
ATOM     12  F   UNL A   1     -25.860  -0.681  25.795  0.00  0.00    -0.225 F 
BRANCH   7  13
ATOM     13  C   UNL A   1     -25.642   4.093  27.123  0.00  0.00    +0.264 C 
ATOM     14  N   UNL A   1     -25.614   5.252  26.449  0.00  0.00    -0.200 NA
ATOM     15  C   UNL A   1     -25.026   6.479  26.963  0.00  0.00    +0.139 C 
ATOM     16  O   UNL A   1     -25.143   3.966  28.243  0.00  0.00    -0.269 OA
ENDBRANCH   7  13
BRANCH  10  17
ATOM     17  O   UNL A   1     -28.193  -0.208  24.477  0.00  0.00    -0.459 OA
BRANCH  17  18
ATOM     18  C   UNL A   1     -29.460   0.005  23.866  0.00  0.00    +0.242 C 
BRANCH  18  19
ATOM     19  C   UNL A   1     -30.065  -1.377  23.573  0.00  0.00    +0.229 C 
ATOM     20  O   UNL A   1     -30.729  -1.878  24.721  0.00  0.00    -0.216 OA
ENDBRANCH  18  19
ENDBRANCH  17  18
ENDBRANCH  10  17
ENDBRANCH   3   6
BRANCH   4  22
ATOM     21  O   UNL A   1     -23.440   1.470  24.870  0.00  0.00    -0.244 OA
ATOM     22  C   UNL A   1     -23.329   2.069  25.998  0.00  0.00    +0.381 C 
ATOM     23  O   UNL A   1     -23.329   3.310  25.998  0.00  0.00    -0.244 OA
ENDBRANCH   4  22
ENDBRANCH   1   5
BRANCH   1  24
ATOM     24  C   UNL A   1     -23.914  -0.277  29.646  0.00  0.00    +0.029 C 
BRANCH  24  25
ATOM     25  C   UNL A   1     -24.855  -1.012  30.143  0.00  0.00    +0.043 C 
BRANCH  25  26
ATOM     26  C   UNL A   1     -24.973  -2.505  29.788  0.00  0.00    -0.021 C 
ATOM     27  C   UNL A   1     -23.906  -3.173  29.146  0.00  0.00    -0.004 C 
ATOM     28  C   UNL A   1     -23.989  -4.549  28.853  0.00  0.00    -0.000 C 
ATOM     29  C   UNL A   1     -25.137  -5.280  29.205  0.00  0.00    -0.000 C 
ATOM     30  C   UNL A   1     -26.232  -4.611  29.784  0.00  0.00    -0.000 C 
ATOM     31  C   UNL A   1     -26.155  -3.232  30.065  0.00  0.00    -0.004 C 
ENDBRANCH  25  26
BRANCH  25  32
ATOM     32  C   UNL A   1     -25.387  -0.679  31.571  0.00  0.00    +0.080 C 
ATOM     33  C   UNL A   1     -25.189   0.773  32.028  0.00  0.00    +0.047 C 
ATOM     34  C   UNL A   1     -25.336   0.684  33.544  0.00  0.00    +0.023 C 
ATOM     35  C   UNL A   1     -24.829  -0.715  33.905  0.00  0.00    +0.089 C 
ATOM     36  N   UNL A   1     -24.758  -1.481  32.646  0.00  0.00    -0.219 NA
BRANCH  33  37
ATOM     37  C   UNL A   1     -24.576   1.481  30.967  0.00  0.00    +0.144 C 
BRANCH  37  39
ATOM     38  C   UNL A   1     -24.950   3.746  30.913  0.00  0.00    +0.174 C 
ATOM     39  O   UNL A   1     -24.472   2.530  30.476  0.00  0.00    -0.351 OA
ENDBRANCH  37  39
ENDBRANCH  33  37
ENDBRANCH  25  32
ENDBRANCH  24  25
ENDBRANCH   1  24
BRANCH   2  40
ATOM     40  C   UNL A   1     -20.606  -0.067  28.457  0.00  0.00    +0.051 C 
BRANCH  40  42
ATOM     41  C   UNL A   1     -21.438   1.846  27.166  0.00  0.00    -0.005 C 
ATOM     42  C   UNL A   1     -20.615   1.083  27.680  0.00  0.00    -0.021 C 
ENDBRANCH  40  42
ENDBRANCH   2  40
TORSDOF 15
