REMARK  Name = outputs/IAG933/test6/raw/output_9782_IAG933_linker_design_.xyz
REMARK  11 active torsions:
REMARK  status: ('A' for Active; 'I' for Inactive)
REMARK    1  A    between atoms: C_1  and  C_2
REMARK    2  A    between atoms: C_1  and  C_8
REMARK    3  A    between atoms: C_1  and  C_33
REMARK    4  A    between atoms: C_13  and  C_30
REMARK    5  A    between atoms: C_14  and  C_15
REMARK    6  A    between atoms: C_21  and  O_22
REMARK    7  A    between atoms: O_22  and  C_23
REMARK    8  A    between atoms: C_23  and  C_24
REMARK    9  A    between atoms: C_33  and  O_35
REMARK   10  A    between atoms: C_33  and  C_39
REMARK   11  A    between atoms: O_35  and  C_37
REMARK                            x       y       z     vdW  Elec       q    Type
REMARK                         _______ _______ _______ _____ _____    ______ ____
ROOT
ATOM      1  O   UNL A   1     -22.275   0.540  29.700  0.00  0.00    -0.287 OA
ATOM      2  C   UNL A   1     -24.483   1.315  26.659  0.00  0.00    +0.130 C 
ATOM      3  C   UNL A   1     -23.285   2.038  26.640  0.00  0.00    +0.090 C 
ATOM      4  C   UNL A   1     -22.388   1.637  27.630  0.00  0.00    +0.157 C 
ATOM      5  C   UNL A   1     -24.174   0.224  28.237  0.00  0.00    +0.218 C 
ATOM      6  C   UNL A   1     -22.870   0.783  28.560  0.00  0.00    +0.227 C 
ATOM      7  F   UNL A   1     -21.138   2.085  27.675  0.00  0.00    -0.206 F 
ATOM      8  O   UNL A   1     -24.352   0.194  27.061  0.00  0.00    -0.347 OA
ENDROOT
BRANCH   2   9
ATOM      9  C   UNL A   1     -25.688   1.614  26.461  0.00  0.00    +0.098 C 
ATOM     10  C   UNL A   1     -26.250   2.920  26.395  0.00  0.00    +0.057 C 
ATOM     11  C   UNL A   1     -27.438   3.091  25.645  0.00  0.00    +0.102 C 
ATOM     12  N   UNL A   1     -28.075   2.089  25.003  0.00  0.00    -0.212 NA
ATOM     13  C   UNL A   1     -27.543   0.849  25.079  0.00  0.00    +0.234 C 
ATOM     14  C   UNL A   1     -26.354   0.576  25.777  0.00  0.00    +0.242 C 
ATOM     15  F   UNL A   1     -25.860  -0.681  25.795  0.00  0.00    -0.227 F 
BRANCH  10  16
ATOM     16  C   UNL A   1     -25.642   4.093  27.123  0.00  0.00    +0.263 C 
ATOM     17  N   UNL A   1     -25.614   5.252  26.449  0.00  0.00    -0.200 NA
ATOM     18  C   UNL A   1     -25.026   6.479  26.963  0.00  0.00    +0.139 C 
ATOM     19  O   UNL A   1     -25.143   3.966  28.243  0.00  0.00    -0.269 OA
ENDBRANCH  10  16
BRANCH  13  20
ATOM     20  O   UNL A   1     -28.193  -0.208  24.477  0.00  0.00    -0.459 OA
BRANCH  20  21
ATOM     21  C   UNL A   1     -29.460   0.005  23.866  0.00  0.00    +0.242 C 
BRANCH  21  22
ATOM     22  C   UNL A   1     -30.065  -1.377  23.573  0.00  0.00    +0.229 C 
ATOM     23  O   UNL A   1     -30.729  -1.878  24.721  0.00  0.00    -0.216 OA
ENDBRANCH  21  22
ENDBRANCH  20  21
ENDBRANCH  13  20
ENDBRANCH   2   9
BRANCH   5  24
ATOM     24  C   UNL A   1     -25.270  -0.214  29.068  0.00  0.00    +0.206 C 
BRANCH  24  25
ATOM     25  C   UNL A   1     -24.855  -1.012  30.143  0.00  0.00    +0.081 C 
BRANCH  25  26
ATOM     26  C   UNL A   1     -24.973  -2.505  29.788  0.00  0.00    -0.018 C 
ATOM     27  C   UNL A   1     -23.906  -3.173  29.146  0.00  0.00    -0.004 C 
ATOM     28  C   UNL A   1     -23.989  -4.549  28.853  0.00  0.00    -0.000 C 
ATOM     29  C   UNL A   1     -25.137  -5.280  29.205  0.00  0.00    -0.000 C 
ATOM     30  C   UNL A   1     -26.232  -4.611  29.784  0.00  0.00    -0.000 C 
ATOM     31  C   UNL A   1     -26.155  -3.232  30.065  0.00  0.00    -0.004 C 
ENDBRANCH  25  26
BRANCH  25  32
ATOM     32  C   UNL A   1     -25.387  -0.679  31.571  0.00  0.00    +0.080 C 
ATOM     33  C   UNL A   1     -25.189   0.773  32.028  0.00  0.00    +0.019 C 
ATOM     34  C   UNL A   1     -25.336   0.684  33.544  0.00  0.00    +0.020 C 
ATOM     35  C   UNL A   1     -24.829  -0.715  33.905  0.00  0.00    +0.089 C 
ATOM     36  N   UNL A   1     -24.758  -1.481  32.646  0.00  0.00    -0.219 NA
ENDBRANCH  25  32
ENDBRANCH  24  25
BRANCH  24  37
ATOM     37  O   UNL A   1     -26.864  -0.662  28.889  0.00  0.00    -0.476 OA
BRANCH  37  41
ATOM     38  C   UNL A   1     -30.834  -0.924  28.637  0.00  0.00    +0.042 C 
ATOM     39  C   UNL A   1     -30.164  -1.662  29.574  0.00  0.00    +0.006 C 
ATOM     40  O   UNL A   1     -30.860   0.744  26.944  0.00  0.00    -0.286 OA
ATOM     41  C   UNL A   1     -28.158  -0.596  28.960  0.00  0.00    +0.142 C 
ATOM     42  C   UNL A   1     -28.871   0.265  28.177  0.00  0.00    +0.079 C 
ATOM     43  C   UNL A   1     -28.837  -1.488  29.773  0.00  0.00    +0.037 C 
ATOM     44  C   UNL A   1     -30.189   0.052  27.933  0.00  0.00    +0.199 C 
ENDBRANCH  37  41
ENDBRANCH  24  37
ENDBRANCH   5  24
TORSDOF 11
