REMARK  Name = outputs/IAG933/test6/raw/output_9786_IAG933_linker_design_.xyz
REMARK  14 active torsions:
REMARK  status: ('A' for Active; 'I' for Inactive)
REMARK    1  A    between atoms: C_1  and  C_2
REMARK    2  A    between atoms: C_1  and  C_8
REMARK    3  A    between atoms: C_1  and  O_32
REMARK    4  A    between atoms: C_13  and  C_30
REMARK    5  A    between atoms: C_14  and  C_15
REMARK    6  A    between atoms: C_21  and  O_22
REMARK    7  A    between atoms: O_22  and  C_23
REMARK    8  A    between atoms: C_23  and  C_24
REMARK    9  A    between atoms: N_28  and  C_39
REMARK   10  A    between atoms: C_30  and  C_39
REMARK   11  A    between atoms: C_30  and  C_40
REMARK   12  A    between atoms: O_32  and  C_36
REMARK   13  A    between atoms: S_35  and  C_36
REMARK   14  A    between atoms: S_35  and  C_40
REMARK                            x       y       z     vdW  Elec       q    Type
REMARK                         _______ _______ _______ _____ _____    ______ ____
ROOT
ATOM      1  C   UNL A   1     -24.172   0.957  27.238  0.00  0.00    +0.058 C 
ENDROOT
BRANCH   1   2
ATOM      2  C   UNL A   1     -25.688   1.614  26.461  0.00  0.00    +0.018 C 
ATOM      3  C   UNL A   1     -26.250   2.920  26.395  0.00  0.00    +0.073 C 
ATOM      4  C   UNL A   1     -27.438   3.091  25.645  0.00  0.00    +0.106 C 
ATOM      5  N   UNL A   1     -28.075   2.089  25.003  0.00  0.00    -0.208 NA
ATOM      6  C   UNL A   1     -27.543   0.849  25.079  0.00  0.00    +0.253 C 
ATOM      7  C   UNL A   1     -26.354   0.576  25.777  0.00  0.00    +0.189 C 
ATOM      8  F   UNL A   1     -25.860  -0.681  25.795  0.00  0.00    -0.200 F 
BRANCH   3   9
ATOM      9  C   UNL A   1     -25.642   4.093  27.123  0.00  0.00    +0.266 C 
ATOM     10  N   UNL A   1     -25.614   5.252  26.449  0.00  0.00    -0.200 NA
ATOM     11  C   UNL A   1     -25.026   6.479  26.963  0.00  0.00    +0.139 C 
ATOM     12  O   UNL A   1     -25.143   3.966  28.243  0.00  0.00    -0.268 OA
ENDBRANCH   3   9
BRANCH   6  13
ATOM     13  O   UNL A   1     -28.193  -0.208  24.477  0.00  0.00    -0.456 OA
BRANCH  13  14
ATOM     14  C   UNL A   1     -29.460   0.005  23.866  0.00  0.00    +0.243 C 
BRANCH  14  15
ATOM     15  C   UNL A   1     -30.065  -1.377  23.573  0.00  0.00    +0.229 C 
ATOM     16  O   UNL A   1     -30.729  -1.878  24.721  0.00  0.00    -0.216 OA
ENDBRANCH  14  15
ENDBRANCH  13  14
ENDBRANCH   6  13
ENDBRANCH   1   2
BRANCH   1  17
ATOM     17  C   UNL A   1     -25.024   1.044  28.409  0.00  0.00    +0.122 C 
BRANCH  17  18
ATOM     18  N   UNL A   1     -26.010   1.226  29.022  0.00  0.00    -0.188 NA
ATOM     19  C   UNL A   1     -29.553   1.216  29.212  0.00  0.00    +0.095 C 
ATOM     20  C   UNL A   1     -30.450   1.373  30.222  0.00  0.00    +0.022 C 
ATOM     21  C   UNL A   1     -30.513   2.847  30.411  0.00  0.00    +0.004 C 
ATOM     22  N   UNL A   1     -28.302   1.432  29.740  0.00  0.00    -0.263 N 
ATOM     23  C   UNL A   1     -27.223   0.597  29.207  0.00  0.00    +0.323 C 
ATOM     24  C   UNL A   1     -28.008   2.791  30.126  0.00  0.00    +0.095 C 
ATOM     25  C   UNL A   1     -29.189   3.457  30.839  0.00  0.00    +0.022 C 
ATOM     26  O   UNL A   1     -27.363  -0.569  28.961  0.00  0.00    -0.251 OA
ENDBRANCH  17  18
ENDBRANCH   1  17
BRANCH   1  27
ATOM     27  C   UNL A   1     -23.154   1.771  26.442  0.00  0.00    +0.068 C 
BRANCH  27  28
ATOM     28  S   UNL A   1     -21.743   1.341  27.567  0.00  0.00    -0.092 S 
BRANCH  28  30
ATOM     29  N   UNL A   1     -23.285   1.766  29.231  0.00  0.00    -0.088 NA
ATOM     30  C   UNL A   1     -22.662   0.448  28.858  0.00  0.00    +0.258 C 
BRANCH  30  31
ATOM     31  O   UNL A   1     -23.521  -0.547  29.717  0.00  0.00    -0.327 OA
BRANCH  31  32
ATOM     32  C   UNL A   1     -24.855  -1.012  30.143  0.00  0.00    +0.156 C 
BRANCH  32  33
ATOM     33  C   UNL A   1     -24.973  -2.505  29.788  0.00  0.00    +0.006 C 
ATOM     34  C   UNL A   1     -23.906  -3.173  29.146  0.00  0.00    -0.002 C 
ATOM     35  C   UNL A   1     -23.989  -4.549  28.853  0.00  0.00    -0.000 C 
ATOM     36  C   UNL A   1     -25.137  -5.280  29.205  0.00  0.00    -0.000 C 
ATOM     37  C   UNL A   1     -26.232  -4.611  29.784  0.00  0.00    -0.000 C 
ATOM     38  C   UNL A   1     -26.155  -3.232  30.065  0.00  0.00    -0.002 C 
ENDBRANCH  32  33
BRANCH  32  39
ATOM     39  C   UNL A   1     -25.387  -0.679  31.571  0.00  0.00    +0.104 C 
ATOM     40  C   UNL A   1     -25.189   0.773  32.028  0.00  0.00    +0.022 C 
ATOM     41  C   UNL A   1     -25.336   0.684  33.544  0.00  0.00    +0.020 C 
ATOM     42  C   UNL A   1     -24.829  -0.715  33.905  0.00  0.00    +0.089 C 
ATOM     43  N   UNL A   1     -24.758  -1.481  32.646  0.00  0.00    -0.217 NA
ENDBRANCH  32  39
ENDBRANCH  31  32
ENDBRANCH  30  31
ENDBRANCH  28  30
ENDBRANCH  27  28
ENDBRANCH   1  27
TORSDOF 14
