MODEL 978
MODEL 1
REMARK VINA RESULT:    -6.257      0.000      0.000
REMARK INTER + INTRA:          -6.688
REMARK INTER:                  -6.623
REMARK INTRA:                  -0.065
REMARK UNBOUND:                -0.065
REMARK  Name = No_978-gen_results/8p0m/2024-11-27-11-27-31/
REMARK  1 active torsions:
REMARK  status: ('A' for Active; 'I' for Inactive)
REMARK    1  A    between atoms: C_5  and  C_11
REMARK                            x       y       z     vdW  Elec       q    Type
REMARK                         _______ _______ _______ _____ _____    ______ ____
ROOT
ATOM      1  C   UNL A   1     -30.937 -10.129  29.938  0.00  0.00    +0.000 A 
ATOM      2  C   UNL A   1     -30.093 -10.498  30.721  0.00  0.00    +0.000 A 
ATOM      3  C   UNL A   1     -29.169 -11.454  30.447  0.00  0.00    +0.000 A 
ATOM      4  C   UNL A   1     -28.129 -11.914  31.394  0.00  0.00    +0.007 A 
ATOM      5  C   UNL A   1     -28.094 -11.279  32.679  0.00  0.00    +0.080 A 
ATOM      6  C   UNL A   1     -29.025 -10.239  32.899  0.00  0.00    +0.007 A 
ATOM      7  C   UNL A   1     -29.964  -9.866  31.972  0.00  0.00    +0.000 A 
ATOM      8  C   UNL A   1     -30.534 -10.081  28.463  0.00  0.00    +0.000 A 
ATOM      9  C   UNL A   1     -29.966 -11.227  28.019  0.00  0.00    +0.000 A 
ATOM     10  C   UNL A   1     -28.965 -11.773  29.007  0.00  0.00    +0.000 A 
ENDROOT
BRANCH   5  11
ATOM     11  C   UNL A   1     -27.197 -11.679  33.731  0.00  0.00    +0.388 C 
ATOM     12  O   UNL A   1     -26.727 -12.810  33.792  0.00  0.00    -0.241 OA
ATOM     13  O   UNL A   1     -26.895 -10.753  34.604  0.00  0.00    -0.241 OA
ENDBRANCH   5  11
TORSDOF 1
ENDMDL
ENDMDL
