REMARK  Name = outputs/IAG933/test6/raw/output_9792_IAG933_linker_design_.xyz
REMARK  12 active torsions:
REMARK  status: ('A' for Active; 'I' for Inactive)
REMARK    1  A    between atoms: C_1  and  C_2
REMARK    2  A    between atoms: C_1  and  C_8
REMARK    3  A    between atoms: C_1  and  C_40
REMARK    4  A    between atoms: C_13  and  N_30
REMARK    5  A    between atoms: C_14  and  C_15
REMARK    6  A    between atoms: C_21  and  O_22
REMARK    7  A    between atoms: O_22  and  C_23
REMARK    8  A    between atoms: C_23  and  C_24
REMARK    9  A    between atoms: N_30  and  C_32
REMARK   10  A    between atoms: N_30  and  C_40
REMARK   11  A    between atoms: C_34  and  C_35
REMARK   12  A    between atoms: C_40  and  C_41
REMARK                            x       y       z     vdW  Elec       q    Type
REMARK                         _______ _______ _______ _____ _____    ______ ____
ROOT
ATOM      1  N   UNL A   1     -25.129   1.005  27.799  0.00  0.00    -0.297 N 
ENDROOT
BRANCH   1   2
ATOM      2  C   UNL A   1     -25.688   1.614  26.461  0.00  0.00    +0.144 C 
ATOM      3  C   UNL A   1     -26.250   2.920  26.395  0.00  0.00    +0.073 C 
ATOM      4  C   UNL A   1     -27.438   3.091  25.645  0.00  0.00    +0.104 C 
ATOM      5  N   UNL A   1     -28.075   2.089  25.003  0.00  0.00    -0.212 NA
ATOM      6  C   UNL A   1     -27.543   0.849  25.079  0.00  0.00    +0.236 C 
ATOM      7  C   UNL A   1     -26.354   0.576  25.777  0.00  0.00    +0.258 C 
ATOM      8  F   UNL A   1     -25.860  -0.681  25.795  0.00  0.00    -0.225 F 
BRANCH   3   9
ATOM      9  C   UNL A   1     -25.642   4.093  27.123  0.00  0.00    +0.264 C 
ATOM     10  N   UNL A   1     -25.614   5.252  26.449  0.00  0.00    -0.200 NA
ATOM     11  C   UNL A   1     -25.026   6.479  26.963  0.00  0.00    +0.139 C 
ATOM     12  O   UNL A   1     -25.143   3.966  28.243  0.00  0.00    -0.269 OA
ENDBRANCH   3   9
BRANCH   6  13
ATOM     13  O   UNL A   1     -28.193  -0.208  24.477  0.00  0.00    -0.459 OA
BRANCH  13  14
ATOM     14  C   UNL A   1     -29.460   0.005  23.866  0.00  0.00    +0.242 C 
BRANCH  14  15
ATOM     15  C   UNL A   1     -30.065  -1.377  23.573  0.00  0.00    +0.229 C 
ATOM     16  O   UNL A   1     -30.729  -1.878  24.721  0.00  0.00    -0.216 OA
ENDBRANCH  14  15
ENDBRANCH  13  14
ENDBRANCH   6  13
ENDBRANCH   1   2
BRANCH   1  20
ATOM     17  C   UNL A   1     -21.005   1.413  27.692  0.00  0.00    +0.003 C 
ATOM     18  C   UNL A   1     -21.640   0.721  28.704  0.00  0.00    +0.002 C 
ATOM     19  O   UNL A   1     -23.653   2.229  25.394  0.00  0.00    -0.285 OA
ATOM     20  C   UNL A   1     -23.815   1.230  27.723  0.00  0.00    +0.088 C 
ATOM     21  C   UNL A   1     -23.061   0.706  28.727  0.00  0.00    +0.018 C 
ATOM     22  C   UNL A   1     -21.737   1.968  26.647  0.00  0.00    +0.043 C 
ATOM     23  C   UNL A   1     -23.100   1.831  26.564  0.00  0.00    +0.209 C 
ENDBRANCH   1  20
BRANCH   1  24
ATOM     24  C   UNL A   1     -25.471  -0.136  28.878  0.00  0.00    +0.108 C 
BRANCH  24  27
ATOM     25  C   UNL A   1     -27.452   2.895  30.250  0.00  0.00    +0.127 C 
ATOM     26  C   UNL A   1     -27.198   1.680  29.856  0.00  0.00    -0.097 C 
ATOM     27  C   UNL A   1     -26.890   0.342  29.227  0.00  0.00    +0.035 C 
BRANCH  25  28
ATOM     28  C   UNL A   1     -27.116   3.933  31.092  0.00  0.00    +0.396 C 
ATOM     29  O   UNL A   1     -26.420   4.869  30.671  0.00  0.00    -0.240 OA
ATOM     30  O   UNL A   1     -27.536   3.799  32.297  0.00  0.00    -0.240 OA
ENDBRANCH  25  28
ENDBRANCH  24  27
BRANCH  24  31
ATOM     31  C   UNL A   1     -24.855  -1.012  30.143  0.00  0.00    +0.061 C 
BRANCH  31  32
ATOM     32  C   UNL A   1     -24.973  -2.505  29.788  0.00  0.00    -0.019 C 
ATOM     33  C   UNL A   1     -23.906  -3.173  29.146  0.00  0.00    -0.004 C 
ATOM     34  C   UNL A   1     -23.989  -4.549  28.853  0.00  0.00    -0.000 C 
ATOM     35  C   UNL A   1     -25.137  -5.280  29.205  0.00  0.00    -0.000 C 
ATOM     36  C   UNL A   1     -26.232  -4.611  29.784  0.00  0.00    -0.000 C 
ATOM     37  C   UNL A   1     -26.155  -3.232  30.065  0.00  0.00    -0.004 C 
ENDBRANCH  31  32
BRANCH  31  38
ATOM     38  C   UNL A   1     -25.387  -0.679  31.571  0.00  0.00    +0.079 C 
ATOM     39  C   UNL A   1     -25.189   0.773  32.028  0.00  0.00    +0.019 C 
ATOM     40  C   UNL A   1     -25.336   0.684  33.544  0.00  0.00    +0.020 C 
ATOM     41  C   UNL A   1     -24.829  -0.715  33.905  0.00  0.00    +0.089 C 
ATOM     42  N   UNL A   1     -24.758  -1.481  32.646  0.00  0.00    -0.219 NA
ENDBRANCH  31  38
ENDBRANCH  24  31
ENDBRANCH   1  24
TORSDOF 12
