REMARK  Name = outputs/IAG933/test6/raw/output_9793_IAG933_linker_design_.xyz
REMARK  9 active torsions:
REMARK  status: ('A' for Active; 'I' for Inactive)
REMARK    1  A    between atoms: C_1  and  C_2
REMARK    2  A    between atoms: C_1  and  C_8
REMARK    3  A    between atoms: C_1  and  C_39
REMARK    4  A    between atoms: C_13  and  C_35
REMARK    5  A    between atoms: C_14  and  C_15
REMARK    6  A    between atoms: C_21  and  O_22
REMARK    7  A    between atoms: O_22  and  C_23
REMARK    8  A    between atoms: C_23  and  C_24
REMARK    9  A    between atoms: C_32  and  C_47
REMARK                            x       y       z     vdW  Elec       q    Type
REMARK                         _______ _______ _______ _____ _____    ______ ____
ROOT
ATOM      1  C   UNL A   1     -21.437   1.773  26.253  0.00  0.00    +0.009 C 
ATOM      2  C   UNL A   1     -25.466   0.715  28.484  0.00  0.00    +0.050 C 
ATOM      3  C   UNL A   1     -22.496   0.971  28.148  0.00  0.00    -0.026 C 
ATOM      4  C   UNL A   1     -24.701   1.316  27.407  0.00  0.00    +0.002 C 
ATOM      5  C   UNL A   1     -23.031   0.312  29.335  0.00  0.00    -0.008 C 
ATOM      6  C   UNL A   1     -24.378  -0.115  29.347  0.00  0.00    -0.013 C 
ATOM      7  C   UNL A   1     -23.437   1.246  27.171  0.00  0.00    -0.026 C 
ATOM      8  C   UNL A   1     -22.775   1.580  25.969  0.00  0.00    +0.026 C 
ATOM      9  C   UNL A   1     -21.214   1.456  27.659  0.00  0.00    +0.026 C 
ENDROOT
BRANCH   2  20
ATOM     10  O   UNL A   1     -27.646   3.885  29.865  0.00  0.00    -0.334 OA
ATOM     11  C   UNL A   1     -27.905   5.208  29.599  0.00  0.00    +0.149 C 
ATOM     12  C   UNL A   1     -28.950   5.211  28.721  0.00  0.00    +0.058 C 
ATOM     13  C   UNL A   1     -30.895   2.010  27.888  0.00  0.00    +0.111 C 
ATOM     14  N   UNL A   1     -28.547   1.765  28.613  0.00  0.00    -0.199 N 
ATOM     15  O   UNL A   1     -27.525   0.021  29.451  0.00  0.00    -0.269 OA
ATOM     16  C   UNL A   1     -28.490   3.065  29.064  0.00  0.00    +0.220 C 
ATOM     17  C   UNL A   1     -29.496   3.897  28.591  0.00  0.00    +0.001 C 
ATOM     18  O   UNL A   1     -29.719  -0.078  27.581  0.00  0.00    -0.274 OA
ATOM     19  C   UNL A   1     -29.686   1.161  27.993  0.00  0.00    +0.238 C 
ATOM     20  C   UNL A   1     -27.342   1.029  28.880  0.00  0.00    +0.256 C 
ATOM     21  C   UNL A   1     -30.800   3.392  28.100  0.00  0.00    -0.021 C 
ENDBRANCH   2  20
BRANCH   4  22
ATOM     22  C   UNL A   1     -25.688   1.614  26.461  0.00  0.00    +0.038 C 
ATOM     23  C   UNL A   1     -26.250   2.920  26.395  0.00  0.00    +0.076 C 
ATOM     24  C   UNL A   1     -27.438   3.091  25.645  0.00  0.00    +0.107 C 
ATOM     25  N   UNL A   1     -28.075   2.089  25.003  0.00  0.00    -0.208 NA
ATOM     26  C   UNL A   1     -27.543   0.849  25.079  0.00  0.00    +0.253 C 
ATOM     27  C   UNL A   1     -26.354   0.576  25.777  0.00  0.00    +0.193 C 
ATOM     28  F   UNL A   1     -25.860  -0.681  25.795  0.00  0.00    -0.199 F 
BRANCH  23  29
ATOM     29  C   UNL A   1     -25.642   4.093  27.123  0.00  0.00    +0.266 C 
ATOM     30  N   UNL A   1     -25.614   5.252  26.449  0.00  0.00    -0.200 NA
ATOM     31  C   UNL A   1     -25.026   6.479  26.963  0.00  0.00    +0.139 C 
ATOM     32  O   UNL A   1     -25.143   3.966  28.243  0.00  0.00    -0.268 OA
ENDBRANCH  23  29
BRANCH  26  33
ATOM     33  O   UNL A   1     -28.193  -0.208  24.477  0.00  0.00    -0.456 OA
BRANCH  33  34
ATOM     34  C   UNL A   1     -29.460   0.005  23.866  0.00  0.00    +0.243 C 
BRANCH  34  35
ATOM     35  C   UNL A   1     -30.065  -1.377  23.573  0.00  0.00    +0.229 C 
ATOM     36  O   UNL A   1     -30.729  -1.878  24.721  0.00  0.00    -0.216 OA
ENDBRANCH  34  35
ENDBRANCH  33  34
ENDBRANCH  26  33
ENDBRANCH   4  22
BRANCH   6  37
ATOM     37  C   UNL A   1     -24.855  -1.012  30.143  0.00  0.00    +0.061 C 
BRANCH  37  38
ATOM     38  C   UNL A   1     -24.973  -2.505  29.788  0.00  0.00    -0.017 C 
ATOM     39  C   UNL A   1     -23.906  -3.173  29.146  0.00  0.00    -0.004 C 
ATOM     40  C   UNL A   1     -23.989  -4.549  28.853  0.00  0.00    -0.000 C 
ATOM     41  C   UNL A   1     -25.137  -5.280  29.205  0.00  0.00    -0.000 C 
ATOM     42  C   UNL A   1     -26.232  -4.611  29.784  0.00  0.00    -0.000 C 
ATOM     43  C   UNL A   1     -26.155  -3.232  30.065  0.00  0.00    -0.004 C 
ENDBRANCH  37  38
BRANCH  37  44
ATOM     44  C   UNL A   1     -25.387  -0.679  31.571  0.00  0.00    +0.081 C 
ATOM     45  C   UNL A   1     -25.189   0.773  32.028  0.00  0.00    +0.019 C 
ATOM     46  C   UNL A   1     -25.336   0.684  33.544  0.00  0.00    +0.020 C 
ATOM     47  C   UNL A   1     -24.829  -0.715  33.905  0.00  0.00    +0.089 C 
ATOM     48  N   UNL A   1     -24.758  -1.481  32.646  0.00  0.00    -0.219 NA
ENDBRANCH  37  44
ENDBRANCH   6  37
TORSDOF 9
