REMARK  Name = outputs/IAG933/test6/raw/output_9794_IAG933_linker_design_.xyz
REMARK  13 active torsions:
REMARK  status: ('A' for Active; 'I' for Inactive)
REMARK    1  A    between atoms: C_1  and  C_2
REMARK    2  A    between atoms: C_1  and  C_8
REMARK    3  A    between atoms: C_9  and  S_44
REMARK    4  A    between atoms: C_14  and  C_15
REMARK    5  A    between atoms: C_15  and  O_18
REMARK    6  A    between atoms: O_18  and  C_43
REMARK    7  A    between atoms: C_21  and  O_22
REMARK    8  A    between atoms: O_22  and  C_23
REMARK    9  A    between atoms: C_23  and  C_24
REMARK   10  A    between atoms: N_30  and  C_42
REMARK   11  A    between atoms: C_39  and  C_43
REMARK   12  A    between atoms: C_39  and  C_45
REMARK   13  A    between atoms: S_44  and  C_45
REMARK                            x       y       z     vdW  Elec       q    Type
REMARK                         _______ _______ _______ _____ _____    ______ ____
ROOT
ATOM      1  N   UNL A   1     -24.391   2.102  29.985  0.00  0.00    -0.001 NA
ATOM      2  C   UNL A   1     -25.341   3.147  29.440  0.00  0.00    +0.322 C 
ENDROOT
BRANCH   1   8
ATOM      3  O   UNL A   1     -22.290   2.690  27.126  0.00  0.00    -0.456 OA
ATOM      4  N   UNL A   1     -22.255   0.924  29.387  0.00  0.00    -0.028 NA
ATOM      5  C   UNL A   1     -23.127   2.206  28.077  0.00  0.00    +0.329 C 
ATOM      6  C   UNL A   1     -21.482   1.779  27.349  0.00  0.00    +0.224 C 
ATOM      7  C   UNL A   1     -21.296   0.886  28.394  0.00  0.00    +0.276 C 
ATOM      8  C   UNL A   1     -23.318   1.793  29.175  0.00  0.00    +0.399 C 
ENDBRANCH   1   8
BRANCH   2   9
ATOM      9  O   UNL A   1     -25.143   3.966  28.243  0.00  0.00    -0.403 OA
BRANCH   9  10
ATOM     10  C   UNL A   1     -25.642   4.093  27.123  0.00  0.00    +0.231 C 
ATOM     11  N   UNL A   1     -25.614   5.252  26.449  0.00  0.00    -0.235 NA
ATOM     12  C   UNL A   1     -25.026   6.479  26.963  0.00  0.00    +0.155 C 
BRANCH  10  14
ATOM     13  C   UNL A   1     -25.688   1.614  26.461  0.00  0.00    +0.041 C 
ATOM     14  C   UNL A   1     -26.250   2.920  26.395  0.00  0.00    +0.075 C 
ATOM     15  C   UNL A   1     -27.438   3.091  25.645  0.00  0.00    +0.107 C 
ATOM     16  N   UNL A   1     -28.075   2.089  25.003  0.00  0.00    -0.208 NA
ATOM     17  C   UNL A   1     -27.543   0.849  25.079  0.00  0.00    +0.253 C 
ATOM     18  C   UNL A   1     -26.354   0.576  25.777  0.00  0.00    +0.193 C 
ATOM     19  F   UNL A   1     -25.860  -0.681  25.795  0.00  0.00    -0.199 F 
BRANCH  17  20
ATOM     20  O   UNL A   1     -28.193  -0.208  24.477  0.00  0.00    -0.456 OA
BRANCH  20  21
ATOM     21  C   UNL A   1     -29.460   0.005  23.866  0.00  0.00    +0.243 C 
BRANCH  21  22
ATOM     22  C   UNL A   1     -30.065  -1.377  23.573  0.00  0.00    +0.229 C 
ATOM     23  O   UNL A   1     -30.729  -1.878  24.721  0.00  0.00    -0.216 OA
ENDBRANCH  21  22
ENDBRANCH  20  21
ENDBRANCH  17  20
ENDBRANCH  10  14
ENDBRANCH   9  10
ENDBRANCH   2   9
BRANCH   2  24
ATOM     24  C   UNL A   1     -26.668   3.636  30.058  0.00  0.00    +0.128 C 
BRANCH  24  32
ATOM     25  O   UNL A   1     -29.151   4.247  31.186  0.00  0.00    -0.224 OA
ATOM     26  C   UNL A   1     -30.683   1.774  28.000  0.00  0.00    -0.030 C 
ATOM     27  C   UNL A   1     -31.327   2.622  28.969  0.00  0.00    +0.028 C 
ATOM     28  C   UNL A   1     -30.722   3.063  30.161  0.00  0.00    +0.036 C 
ATOM     29  C   UNL A   1     -29.316   1.473  28.144  0.00  0.00    -0.028 C 
ATOM     30  C   UNL A   1     -28.598   2.091  29.328  0.00  0.00    +0.062 C 
ATOM     31  C   UNL A   1     -29.255   2.990  30.296  0.00  0.00    +0.141 C 
ATOM     32  C   UNL A   1     -27.793   2.670  30.770  0.00  0.00    +0.083 C 
BRANCH  32  33
ATOM     33  S   UNL A   1     -26.729   1.480  31.648  0.00  0.00    -0.138 S 
BRANCH  33  35
ATOM     34  C   UNL A   1     -25.387  -0.679  31.571  0.00  0.00    +0.087 C 
ATOM     35  C   UNL A   1     -25.189   0.773  32.028  0.00  0.00    +0.065 C 
ATOM     36  C   UNL A   1     -25.336   0.684  33.544  0.00  0.00    +0.031 C 
ATOM     37  C   UNL A   1     -24.829  -0.715  33.905  0.00  0.00    +0.090 C 
ATOM     38  N   UNL A   1     -24.758  -1.481  32.646  0.00  0.00    -0.218 NA
BRANCH  34  39
ATOM     39  C   UNL A   1     -24.855  -1.012  30.143  0.00  0.00    +0.045 C 
BRANCH  39  40
ATOM     40  C   UNL A   1     -24.973  -2.505  29.788  0.00  0.00    -0.021 C 
ATOM     41  C   UNL A   1     -23.906  -3.173  29.146  0.00  0.00    -0.004 C 
ATOM     42  C   UNL A   1     -23.989  -4.549  28.853  0.00  0.00    -0.000 C 
ATOM     43  C   UNL A   1     -25.137  -5.280  29.205  0.00  0.00    -0.000 C 
ATOM     44  C   UNL A   1     -26.232  -4.611  29.784  0.00  0.00    -0.000 C 
ATOM     45  C   UNL A   1     -26.155  -3.232  30.065  0.00  0.00    -0.004 C 
ENDBRANCH  39  40
ENDBRANCH  34  39
ENDBRANCH  33  35
ENDBRANCH  32  33
ENDBRANCH  24  32
ENDBRANCH   2  24
TORSDOF 13
