REMARK  Name = outputs/IAG933/test6/raw/output_9795_IAG933_linker_design_.xyz
REMARK  9 active torsions:
REMARK  status: ('A' for Active; 'I' for Inactive)
REMARK    1  A    between atoms: C_1  and  C_2
REMARK    2  A    between atoms: C_1  and  C_8
REMARK    3  A    between atoms: C_1  and  C_36
REMARK    4  A    between atoms: C_13  and  N_31
REMARK    5  A    between atoms: C_14  and  C_15
REMARK    6  A    between atoms: C_21  and  O_22
REMARK    7  A    between atoms: O_22  and  C_23
REMARK    8  A    between atoms: C_23  and  C_24
REMARK    9  A    between atoms: C_30  and  N_44
REMARK                            x       y       z     vdW  Elec       q    Type
REMARK                         _______ _______ _______ _____ _____    ______ ____
ROOT
ATOM      1  C   UNL A   1     -25.200   0.557  28.279  0.00  0.00    +0.219 C 
ATOM      2  N   UNL A   1     -24.680   1.251  27.223  0.00  0.00    -0.260 N 
ATOM      3  C   UNL A   1     -24.345  -0.067  29.140  0.00  0.00    +0.083 C 
ATOM      4  C   UNL A   1     -22.593   0.950  27.913  0.00  0.00    +0.074 C 
ATOM      5  N   UNL A   1     -23.039   0.216  29.003  0.00  0.00    -0.253 NA
ATOM      6  C   UNL A   1     -21.087   1.217  27.758  0.00  0.00    +0.053 C 
ATOM      7  C   UNL A   1     -23.494   1.396  26.926  0.00  0.00    +0.082 C 
ENDROOT
BRANCH   1  17
ATOM      8  C   UNL A   1     -29.595   0.162  32.611  0.00  0.00    +0.048 C 
ATOM      9  N   UNL A   1     -30.010  -1.351  30.397  0.00  0.00    -0.273 N 
ATOM     10  C   UNL A   1     -28.158   1.188  30.565  0.00  0.00    +0.019 C 
ATOM     11  O   UNL A   1     -29.802  -0.446  28.269  0.00  0.00    -0.268 OA
ATOM     12  C   UNL A   1     -28.014   0.036  29.515  0.00  0.00    +0.131 C 
ATOM     13  C   UNL A   1     -31.179  -2.053  29.821  0.00  0.00    +0.115 C 
ATOM     14  C   UNL A   1     -29.356  -0.683  29.322  0.00  0.00    +0.267 C 
ATOM     15  C   UNL A   1     -28.794   1.177  31.785  0.00  0.00    -0.023 C 
ATOM     16  C   UNL A   1     -29.766  -1.265  31.901  0.00  0.00    +0.099 C 
ATOM     17  N   UNL A   1     -26.787  -0.112  28.477  0.00  0.00    -0.242 NA
ENDBRANCH   1  17
BRANCH   2  18
ATOM     18  C   UNL A   1     -25.688   1.614  26.461  0.00  0.00    +0.092 C 
ATOM     19  C   UNL A   1     -26.250   2.920  26.395  0.00  0.00    +0.090 C 
ATOM     20  C   UNL A   1     -27.438   3.091  25.645  0.00  0.00    +0.108 C 
ATOM     21  N   UNL A   1     -28.075   2.089  25.003  0.00  0.00    -0.208 NA
ATOM     22  C   UNL A   1     -27.543   0.849  25.079  0.00  0.00    +0.255 C 
ATOM     23  C   UNL A   1     -26.354   0.576  25.777  0.00  0.00    +0.207 C 
ATOM     24  F   UNL A   1     -25.860  -0.681  25.795  0.00  0.00    -0.198 F 
BRANCH  19  25
ATOM     25  C   UNL A   1     -25.642   4.093  27.123  0.00  0.00    +0.268 C 
ATOM     26  N   UNL A   1     -25.614   5.252  26.449  0.00  0.00    -0.200 NA
ATOM     27  C   UNL A   1     -25.026   6.479  26.963  0.00  0.00    +0.139 C 
ATOM     28  O   UNL A   1     -25.143   3.966  28.243  0.00  0.00    -0.268 OA
ENDBRANCH  19  25
BRANCH  22  29
ATOM     29  O   UNL A   1     -28.193  -0.208  24.477  0.00  0.00    -0.456 OA
BRANCH  29  30
ATOM     30  C   UNL A   1     -29.460   0.005  23.866  0.00  0.00    +0.243 C 
BRANCH  30  31
ATOM     31  C   UNL A   1     -30.065  -1.377  23.573  0.00  0.00    +0.229 C 
ATOM     32  O   UNL A   1     -30.729  -1.878  24.721  0.00  0.00    -0.216 OA
ENDBRANCH  30  31
ENDBRANCH  29  30
ENDBRANCH  22  29
ENDBRANCH   2  18
BRANCH   3  33
ATOM     33  C   UNL A   1     -24.855  -1.012  30.143  0.00  0.00    +0.078 C 
BRANCH  33  34
ATOM     34  C   UNL A   1     -24.973  -2.505  29.788  0.00  0.00    -0.016 C 
ATOM     35  C   UNL A   1     -23.906  -3.173  29.146  0.00  0.00    -0.004 C 
ATOM     36  C   UNL A   1     -23.989  -4.549  28.853  0.00  0.00    -0.000 C 
ATOM     37  C   UNL A   1     -25.137  -5.280  29.205  0.00  0.00    -0.000 C 
ATOM     38  C   UNL A   1     -26.232  -4.611  29.784  0.00  0.00    -0.000 C 
ATOM     39  C   UNL A   1     -26.155  -3.232  30.065  0.00  0.00    -0.004 C 
ENDBRANCH  33  34
BRANCH  33  40
ATOM     40  C   UNL A   1     -25.387  -0.679  31.571  0.00  0.00    +0.082 C 
ATOM     41  C   UNL A   1     -25.189   0.773  32.028  0.00  0.00    +0.020 C 
ATOM     42  C   UNL A   1     -25.336   0.684  33.544  0.00  0.00    +0.020 C 
ATOM     43  C   UNL A   1     -24.829  -0.715  33.905  0.00  0.00    +0.089 C 
ATOM     44  N   UNL A   1     -24.758  -1.481  32.646  0.00  0.00    -0.219 NA
ENDBRANCH  33  40
ENDBRANCH   3  33
TORSDOF 9
