REMARK  Name = outputs/IAG933/test6/raw/output_9796_IAG933_linker_design_.xyz
REMARK  13 active torsions:
REMARK  status: ('A' for Active; 'I' for Inactive)
REMARK    1  A    between atoms: C_1  and  C_2
REMARK    2  A    between atoms: C_1  and  C_8
REMARK    3  A    between atoms: C_1  and  C_37
REMARK    4  A    between atoms: C_13  and  C_28
REMARK    5  A    between atoms: C_14  and  C_15
REMARK    6  A    between atoms: C_21  and  O_22
REMARK    7  A    between atoms: O_22  and  C_23
REMARK    8  A    between atoms: C_23  and  C_24
REMARK    9  A    between atoms: C_29  and  C_40
REMARK   10  A    between atoms: C_31  and  C_37
REMARK   11  A    between atoms: C_34  and  N_35
REMARK   12  A    between atoms: C_34  and  C_39
REMARK   13  A    between atoms: N_35  and  C_37
REMARK                            x       y       z     vdW  Elec       q    Type
REMARK                         _______ _______ _______ _____ _____    ______ ____
ROOT
ATOM      1  C   UNL A   1     -24.585   1.292  27.282  0.00  0.00    +0.044 A 
ATOM      2  C   UNL A   1     -22.530   1.155  28.023  0.00  0.00    +0.240 A 
ATOM      3  C   UNL A   1     -24.621   0.523  28.413  0.00  0.00    +0.141 A 
ATOM      4  N   UNL A   1     -21.118   1.394  28.173  0.00  0.00    -0.088 NA
ATOM      5  C   UNL A   1     -23.183   1.482  26.881  0.00  0.00    +0.123 A 
ATOM      6  O   UNL A   1     -23.339   0.513  28.880  0.00  0.00    -0.440 OA
ENDROOT
BRANCH   1   7
ATOM      7  C   UNL A   1     -25.688   1.614  26.461  0.00  0.00    +0.041 C 
ATOM      8  C   UNL A   1     -26.250   2.920  26.395  0.00  0.00    +0.077 C 
ATOM      9  C   UNL A   1     -27.438   3.091  25.645  0.00  0.00    +0.107 C 
ATOM     10  N   UNL A   1     -28.075   2.089  25.003  0.00  0.00    -0.208 NA
ATOM     11  C   UNL A   1     -27.543   0.849  25.079  0.00  0.00    +0.253 C 
ATOM     12  C   UNL A   1     -26.354   0.576  25.777  0.00  0.00    +0.193 C 
ATOM     13  F   UNL A   1     -25.860  -0.681  25.795  0.00  0.00    -0.199 F 
BRANCH   8  14
ATOM     14  C   UNL A   1     -25.642   4.093  27.123  0.00  0.00    +0.266 C 
ATOM     15  N   UNL A   1     -25.614   5.252  26.449  0.00  0.00    -0.200 NA
ATOM     16  C   UNL A   1     -25.026   6.479  26.963  0.00  0.00    +0.139 C 
ATOM     17  O   UNL A   1     -25.143   3.966  28.243  0.00  0.00    -0.268 OA
ENDBRANCH   8  14
BRANCH  11  18
ATOM     18  O   UNL A   1     -28.193  -0.208  24.477  0.00  0.00    -0.456 OA
BRANCH  18  19
ATOM     19  C   UNL A   1     -29.460   0.005  23.866  0.00  0.00    +0.243 C 
BRANCH  19  20
ATOM     20  C   UNL A   1     -30.065  -1.377  23.573  0.00  0.00    +0.229 C 
ATOM     21  O   UNL A   1     -30.729  -1.878  24.721  0.00  0.00    -0.216 OA
ENDBRANCH  19  20
ENDBRANCH  18  19
ENDBRANCH  11  18
ENDBRANCH   1   7
BRANCH   5  22
ATOM     22  C   UNL A   1     -22.803   1.895  25.707  0.00  0.00    +0.338 C 
ATOM     23  O   UNL A   1     -21.738   2.518  25.480  0.00  0.00    -0.254 OA
ATOM     24  F   UNL A   1     -23.304   1.595  24.506  0.00  0.00    -0.158 F 
ENDBRANCH   5  22
BRANCH   3  25
ATOM     25  C   UNL A   1     -25.670  -0.176  29.111  0.00  0.00    +0.136 C 
BRANCH  25  26
ATOM     26  C   UNL A   1     -24.855  -1.012  30.143  0.00  0.00    +0.062 C 
BRANCH  26  27
ATOM     27  C   UNL A   1     -24.973  -2.505  29.788  0.00  0.00    -0.019 C 
ATOM     28  C   UNL A   1     -23.906  -3.173  29.146  0.00  0.00    -0.004 C 
ATOM     29  C   UNL A   1     -23.989  -4.549  28.853  0.00  0.00    -0.000 C 
ATOM     30  C   UNL A   1     -25.137  -5.280  29.205  0.00  0.00    -0.000 C 
ATOM     31  C   UNL A   1     -26.232  -4.611  29.784  0.00  0.00    -0.000 C 
ATOM     32  C   UNL A   1     -26.155  -3.232  30.065  0.00  0.00    -0.004 C 
ENDBRANCH  26  27
BRANCH  26  33
ATOM     33  C   UNL A   1     -25.387  -0.679  31.571  0.00  0.00    +0.079 C 
ATOM     34  C   UNL A   1     -25.189   0.773  32.028  0.00  0.00    +0.019 C 
ATOM     35  C   UNL A   1     -25.336   0.684  33.544  0.00  0.00    +0.020 C 
ATOM     36  C   UNL A   1     -24.829  -0.715  33.905  0.00  0.00    +0.089 C 
ATOM     37  N   UNL A   1     -24.758  -1.481  32.646  0.00  0.00    -0.219 NA
ENDBRANCH  26  33
ENDBRANCH  25  26
BRANCH  25  38
ATOM     38  N   UNL A   1     -26.924   0.608  29.381  0.00  0.00    -0.202 NA
BRANCH  38  39
ATOM     39  C   UNL A   1     -26.684   2.006  29.984  0.00  0.00    +0.177 C 
BRANCH  39  42
ATOM     40  O   UNL A   1     -28.111   1.669  31.812  0.00  0.00    -0.270 OA
ATOM     41  N   UNL A   1     -26.752   3.418  31.947  0.00  0.00    -0.086 NA
ATOM     42  C   UNL A   1     -27.231   2.356  31.334  0.00  0.00    +0.279 C 
ENDBRANCH  39  42
ENDBRANCH  38  39
ENDBRANCH  25  38
ENDBRANCH   3  25
TORSDOF 13
