MODEL 979
MODEL 1
REMARK VINA RESULT:    -5.559      0.000      0.000
REMARK INTER + INTRA:          -6.476
REMARK INTER:                  -6.209
REMARK INTRA:                  -0.267
REMARK UNBOUND:                -0.267
REMARK  Name = No_979-gen_results/8p0m/2024-11-27-11-27-31/
REMARK  2 active torsions:
REMARK  status: ('A' for Active; 'I' for Inactive)
REMARK    1  A    between atoms: C_3  and  C_4
REMARK    2  A    between atoms: C_7  and  C_12
REMARK                            x       y       z     vdW  Elec       q    Type
REMARK                         _______ _______ _______ _____ _____    ______ ____
ROOT
ATOM      1  O   UNL A   1     -30.994  -9.097  30.684  0.00  0.00    -0.273 OA
ATOM      2  C   UNL A   1     -30.129  -9.928  30.985  0.00  0.00    +0.249 C 
ATOM      3  C   UNL A   1     -29.462 -10.699  30.478  0.00  0.00    +0.173 C 
ATOM      4  N   UNL A   1     -29.966 -10.082  32.494  0.00  0.00    -0.205 NA
ATOM      5  C   UNL A   1     -29.069 -10.462  33.048  0.00  0.00    +0.126 C 
ATOM      6  C   UNL A   1     -28.211 -11.466  32.359  0.00  0.00    +0.126 C 
ATOM      7  C   UNL A   1     -28.395 -11.684  31.099  0.00  0.00    +0.031 C 
ENDROOT
BRANCH   3   8
ATOM      8  C   UNL A   1     -29.604 -11.186  29.191  0.00  0.00    +0.406 C 
ATOM      9  F   UNL A   1     -30.042 -10.492  28.146  0.00  0.00    -0.170 F 
ATOM     10  F   UNL A   1     -28.373 -11.834  28.791  0.00  0.00    -0.170 F 
ATOM     11  F   UNL A   1     -30.659 -12.091  29.161  0.00  0.00    -0.170 F 
ENDBRANCH   3   8
BRANCH   6  12
ATOM     12  C   UNL A   1     -27.106 -12.210  33.121  0.00  0.00    +0.366 C 
ATOM     13  O   UNL A   1     -27.224 -12.288  34.347  0.00  0.00    -0.246 OA
ATOM     14  O   UNL A   1     -26.342 -13.016  32.451  0.00  0.00    -0.246 OA
ENDBRANCH   6  12
TORSDOF 2
ENDMDL
ENDMDL
