MODEL 97
MODEL 1
REMARK VINA RESULT:    -4.293      0.000      0.000
REMARK INTER + INTRA:          -4.293
REMARK INTER:                  -4.293
REMARK INTRA:                   0.000
REMARK UNBOUND:                 0.000
REMARK  Name = No_97-gen_results/8p0m/2024-11-27-11-27-31/
REMARK  0 active torsions:
REMARK  status: ('A' for Active; 'I' for Inactive)
REMARK                            x       y       z     vdW  Elec       q    Type
REMARK                         _______ _______ _______ _____ _____    ______ ____
ROOT
ATOM      1  C   UNL A   1     -26.239  -3.640  29.715  0.00  0.00    +0.000 A 
ATOM      2  C   UNL A   1     -26.095  -4.837  29.623  0.00  0.00    +0.000 A 
ATOM      3  C   UNL A   1     -25.003  -5.433  29.024  0.00  0.00    +0.000 A 
ATOM      4  C   UNL A   1     -23.973  -4.587  28.524  0.00  0.00    +0.000 A 
ATOM      5  C   UNL A   1     -24.098  -3.268  28.802  0.00  0.00    +0.000 A 
ATOM      6  C   UNL A   1     -25.162  -2.790  29.419  0.00  0.00    +0.000 A 
ENDROOT
TORSDOF 0
ENDMDL
ENDMDL
