REMARK  Name = outputs/IAG933/test6/raw/output_980_IAG933_linker_design_.xyz
REMARK  15 active torsions:
REMARK  status: ('A' for Active; 'I' for Inactive)
REMARK    1  A    between atoms: C_1  and  C_2
REMARK    2  A    between atoms: C_1  and  C_8
REMARK    3  A    between atoms: C_9  and  O_59
REMARK    4  A    between atoms: C_14  and  C_15
REMARK    5  A    between atoms: C_15  and  O_18
REMARK    6  A    between atoms: O_18  and  C_46
REMARK    7  A    between atoms: C_21  and  O_22
REMARK    8  A    between atoms: O_22  and  C_23
REMARK    9  A    between atoms: C_23  and  C_24
REMARK   10  A    between atoms: C_40  and  C_46
REMARK   11  A    between atoms: C_46  and  C_50
REMARK   12  A    between atoms: C_48  and  N_49
REMARK   13  A    between atoms: N_49  and  C_50
REMARK   14  A    between atoms: N_49  and  O_59
REMARK   15  A    between atoms: C_53  and  C_55
REMARK                            x       y       z     vdW  Elec       q    Type
REMARK                         _______ _______ _______ _____ _____    ______ ____
ROOT
ATOM      1  C   UNL A   1     -25.678   4.739  29.378  0.00  0.00    +0.190 C 
ENDROOT
BRANCH   1   9
ATOM      2  C   UNL A   1     -24.177   9.418  30.657  0.00  0.00    -0.006 C 
ATOM      3  C   UNL A   1     -23.723   9.969  29.508  0.00  0.00    -0.003 C 
ATOM      4  C   UNL A   1     -24.722  10.829  28.770  0.00  0.00    -0.000 C 
ATOM      5  C   UNL A   1     -27.487   5.960  30.681  0.00  0.00    +0.018 C 
ATOM      6  C   UNL A   1     -28.155   7.108  31.505  0.00  0.00    +0.086 C 
ATOM      7  C   UNL A   1     -25.173   6.672  31.598  0.00  0.00    +0.201 C 
ATOM      8  O   UNL A   1     -27.135   7.989  33.540  0.00  0.00    -0.275 OA
ATOM      9  C   UNL A   1     -25.952   6.039  30.371  0.00  0.00    +0.089 C 
ATOM     10  C   UNL A   1     -23.126   9.340  31.716  0.00  0.00    +0.058 C 
ATOM     11  C   UNL A   1     -26.500   9.761  30.093  0.00  0.00    +0.015 C 
ATOM     12  C   UNL A   1     -25.539   9.057  30.846  0.00  0.00    +0.052 C 
ATOM     13  C   UNL A   1     -27.120   7.813  32.362  0.00  0.00    +0.231 C 
ATOM     14  C   UNL A   1     -26.091  10.670  29.067  0.00  0.00    +0.001 C 
ATOM     15  C   UNL A   1     -23.374   8.156  32.510  0.00  0.00    +0.127 C 
ATOM     16  N   UNL A   1     -25.944   7.967  31.705  0.00  0.00    -0.236 N 
ATOM     17  O   UNL A   1     -23.830   7.032  31.865  0.00  0.00    -0.339 OA
BRANCH  15  25
ATOM     18  C   UNL A   1     -21.890   6.870  34.628  0.00  0.00    -0.024 C 
ATOM     19  C   UNL A   1     -21.170   7.119  35.898  0.00  0.00    +0.053 C 
ATOM     20  C   UNL A   1     -24.364  10.255  37.083  0.00  0.00    +0.112 C 
ATOM     21  C   UNL A   1     -22.992   7.882  34.778  0.00  0.00    -0.009 C 
ATOM     22  C   UNL A   1     -23.168   8.521  35.967  0.00  0.00    +0.040 C 
ATOM     23  N   UNL A   1     -23.781   9.619  35.874  0.00  0.00    -0.306 N 
ATOM     24  C   UNL A   1     -21.896   8.171  36.754  0.00  0.00    -0.007 C 
ATOM     25  C   UNL A   1     -23.780   8.347  33.849  0.00  0.00    +0.070 C 
ATOM     26  C   UNL A   1     -24.640   9.246  34.774  0.00  0.00    +0.098 C 
ENDBRANCH  15  25
ENDBRANCH   1   9
BRANCH   1  27
ATOM     27  O   UNL A   1     -25.143   3.966  28.243  0.00  0.00    -0.463 OA
BRANCH  27  28
ATOM     28  C   UNL A   1     -25.642   4.093  27.123  0.00  0.00    +0.222 C 
ATOM     29  N   UNL A   1     -25.614   5.252  26.449  0.00  0.00    -0.236 NA
ATOM     30  C   UNL A   1     -25.026   6.479  26.963  0.00  0.00    +0.155 C 
BRANCH  28  32
ATOM     31  C   UNL A   1     -25.688   1.614  26.461  0.00  0.00    +0.041 C 
ATOM     32  C   UNL A   1     -26.250   2.920  26.395  0.00  0.00    +0.074 C 
ATOM     33  C   UNL A   1     -27.438   3.091  25.645  0.00  0.00    +0.107 C 
ATOM     34  N   UNL A   1     -28.075   2.089  25.003  0.00  0.00    -0.208 NA
ATOM     35  C   UNL A   1     -27.543   0.849  25.079  0.00  0.00    +0.253 C 
ATOM     36  C   UNL A   1     -26.354   0.576  25.777  0.00  0.00    +0.193 C 
ATOM     37  F   UNL A   1     -25.860  -0.681  25.795  0.00  0.00    -0.199 F 
BRANCH  35  38
ATOM     38  O   UNL A   1     -28.193  -0.208  24.477  0.00  0.00    -0.456 OA
BRANCH  38  39
ATOM     39  C   UNL A   1     -29.460   0.005  23.866  0.00  0.00    +0.243 C 
BRANCH  39  40
ATOM     40  C   UNL A   1     -30.065  -1.377  23.573  0.00  0.00    +0.229 C 
ATOM     41  O   UNL A   1     -30.729  -1.878  24.721  0.00  0.00    -0.216 OA
ENDBRANCH  39  40
ENDBRANCH  38  39
ENDBRANCH  35  38
ENDBRANCH  28  32
ENDBRANCH  27  28
ENDBRANCH   1  27
BRANCH   1  42
ATOM     42  C   UNL A   1     -25.597   3.495  30.344  0.00  0.00    +0.144 C 
BRANCH  42  43
ATOM     43  N   UNL A   1     -24.319   2.517  30.004  0.00  0.00    -0.164 NA
BRANCH  43  46
ATOM     44  C   UNL A   1     -22.664   1.770  27.821  0.00  0.00    +0.020 C 
ATOM     45  C   UNL A   1     -22.166   1.125  29.086  0.00  0.00    +0.020 C 
ATOM     46  C   UNL A   1     -23.587   1.651  29.008  0.00  0.00    +0.084 C 
ENDBRANCH  43  46
BRANCH  43  47
ATOM     47  O   UNL A   1     -24.301   1.569  31.249  0.00  0.00    -0.283 OA
BRANCH  47  49
ATOM     48  C   UNL A   1     -25.387  -0.679  31.571  0.00  0.00    +0.106 C 
ATOM     49  C   UNL A   1     -25.189   0.773  32.028  0.00  0.00    +0.155 C 
ATOM     50  C   UNL A   1     -25.336   0.684  33.544  0.00  0.00    +0.052 C 
ATOM     51  C   UNL A   1     -24.829  -0.715  33.905  0.00  0.00    +0.091 C 
ATOM     52  N   UNL A   1     -24.758  -1.481  32.646  0.00  0.00    -0.216 NA
BRANCH  48  53
ATOM     53  C   UNL A   1     -24.855  -1.012  30.143  0.00  0.00    +0.046 C 
BRANCH  53  54
ATOM     54  C   UNL A   1     -24.973  -2.505  29.788  0.00  0.00    -0.021 C 
ATOM     55  C   UNL A   1     -23.906  -3.173  29.146  0.00  0.00    -0.004 C 
ATOM     56  C   UNL A   1     -23.989  -4.549  28.853  0.00  0.00    -0.000 C 
ATOM     57  C   UNL A   1     -25.137  -5.280  29.205  0.00  0.00    -0.000 C 
ATOM     58  C   UNL A   1     -26.232  -4.611  29.784  0.00  0.00    -0.000 C 
ATOM     59  C   UNL A   1     -26.155  -3.232  30.065  0.00  0.00    -0.004 C 
ENDBRANCH  53  54
ENDBRANCH  48  53
ENDBRANCH  47  49
ENDBRANCH  43  47
ENDBRANCH  42  43
ENDBRANCH   1  42
TORSDOF 15
