REMARK  Name = outputs/IAG933/test6/raw/output_9804_IAG933_linker_design_.xyz
REMARK  11 active torsions:
REMARK  status: ('A' for Active; 'I' for Inactive)
REMARK    1  A    between atoms: C_1  and  C_2
REMARK    2  A    between atoms: C_1  and  C_8
REMARK    3  A    between atoms: C_1  and  C_32
REMARK    4  A    between atoms: C_13  and  C_29
REMARK    5  A    between atoms: C_14  and  C_15
REMARK    6  A    between atoms: C_15  and  O_18
REMARK    7  A    between atoms: O_18  and  C_37
REMARK    8  A    between atoms: C_21  and  O_22
REMARK    9  A    between atoms: O_22  and  C_23
REMARK   10  A    between atoms: C_23  and  C_24
REMARK   11  A    between atoms: C_32  and  C_36
REMARK                            x       y       z     vdW  Elec       q    Type
REMARK                         _______ _______ _______ _____ _____    ______ ____
ROOT
ATOM      1  C   UNL A   1     -24.104   1.683  27.462  0.00  0.00    +0.140 C 
ATOM      2  C   UNL A   1     -21.947   1.289  26.925  0.00  0.00    +0.003 C 
ATOM      3  C   UNL A   1     -22.085   1.952  25.757  0.00  0.00    +0.003 C 
ATOM      4  O   UNL A   1     -23.898   1.863  28.523  0.00  0.00    -0.347 OA
ATOM      5  C   UNL A   1     -23.914   0.684  28.737  0.00  0.00    +0.173 C 
ATOM      6  C   UNL A   1     -21.554   0.898  28.224  0.00  0.00    +0.003 C 
ATOM      7  C   UNL A   1     -23.313   1.093  26.270  0.00  0.00    +0.032 C 
ATOM      8  C   UNL A   1     -22.454   0.063  29.084  0.00  0.00    +0.037 C 
ENDROOT
BRANCH   1   9
ATOM      9  C   UNL A   1     -25.688   1.614  26.461  0.00  0.00    +0.043 C 
ATOM     10  C   UNL A   1     -26.250   2.920  26.395  0.00  0.00    +0.073 C 
ATOM     11  C   UNL A   1     -27.438   3.091  25.645  0.00  0.00    +0.106 C 
ATOM     12  N   UNL A   1     -28.075   2.089  25.003  0.00  0.00    -0.208 NA
ATOM     13  C   UNL A   1     -27.543   0.849  25.079  0.00  0.00    +0.253 C 
ATOM     14  C   UNL A   1     -26.354   0.576  25.777  0.00  0.00    +0.191 C 
ATOM     15  F   UNL A   1     -25.860  -0.681  25.795  0.00  0.00    -0.200 F 
BRANCH  10  16
ATOM     16  C   UNL A   1     -25.642   4.093  27.123  0.00  0.00    +0.222 C 
ATOM     17  N   UNL A   1     -25.614   5.252  26.449  0.00  0.00    -0.236 NA
ATOM     18  C   UNL A   1     -25.026   6.479  26.963  0.00  0.00    +0.155 C 
BRANCH  16  19
ATOM     19  O   UNL A   1     -25.143   3.966  28.243  0.00  0.00    -0.462 OA
BRANCH  19  23
ATOM     20  C   UNL A   1     -25.444   4.665  30.888  0.00  0.00    +0.185 C 
ATOM     21  C   UNL A   1     -27.063   3.361  29.619  0.00  0.00    +0.078 C 
ATOM     22  O   UNL A   1     -26.299   4.013  31.781  0.00  0.00    -0.350 OA
ATOM     23  C   UNL A   1     -25.659   3.940  29.568  0.00  0.00    +0.199 C 
ATOM     24  C   UNL A   1     -27.512   3.657  31.044  0.00  0.00    +0.146 C 
ENDBRANCH  19  23
ENDBRANCH  16  19
ENDBRANCH  10  16
BRANCH  13  25
ATOM     25  O   UNL A   1     -28.193  -0.208  24.477  0.00  0.00    -0.456 OA
BRANCH  25  26
ATOM     26  C   UNL A   1     -29.460   0.005  23.866  0.00  0.00    +0.243 C 
BRANCH  26  27
ATOM     27  C   UNL A   1     -30.065  -1.377  23.573  0.00  0.00    +0.229 C 
ATOM     28  O   UNL A   1     -30.729  -1.878  24.721  0.00  0.00    -0.216 OA
ENDBRANCH  26  27
ENDBRANCH  25  26
ENDBRANCH  13  25
ENDBRANCH   1   9
BRANCH   5  29
ATOM     29  C   UNL A   1     -25.161  -0.073  29.076  0.00  0.00    +0.182 C 
ATOM     30  O   UNL A   1     -26.261  -0.074  28.580  0.00  0.00    -0.293 OA
BRANCH  29  31
ATOM     31  C   UNL A   1     -24.855  -1.012  30.143  0.00  0.00    +0.098 C 
BRANCH  31  32
ATOM     32  C   UNL A   1     -24.973  -2.505  29.788  0.00  0.00    -0.014 C 
ATOM     33  C   UNL A   1     -23.906  -3.173  29.146  0.00  0.00    -0.004 C 
ATOM     34  C   UNL A   1     -23.989  -4.549  28.853  0.00  0.00    -0.000 C 
ATOM     35  C   UNL A   1     -25.137  -5.280  29.205  0.00  0.00    -0.000 C 
ATOM     36  C   UNL A   1     -26.232  -4.611  29.784  0.00  0.00    -0.000 C 
ATOM     37  C   UNL A   1     -26.155  -3.232  30.065  0.00  0.00    -0.004 C 
ENDBRANCH  31  32
BRANCH  31  38
ATOM     38  C   UNL A   1     -25.387  -0.679  31.571  0.00  0.00    +0.084 C 
ATOM     39  C   UNL A   1     -25.189   0.773  32.028  0.00  0.00    +0.020 C 
ATOM     40  C   UNL A   1     -25.336   0.684  33.544  0.00  0.00    +0.020 C 
ATOM     41  C   UNL A   1     -24.829  -0.715  33.905  0.00  0.00    +0.089 C 
ATOM     42  N   UNL A   1     -24.758  -1.481  32.646  0.00  0.00    -0.219 NA
ENDBRANCH  31  38
ENDBRANCH  29  31
ENDBRANCH   5  29
TORSDOF 11
