MODEL 980
MODEL 1
REMARK VINA RESULT:    -6.628      0.000      0.000
REMARK INTER + INTRA:          -7.837
REMARK INTER:                  -7.402
REMARK INTRA:                  -0.434
REMARK UNBOUND:                -0.434
REMARK  Name = No_980-gen_results/8p0m/2024-11-27-11-27-31/
REMARK  2 active torsions:
REMARK  status: ('A' for Active; 'I' for Inactive)
REMARK    1  A    between atoms: C_2  and  C_3
REMARK    2  A    between atoms: C_3  and  C_4
REMARK                            x       y       z     vdW  Elec       q    Type
REMARK                         _______ _______ _______ _____ _____    ______ ____
ROOT
ATOM      1  C   UNL A   1     -24.774  -1.139  29.156  0.00  0.00    +0.053 C 
ENDROOT
BRANCH   1   3
ATOM      2  C   UNL A   1     -23.833  -3.195  28.716  0.00  0.00    -0.004 A 
ATOM      3  C   UNL A   1     -24.785  -2.517  29.023  0.00  0.00    -0.018 A 
ATOM      4  C   UNL A   1     -24.039  -4.653  28.531  0.00  0.00    -0.000 A 
ATOM      5  C   UNL A   1     -25.163  -5.261  29.076  0.00  0.00    -0.000 A 
ATOM      6  C   UNL A   1     -26.160  -4.523  29.668  0.00  0.00    -0.000 A 
ATOM      7  C   UNL A   1     -26.041  -3.150  29.684  0.00  0.00    -0.004 A 
ENDBRANCH   1   3
BRANCH   1   8
ATOM      8  C   UNL A   1     -24.263  -0.193  28.194  0.00  0.00    -0.018 A 
ATOM      9  C   UNL A   1     -24.803   0.059  26.957  0.00  0.00    -0.004 A 
ATOM     10  C   UNL A   1     -24.268   1.120  26.210  0.00  0.00    -0.000 A 
ATOM     11  C   UNL A   1     -23.058   1.754  26.587  0.00  0.00    -0.000 A 
ATOM     12  C   UNL A   1     -22.488   1.427  27.767  0.00  0.00    -0.000 A 
ATOM     13  C   UNL A   1     -23.005   0.449  28.593  0.00  0.00    -0.004 A 
ENDBRANCH   1   8
TORSDOF 2
ENDMDL
ENDMDL
