REMARK  Name = outputs/IAG933/test6/raw/output_9810_IAG933_linker_design_.xyz
REMARK  12 active torsions:
REMARK  status: ('A' for Active; 'I' for Inactive)
REMARK    1  A    between atoms: C_1  and  C_2
REMARK    2  A    between atoms: C_1  and  C_8
REMARK    3  A    between atoms: C_1  and  N_34
REMARK    4  A    between atoms: C_9  and  C_39
REMARK    5  A    between atoms: C_13  and  N_38
REMARK    6  A    between atoms: C_14  and  C_15
REMARK    7  A    between atoms: C_21  and  O_22
REMARK    8  A    between atoms: O_22  and  C_23
REMARK    9  A    between atoms: C_23  and  C_24
REMARK   10  A    between atoms: C_29  and  C_35
REMARK   11  A    between atoms: C_30  and  C_39
REMARK   12  A    between atoms: N_34  and  C_36
REMARK                            x       y       z     vdW  Elec       q    Type
REMARK                         _______ _______ _______ _____ _____    ______ ____
ROOT
ATOM      1  C   UNL A   1     -21.181   0.962  27.919  0.00  0.00    +0.218 C 
ATOM      2  C   UNL A   1     -22.514   0.979  27.946  0.00  0.00    +0.115 C 
ATOM      3  C   UNL A   1     -22.043  -0.460  29.490  0.00  0.00    +0.104 C 
ATOM      4  F   UNL A   1     -20.350   1.797  27.369  0.00  0.00    -0.186 F 
ATOM      5  C   UNL A   1     -23.056   0.135  28.913  0.00  0.00    +0.090 C 
ATOM      6  N   UNL A   1     -20.937   0.004  28.833  0.00  0.00    -0.183 NA
ENDROOT
BRANCH   2   7
ATOM      7  C   UNL A   1     -23.435   1.657  26.944  0.00  0.00    +0.274 C 
ATOM      8  O   UNL A   1     -23.030   2.339  25.995  0.00  0.00    -0.268 OA
ATOM      9  N   UNL A   1     -24.747   1.356  27.226  0.00  0.00    -0.173 NA
BRANCH   9  10
ATOM     10  C   UNL A   1     -25.688   1.614  26.461  0.00  0.00    +0.112 C 
ATOM     11  C   UNL A   1     -26.250   2.920  26.395  0.00  0.00    +0.092 C 
ATOM     12  C   UNL A   1     -27.438   3.091  25.645  0.00  0.00    +0.108 C 
ATOM     13  N   UNL A   1     -28.075   2.089  25.003  0.00  0.00    -0.208 NA
ATOM     14  C   UNL A   1     -27.543   0.849  25.079  0.00  0.00    +0.255 C 
ATOM     15  C   UNL A   1     -26.354   0.576  25.777  0.00  0.00    +0.208 C 
ATOM     16  F   UNL A   1     -25.860  -0.681  25.795  0.00  0.00    -0.198 F 
BRANCH  11  17
ATOM     17  C   UNL A   1     -25.642   4.093  27.123  0.00  0.00    +0.268 C 
ATOM     18  N   UNL A   1     -25.614   5.252  26.449  0.00  0.00    -0.200 NA
ATOM     19  C   UNL A   1     -25.026   6.479  26.963  0.00  0.00    +0.139 C 
ATOM     20  O   UNL A   1     -25.143   3.966  28.243  0.00  0.00    -0.268 OA
ENDBRANCH  11  17
BRANCH  14  21
ATOM     21  O   UNL A   1     -28.193  -0.208  24.477  0.00  0.00    -0.456 OA
BRANCH  21  22
ATOM     22  C   UNL A   1     -29.460   0.005  23.866  0.00  0.00    +0.243 C 
BRANCH  22  23
ATOM     23  C   UNL A   1     -30.065  -1.377  23.573  0.00  0.00    +0.229 C 
ATOM     24  O   UNL A   1     -30.729  -1.878  24.721  0.00  0.00    -0.216 OA
ENDBRANCH  22  23
ENDBRANCH  21  22
ENDBRANCH  14  21
ENDBRANCH   9  10
ENDBRANCH   2   7
BRANCH   5  25
ATOM     25  N   UNL A   1     -24.449  -0.156  29.050  0.00  0.00    -0.232 NA
BRANCH  25  26
ATOM     26  C   UNL A   1     -24.855  -1.012  30.143  0.00  0.00    +0.131 C 
BRANCH  26  27
ATOM     27  C   UNL A   1     -24.973  -2.505  29.788  0.00  0.00    -0.001 C 
ATOM     28  C   UNL A   1     -23.906  -3.173  29.146  0.00  0.00    -0.003 C 
ATOM     29  C   UNL A   1     -23.989  -4.549  28.853  0.00  0.00    -0.000 C 
ATOM     30  C   UNL A   1     -25.137  -5.280  29.205  0.00  0.00    -0.000 C 
ATOM     31  C   UNL A   1     -26.232  -4.611  29.784  0.00  0.00    -0.000 C 
ATOM     32  C   UNL A   1     -26.155  -3.232  30.065  0.00  0.00    -0.003 C 
ENDBRANCH  26  27
BRANCH  26  33
ATOM     33  C   UNL A   1     -25.387  -0.679  31.571  0.00  0.00    +0.097 C 
ATOM     34  C   UNL A   1     -25.189   0.773  32.028  0.00  0.00    +0.022 C 
ATOM     35  C   UNL A   1     -25.336   0.684  33.544  0.00  0.00    +0.020 C 
ATOM     36  C   UNL A   1     -24.829  -0.715  33.905  0.00  0.00    +0.089 C 
ATOM     37  N   UNL A   1     -24.758  -1.481  32.646  0.00  0.00    -0.217 NA
BRANCH  34  38
ATOM     38  C   UNL A   1     -25.317   2.233  31.593  0.00  0.00    +0.037 C 
BRANCH  38  39
ATOM     39  C   UNL A   1     -24.067   2.361  30.859  0.00  0.00    +0.182 C 
ATOM     40  O   UNL A   1     -23.163   2.456  30.702  0.00  0.00    -0.220 OA
ENDBRANCH  38  39
ENDBRANCH  34  38
ENDBRANCH  26  33
ENDBRANCH  25  26
ENDBRANCH   5  25
TORSDOF 12
