REMARK  Name = outputs/IAG933/test6/raw/output_9811_IAG933_linker_design_.xyz
REMARK  14 active torsions:
REMARK  status: ('A' for Active; 'I' for Inactive)
REMARK    1  A    between atoms: C_1  and  C_2
REMARK    2  A    between atoms: C_1  and  C_8
REMARK    3  A    between atoms: C_1  and  N_31
REMARK    4  A    between atoms: C_13  and  N_34
REMARK    5  A    between atoms: C_14  and  C_15
REMARK    6  A    between atoms: C_21  and  O_22
REMARK    7  A    between atoms: O_22  and  C_23
REMARK    8  A    between atoms: C_23  and  C_24
REMARK    9  A    between atoms: N_31  and  C_45
REMARK   10  A    between atoms: N_34  and  C_38
REMARK   11  A    between atoms: C_37  and  C_41
REMARK   12  A    between atoms: C_39  and  C_42
REMARK   13  A    between atoms: C_39  and  N_44
REMARK   14  A    between atoms: C_41  and  C_42
REMARK                            x       y       z     vdW  Elec       q    Type
REMARK                         _______ _______ _______ _____ _____    ______ ____
ROOT
ATOM      1  F   UNL A   1     -22.732   2.442  25.682  0.00  0.00    -0.203 F 
ATOM      2  C   UNL A   1     -22.573   1.795  26.862  0.00  0.00    +0.157 C 
ATOM      3  C   UNL A   1     -21.135   0.784  28.501  0.00  0.00    +0.004 C 
ATOM      4  C   UNL A   1     -21.297   1.592  27.381  0.00  0.00    +0.031 C 
ATOM      5  C   UNL A   1     -23.668   1.255  27.502  0.00  0.00    +0.112 C 
ATOM      6  C   UNL A   1     -22.257   0.255  29.172  0.00  0.00    +0.016 C 
ATOM      7  C   UNL A   1     -23.577   0.490  28.629  0.00  0.00    +0.073 C 
ENDROOT
BRANCH   7  10
ATOM      8  O   UNL A   1     -27.252  -0.125  28.807  0.00  0.00    -0.250 OA
ATOM      9  C   UNL A   1     -26.368   0.669  29.018  0.00  0.00    +0.327 C 
ATOM     10  N   UNL A   1     -24.969   0.102  29.158  0.00  0.00    -0.237 N 
ATOM     11  N   UNL A   1     -26.562   2.016  29.171  0.00  0.00    -0.188 NA
BRANCH  10  12
ATOM     12  C   UNL A   1     -24.855  -1.012  30.143  0.00  0.00    +0.120 C 
BRANCH  12  13
ATOM     13  C   UNL A   1     -24.973  -2.505  29.788  0.00  0.00    -0.003 C 
ATOM     14  C   UNL A   1     -23.906  -3.173  29.146  0.00  0.00    -0.003 C 
ATOM     15  C   UNL A   1     -23.989  -4.549  28.853  0.00  0.00    -0.000 C 
ATOM     16  C   UNL A   1     -25.137  -5.280  29.205  0.00  0.00    -0.000 C 
ATOM     17  C   UNL A   1     -26.232  -4.611  29.784  0.00  0.00    -0.000 C 
ATOM     18  C   UNL A   1     -26.155  -3.232  30.065  0.00  0.00    -0.003 C 
ENDBRANCH  12  13
BRANCH  12  19
ATOM     19  C   UNL A   1     -25.387  -0.679  31.571  0.00  0.00    +0.096 C 
ATOM     20  C   UNL A   1     -25.189   0.773  32.028  0.00  0.00    +0.021 C 
ATOM     21  C   UNL A   1     -25.336   0.684  33.544  0.00  0.00    +0.020 C 
ATOM     22  C   UNL A   1     -24.829  -0.715  33.905  0.00  0.00    +0.089 C 
ATOM     23  N   UNL A   1     -24.758  -1.481  32.646  0.00  0.00    -0.217 NA
ENDBRANCH  12  19
ENDBRANCH  10  12
BRANCH  11  24
ATOM     24  C   UNL A   1     -27.078   2.638  30.417  0.00  0.00    +0.117 C 
BRANCH  24  25
ATOM     25  C   UNL A   1     -28.577   2.546  30.666  0.00  0.00    +0.033 C 
BRANCH  25  26
ATOM     26  C   UNL A   1     -29.372   3.814  30.341  0.00  0.00    +0.090 C 
BRANCH  26  28
ATOM     27  O   UNL A   1     -30.321   3.788  28.128  0.00  0.00    -0.272 OA
ATOM     28  C   UNL A   1     -30.453   3.497  29.309  0.00  0.00    +0.261 C 
ATOM     29  N   UNL A   1     -31.497   2.884  29.771  0.00  0.00    -0.088 NA
ENDBRANCH  26  28
ENDBRANCH  25  26
ENDBRANCH  24  25
ENDBRANCH  11  24
ENDBRANCH   7  10
BRANCH   5  30
ATOM     30  N   UNL A   1     -24.782   1.393  27.130  0.00  0.00    -0.206 NA
BRANCH  30  31
ATOM     31  C   UNL A   1     -25.688   1.614  26.461  0.00  0.00    +0.108 C 
ATOM     32  C   UNL A   1     -26.250   2.920  26.395  0.00  0.00    +0.092 C 
ATOM     33  C   UNL A   1     -27.438   3.091  25.645  0.00  0.00    +0.108 C 
ATOM     34  N   UNL A   1     -28.075   2.089  25.003  0.00  0.00    -0.208 NA
ATOM     35  C   UNL A   1     -27.543   0.849  25.079  0.00  0.00    +0.255 C 
ATOM     36  C   UNL A   1     -26.354   0.576  25.777  0.00  0.00    +0.208 C 
ATOM     37  F   UNL A   1     -25.860  -0.681  25.795  0.00  0.00    -0.198 F 
BRANCH  32  38
ATOM     38  C   UNL A   1     -25.642   4.093  27.123  0.00  0.00    +0.268 C 
ATOM     39  N   UNL A   1     -25.614   5.252  26.449  0.00  0.00    -0.200 NA
ATOM     40  C   UNL A   1     -25.026   6.479  26.963  0.00  0.00    +0.139 C 
ATOM     41  O   UNL A   1     -25.143   3.966  28.243  0.00  0.00    -0.268 OA
ENDBRANCH  32  38
BRANCH  35  42
ATOM     42  O   UNL A   1     -28.193  -0.208  24.477  0.00  0.00    -0.456 OA
BRANCH  42  43
ATOM     43  C   UNL A   1     -29.460   0.005  23.866  0.00  0.00    +0.243 C 
BRANCH  43  44
ATOM     44  C   UNL A   1     -30.065  -1.377  23.573  0.00  0.00    +0.229 C 
ATOM     45  O   UNL A   1     -30.729  -1.878  24.721  0.00  0.00    -0.216 OA
ENDBRANCH  43  44
ENDBRANCH  42  43
ENDBRANCH  35  42
ENDBRANCH  30  31
ENDBRANCH   5  30
TORSDOF 14
