REMARK  Name = outputs/IAG933/test6/raw/output_9814_IAG933_linker_design_.xyz
REMARK  11 active torsions:
REMARK  status: ('A' for Active; 'I' for Inactive)
REMARK    1  A    between atoms: C_1  and  C_2
REMARK    2  A    between atoms: C_1  and  C_8
REMARK    3  A    between atoms: C_1  and  N_36
REMARK    4  A    between atoms: C_13  and  N_29
REMARK    5  A    between atoms: C_14  and  C_15
REMARK    6  A    between atoms: C_21  and  O_22
REMARK    7  A    between atoms: O_22  and  C_23
REMARK    8  A    between atoms: C_23  and  C_24
REMARK    9  A    between atoms: C_28  and  C_33
REMARK   10  A    between atoms: N_29  and  C_37
REMARK   11  A    between atoms: N_36  and  C_37
REMARK                            x       y       z     vdW  Elec       q    Type
REMARK                         _______ _______ _______ _____ _____    ______ ____
ROOT
ATOM      1  O   UNL A   1     -22.424  -0.393  29.279  0.00  0.00    -0.452 OA
ATOM      2  C   UNL A   1     -22.007   1.036  27.546  0.00  0.00    +0.231 C 
ATOM      3  C   UNL A   1     -22.972   0.441  28.353  0.00  0.00    +0.227 C 
ATOM      4  N   UNL A   1     -20.771   0.764  28.043  0.00  0.00    -0.159 NA
ATOM      5  C   UNL A   1     -24.367   0.586  28.241  0.00  0.00    +0.384 C 
ATOM      6  C   UNL A   1     -20.868  -0.268  29.039  0.00  0.00    +0.300 C 
ENDROOT
BRANCH   2   7
ATOM      7  C   UNL A   1     -22.255   1.814  26.263  0.00  0.00    +0.334 C 
ATOM      8  F   UNL A   1     -21.175   2.133  25.599  0.00  0.00    -0.162 F 
ATOM      9  O   UNL A   1     -23.214   2.292  25.718  0.00  0.00    -0.257 OA
ENDBRANCH   2   7
BRANCH   5  10
ATOM     10  N   UNL A   1     -24.843   1.310  27.258  0.00  0.00    -0.003 NA
BRANCH  10  11
ATOM     11  C   UNL A   1     -25.688   1.614  26.461  0.00  0.00    +0.221 C 
ATOM     12  C   UNL A   1     -26.250   2.920  26.395  0.00  0.00    +0.117 C 
ATOM     13  C   UNL A   1     -27.438   3.091  25.645  0.00  0.00    +0.110 C 
ATOM     14  N   UNL A   1     -28.075   2.089  25.003  0.00  0.00    -0.208 NA
ATOM     15  C   UNL A   1     -27.543   0.849  25.079  0.00  0.00    +0.257 C 
ATOM     16  C   UNL A   1     -26.354   0.576  25.777  0.00  0.00    +0.234 C 
ATOM     17  F   UNL A   1     -25.860  -0.681  25.795  0.00  0.00    -0.195 F 
BRANCH  12  18
ATOM     18  C   UNL A   1     -25.642   4.093  27.123  0.00  0.00    +0.270 C 
ATOM     19  N   UNL A   1     -25.614   5.252  26.449  0.00  0.00    -0.200 NA
ATOM     20  C   UNL A   1     -25.026   6.479  26.963  0.00  0.00    +0.139 C 
ATOM     21  O   UNL A   1     -25.143   3.966  28.243  0.00  0.00    -0.268 OA
ENDBRANCH  12  18
BRANCH  15  22
ATOM     22  O   UNL A   1     -28.193  -0.208  24.477  0.00  0.00    -0.456 OA
BRANCH  22  23
ATOM     23  C   UNL A   1     -29.460   0.005  23.866  0.00  0.00    +0.243 C 
BRANCH  23  24
ATOM     24  C   UNL A   1     -30.065  -1.377  23.573  0.00  0.00    +0.229 C 
ATOM     25  O   UNL A   1     -30.729  -1.878  24.721  0.00  0.00    -0.216 OA
ENDBRANCH  23  24
ENDBRANCH  22  23
ENDBRANCH  15  22
ENDBRANCH  10  11
ENDBRANCH   5  10
BRANCH   5  26
ATOM     26  N   UNL A   1     -25.270  -0.050  29.180  0.00  0.00    -0.029 NA
BRANCH  26  27
ATOM     27  C   UNL A   1     -24.855  -1.012  30.143  0.00  0.00    +0.243 C 
BRANCH  27  28
ATOM     28  C   UNL A   1     -24.973  -2.505  29.788  0.00  0.00    +0.025 C 
ATOM     29  C   UNL A   1     -23.906  -3.173  29.146  0.00  0.00    -0.000 C 
ATOM     30  C   UNL A   1     -23.989  -4.549  28.853  0.00  0.00    -0.000 C 
ATOM     31  C   UNL A   1     -25.137  -5.280  29.205  0.00  0.00    -0.000 C 
ATOM     32  C   UNL A   1     -26.232  -4.611  29.784  0.00  0.00    -0.000 C 
ATOM     33  C   UNL A   1     -26.155  -3.232  30.065  0.00  0.00    -0.000 C 
ENDBRANCH  27  28
BRANCH  27  34
ATOM     34  C   UNL A   1     -25.387  -0.679  31.571  0.00  0.00    +0.124 C 
ATOM     35  C   UNL A   1     -25.189   0.773  32.028  0.00  0.00    +0.024 C 
ATOM     36  C   UNL A   1     -25.336   0.684  33.544  0.00  0.00    +0.020 C 
ATOM     37  C   UNL A   1     -24.829  -0.715  33.905  0.00  0.00    +0.089 C 
ATOM     38  N   UNL A   1     -24.758  -1.481  32.646  0.00  0.00    -0.215 NA
ENDBRANCH  27  34
ENDBRANCH  26  27
ENDBRANCH   5  26
TORSDOF 11
