MODEL 981
MODEL 1
REMARK VINA RESULT:    -4.006      0.000      0.000
REMARK INTER + INTRA:          -4.006
REMARK INTER:                  -4.006
REMARK INTRA:                   0.000
REMARK UNBOUND:                 0.000
REMARK  Name = No_981-gen_results/8p0m/2024-11-27-11-27-31/
REMARK  0 active torsions:
REMARK  status: ('A' for Active; 'I' for Inactive)
REMARK                            x       y       z     vdW  Elec       q    Type
REMARK                         _______ _______ _______ _____ _____    ______ ____
ROOT
ATOM      1  C   UNL A   1     -23.844  -3.172  28.841  0.00  0.00    +0.008 A 
ATOM      2  C   UNL A   1     -24.801  -3.890  29.018  0.00  0.00    +0.012 A 
ATOM      3  C   UNL A   1     -25.920  -3.517  29.761  0.00  0.00    +0.058 A 
ATOM      4  C   UNL A   1     -25.932  -2.222  30.415  0.00  0.00    +0.012 A 
ATOM      5  C   UNL A   1     -24.778  -1.443  30.172  0.00  0.00    +0.008 A 
ATOM      6  C   UNL A   1     -23.771  -1.884  29.462  0.00  0.00    +0.035 A 
ATOM      7 BR   UNL A   1     -22.274  -0.760  29.300  0.00  0.00    -0.049 Br
ATOM      8 CL   UNL A   1     -27.331  -4.503  30.040  0.00  0.00    -0.082 Cl
ENDROOT
TORSDOF 0
ENDMDL
ENDMDL
