REMARK  Name = outputs/IAG933/test6/raw/output_9822_IAG933_linker_design_.xyz
REMARK  13 active torsions:
REMARK  status: ('A' for Active; 'I' for Inactive)
REMARK    1  A    between atoms: C_1  and  C_2
REMARK    2  A    between atoms: C_1  and  C_8
REMARK    3  A    between atoms: C_1  and  C_46
REMARK    4  A    between atoms: C_13  and  C_29
REMARK    5  A    between atoms: C_14  and  C_15
REMARK    6  A    between atoms: C_21  and  O_22
REMARK    7  A    between atoms: O_22  and  C_23
REMARK    8  A    between atoms: C_23  and  C_24
REMARK    9  A    between atoms: C_30  and  C_38
REMARK   10  A    between atoms: C_31  and  C_33
REMARK   11  A    between atoms: C_33  and  N_41
REMARK   12  A    between atoms: N_41  and  C_48
REMARK   13  A    between atoms: C_46  and  C_48
REMARK                            x       y       z     vdW  Elec       q    Type
REMARK                         _______ _______ _______ _____ _____    ______ ____
ROOT
ATOM      1  C   UNL A   1     -24.774   1.216  27.623  0.00  0.00    +0.037 C 
ATOM      2  C   UNL A   1     -23.444   0.209  28.782  0.00  0.00    +0.064 C 
ATOM      3  N   UNL A   1     -22.376  -0.077  29.562  0.00  0.00    -0.133 NA
ATOM      4  C   UNL A   1     -23.477   1.089  27.638  0.00  0.00    +0.014 C 
ATOM      5  C   UNL A   1     -24.966   0.034  28.782  0.00  0.00    +0.059 C 
ENDROOT
BRANCH   1   6
ATOM      6  C   UNL A   1     -25.688   1.614  26.461  0.00  0.00    +0.074 C 
ATOM      7  C   UNL A   1     -26.250   2.920  26.395  0.00  0.00    +0.055 C 
ATOM      8  C   UNL A   1     -27.438   3.091  25.645  0.00  0.00    +0.102 C 
ATOM      9  N   UNL A   1     -28.075   2.089  25.003  0.00  0.00    -0.212 NA
ATOM     10  C   UNL A   1     -27.543   0.849  25.079  0.00  0.00    +0.234 C 
ATOM     11  C   UNL A   1     -26.354   0.576  25.777  0.00  0.00    +0.240 C 
ATOM     12  F   UNL A   1     -25.860  -0.681  25.795  0.00  0.00    -0.227 F 
BRANCH   7  13
ATOM     13  C   UNL A   1     -25.642   4.093  27.123  0.00  0.00    +0.262 C 
ATOM     14  N   UNL A   1     -25.614   5.252  26.449  0.00  0.00    -0.200 NA
ATOM     15  C   UNL A   1     -25.026   6.479  26.963  0.00  0.00    +0.139 C 
ATOM     16  O   UNL A   1     -25.143   3.966  28.243  0.00  0.00    -0.269 OA
ENDBRANCH   7  13
BRANCH  10  17
ATOM     17  O   UNL A   1     -28.193  -0.208  24.477  0.00  0.00    -0.459 OA
BRANCH  17  18
ATOM     18  C   UNL A   1     -29.460   0.005  23.866  0.00  0.00    +0.242 C 
BRANCH  18  19
ATOM     19  C   UNL A   1     -30.065  -1.377  23.573  0.00  0.00    +0.229 C 
ATOM     20  O   UNL A   1     -30.729  -1.878  24.721  0.00  0.00    -0.216 OA
ENDBRANCH  18  19
ENDBRANCH  17  18
ENDBRANCH  10  17
ENDBRANCH   1   6
BRANCH   4  21
ATOM     21  C   UNL A   1     -22.507   1.769  26.774  0.00  0.00    +0.250 C 
ATOM     22  O   UNL A   1     -21.212   1.785  27.404  0.00  0.00    -0.201 OA
ATOM     23 CL   UNL A   1     -22.784   2.553  25.338  0.00  0.00    -0.074 Cl
ENDBRANCH   4  21
BRANCH   5  24
ATOM     24  C   UNL A   1     -24.855  -1.012  30.143  0.00  0.00    +0.045 C 
BRANCH  24  25
ATOM     25  C   UNL A   1     -24.973  -2.505  29.788  0.00  0.00    -0.021 C 
ATOM     26  C   UNL A   1     -23.906  -3.173  29.146  0.00  0.00    -0.004 C 
ATOM     27  C   UNL A   1     -23.989  -4.549  28.853  0.00  0.00    -0.000 C 
ATOM     28  C   UNL A   1     -25.137  -5.280  29.205  0.00  0.00    -0.000 C 
ATOM     29  C   UNL A   1     -26.232  -4.611  29.784  0.00  0.00    -0.000 C 
ATOM     30  C   UNL A   1     -26.155  -3.232  30.065  0.00  0.00    -0.004 C 
ENDBRANCH  24  25
BRANCH  24  31
ATOM     31  C   UNL A   1     -25.387  -0.679  31.571  0.00  0.00    +0.077 C 
ATOM     32  C   UNL A   1     -25.189   0.773  32.028  0.00  0.00    +0.019 C 
ATOM     33  C   UNL A   1     -25.336   0.684  33.544  0.00  0.00    +0.020 C 
ATOM     34  C   UNL A   1     -24.829  -0.715  33.905  0.00  0.00    +0.089 C 
ATOM     35  N   UNL A   1     -24.758  -1.481  32.646  0.00  0.00    -0.219 NA
ENDBRANCH  24  31
ENDBRANCH   5  24
BRANCH   5  36
ATOM     36  C   UNL A   1     -26.392   0.162  29.093  0.00  0.00    +0.095 C 
BRANCH  36  37
ATOM     37  N   UNL A   1     -27.753   0.043  28.661  0.00  0.00    -0.216 NA
BRANCH  37  38
ATOM     38  C   UNL A   1     -28.730  -0.439  29.671  0.00  0.00    +0.109 C 
BRANCH  38  40
ATOM     39  O   UNL A   1     -30.997   0.485  33.439  0.00  0.00    -0.354 OA
ATOM     40  C   UNL A   1     -29.641   0.680  30.124  0.00  0.00    +0.099 C 
ATOM     41  N   UNL A   1     -30.338   1.617  29.446  0.00  0.00    -0.243 N 
ATOM     42  C   UNL A   1     -31.913   1.198  33.137  0.00  0.00    +0.144 C 
ATOM     43  C   UNL A   1     -31.141   2.385  30.168  0.00  0.00    +0.099 C 
ATOM     44  C   UNL A   1     -29.902   0.436  32.703  0.00  0.00    +0.144 C 
ATOM     45  C   UNL A   1     -31.264   1.780  31.475  0.00  0.00    +0.054 C 
ATOM     46  C   UNL A   1     -30.175   0.882  31.459  0.00  0.00    +0.053 C 
ATOM     47  C   UNL A   1     -30.410   1.633  28.078  0.00  0.00    +0.447 C 
ATOM     48  O   UNL A   1     -30.536   0.546  27.477  0.00  0.00    -0.222 OA
ATOM     49  O   UNL A   1     -30.396   2.714  27.466  0.00  0.00    -0.222 OA
ENDBRANCH  38  40
ENDBRANCH  37  38
ENDBRANCH  36  37
ENDBRANCH   5  36
TORSDOF 13
