REMARK  Name = outputs/IAG933/test6/raw/output_9824_IAG933_linker_design_.xyz
REMARK  14 active torsions:
REMARK  status: ('A' for Active; 'I' for Inactive)
REMARK    1  A    between atoms: C_1  and  C_2
REMARK    2  A    between atoms: C_1  and  C_8
REMARK    3  A    between atoms: C_1  and  C_37
REMARK    4  A    between atoms: C_13  and  C_33
REMARK    5  A    between atoms: C_14  and  C_15
REMARK    6  A    between atoms: C_21  and  O_22
REMARK    7  A    between atoms: O_22  and  C_23
REMARK    8  A    between atoms: C_23  and  C_24
REMARK    9  A    between atoms: C_30  and  C_33
REMARK   10  A    between atoms: C_31  and  C_33
REMARK   11  A    between atoms: C_31  and  C_36
REMARK   12  A    between atoms: C_31  and  C_37
REMARK   13  A    between atoms: O_34  and  C_36
REMARK   14  A    between atoms: C_36  and  C_39
REMARK                            x       y       z     vdW  Elec       q    Type
REMARK                         _______ _______ _______ _____ _____    ______ ____
ROOT
ATOM      1  C   UNL A   1     -24.555   1.189  28.804  0.00  0.00    +0.108 C 
ENDROOT
BRANCH   1   3
ATOM      2  O   UNL A   1     -26.318  -0.519  28.262  0.00  0.00    -0.296 OA
ATOM      3  C   UNL A   1     -25.361  -0.184  29.002  0.00  0.00    +0.159 C 
BRANCH   3   4
ATOM      4  C   UNL A   1     -24.855  -1.012  30.143  0.00  0.00    +0.096 C 
BRANCH   4   5
ATOM      5  C   UNL A   1     -24.973  -2.505  29.788  0.00  0.00    -0.014 C 
ATOM      6  C   UNL A   1     -23.906  -3.173  29.146  0.00  0.00    -0.004 C 
ATOM      7  C   UNL A   1     -23.989  -4.549  28.853  0.00  0.00    -0.000 C 
ATOM      8  C   UNL A   1     -25.137  -5.280  29.205  0.00  0.00    -0.000 C 
ATOM      9  C   UNL A   1     -26.232  -4.611  29.784  0.00  0.00    -0.000 C 
ATOM     10  C   UNL A   1     -26.155  -3.232  30.065  0.00  0.00    -0.004 C 
ENDBRANCH   4   5
BRANCH   4  11
ATOM     11  C   UNL A   1     -25.387  -0.679  31.571  0.00  0.00    +0.084 C 
ATOM     12  C   UNL A   1     -25.189   0.773  32.028  0.00  0.00    +0.020 C 
ATOM     13  C   UNL A   1     -25.336   0.684  33.544  0.00  0.00    +0.020 C 
ATOM     14  C   UNL A   1     -24.829  -0.715  33.905  0.00  0.00    +0.089 C 
ATOM     15  N   UNL A   1     -24.758  -1.481  32.646  0.00  0.00    -0.219 NA
ENDBRANCH   4  11
ENDBRANCH   3   4
ENDBRANCH   1   3
BRANCH   1  16
ATOM     16  C   UNL A   1     -24.559   1.207  27.256  0.00  0.00    +0.099 C 
BRANCH  16  17
ATOM     17  C   UNL A   1     -25.688   1.614  26.461  0.00  0.00    +0.028 C 
ATOM     18  C   UNL A   1     -26.250   2.920  26.395  0.00  0.00    +0.073 C 
ATOM     19  C   UNL A   1     -27.438   3.091  25.645  0.00  0.00    +0.106 C 
ATOM     20  N   UNL A   1     -28.075   2.089  25.003  0.00  0.00    -0.208 NA
ATOM     21  C   UNL A   1     -27.543   0.849  25.079  0.00  0.00    +0.253 C 
ATOM     22  C   UNL A   1     -26.354   0.576  25.777  0.00  0.00    +0.190 C 
ATOM     23  F   UNL A   1     -25.860  -0.681  25.795  0.00  0.00    -0.200 F 
BRANCH  18  24
ATOM     24  C   UNL A   1     -25.642   4.093  27.123  0.00  0.00    +0.266 C 
ATOM     25  N   UNL A   1     -25.614   5.252  26.449  0.00  0.00    -0.200 NA
ATOM     26  C   UNL A   1     -25.026   6.479  26.963  0.00  0.00    +0.139 C 
ATOM     27  O   UNL A   1     -25.143   3.966  28.243  0.00  0.00    -0.268 OA
ENDBRANCH  18  24
BRANCH  21  28
ATOM     28  O   UNL A   1     -28.193  -0.208  24.477  0.00  0.00    -0.456 OA
BRANCH  28  29
ATOM     29  C   UNL A   1     -29.460   0.005  23.866  0.00  0.00    +0.243 C 
BRANCH  29  30
ATOM     30  C   UNL A   1     -30.065  -1.377  23.573  0.00  0.00    +0.229 C 
ATOM     31  O   UNL A   1     -30.729  -1.878  24.721  0.00  0.00    -0.216 OA
ENDBRANCH  29  30
ENDBRANCH  28  29
ENDBRANCH  21  28
ENDBRANCH  16  17
BRANCH  16  32
ATOM     32  C   UNL A   1     -23.442   1.831  26.514  0.00  0.00    -0.074 C 
ATOM     33  C   UNL A   1     -22.715   2.402  25.613  0.00  0.00    -0.014 C 
ENDBRANCH  16  32
ENDBRANCH   1  16
BRANCH   1  34
ATOM     34  C   UNL A   1     -23.199   1.900  29.120  0.00  0.00    +0.180 C 
BRANCH  34  37
ATOM     35  O   UNL A   1     -22.174  -0.239  29.394  0.00  0.00    -0.293 OA
ATOM     36  C   UNL A   1     -21.059   1.161  27.917  0.00  0.00    +0.075 C 
ATOM     37  C   UNL A   1     -22.206   0.834  28.805  0.00  0.00    +0.178 C 
ENDBRANCH  34  37
BRANCH  34  39
ATOM     38  C   UNL A   1     -24.002   3.605  30.939  0.00  0.00    +0.175 C 
ATOM     39  O   UNL A   1     -23.279   2.469  30.444  0.00  0.00    -0.346 OA
ENDBRANCH  34  39
ENDBRANCH   1  34
TORSDOF 14
