REMARK  Name = outputs/IAG933/test6/raw/output_9827_IAG933_linker_design_.xyz
REMARK  19 active torsions:
REMARK  status: ('A' for Active; 'I' for Inactive)
REMARK    1  A    between atoms: C_1  and  C_2
REMARK    2  A    between atoms: C_1  and  C_8
REMARK    3  A    between atoms: C_1  and  C_37
REMARK    4  A    between atoms: C_14  and  C_15
REMARK    5  A    between atoms: C_15  and  O_18
REMARK    6  A    between atoms: O_18  and  C_36
REMARK    7  A    between atoms: C_21  and  O_22
REMARK    8  A    between atoms: O_22  and  C_23
REMARK    9  A    between atoms: C_23  and  C_24
REMARK   10  A    between atoms: C_28  and  C_30
REMARK   11  A    between atoms: C_28  and  C_41
REMARK   12  A    between atoms: C_29  and  C_41
REMARK   13  A    between atoms: N_31  and  C_32
REMARK   14  A    between atoms: N_31  and  C_36
REMARK   15  A    between atoms: C_32  and  O_34
REMARK   16  A    between atoms: C_32  and  N_40
REMARK   17  A    between atoms: C_33  and  O_34
REMARK   18  A    between atoms: C_36  and  C_41
REMARK   19  A    between atoms: C_37  and  N_40
REMARK                            x       y       z     vdW  Elec       q    Type
REMARK                         _______ _______ _______ _____ _____    ______ ____
ROOT
ATOM      1  C   UNL A   1     -25.556   3.278  29.328  0.00  0.00    +0.249 C 
ENDROOT
BRANCH   1   2
ATOM      2  O   UNL A   1     -25.143   3.966  28.243  0.00  0.00    -0.446 OA
BRANCH   2   3
ATOM      3  C   UNL A   1     -25.642   4.093  27.123  0.00  0.00    +0.223 C 
ATOM      4  N   UNL A   1     -25.614   5.252  26.449  0.00  0.00    -0.236 NA
ATOM      5  C   UNL A   1     -25.026   6.479  26.963  0.00  0.00    +0.155 C 
BRANCH   3   7
ATOM      6  C   UNL A   1     -25.688   1.614  26.461  0.00  0.00    +0.041 C 
ATOM      7  C   UNL A   1     -26.250   2.920  26.395  0.00  0.00    +0.074 C 
ATOM      8  C   UNL A   1     -27.438   3.091  25.645  0.00  0.00    +0.107 C 
ATOM      9  N   UNL A   1     -28.075   2.089  25.003  0.00  0.00    -0.208 NA
ATOM     10  C   UNL A   1     -27.543   0.849  25.079  0.00  0.00    +0.253 C 
ATOM     11  C   UNL A   1     -26.354   0.576  25.777  0.00  0.00    +0.193 C 
ATOM     12  F   UNL A   1     -25.860  -0.681  25.795  0.00  0.00    -0.199 F 
BRANCH  10  13
ATOM     13  O   UNL A   1     -28.193  -0.208  24.477  0.00  0.00    -0.456 OA
BRANCH  13  14
ATOM     14  C   UNL A   1     -29.460   0.005  23.866  0.00  0.00    +0.243 C 
BRANCH  14  15
ATOM     15  C   UNL A   1     -30.065  -1.377  23.573  0.00  0.00    +0.229 C 
ATOM     16  O   UNL A   1     -30.729  -1.878  24.721  0.00  0.00    -0.216 OA
ENDBRANCH  14  15
ENDBRANCH  13  14
ENDBRANCH  10  13
ENDBRANCH   3   7
ENDBRANCH   2   3
ENDBRANCH   1   2
BRANCH   1  17
ATOM     17  N   UNL A   1     -24.904   2.075  29.520  0.00  0.00    -0.136 NA
BRANCH  17  18
ATOM     18  C   UNL A   1     -23.739   1.708  29.089  0.00  0.00    +0.277 C 
BRANCH  18  19
ATOM     19  O   UNL A   1     -23.050   2.492  28.135  0.00  0.00    -0.295 OA
BRANCH  19  20
ATOM     20  C   UNL A   1     -21.870   1.801  27.793  0.00  0.00    +0.331 C 
ATOM     21  O   UNL A   1     -20.908   1.324  27.619  0.00  0.00    -0.184 OA
ENDBRANCH  19  20
ENDBRANCH  18  19
BRANCH  18  22
ATOM     22  N   UNL A   1     -22.967   0.767  29.688  0.00  0.00    -0.175 NA
BRANCH  22  23
ATOM     23  C   UNL A   1     -23.458  -0.420  30.315  0.00  0.00    +0.098 C 
BRANCH  23  24
ATOM     24  C   UNL A   1     -24.855  -1.012  30.143  0.00  0.00    +0.056 C 
BRANCH  24  25
ATOM     25  C   UNL A   1     -24.973  -2.505  29.788  0.00  0.00    -0.020 C 
ATOM     26  C   UNL A   1     -23.906  -3.173  29.146  0.00  0.00    -0.004 C 
ATOM     27  C   UNL A   1     -23.989  -4.549  28.853  0.00  0.00    -0.000 C 
ATOM     28  C   UNL A   1     -25.137  -5.280  29.205  0.00  0.00    -0.000 C 
ATOM     29  C   UNL A   1     -26.232  -4.611  29.784  0.00  0.00    -0.000 C 
ATOM     30  C   UNL A   1     -26.155  -3.232  30.065  0.00  0.00    -0.004 C 
ENDBRANCH  24  25
BRANCH  24  31
ATOM     31  C   UNL A   1     -25.387  -0.679  31.571  0.00  0.00    +0.078 C 
ATOM     32  C   UNL A   1     -25.189   0.773  32.028  0.00  0.00    +0.019 C 
ATOM     33  C   UNL A   1     -25.336   0.684  33.544  0.00  0.00    +0.020 C 
ATOM     34  C   UNL A   1     -24.829  -0.715  33.905  0.00  0.00    +0.089 C 
ATOM     35  N   UNL A   1     -24.758  -1.481  32.646  0.00  0.00    -0.219 NA
ENDBRANCH  24  31
ENDBRANCH  23  24
ENDBRANCH  22  23
ENDBRANCH  18  22
ENDBRANCH  17  18
ENDBRANCH   1  17
BRANCH   1  36
ATOM     36  C   UNL A   1     -26.444   4.117  30.061  0.00  0.00    +0.078 C 
BRANCH  36  37
ATOM     37  C   UNL A   1     -27.617   4.596  29.448  0.00  0.00    -0.039 C 
ATOM     38  C   UNL A   1     -28.878   3.911  29.570  0.00  0.00    +0.026 C 
ATOM     39  C   UNL A   1     -27.500   5.761  28.766  0.00  0.00    -0.009 C 
ENDBRANCH  36  37
BRANCH  36  40
ATOM     40  C   UNL A   1     -26.246   4.947  31.154  0.00  0.00    +0.028 C 
BRANCH  40  41
ATOM     41  C   UNL A   1     -26.476   6.319  31.149  0.00  0.00    +0.092 C 
ATOM     42  N   UNL A   1     -25.489   7.014  31.820  0.00  0.00    -0.133 NA
ATOM     43  C   UNL A   1     -27.653   7.279  30.739  0.00  0.00    +0.021 C 
ENDBRANCH  40  41
ENDBRANCH  36  40
ENDBRANCH   1  36
TORSDOF 19
