MODEL 982
MODEL 1
REMARK VINA RESULT:    -5.142      0.000      0.000
REMARK INTER + INTRA:          -5.577
REMARK INTER:                  -5.442
REMARK INTRA:                  -0.135
REMARK UNBOUND:                -0.135
REMARK  Name = No_982-gen_results/8p0m/2024-11-27-11-27-31/
REMARK  1 active torsions:
REMARK  status: ('A' for Active; 'I' for Inactive)
REMARK    1  A    between atoms: C_2  and  C_7
REMARK                            x       y       z     vdW  Elec       q    Type
REMARK                         _______ _______ _______ _____ _____    ______ ____
ROOT
ATOM      1  C   UNL A   1     -23.776  -2.950  28.962  0.00  0.00    +0.015 A 
ATOM      2  C   UNL A   1     -23.976  -1.982  29.327  0.00  0.00    +0.072 A 
ATOM      3  C   UNL A   1     -24.821  -3.963  29.175  0.00  0.00    +0.058 A 
ATOM      4  C   UNL A   1     -26.086  -3.596  29.721  0.00  0.00    +0.011 A 
ATOM      5  C   UNL A   1     -25.203  -1.337  29.868  0.00  0.00    +0.004 A 
ATOM      6  C   UNL A   1     -26.193  -2.248  30.089  0.00  0.00    +0.001 A 
ATOM      7 CL   UNL A   1     -24.872  -5.684  28.819  0.00  0.00    -0.082 Cl
ENDROOT
BRANCH   2   8
ATOM      8  C   UNL A   1     -22.876  -0.850  29.099  0.00  0.00    +0.419 C 
ATOM      9  F   UNL A   1     -21.897  -1.338  28.936  0.00  0.00    -0.166 F 
ATOM     10  F   UNL A   1     -22.898  -0.016  30.187  0.00  0.00    -0.166 F 
ATOM     11  F   UNL A   1     -23.249  -0.072  28.038  0.00  0.00    -0.166 F 
ENDBRANCH   2   8
TORSDOF 1
ENDMDL
ENDMDL
