REMARK  Name = outputs/IAG933/test6/raw/output_9837_IAG933_linker_design_.xyz
REMARK  13 active torsions:
REMARK  status: ('A' for Active; 'I' for Inactive)
REMARK    1  A    between atoms: C_1  and  C_2
REMARK    2  A    between atoms: C_1  and  C_8
REMARK    3  A    between atoms: C_1  and  C_29
REMARK    4  A    between atoms: C_13  and  C_34
REMARK    5  A    between atoms: C_14  and  C_15
REMARK    6  A    between atoms: C_21  and  O_22
REMARK    7  A    between atoms: O_22  and  C_23
REMARK    8  A    between atoms: C_23  and  C_24
REMARK    9  A    between atoms: C_28  and  C_29
REMARK   10  A    between atoms: C_28  and  C_40
REMARK   11  A    between atoms: C_29  and  C_35
REMARK   12  A    between atoms: C_32  and  O_39
REMARK   13  A    between atoms: C_40  and  N_45
REMARK                            x       y       z     vdW  Elec       q    Type
REMARK                         _______ _______ _______ _____ _____    ______ ____
ROOT
ATOM      1  O   UNL A   1     -22.462  -0.223  29.498  0.00  0.00    -0.288 OA
ATOM      2  C   UNL A   1     -23.269   1.711  26.682  0.00  0.00    +0.156 C 
ATOM      3  C   UNL A   1     -22.343   1.190  27.477  0.00  0.00    +0.277 C 
ATOM      4  C   UNL A   1     -24.445   1.319  27.205  0.00  0.00    +0.034 C 
ATOM      5  C   UNL A   1     -24.361   0.549  28.277  0.00  0.00    +0.021 C 
ATOM      6  C   UNL A   1     -23.000   0.430  28.512  0.00  0.00    +0.209 C 
ATOM      7  F   UNL A   1     -21.013   1.364  27.345  0.00  0.00    -0.221 F 
ENDROOT
BRANCH   4   8
ATOM      8  C   UNL A   1     -25.688   1.614  26.461  0.00  0.00    +0.041 C 
ATOM      9  C   UNL A   1     -26.250   2.920  26.395  0.00  0.00    +0.077 C 
ATOM     10  C   UNL A   1     -27.438   3.091  25.645  0.00  0.00    +0.107 C 
ATOM     11  N   UNL A   1     -28.075   2.089  25.003  0.00  0.00    -0.208 NA
ATOM     12  C   UNL A   1     -27.543   0.849  25.079  0.00  0.00    +0.253 C 
ATOM     13  C   UNL A   1     -26.354   0.576  25.777  0.00  0.00    +0.193 C 
ATOM     14  F   UNL A   1     -25.860  -0.681  25.795  0.00  0.00    -0.199 F 
BRANCH   9  15
ATOM     15  C   UNL A   1     -25.642   4.093  27.123  0.00  0.00    +0.266 C 
ATOM     16  N   UNL A   1     -25.614   5.252  26.449  0.00  0.00    -0.200 NA
ATOM     17  C   UNL A   1     -25.026   6.479  26.963  0.00  0.00    +0.139 C 
ATOM     18  O   UNL A   1     -25.143   3.966  28.243  0.00  0.00    -0.268 OA
ENDBRANCH   9  15
BRANCH  12  19
ATOM     19  O   UNL A   1     -28.193  -0.208  24.477  0.00  0.00    -0.456 OA
BRANCH  19  20
ATOM     20  C   UNL A   1     -29.460   0.005  23.866  0.00  0.00    +0.243 C 
BRANCH  20  21
ATOM     21  C   UNL A   1     -30.065  -1.377  23.573  0.00  0.00    +0.229 C 
ATOM     22  O   UNL A   1     -30.729  -1.878  24.721  0.00  0.00    -0.216 OA
ENDBRANCH  20  21
ENDBRANCH  19  20
ENDBRANCH  12  19
ENDBRANCH   4   8
BRANCH   2  24
ATOM     23  C   UNL A   1     -22.043   2.330  24.690  0.00  0.00    +0.252 C 
ATOM     24  O   UNL A   1     -23.185   2.267  25.478  0.00  0.00    -0.472 OA
ENDBRANCH   2  24
BRANCH   5  25
ATOM     25  C   UNL A   1     -25.267   0.046  29.204  0.00  0.00    +0.062 C 
BRANCH  25  26
ATOM     26  C   UNL A   1     -26.922   0.681  29.304  0.00  0.00    +0.172 C 
ATOM     27  O   UNL A   1     -27.708   1.545  30.293  0.00  0.00    -0.221 OA
BRANCH  26  28
ATOM     28  C   UNL A   1     -27.727  -0.636  29.164  0.00  0.00    +0.108 C 
BRANCH  28  33
ATOM     29  C   UNL A   1     -30.258  -1.059  29.153  0.00  0.00    +0.107 C 
ATOM     30  C   UNL A   1     -31.148  -0.711  27.969  0.00  0.00    +0.161 C 
ATOM     31  C   UNL A   1     -29.379   0.741  27.889  0.00  0.00    +0.220 C 
ATOM     32  O   UNL A   1     -30.270  -0.012  27.041  0.00  0.00    -0.336 OA
ATOM     33  N   UNL A   1     -29.105  -0.125  29.036  0.00  0.00    -0.243 NA
ENDBRANCH  28  33
ENDBRANCH  26  28
ENDBRANCH  25  26
BRANCH  25  34
ATOM     34  C   UNL A   1     -24.855  -1.012  30.143  0.00  0.00    +0.045 C 
BRANCH  34  35
ATOM     35  C   UNL A   1     -24.973  -2.505  29.788  0.00  0.00    -0.021 C 
ATOM     36  C   UNL A   1     -23.906  -3.173  29.146  0.00  0.00    -0.004 C 
ATOM     37  C   UNL A   1     -23.989  -4.549  28.853  0.00  0.00    -0.000 C 
ATOM     38  C   UNL A   1     -25.137  -5.280  29.205  0.00  0.00    -0.000 C 
ATOM     39  C   UNL A   1     -26.232  -4.611  29.784  0.00  0.00    -0.000 C 
ATOM     40  C   UNL A   1     -26.155  -3.232  30.065  0.00  0.00    -0.004 C 
ENDBRANCH  34  35
BRANCH  34  41
ATOM     41  C   UNL A   1     -25.387  -0.679  31.571  0.00  0.00    +0.077 C 
ATOM     42  C   UNL A   1     -25.189   0.773  32.028  0.00  0.00    +0.019 C 
ATOM     43  C   UNL A   1     -25.336   0.684  33.544  0.00  0.00    +0.020 C 
ATOM     44  C   UNL A   1     -24.829  -0.715  33.905  0.00  0.00    +0.089 C 
ATOM     45  N   UNL A   1     -24.758  -1.481  32.646  0.00  0.00    -0.219 NA
ENDBRANCH  34  41
ENDBRANCH  25  34
ENDBRANCH   5  25
TORSDOF 13
