REMARK  Name = outputs/IAG933/test6/raw/output_9839_IAG933_linker_design_.xyz
REMARK  14 active torsions:
REMARK  status: ('A' for Active; 'I' for Inactive)
REMARK    1  A    between atoms: C_1  and  C_2
REMARK    2  A    between atoms: C_1  and  C_8
REMARK    3  A    between atoms: C_1  and  C_45
REMARK    4  A    between atoms: C_13  and  C_31
REMARK    5  A    between atoms: C_14  and  C_15
REMARK    6  A    between atoms: C_21  and  O_22
REMARK    7  A    between atoms: O_22  and  C_23
REMARK    8  A    between atoms: C_23  and  C_24
REMARK    9  A    between atoms: C_28  and  C_33
REMARK   10  A    between atoms: C_28  and  C_39
REMARK   11  A    between atoms: C_33  and  C_38
REMARK   12  A    between atoms: N_36  and  C_45
REMARK   13  A    between atoms: C_38  and  C_43
REMARK   14  A    between atoms: C_43  and  C_45
REMARK                            x       y       z     vdW  Elec       q    Type
REMARK                         _______ _______ _______ _____ _____    ______ ____
ROOT
ATOM      1  C   UNL A   1     -25.423  -0.191  28.928  0.00  0.00    +0.102 C 
ENDROOT
BRANCH   1   4
ATOM      2  N   UNL A   1     -22.983   0.511  28.641  0.00  0.00    -0.182 NA
ATOM      3  C   UNL A   1     -24.338   1.141  27.035  0.00  0.00    +0.073 C 
ATOM      4  N   UNL A   1     -24.258   0.423  28.261  0.00  0.00    -0.213 N 
ATOM      5  C   UNL A   1     -20.770   1.384  27.750  0.00  0.00    +0.054 C 
ATOM      6  C   UNL A   1     -23.071   1.681  26.738  0.00  0.00    +0.033 C 
ATOM      7  C   UNL A   1     -22.291   1.409  27.777  0.00  0.00    +0.078 C 
BRANCH   3   8
ATOM      8  C   UNL A   1     -25.688   1.614  26.461  0.00  0.00    +0.053 C 
ATOM      9  C   UNL A   1     -26.250   2.920  26.395  0.00  0.00    +0.078 C 
ATOM     10  C   UNL A   1     -27.438   3.091  25.645  0.00  0.00    +0.107 C 
ATOM     11  N   UNL A   1     -28.075   2.089  25.003  0.00  0.00    -0.208 NA
ATOM     12  C   UNL A   1     -27.543   0.849  25.079  0.00  0.00    +0.253 C 
ATOM     13  C   UNL A   1     -26.354   0.576  25.777  0.00  0.00    +0.194 C 
ATOM     14  F   UNL A   1     -25.860  -0.681  25.795  0.00  0.00    -0.199 F 
BRANCH   9  15
ATOM     15  C   UNL A   1     -25.642   4.093  27.123  0.00  0.00    +0.267 C 
ATOM     16  N   UNL A   1     -25.614   5.252  26.449  0.00  0.00    -0.200 NA
ATOM     17  C   UNL A   1     -25.026   6.479  26.963  0.00  0.00    +0.139 C 
ATOM     18  O   UNL A   1     -25.143   3.966  28.243  0.00  0.00    -0.268 OA
ENDBRANCH   9  15
BRANCH  12  19
ATOM     19  O   UNL A   1     -28.193  -0.208  24.477  0.00  0.00    -0.456 OA
BRANCH  19  20
ATOM     20  C   UNL A   1     -29.460   0.005  23.866  0.00  0.00    +0.243 C 
BRANCH  20  21
ATOM     21  C   UNL A   1     -30.065  -1.377  23.573  0.00  0.00    +0.229 C 
ATOM     22  O   UNL A   1     -30.729  -1.878  24.721  0.00  0.00    -0.216 OA
ENDBRANCH  20  21
ENDBRANCH  19  20
ENDBRANCH  12  19
ENDBRANCH   3   8
ENDBRANCH   1   4
BRANCH   1  23
ATOM     23  C   UNL A   1     -24.855  -1.012  30.143  0.00  0.00    +0.058 C 
BRANCH  23  24
ATOM     24  C   UNL A   1     -24.973  -2.505  29.788  0.00  0.00    -0.019 C 
ATOM     25  C   UNL A   1     -23.906  -3.173  29.146  0.00  0.00    -0.004 C 
ATOM     26  C   UNL A   1     -23.989  -4.549  28.853  0.00  0.00    -0.000 C 
ATOM     27  C   UNL A   1     -25.137  -5.280  29.205  0.00  0.00    -0.000 C 
ATOM     28  C   UNL A   1     -26.232  -4.611  29.784  0.00  0.00    -0.000 C 
ATOM     29  C   UNL A   1     -26.155  -3.232  30.065  0.00  0.00    -0.004 C 
ENDBRANCH  23  24
BRANCH  23  30
ATOM     30  C   UNL A   1     -25.387  -0.679  31.571  0.00  0.00    +0.079 C 
ATOM     31  C   UNL A   1     -25.189   0.773  32.028  0.00  0.00    +0.019 C 
ATOM     32  C   UNL A   1     -25.336   0.684  33.544  0.00  0.00    +0.020 C 
ATOM     33  C   UNL A   1     -24.829  -0.715  33.905  0.00  0.00    +0.089 C 
ATOM     34  N   UNL A   1     -24.758  -1.481  32.646  0.00  0.00    -0.219 NA
ENDBRANCH  23  30
ENDBRANCH   1  23
BRANCH   1  35
ATOM     35  C   UNL A   1     -26.451   0.833  29.475  0.00  0.00    +0.030 C 
BRANCH  35  36
ATOM     36  C   UNL A   1     -27.899   1.150  28.985  0.00  0.00    +0.066 C 
BRANCH  36  37
ATOM     37  C   UNL A   1     -29.004   0.073  28.856  0.00  0.00    +0.152 C 
ATOM     38  O   UNL A   1     -29.085  -0.550  27.804  0.00  0.00    -0.296 OA
BRANCH  37  39
ATOM     39  C   UNL A   1     -29.873  -0.005  30.024  0.00  0.00    +0.080 C 
BRANCH  39  43
ATOM     40  N   UNL A   1     -30.570  -2.396  30.890  0.00  0.00    -0.272 NA
ATOM     41  C   UNL A   1     -30.751  -1.383  33.108  0.00  0.00    +0.019 C 
ATOM     42  C   UNL A   1     -31.184  -2.554  32.228  0.00  0.00    +0.072 C 
ATOM     43  C   UNL A   1     -29.553  -1.272  30.882  0.00  0.00    +0.065 C 
ATOM     44  C   UNL A   1     -31.538  -2.378  29.787  0.00  0.00    +0.090 C 
ATOM     45  C   UNL A   1     -29.530  -0.800  32.373  0.00  0.00    +0.018 C 
ENDBRANCH  39  43
ENDBRANCH  37  39
ENDBRANCH  36  37
ENDBRANCH  35  36
ENDBRANCH   1  35
TORSDOF 14
