MODEL 983
MODEL 1
REMARK VINA RESULT:    -5.603      0.000      0.000
REMARK INTER + INTRA:          -6.059
REMARK INTER:                  -5.931
REMARK INTRA:                  -0.129
REMARK UNBOUND:                -0.129
REMARK  Name = No_983-gen_results/8p0m/2024-11-27-11-27-31/
REMARK  1 active torsions:
REMARK  status: ('A' for Active; 'I' for Inactive)
REMARK    1  A    between atoms: C_3  and  C_7
REMARK                            x       y       z     vdW  Elec       q    Type
REMARK                         _______ _______ _______ _____ _____    ______ ____
ROOT
ATOM      1  C   UNL A   1     -24.217  -3.986  28.894  0.00  0.00    +0.034 A 
ATOM      2  C   UNL A   1     -24.961  -4.712  29.067  0.00  0.00    +0.140 A 
ATOM      3  C   UNL A   1     -24.486  -2.658  29.292  0.00  0.00    +0.074 A 
ATOM      4  C   UNL A   1     -25.685  -2.299  29.877  0.00  0.00    +0.004 A 
ATOM      5  C   UNL A   1     -26.304  -4.597  29.668  0.00  0.00    +0.030 A 
ATOM      6  C   UNL A   1     -26.604  -3.340  30.062  0.00  0.00    +0.002 A 
ATOM      7  F   UNL A   1     -24.838  -6.077  28.751  0.00  0.00    -0.204 F 
ENDROOT
BRANCH   3   8
ATOM      8  C   UNL A   1     -23.498  -1.538  29.135  0.00  0.00    +0.419 C 
ATOM      9  F   UNL A   1     -22.405  -1.826  28.924  0.00  0.00    -0.166 F 
ATOM     10  F   UNL A   1     -23.608  -0.722  30.291  0.00  0.00    -0.166 F 
ATOM     11  F   UNL A   1     -23.884  -0.553  28.173  0.00  0.00    -0.166 F 
ENDBRANCH   3   8
TORSDOF 1
ENDMDL
ENDMDL
