REMARK  Name = No_984-gen_results/8p0m/2024-11-27-11-27-31/
REMARK  2 active torsions:
REMARK  status: ('A' for Active; 'I' for Inactive)
REMARK    1  A    between atoms: C_3  and  C_4
REMARK    2  A    between atoms: C_6  and  P_13
REMARK                            x       y       z     vdW  Elec       q    Type
REMARK                         _______ _______ _______ _____ _____    ______ ____
ROOT
ATOM      1  C   UNL A   1     -28.016  -0.814  28.878  0.00  0.00    +0.003 A 
ATOM      2  C   UNL A   1     -27.064  -0.119  28.608  0.00  0.00    +0.000 A 
ATOM      3  C   UNL A   1     -25.792  -0.430  29.076  0.00  0.00    +0.000 A 
ATOM      4  C   UNL A   1     -27.882  -1.899  29.863  0.00  0.00    +0.029 A 
ATOM      5  C   UNL A   1     -26.671  -2.327  30.321  0.00  0.00    +0.003 A 
ATOM      6  C   UNL A   1     -25.543  -1.585  29.932  0.00  0.00    +0.000 A 
ENDROOT
BRANCH   3   7
ATOM      7  C   UNL A   1     -24.546   0.349  28.823  0.00  0.00    +0.000 A 
ATOM      8  C   UNL A   1     -23.241   0.022  29.332  0.00  0.00    +0.000 A 
ATOM      9  C   UNL A   1     -22.188   0.822  28.993  0.00  0.00    +0.000 A 
ATOM     10  C   UNL A   1     -22.162   1.777  28.024  0.00  0.00    +0.000 A 
ATOM     11  C   UNL A   1     -24.643   1.591  28.073  0.00  0.00    +0.000 A 
ATOM     12  C   UNL A   1     -23.438   2.198  27.613  0.00  0.00    +0.000 A 
ENDBRANCH   3   7
BRANCH   4  13
ATOM     13  P   UNL A   1     -29.309  -2.868  30.402  0.00  0.00    +0.140 P 
ATOM     14  O   UNL A   1     -29.407  -2.811  31.919  0.00  0.00    -0.354 OA
ATOM     15  O   UNL A   1     -28.994  -4.304  30.091  0.00  0.00    -0.354 OA
ATOM     16  O   UNL A   1     -30.523  -2.438  29.765  0.00  0.00    -0.456 OA
ENDBRANCH   4  13
TORSDOF 2
