REMARK  Name = outputs/IAG933/test6/raw/output_9842_IAG933_linker_design_.xyz
REMARK  16 active torsions:
REMARK  status: ('A' for Active; 'I' for Inactive)
REMARK    1  A    between atoms: C_1  and  C_2
REMARK    2  A    between atoms: C_1  and  C_8
REMARK    3  A    between atoms: C_1  and  N_46
REMARK    4  A    between atoms: C_13  and  C_42
REMARK    5  A    between atoms: C_14  and  C_15
REMARK    6  A    between atoms: C_21  and  O_22
REMARK    7  A    between atoms: O_22  and  C_23
REMARK    8  A    between atoms: C_23  and  C_24
REMARK    9  A    between atoms: C_28  and  C_32
REMARK   10  A    between atoms: O_29  and  C_31
REMARK   11  A    between atoms: C_32  and  C_33
REMARK   12  A    between atoms: C_33  and  C_40
REMARK   13  A    between atoms: C_36  and  N_37
REMARK   14  A    between atoms: C_36  and  C_42
REMARK   15  A    between atoms: C_42  and  N_46
REMARK   16  A    between atoms: C_43  and  C_45
REMARK                            x       y       z     vdW  Elec       q    Type
REMARK                         _______ _______ _______ _____ _____    ______ ____
ROOT
ATOM      1  C   UNL A   1     -25.352   0.882  28.137  0.00  0.00    +0.099 C 
ENDROOT
BRANCH   1   2
ATOM      2  C   UNL A   1     -25.688   1.614  26.461  0.00  0.00    +0.090 C 
ATOM      3  C   UNL A   1     -26.250   2.920  26.395  0.00  0.00    +0.057 C 
ATOM      4  C   UNL A   1     -27.438   3.091  25.645  0.00  0.00    +0.102 C 
ATOM      5  N   UNL A   1     -28.075   2.089  25.003  0.00  0.00    -0.212 NA
ATOM      6  C   UNL A   1     -27.543   0.849  25.079  0.00  0.00    +0.234 C 
ATOM      7  C   UNL A   1     -26.354   0.576  25.777  0.00  0.00    +0.242 C 
ATOM      8  F   UNL A   1     -25.860  -0.681  25.795  0.00  0.00    -0.227 F 
BRANCH   3   9
ATOM      9  C   UNL A   1     -25.642   4.093  27.123  0.00  0.00    +0.263 C 
ATOM     10  N   UNL A   1     -25.614   5.252  26.449  0.00  0.00    -0.200 NA
ATOM     11  C   UNL A   1     -25.026   6.479  26.963  0.00  0.00    +0.139 C 
ATOM     12  O   UNL A   1     -25.143   3.966  28.243  0.00  0.00    -0.269 OA
ENDBRANCH   3   9
BRANCH   6  13
ATOM     13  O   UNL A   1     -28.193  -0.208  24.477  0.00  0.00    -0.459 OA
BRANCH  13  14
ATOM     14  C   UNL A   1     -29.460   0.005  23.866  0.00  0.00    +0.242 C 
BRANCH  14  15
ATOM     15  C   UNL A   1     -30.065  -1.377  23.573  0.00  0.00    +0.229 C 
ATOM     16  O   UNL A   1     -30.729  -1.878  24.721  0.00  0.00    -0.216 OA
ENDBRANCH  14  15
ENDBRANCH  13  14
ENDBRANCH   6  13
ENDBRANCH   1   2
BRANCH   1  19
ATOM     17  C   UNL A   1     -23.104   0.040  29.019  0.00  0.00    +0.226 C 
ATOM     18  O   UNL A   1     -22.215  -0.271  29.686  0.00  0.00    -0.275 OA
ATOM     19  N   UNL A   1     -24.460   0.010  29.156  0.00  0.00    -0.276 N 
BRANCH  17  21
ATOM     20  C   UNL A   1     -21.436   1.397  27.406  0.00  0.00    +0.010 C 
ATOM     21  C   UNL A   1     -22.826   1.165  27.977  0.00  0.00    +0.085 C 
ENDBRANCH  17  21
BRANCH  19  22
ATOM     22  C   UNL A   1     -24.855  -1.012  30.143  0.00  0.00    +0.114 C 
BRANCH  22  23
ATOM     23  C   UNL A   1     -24.973  -2.505  29.788  0.00  0.00    -0.003 C 
ATOM     24  C   UNL A   1     -23.906  -3.173  29.146  0.00  0.00    -0.003 C 
ATOM     25  C   UNL A   1     -23.989  -4.549  28.853  0.00  0.00    -0.000 C 
ATOM     26  C   UNL A   1     -25.137  -5.280  29.205  0.00  0.00    -0.000 C 
ATOM     27  C   UNL A   1     -26.232  -4.611  29.784  0.00  0.00    -0.000 C 
ATOM     28  C   UNL A   1     -26.155  -3.232  30.065  0.00  0.00    -0.003 C 
ENDBRANCH  22  23
BRANCH  22  29
ATOM     29  C   UNL A   1     -25.387  -0.679  31.571  0.00  0.00    +0.095 C 
ATOM     30  C   UNL A   1     -25.189   0.773  32.028  0.00  0.00    +0.021 C 
ATOM     31  C   UNL A   1     -25.336   0.684  33.544  0.00  0.00    +0.020 C 
ATOM     32  C   UNL A   1     -24.829  -0.715  33.905  0.00  0.00    +0.089 C 
ATOM     33  N   UNL A   1     -24.758  -1.481  32.646  0.00  0.00    -0.217 NA
ENDBRANCH  22  29
ENDBRANCH  19  22
ENDBRANCH   1  19
BRANCH   1  34
ATOM     34  C   UNL A   1     -26.331   1.369  29.014  0.00  0.00    +0.093 C 
BRANCH  34  38
ATOM     35  C   UNL A   1     -30.001   0.693  28.555  0.00  0.00    +0.047 C 
ATOM     36  C   UNL A   1     -30.813   2.184  28.793  0.00  0.00    +0.158 C 
ATOM     37  C   UNL A   1     -28.495   0.184  28.540  0.00  0.00    +0.075 C 
ATOM     38  N   UNL A   1     -27.766   1.488  29.044  0.00  0.00    -0.271 NA
ATOM     39  C   UNL A   1     -29.684   3.206  29.029  0.00  0.00    +0.050 C 
ATOM     40  C   UNL A   1     -28.514   2.585  29.784  0.00  0.00    +0.075 C 
BRANCH  36  41
ATOM     41  O   UNL A   1     -31.942   2.708  27.956  0.00  0.00    -0.192 OA
ATOM     42  O   UNL A   1     -31.722   3.317  26.859  0.00  0.00    -0.035 OA
ENDBRANCH  36  41
BRANCH  35  43
ATOM     43  C   UNL A   1     -30.453   0.448  27.167  0.00  0.00    +0.010 C 
BRANCH  43  44
ATOM     44  C   UNL A   1     -31.844  -0.047  27.210  0.00  0.00    +0.049 C 
BRANCH  44  46
ATOM     45  N   UNL A   1     -34.179   0.062  28.056  0.00  0.00    -0.151 NA
ATOM     46  C   UNL A   1     -32.941  -0.013  28.353  0.00  0.00    +0.096 C 
ENDBRANCH  44  46
ENDBRANCH  43  44
ENDBRANCH  35  43
ENDBRANCH  34  38
ENDBRANCH   1  34
TORSDOF 16
