REMARK  Name = outputs/IAG933/test6/raw/output_9847_IAG933_linker_design_.xyz
REMARK  16 active torsions:
REMARK  status: ('A' for Active; 'I' for Inactive)
REMARK    1  A    between atoms: C_1  and  C_2
REMARK    2  A    between atoms: C_1  and  C_8
REMARK    3  A    between atoms: C_9  and  C_30
REMARK    4  A    between atoms: C_13  and  C_34
REMARK    5  A    between atoms: C_14  and  C_15
REMARK    6  A    between atoms: C_21  and  O_22
REMARK    7  A    between atoms: O_22  and  C_23
REMARK    8  A    between atoms: C_23  and  C_24
REMARK    9  A    between atoms: C_28  and  C_36
REMARK   10  A    between atoms: C_28  and  C_47
REMARK   11  A    between atoms: C_34  and  N_52
REMARK   12  A    between atoms: C_35  and  C_42
REMARK   13  A    between atoms: C_35  and  C_50
REMARK   14  A    between atoms: C_36  and  N_52
REMARK   15  A    between atoms: O_39  and  C_46
REMARK   16  A    between atoms: O_39  and  C_47
REMARK                            x       y       z     vdW  Elec       q    Type
REMARK                         _______ _______ _______ _____ _____    ______ ____
ROOT
ATOM      1  C   UNL A   1     -25.265   2.159  31.551  0.00  0.00    +0.034 C 
ATOM      2  C   UNL A   1     -25.517   3.489  31.861  0.00  0.00    +0.060 C 
ATOM      3  C   UNL A   1     -24.550   3.050  30.832  0.00  0.00    +0.118 C 
ENDROOT
BRANCH   1   5
ATOM      4  C   UNL A   1     -25.387  -0.679  31.571  0.00  0.00    +0.077 C 
ATOM      5  C   UNL A   1     -25.189   0.773  32.028  0.00  0.00    +0.020 C 
ATOM      6  C   UNL A   1     -25.336   0.684  33.544  0.00  0.00    +0.020 C 
ATOM      7  C   UNL A   1     -24.829  -0.715  33.905  0.00  0.00    +0.089 C 
ATOM      8  N   UNL A   1     -24.758  -1.481  32.646  0.00  0.00    -0.219 NA
BRANCH   4   9
ATOM      9  C   UNL A   1     -24.855  -1.012  30.143  0.00  0.00    +0.044 C 
BRANCH   9  10
ATOM     10  C   UNL A   1     -24.973  -2.505  29.788  0.00  0.00    -0.021 C 
ATOM     11  C   UNL A   1     -23.906  -3.173  29.146  0.00  0.00    -0.004 C 
ATOM     12  C   UNL A   1     -23.989  -4.549  28.853  0.00  0.00    -0.000 C 
ATOM     13  C   UNL A   1     -25.137  -5.280  29.205  0.00  0.00    -0.000 C 
ATOM     14  C   UNL A   1     -26.232  -4.611  29.784  0.00  0.00    -0.000 C 
ATOM     15  C   UNL A   1     -26.155  -3.232  30.065  0.00  0.00    -0.004 C 
ENDBRANCH   9  10
ENDBRANCH   4   9
ENDBRANCH   1   5
BRANCH   2  16
ATOM     16  C   UNL A   1     -25.082   4.867  32.322  0.00  0.00    +0.155 C 
ATOM     17  O   UNL A   1     -23.837   5.186  32.520  0.00  0.00    -0.223 OA
BRANCH  16  30
ATOM     18  C   UNL A   1     -27.510   5.609  34.399  0.00  0.00    +0.041 C 
ATOM     19  C   UNL A   1     -29.699   2.397  31.190  0.00  0.00    +0.003 C 
ATOM     20  O   UNL A   1     -29.767   4.976  33.834  0.00  0.00    -0.479 OA
ATOM     21  C   UNL A   1     -24.768   7.241  30.531  0.00  0.00    +0.000 C 
ATOM     22  C   UNL A   1     -25.553   7.295  31.839  0.00  0.00    +0.003 C 
ATOM     23  C   UNL A   1     -27.736   6.027  37.155  0.00  0.00    +0.004 C 
ATOM     24  C   UNL A   1     -28.196   4.474  32.101  0.00  0.00    +0.012 C 
ATOM     25  C   UNL A   1     -30.008   3.124  32.323  0.00  0.00    +0.037 C 
ATOM     26  C   UNL A   1     -29.255   4.210  32.770  0.00  0.00    +0.134 C 
ATOM     27  C   UNL A   1     -27.159   4.764  36.869  0.00  0.00    +0.000 C 
ATOM     28  C   UNL A   1     -26.930   4.432  35.314  0.00  0.00    +0.004 C 
ATOM     29  C   UNL A   1     -27.930   3.930  30.846  0.00  0.00    -0.001 C 
ATOM     30  C   UNL A   1     -26.173   5.889  32.076  0.00  0.00    +0.035 C 
ATOM     31  C   UNL A   1     -29.074   6.224  36.437  0.00  0.00    +0.043 C 
ATOM     32  C   UNL A   1     -29.001   5.725  34.896  0.00  0.00    +0.166 C 
ATOM     33  C   UNL A   1     -25.445   6.861  34.299  0.00  0.00    +0.000 C 
ATOM     34  C   UNL A   1     -27.301   5.312  32.899  0.00  0.00    +0.031 C 
ATOM     35  C   UNL A   1     -28.668   2.806  30.435  0.00  0.00    -0.000 C 
ATOM     36  C   UNL A   1     -26.856   7.022  34.652  0.00  0.00    +0.004 C 
ATOM     37  C   UNL A   1     -24.796   7.686  33.134  0.00  0.00    +0.000 C 
ENDBRANCH  16  30
ENDBRANCH   2  16
BRANCH   3  38
ATOM     38  O   UNL A   1     -23.867   2.267  29.785  0.00  0.00    -0.356 OA
BRANCH  38  39
ATOM     39  C   UNL A   1     -22.847   1.220  30.218  0.00  0.00    +0.143 C 
BRANCH  39  40
ATOM     40  C   UNL A   1     -22.380   0.510  28.866  0.00  0.00    +0.049 C 
BRANCH  40  41
ATOM     41  C   UNL A   1     -22.133   1.613  27.793  0.00  0.00    +0.075 C 
BRANCH  41  43
ATOM     42  C   UNL A   1     -23.030   2.324  25.638  0.00  0.00    +0.090 C 
ATOM     43  N   UNL A   1     -23.397   1.905  26.935  0.00  0.00    -0.268 NA
BRANCH  43  44
ATOM     44  C   UNL A   1     -24.738   1.304  27.186  0.00  0.00    +0.102 C 
BRANCH  44  45
ATOM     45  C   UNL A   1     -25.688   1.614  26.461  0.00  0.00    +0.032 C 
ATOM     46  C   UNL A   1     -26.250   2.920  26.395  0.00  0.00    +0.074 C 
ATOM     47  C   UNL A   1     -27.438   3.091  25.645  0.00  0.00    +0.106 C 
ATOM     48  N   UNL A   1     -28.075   2.089  25.003  0.00  0.00    -0.208 NA
ATOM     49  C   UNL A   1     -27.543   0.849  25.079  0.00  0.00    +0.253 C 
ATOM     50  C   UNL A   1     -26.354   0.576  25.777  0.00  0.00    +0.190 C 
ATOM     51  F   UNL A   1     -25.860  -0.681  25.795  0.00  0.00    -0.200 F 
BRANCH  46  52
ATOM     52  C   UNL A   1     -25.642   4.093  27.123  0.00  0.00    +0.266 C 
ATOM     53  N   UNL A   1     -25.614   5.252  26.449  0.00  0.00    -0.200 NA
ATOM     54  C   UNL A   1     -25.026   6.479  26.963  0.00  0.00    +0.139 C 
ATOM     55  O   UNL A   1     -25.143   3.966  28.243  0.00  0.00    -0.268 OA
ENDBRANCH  46  52
BRANCH  49  56
ATOM     56  O   UNL A   1     -28.193  -0.208  24.477  0.00  0.00    -0.456 OA
BRANCH  56  57
ATOM     57  C   UNL A   1     -29.460   0.005  23.866  0.00  0.00    +0.243 C 
BRANCH  57  58
ATOM     58  C   UNL A   1     -30.065  -1.377  23.573  0.00  0.00    +0.229 C 
ATOM     59  O   UNL A   1     -30.729  -1.878  24.721  0.00  0.00    -0.216 OA
ENDBRANCH  57  58
ENDBRANCH  56  57
ENDBRANCH  49  56
ENDBRANCH  44  45
ENDBRANCH  43  44
ENDBRANCH  41  43
ENDBRANCH  40  41
ENDBRANCH  39  40
ENDBRANCH  38  39
ENDBRANCH   3  38
TORSDOF 16
