REMARK  Name = No_985-gen_results/8p0m/2024-11-27-11-27-31/
REMARK  4 active torsions:
REMARK  status: ('A' for Active; 'I' for Inactive)
REMARK    1  A    between atoms: C_2  and  C_7
REMARK    2  A    between atoms: C_6  and  C_14
REMARK    3  A    between atoms: C_7  and  C_8
REMARK    4  A    between atoms: N_15  and  C_17
REMARK                            x       y       z     vdW  Elec       q    Type
REMARK                         _______ _______ _______ _____ _____    ______ ____
ROOT
ATOM      1  C   UNL A   1     -28.016  -0.814  28.878  0.00  0.00    -0.004 A 
ATOM      2  C   UNL A   1     -27.064  -0.119  28.608  0.00  0.00    -0.018 A 
ATOM      3  C   UNL A   1     -26.929   1.171  29.008  0.00  0.00    -0.008 A 
ATOM      4  C   UNL A   1     -27.956   1.741  29.784  0.00  0.00    -0.018 A 
ATOM      5  C   UNL A   1     -29.057  -0.327  29.747  0.00  0.00    +0.004 A 
ATOM      6  C   UNL A   1     -28.983   0.972  30.152  0.00  0.00    +0.051 A 
ATOM      7  C   UNL A   1     -28.444   3.069  29.065  0.00  0.00    +0.031 C 
ENDROOT
BRANCH   6   8
ATOM      8  C   UNL A   1     -30.136   1.512  31.002  0.00  0.00    +0.269 C 
ATOM      9  N   UNL A   1     -29.882   2.359  31.860  0.00  0.00    -0.176 NA
ATOM     10  O   UNL A   1     -31.138   0.802  31.049  0.00  0.00    -0.268 OA
BRANCH   9  11
ATOM     11  C   UNL A   1     -28.679   3.129  32.077  0.00  0.00    +0.070 A 
ATOM     12  C   UNL A   1     -28.607   4.158  32.795  0.00  0.00    +0.016 A 
ATOM     13  C   UNL A   1     -27.350   4.870  32.895  0.00  0.00    +0.001 A 
ATOM     14  C   UNL A   1     -26.168   4.451  32.216  0.00  0.00    -0.000 A 
ATOM     15  C   UNL A   1     -26.291   3.296  31.531  0.00  0.00    -0.003 A 
ATOM     16  C   UNL A   1     -27.479   2.655  31.459  0.00  0.00    -0.006 A 
ATOM     17  C   UNL A   1     -27.016   1.241  32.242  0.00  0.00    +0.032 C 
ENDBRANCH   9  11
ENDBRANCH   6   8
BRANCH   2  18
ATOM     18  C   UNL A   1     -25.881  -0.626  27.794  0.00  0.00    +0.053 C 
BRANCH  18  19
ATOM     19  C   UNL A   1     -24.697  -1.057  28.624  0.00  0.00    -0.018 A 
ATOM     20  C   UNL A   1     -23.581  -0.273  28.825  0.00  0.00    -0.004 A 
ATOM     21  C   UNL A   1     -22.497  -0.789  29.569  0.00  0.00    -0.000 A 
ATOM     22  C   UNL A   1     -24.736  -2.340  29.231  0.00  0.00    -0.004 A 
ATOM     23  C   UNL A   1     -23.609  -2.837  29.876  0.00  0.00    -0.000 A 
ATOM     24  C   UNL A   1     -22.515  -2.010  30.091  0.00  0.00    -0.000 A 
ENDBRANCH  18  19
ENDBRANCH   2  18
TORSDOF 4
