REMARK  Name = outputs/IAG933/test6/raw/output_986_IAG933_linker_design_.xyz
REMARK  12 active torsions:
REMARK  status: ('A' for Active; 'I' for Inactive)
REMARK    1  A    between atoms: C_1  and  C_2
REMARK    2  A    between atoms: C_1  and  C_8
REMARK    3  A    between atoms: C_9  and  C_32
REMARK    4  A    between atoms: C_13  and  C_43
REMARK    5  A    between atoms: C_14  and  C_15
REMARK    6  A    between atoms: C_21  and  O_22
REMARK    7  A    between atoms: O_22  and  C_23
REMARK    8  A    between atoms: C_23  and  C_24
REMARK    9  A    between atoms: C_31  and  C_32
REMARK   10  A    between atoms: C_32  and  C_33
REMARK   11  A    between atoms: C_33  and  N_37
REMARK   12  A    between atoms: C_36  and  C_40
REMARK                            x       y       z     vdW  Elec       q    Type
REMARK                         _______ _______ _______ _____ _____    ______ ____
ROOT
ATOM      1  C   UNL A   1     -23.988   1.956  29.724  0.00  0.00    +0.152 C 
ATOM      2  F   UNL A   1     -21.018   0.884  27.328  0.00  0.00    -0.234 F 
ATOM      3  C   UNL A   1     -23.256   1.647  26.848  0.00  0.00    +0.100 C 
ATOM      4  O   UNL A   1     -24.975   1.378  28.735  0.00  0.00    -0.351 OA
ATOM      5  F   UNL A   1     -22.458  -0.296  29.765  0.00  0.00    -0.232 F 
ATOM      6  C   UNL A   1     -22.493   0.890  29.155  0.00  0.00    +0.220 C 
ATOM      7  C   UNL A   1     -22.183   1.084  27.810  0.00  0.00    +0.201 C 
ATOM      8  C   UNL A   1     -24.633   1.424  27.295  0.00  0.00    +0.145 C 
ENDROOT
BRANCH   8   9
ATOM      9  C   UNL A   1     -25.688   1.614  26.461  0.00  0.00    +0.043 C 
ATOM     10  C   UNL A   1     -26.250   2.920  26.395  0.00  0.00    +0.075 C 
ATOM     11  C   UNL A   1     -27.438   3.091  25.645  0.00  0.00    +0.106 C 
ATOM     12  N   UNL A   1     -28.075   2.089  25.003  0.00  0.00    -0.208 NA
ATOM     13  C   UNL A   1     -27.543   0.849  25.079  0.00  0.00    +0.253 C 
ATOM     14  C   UNL A   1     -26.354   0.576  25.777  0.00  0.00    +0.191 C 
ATOM     15  F   UNL A   1     -25.860  -0.681  25.795  0.00  0.00    -0.200 F 
BRANCH  10  16
ATOM     16  C   UNL A   1     -25.642   4.093  27.123  0.00  0.00    +0.266 C 
ATOM     17  N   UNL A   1     -25.614   5.252  26.449  0.00  0.00    -0.200 NA
ATOM     18  C   UNL A   1     -25.026   6.479  26.963  0.00  0.00    +0.139 C 
ATOM     19  O   UNL A   1     -25.143   3.966  28.243  0.00  0.00    -0.268 OA
ENDBRANCH  10  16
BRANCH  13  20
ATOM     20  O   UNL A   1     -28.193  -0.208  24.477  0.00  0.00    -0.456 OA
BRANCH  20  21
ATOM     21  C   UNL A   1     -29.460   0.005  23.866  0.00  0.00    +0.243 C 
BRANCH  21  22
ATOM     22  C   UNL A   1     -30.065  -1.377  23.573  0.00  0.00    +0.229 C 
ATOM     23  O   UNL A   1     -30.729  -1.878  24.721  0.00  0.00    -0.216 OA
ENDBRANCH  21  22
ENDBRANCH  20  21
ENDBRANCH  13  20
ENDBRANCH   8   9
BRANCH   3  25
ATOM     24  O   UNL A   1     -21.867   2.109  25.081  0.00  0.00    -0.220 OA
ATOM     25  C   UNL A   1     -22.971   2.554  25.783  0.00  0.00    +0.188 C 
ENDBRANCH   3  25
BRANCH   1  26
ATOM     26  C   UNL A   1     -24.737   1.986  31.171  0.00  0.00    +0.053 C 
BRANCH  26  28
ATOM     27  C   UNL A   1     -25.387  -0.679  31.571  0.00  0.00    +0.077 C 
ATOM     28  C   UNL A   1     -25.189   0.773  32.028  0.00  0.00    +0.022 C 
ATOM     29  C   UNL A   1     -25.336   0.684  33.544  0.00  0.00    +0.020 C 
ATOM     30  C   UNL A   1     -24.829  -0.715  33.905  0.00  0.00    +0.089 C 
ATOM     31  N   UNL A   1     -24.758  -1.481  32.646  0.00  0.00    -0.219 NA
BRANCH  27  32
ATOM     32  C   UNL A   1     -24.855  -1.012  30.143  0.00  0.00    +0.044 C 
BRANCH  32  33
ATOM     33  C   UNL A   1     -24.973  -2.505  29.788  0.00  0.00    -0.021 C 
ATOM     34  C   UNL A   1     -23.906  -3.173  29.146  0.00  0.00    -0.004 C 
ATOM     35  C   UNL A   1     -23.989  -4.549  28.853  0.00  0.00    -0.000 C 
ATOM     36  C   UNL A   1     -25.137  -5.280  29.205  0.00  0.00    -0.000 C 
ATOM     37  C   UNL A   1     -26.232  -4.611  29.784  0.00  0.00    -0.000 C 
ATOM     38  C   UNL A   1     -26.155  -3.232  30.065  0.00  0.00    -0.004 C 
ENDBRANCH  32  33
ENDBRANCH  27  32
ENDBRANCH  26  28
BRANCH  26  39
ATOM     39  C   UNL A   1     -25.998   2.840  31.077  0.00  0.00    +0.118 C 
BRANCH  39  43
ATOM     40  O   UNL A   1     -28.299   1.657  32.363  0.00  0.00    -0.273 OA
ATOM     41  C   UNL A   1     -27.891   2.785  32.660  0.00  0.00    +0.242 C 
ATOM     42  C   UNL A   1     -28.620   3.742  33.558  0.00  0.00    +0.096 C 
ATOM     43  N   UNL A   1     -26.731   3.254  32.227  0.00  0.00    -0.205 NA
ENDBRANCH  39  43
ENDBRANCH  26  39
ENDBRANCH   1  26
TORSDOF 12
