REMARK  Name = outputs/IAG933/test6/raw/output_9862_IAG933_linker_design_.xyz
REMARK  11 active torsions:
REMARK  status: ('A' for Active; 'I' for Inactive)
REMARK    1  A    between atoms: C_1  and  C_2
REMARK    2  A    between atoms: C_1  and  C_8
REMARK    3  A    between atoms: C_1  and  C_28
REMARK    4  A    between atoms: C_14  and  C_15
REMARK    5  A    between atoms: C_15  and  O_18
REMARK    6  A    between atoms: O_18  and  C_37
REMARK    7  A    between atoms: C_21  and  O_22
REMARK    8  A    between atoms: O_22  and  C_23
REMARK    9  A    between atoms: C_23  and  C_24
REMARK   10  A    between atoms: C_31  and  N_35
REMARK   11  A    between atoms: N_35  and  C_44
REMARK                            x       y       z     vdW  Elec       q    Type
REMARK                         _______ _______ _______ _____ _____    ______ ____
ROOT
ATOM      1  C   UNL A   1     -27.462   5.255  32.132  0.00  0.00    +0.307 C 
ATOM      2  C   UNL A   1     -27.649   5.635  28.913  0.00  0.00    +0.224 C 
ATOM      3  C   UNL A   1     -25.438   3.289  30.635  0.00  0.00    +0.106 C 
ATOM      4  N   UNL A   1     -27.601   4.753  30.834  0.00  0.00    -0.200 N 
ATOM      5  C   UNL A   1     -26.766   3.936  30.081  0.00  0.00    +0.122 C 
ATOM      6  C   UNL A   1     -25.243   4.146  32.019  0.00  0.00    +0.115 C 
ATOM      7  C   UNL A   1     -26.192   4.822  29.164  0.00  0.00    +0.241 C 
ATOM      8  O   UNL A   1     -28.498   5.245  29.988  0.00  0.00    -0.250 OA
ATOM      9  N   UNL A   1     -26.210   4.970  32.635  0.00  0.00    -0.228 NA
ATOM     10  N   UNL A   1     -28.351   5.995  32.799  0.00  0.00    -0.080 NA
ENDROOT
BRANCH   7  11
ATOM     11  O   UNL A   1     -25.143   3.966  28.243  0.00  0.00    -0.455 OA
BRANCH  11  12
ATOM     12  C   UNL A   1     -25.642   4.093  27.123  0.00  0.00    +0.222 C 
ATOM     13  N   UNL A   1     -25.614   5.252  26.449  0.00  0.00    -0.236 NA
ATOM     14  C   UNL A   1     -25.026   6.479  26.963  0.00  0.00    +0.155 C 
BRANCH  12  16
ATOM     15  C   UNL A   1     -25.688   1.614  26.461  0.00  0.00    +0.041 C 
ATOM     16  C   UNL A   1     -26.250   2.920  26.395  0.00  0.00    +0.074 C 
ATOM     17  C   UNL A   1     -27.438   3.091  25.645  0.00  0.00    +0.107 C 
ATOM     18  N   UNL A   1     -28.075   2.089  25.003  0.00  0.00    -0.208 NA
ATOM     19  C   UNL A   1     -27.543   0.849  25.079  0.00  0.00    +0.253 C 
ATOM     20  C   UNL A   1     -26.354   0.576  25.777  0.00  0.00    +0.193 C 
ATOM     21  F   UNL A   1     -25.860  -0.681  25.795  0.00  0.00    -0.199 F 
BRANCH  19  22
ATOM     22  O   UNL A   1     -28.193  -0.208  24.477  0.00  0.00    -0.456 OA
BRANCH  22  23
ATOM     23  C   UNL A   1     -29.460   0.005  23.866  0.00  0.00    +0.243 C 
BRANCH  23  24
ATOM     24  C   UNL A   1     -30.065  -1.377  23.573  0.00  0.00    +0.229 C 
ATOM     25  O   UNL A   1     -30.729  -1.878  24.721  0.00  0.00    -0.216 OA
ENDBRANCH  23  24
ENDBRANCH  22  23
ENDBRANCH  19  22
ENDBRANCH  12  16
ENDBRANCH  11  12
ENDBRANCH   7  11
BRANCH   3  26
ATOM     26  N   UNL A   1     -25.326   2.011  29.800  0.00  0.00    -0.210 NA
BRANCH  26  32
ATOM     27  C   UNL A   1     -23.912  -0.038  29.567  0.00  0.00    -0.002 C 
ATOM     28  C   UNL A   1     -21.676   0.239  28.551  0.00  0.00    +0.029 C 
ATOM     29  F   UNL A   1     -21.259   2.220  27.328  0.00  0.00    -0.204 F 
ATOM     30  C   UNL A   1     -22.597  -0.506  29.258  0.00  0.00    -0.000 C 
ATOM     31  C   UNL A   1     -23.272   2.060  28.518  0.00  0.00    +0.046 C 
ATOM     32  C   UNL A   1     -24.146   1.325  29.284  0.00  0.00    +0.069 C 
ATOM     33  C   UNL A   1     -22.102   1.507  28.132  0.00  0.00    +0.141 C 
BRANCH  27  34
ATOM     34  C   UNL A   1     -24.855  -1.012  30.143  0.00  0.00    +0.062 C 
BRANCH  34  35
ATOM     35  C   UNL A   1     -24.973  -2.505  29.788  0.00  0.00    -0.017 C 
ATOM     36  C   UNL A   1     -23.906  -3.173  29.146  0.00  0.00    -0.004 C 
ATOM     37  C   UNL A   1     -23.989  -4.549  28.853  0.00  0.00    -0.000 C 
ATOM     38  C   UNL A   1     -25.137  -5.280  29.205  0.00  0.00    -0.000 C 
ATOM     39  C   UNL A   1     -26.232  -4.611  29.784  0.00  0.00    -0.000 C 
ATOM     40  C   UNL A   1     -26.155  -3.232  30.065  0.00  0.00    -0.004 C 
ENDBRANCH  34  35
BRANCH  34  41
ATOM     41  C   UNL A   1     -25.387  -0.679  31.571  0.00  0.00    +0.081 C 
ATOM     42  C   UNL A   1     -25.189   0.773  32.028  0.00  0.00    +0.019 C 
ATOM     43  C   UNL A   1     -25.336   0.684  33.544  0.00  0.00    +0.020 C 
ATOM     44  C   UNL A   1     -24.829  -0.715  33.905  0.00  0.00    +0.089 C 
ATOM     45  N   UNL A   1     -24.758  -1.481  32.646  0.00  0.00    -0.219 NA
ENDBRANCH  34  41
ENDBRANCH  27  34
ENDBRANCH  26  32
ENDBRANCH   3  26
TORSDOF 11
