REMARK  Name = outputs/IAG933/test6/raw/output_9863_IAG933_linker_design_.xyz
REMARK  15 active torsions:
REMARK  status: ('A' for Active; 'I' for Inactive)
REMARK    1  A    between atoms: C_1  and  C_2
REMARK    2  A    between atoms: C_1  and  C_8
REMARK    3  A    between atoms: C_1  and  N_28
REMARK    4  A    between atoms: C_14  and  C_15
REMARK    5  A    between atoms: N_16  and  C_17
REMARK    6  A    between atoms: C_17  and  C_40
REMARK    7  A    between atoms: C_21  and  O_22
REMARK    8  A    between atoms: O_22  and  C_23
REMARK    9  A    between atoms: C_23  and  C_24
REMARK   10  A    between atoms: C_31  and  C_43
REMARK   11  A    between atoms: C_32  and  N_34
REMARK   12  A    between atoms: C_32  and  C_36
REMARK   13  A    between atoms: N_37  and  C_40
REMARK   14  A    between atoms: C_38  and  C_43
REMARK   15  A    between atoms: N_39  and  C_43
REMARK                            x       y       z     vdW  Elec       q    Type
REMARK                         _______ _______ _______ _____ _____    ______ ____
ROOT
ATOM      1  C   UNL A   1     -26.295   5.102  30.908  0.00  0.00    +0.090 C 
ATOM      2  C   UNL A   1     -24.378   6.515  31.369  0.00  0.00    +0.090 C 
ATOM      3  N   UNL A   1     -25.058   5.269  31.750  0.00  0.00    -0.265 NA
ATOM      4  N   UNL A   1     -25.775   7.195  29.395  0.00  0.00    -0.269 NA
ATOM      5  C   UNL A   1     -26.780   6.477  30.219  0.00  0.00    +0.090 C 
ATOM      6  C   UNL A   1     -24.396   7.067  30.068  0.00  0.00    +0.090 C 
ENDROOT
BRANCH   3   7
ATOM      7  C   UNL A   1     -24.083   4.047  31.492  0.00  0.00    +0.120 C 
BRANCH   7   8
ATOM      8  C   UNL A   1     -23.848   2.878  30.408  0.00  0.00    +0.085 C 
ATOM      9  N   UNL A   1     -22.649   2.471  29.596  0.00  0.00    -0.265 NA
BRANCH   9  10
ATOM     10  C   UNL A   1     -22.307   1.237  28.788  0.00  0.00    +0.180 C 
BRANCH  10  13
ATOM     11  N   UNL A   1     -23.609  -0.356  30.012  0.00  0.00    -0.200 NA
ATOM     12  O   UNL A   1     -23.886  -0.320  27.760  0.00  0.00    -0.271 OA
ATOM     13  C   UNL A   1     -23.337   0.094  28.806  0.00  0.00    +0.264 C 
BRANCH  11  14
ATOM     14  C   UNL A   1     -24.855  -1.012  30.143  0.00  0.00    +0.133 C 
BRANCH  14  15
ATOM     15  C   UNL A   1     -24.973  -2.505  29.788  0.00  0.00    -0.001 C 
ATOM     16  C   UNL A   1     -23.906  -3.173  29.146  0.00  0.00    -0.003 C 
ATOM     17  C   UNL A   1     -23.989  -4.549  28.853  0.00  0.00    -0.000 C 
ATOM     18  C   UNL A   1     -25.137  -5.280  29.205  0.00  0.00    -0.000 C 
ATOM     19  C   UNL A   1     -26.232  -4.611  29.784  0.00  0.00    -0.000 C 
ATOM     20  C   UNL A   1     -26.155  -3.232  30.065  0.00  0.00    -0.003 C 
ENDBRANCH  14  15
BRANCH  14  21
ATOM     21  C   UNL A   1     -25.387  -0.679  31.571  0.00  0.00    +0.097 C 
ATOM     22  C   UNL A   1     -25.189   0.773  32.028  0.00  0.00    +0.021 C 
ATOM     23  C   UNL A   1     -25.336   0.684  33.544  0.00  0.00    +0.020 C 
ATOM     24  C   UNL A   1     -24.829  -0.715  33.905  0.00  0.00    +0.089 C 
ATOM     25  N   UNL A   1     -24.758  -1.481  32.646  0.00  0.00    -0.217 NA
ENDBRANCH  14  21
ENDBRANCH  11  14
ENDBRANCH  10  13
BRANCH  10  27
ATOM     26  C   UNL A   1     -20.910   1.780  26.923  0.00  0.00    +0.003 C 
ATOM     27  C   UNL A   1     -22.329   1.888  27.420  0.00  0.00    +0.034 C 
ENDBRANCH  10  27
ENDBRANCH   9  10
ENDBRANCH   7   8
ENDBRANCH   3   7
BRANCH   4  28
ATOM     28  C   UNL A   1     -26.019   7.223  28.008  0.00  0.00    +0.096 C 
BRANCH  28  29
ATOM     29  C   UNL A   1     -25.026   6.479  26.963  0.00  0.00    +0.133 C 
BRANCH  29  31
ATOM     30  C   UNL A   1     -25.642   4.093  27.123  0.00  0.00    +0.266 C 
ATOM     31  N   UNL A   1     -25.614   5.252  26.449  0.00  0.00    -0.200 NA
ATOM     32  O   UNL A   1     -25.143   3.966  28.243  0.00  0.00    -0.268 OA
BRANCH  30  34
ATOM     33  C   UNL A   1     -25.688   1.614  26.461  0.00  0.00    +0.041 C 
ATOM     34  C   UNL A   1     -26.250   2.920  26.395  0.00  0.00    +0.077 C 
ATOM     35  C   UNL A   1     -27.438   3.091  25.645  0.00  0.00    +0.107 C 
ATOM     36  N   UNL A   1     -28.075   2.089  25.003  0.00  0.00    -0.208 NA
ATOM     37  C   UNL A   1     -27.543   0.849  25.079  0.00  0.00    +0.253 C 
ATOM     38  C   UNL A   1     -26.354   0.576  25.777  0.00  0.00    +0.193 C 
ATOM     39  F   UNL A   1     -25.860  -0.681  25.795  0.00  0.00    -0.199 F 
BRANCH  37  40
ATOM     40  O   UNL A   1     -28.193  -0.208  24.477  0.00  0.00    -0.456 OA
BRANCH  40  41
ATOM     41  C   UNL A   1     -29.460   0.005  23.866  0.00  0.00    +0.243 C 
BRANCH  41  42
ATOM     42  C   UNL A   1     -30.065  -1.377  23.573  0.00  0.00    +0.229 C 
ATOM     43  O   UNL A   1     -30.729  -1.878  24.721  0.00  0.00    -0.216 OA
ENDBRANCH  41  42
ENDBRANCH  40  41
ENDBRANCH  37  40
ENDBRANCH  30  34
ENDBRANCH  29  31
ENDBRANCH  28  29
ENDBRANCH   4  28
TORSDOF 15
