REMARK  Name = outputs/IAG933/test6/raw/output_9865_IAG933_linker_design_.xyz
REMARK  11 active torsions:
REMARK  status: ('A' for Active; 'I' for Inactive)
REMARK    1  A    between atoms: C_1  and  C_2
REMARK    2  A    between atoms: C_1  and  C_8
REMARK    3  A    between atoms: C_1  and  C_32
REMARK    4  A    between atoms: C_13  and  C_33
REMARK    5  A    between atoms: C_14  and  C_15
REMARK    6  A    between atoms: C_21  and  O_22
REMARK    7  A    between atoms: O_22  and  C_23
REMARK    8  A    between atoms: C_23  and  C_24
REMARK    9  A    between atoms: C_28  and  C_32
REMARK   10  A    between atoms: C_30  and  C_37
REMARK   11  A    between atoms: C_32  and  N_44
REMARK                            x       y       z     vdW  Elec       q    Type
REMARK                         _______ _______ _______ _____ _____    ______ ____
ROOT
ATOM      1  C   UNL A   1     -24.147   0.675  28.143  0.00  0.00    +0.037 C 
ATOM      2  C   UNL A   1     -24.423   1.266  27.022  0.00  0.00    +0.003 C 
ATOM      3  C   UNL A   1     -23.604   1.925  26.050  0.00  0.00    -0.000 C 
ATOM      4  O   UNL A   1     -22.595  -0.084  29.707  0.00  0.00    -0.287 OA
ATOM      5  C   UNL A   1     -21.626   1.181  28.300  0.00  0.00    +0.042 C 
ATOM      6  C   UNL A   1     -21.258   1.915  27.165  0.00  0.00    +0.003 C 
ATOM      7  C   UNL A   1     -22.221   2.241  26.110  0.00  0.00    +0.000 C 
ATOM      8  C   UNL A   1     -22.861   0.547  28.686  0.00  0.00    +0.193 C 
ENDROOT
BRANCH   2   9
ATOM      9  C   UNL A   1     -25.688   1.614  26.461  0.00  0.00    +0.038 C 
ATOM     10  C   UNL A   1     -26.250   2.920  26.395  0.00  0.00    +0.076 C 
ATOM     11  C   UNL A   1     -27.438   3.091  25.645  0.00  0.00    +0.107 C 
ATOM     12  N   UNL A   1     -28.075   2.089  25.003  0.00  0.00    -0.208 NA
ATOM     13  C   UNL A   1     -27.543   0.849  25.079  0.00  0.00    +0.253 C 
ATOM     14  C   UNL A   1     -26.354   0.576  25.777  0.00  0.00    +0.193 C 
ATOM     15  F   UNL A   1     -25.860  -0.681  25.795  0.00  0.00    -0.199 F 
BRANCH  10  16
ATOM     16  C   UNL A   1     -25.642   4.093  27.123  0.00  0.00    +0.266 C 
ATOM     17  N   UNL A   1     -25.614   5.252  26.449  0.00  0.00    -0.200 NA
ATOM     18  C   UNL A   1     -25.026   6.479  26.963  0.00  0.00    +0.139 C 
ATOM     19  O   UNL A   1     -25.143   3.966  28.243  0.00  0.00    -0.268 OA
ENDBRANCH  10  16
BRANCH  13  20
ATOM     20  O   UNL A   1     -28.193  -0.208  24.477  0.00  0.00    -0.456 OA
BRANCH  20  21
ATOM     21  C   UNL A   1     -29.460   0.005  23.866  0.00  0.00    +0.243 C 
BRANCH  21  22
ATOM     22  C   UNL A   1     -30.065  -1.377  23.573  0.00  0.00    +0.229 C 
ATOM     23  O   UNL A   1     -30.729  -1.878  24.721  0.00  0.00    -0.216 OA
ENDBRANCH  21  22
ENDBRANCH  20  21
ENDBRANCH  13  20
ENDBRANCH   2   9
BRANCH   1  24
ATOM     24  C   UNL A   1     -25.280  -0.019  29.028  0.00  0.00    +0.126 C 
BRANCH  24  27
ATOM     25  C   UNL A   1     -27.679   0.929  29.045  0.00  0.00    +0.269 C 
ATOM     26  O   UNL A   1     -28.387   0.018  28.566  0.00  0.00    -0.271 OA
ATOM     27  N   UNL A   1     -26.351   0.945  29.230  0.00  0.00    -0.200 NA
BRANCH  25  29
ATOM     28  O   UNL A   1     -27.392   2.907  30.431  0.00  0.00    -0.347 OA
ATOM     29  C   UNL A   1     -28.262   2.216  29.523  0.00  0.00    +0.193 C 
ATOM     30  C   UNL A   1     -29.633   2.121  30.202  0.00  0.00    +0.042 C 
ATOM     31  C   UNL A   1     -29.442   2.715  31.585  0.00  0.00    +0.035 C 
ATOM     32  C   UNL A   1     -28.152   3.517  31.527  0.00  0.00    +0.143 C 
ENDBRANCH  25  29
ENDBRANCH  24  27
BRANCH  24  33
ATOM     33  C   UNL A   1     -24.855  -1.012  30.143  0.00  0.00    +0.063 C 
BRANCH  33  34
ATOM     34  C   UNL A   1     -24.973  -2.505  29.788  0.00  0.00    -0.019 C 
ATOM     35  C   UNL A   1     -23.906  -3.173  29.146  0.00  0.00    -0.004 C 
ATOM     36  C   UNL A   1     -23.989  -4.549  28.853  0.00  0.00    -0.000 C 
ATOM     37  C   UNL A   1     -25.137  -5.280  29.205  0.00  0.00    -0.000 C 
ATOM     38  C   UNL A   1     -26.232  -4.611  29.784  0.00  0.00    -0.000 C 
ATOM     39  C   UNL A   1     -26.155  -3.232  30.065  0.00  0.00    -0.004 C 
ENDBRANCH  33  34
BRANCH  33  40
ATOM     40  C   UNL A   1     -25.387  -0.679  31.571  0.00  0.00    +0.079 C 
ATOM     41  C   UNL A   1     -25.189   0.773  32.028  0.00  0.00    +0.019 C 
ATOM     42  C   UNL A   1     -25.336   0.684  33.544  0.00  0.00    +0.020 C 
ATOM     43  C   UNL A   1     -24.829  -0.715  33.905  0.00  0.00    +0.089 C 
ATOM     44  N   UNL A   1     -24.758  -1.481  32.646  0.00  0.00    -0.219 NA
ENDBRANCH  33  40
ENDBRANCH  24  33
ENDBRANCH   1  24
TORSDOF 11
