REMARK  Name = outputs/IAG933/test6/raw/output_9866_IAG933_linker_design_.xyz
REMARK  9 active torsions:
REMARK  status: ('A' for Active; 'I' for Inactive)
REMARK    1  A    between atoms: C_1  and  C_2
REMARK    2  A    between atoms: C_1  and  C_8
REMARK    3  A    between atoms: C_1  and  N_43
REMARK    4  A    between atoms: C_13  and  C_32
REMARK    5  A    between atoms: C_14  and  C_15
REMARK    6  A    between atoms: C_21  and  O_22
REMARK    7  A    between atoms: O_22  and  C_23
REMARK    8  A    between atoms: C_23  and  C_24
REMARK    9  A    between atoms: C_32  and  C_39
REMARK                            x       y       z     vdW  Elec       q    Type
REMARK                         _______ _______ _______ _____ _____    ______ ____
ROOT
ATOM      1  C   UNL A   1     -22.988   1.099  27.605  0.00  0.00    +0.131 C 
ATOM      2  C   UNL A   1     -25.661   1.068  27.750  0.00  0.00    +0.050 C 
ATOM      3  C   UNL A   1     -24.374   0.704  28.288  0.00  0.00    +0.055 C 
ATOM      4  C   UNL A   1     -22.025   0.853  28.466  0.00  0.00    +0.265 C 
ATOM      5  N   UNL A   1     -22.551   0.163  29.560  0.00  0.00    -0.109 NA
ATOM      6  O   UNL A   1     -20.769   1.258  28.275  0.00  0.00    -0.271 OA
ATOM      7  N   UNL A   1     -23.981  -0.079  29.394  0.00  0.00    -0.218 N 
ENDROOT
BRANCH   2  14
ATOM      8  C   UNL A   1     -29.318   1.739  27.843  0.00  0.00    +0.113 C 
ATOM      9  N   UNL A   1     -28.873   4.201  27.805  0.00  0.00    -0.131 NA
ATOM     10  C   UNL A   1     -30.363   3.411  29.275  0.00  0.00    +0.022 C 
ATOM     11  O   UNL A   1     -27.336  -0.538  28.581  0.00  0.00    -0.270 OA
ATOM     12  C   UNL A   1     -29.507   2.975  30.409  0.00  0.00    +0.023 C 
ATOM     13  C   UNL A   1     -28.166   2.363  29.923  0.00  0.00    +0.094 C 
ATOM     14  C   UNL A   1     -27.039   0.634  28.381  0.00  0.00    +0.246 C 
ATOM     15  C   UNL A   1     -29.730   3.169  28.007  0.00  0.00    +0.112 C 
ATOM     16  N   UNL A   1     -27.991   1.594  28.596  0.00  0.00    -0.275 N 
ENDBRANCH   2  14
BRANCH   2  17
ATOM     17  C   UNL A   1     -25.688   1.614  26.461  0.00  0.00    +0.098 C 
ATOM     18  C   UNL A   1     -26.250   2.920  26.395  0.00  0.00    +0.059 C 
ATOM     19  C   UNL A   1     -27.438   3.091  25.645  0.00  0.00    +0.102 C 
ATOM     20  N   UNL A   1     -28.075   2.089  25.003  0.00  0.00    -0.212 NA
ATOM     21  C   UNL A   1     -27.543   0.849  25.079  0.00  0.00    +0.234 C 
ATOM     22  C   UNL A   1     -26.354   0.576  25.777  0.00  0.00    +0.244 C 
ATOM     23  F   UNL A   1     -25.860  -0.681  25.795  0.00  0.00    -0.227 F 
BRANCH  18  24
ATOM     24  C   UNL A   1     -25.642   4.093  27.123  0.00  0.00    +0.263 C 
ATOM     25  N   UNL A   1     -25.614   5.252  26.449  0.00  0.00    -0.200 NA
ATOM     26  C   UNL A   1     -25.026   6.479  26.963  0.00  0.00    +0.139 C 
ATOM     27  O   UNL A   1     -25.143   3.966  28.243  0.00  0.00    -0.269 OA
ENDBRANCH  18  24
BRANCH  21  28
ATOM     28  O   UNL A   1     -28.193  -0.208  24.477  0.00  0.00    -0.459 OA
BRANCH  28  29
ATOM     29  C   UNL A   1     -29.460   0.005  23.866  0.00  0.00    +0.242 C 
BRANCH  29  30
ATOM     30  C   UNL A   1     -30.065  -1.377  23.573  0.00  0.00    +0.229 C 
ATOM     31  O   UNL A   1     -30.729  -1.878  24.721  0.00  0.00    -0.216 OA
ENDBRANCH  29  30
ENDBRANCH  28  29
ENDBRANCH  21  28
ENDBRANCH   2  17
BRANCH   7  32
ATOM     32  C   UNL A   1     -24.855  -1.012  30.143  0.00  0.00    +0.132 C 
BRANCH  32  33
ATOM     33  C   UNL A   1     -24.973  -2.505  29.788  0.00  0.00    -0.001 C 
ATOM     34  C   UNL A   1     -23.906  -3.173  29.146  0.00  0.00    -0.003 C 
ATOM     35  C   UNL A   1     -23.989  -4.549  28.853  0.00  0.00    -0.000 C 
ATOM     36  C   UNL A   1     -25.137  -5.280  29.205  0.00  0.00    -0.000 C 
ATOM     37  C   UNL A   1     -26.232  -4.611  29.784  0.00  0.00    -0.000 C 
ATOM     38  C   UNL A   1     -26.155  -3.232  30.065  0.00  0.00    -0.003 C 
ENDBRANCH  32  33
BRANCH  32  39
ATOM     39  C   UNL A   1     -25.387  -0.679  31.571  0.00  0.00    +0.097 C 
ATOM     40  C   UNL A   1     -25.189   0.773  32.028  0.00  0.00    +0.021 C 
ATOM     41  C   UNL A   1     -25.336   0.684  33.544  0.00  0.00    +0.020 C 
ATOM     42  C   UNL A   1     -24.829  -0.715  33.905  0.00  0.00    +0.089 C 
ATOM     43  N   UNL A   1     -24.758  -1.481  32.646  0.00  0.00    -0.217 NA
ENDBRANCH  32  39
ENDBRANCH   7  32
TORSDOF 9
