REMARK  Name = outputs/IAG933/test6/raw/output_9867_IAG933_linker_design_.xyz
REMARK  12 active torsions:
REMARK  status: ('A' for Active; 'I' for Inactive)
REMARK    1  A    between atoms: C_1  and  C_2
REMARK    2  A    between atoms: C_1  and  C_8
REMARK    3  A    between atoms: C_1  and  C_36
REMARK    4  A    between atoms: C_13  and  C_30
REMARK    5  A    between atoms: C_14  and  C_15
REMARK    6  A    between atoms: C_21  and  O_22
REMARK    7  A    between atoms: O_22  and  C_23
REMARK    8  A    between atoms: C_23  and  C_24
REMARK    9  A    between atoms: C_32  and  O_38
REMARK   10  A    between atoms: C_32  and  C_41
REMARK   11  A    between atoms: C_33  and  C_40
REMARK   12  A    between atoms: C_36  and  O_38
REMARK                            x       y       z     vdW  Elec       q    Type
REMARK                         _______ _______ _______ _____ _____    ______ ____
ROOT
ATOM      1  C   UNL A   1     -22.250   0.886  28.148  0.00  0.00    +0.009 C 
ATOM      2  C   UNL A   1     -24.635   1.228  27.338  0.00  0.00    +0.056 C 
ATOM      3  C   UNL A   1     -23.206   0.381  29.225  0.00  0.00    +0.028 C 
ATOM      4  C   UNL A   1     -24.720  -0.074  28.762  0.00  0.00    +0.102 C 
ATOM      5  C   UNL A   1     -23.323   1.417  27.015  0.00  0.00    +0.073 C 
ENDROOT
BRANCH   2   6
ATOM      6  C   UNL A   1     -25.688   1.614  26.461  0.00  0.00    +0.018 C 
ATOM      7  C   UNL A   1     -26.250   2.920  26.395  0.00  0.00    +0.073 C 
ATOM      8  C   UNL A   1     -27.438   3.091  25.645  0.00  0.00    +0.106 C 
ATOM      9  N   UNL A   1     -28.075   2.089  25.003  0.00  0.00    -0.208 NA
ATOM     10  C   UNL A   1     -27.543   0.849  25.079  0.00  0.00    +0.253 C 
ATOM     11  C   UNL A   1     -26.354   0.576  25.777  0.00  0.00    +0.189 C 
ATOM     12  F   UNL A   1     -25.860  -0.681  25.795  0.00  0.00    -0.200 F 
BRANCH   7  13
ATOM     13  C   UNL A   1     -25.642   4.093  27.123  0.00  0.00    +0.266 C 
ATOM     14  N   UNL A   1     -25.614   5.252  26.449  0.00  0.00    -0.200 NA
ATOM     15  C   UNL A   1     -25.026   6.479  26.963  0.00  0.00    +0.139 C 
ATOM     16  O   UNL A   1     -25.143   3.966  28.243  0.00  0.00    -0.268 OA
ENDBRANCH   7  13
BRANCH  10  17
ATOM     17  O   UNL A   1     -28.193  -0.208  24.477  0.00  0.00    -0.456 OA
BRANCH  17  18
ATOM     18  C   UNL A   1     -29.460   0.005  23.866  0.00  0.00    +0.243 C 
BRANCH  18  19
ATOM     19  C   UNL A   1     -30.065  -1.377  23.573  0.00  0.00    +0.229 C 
ATOM     20  O   UNL A   1     -30.729  -1.878  24.721  0.00  0.00    -0.216 OA
ENDBRANCH  18  19
ENDBRANCH  17  18
ENDBRANCH  10  17
ENDBRANCH   2   6
BRANCH   5  22
ATOM     21  F   UNL A   1     -21.000   1.540  26.247  0.00  0.00    -0.198 F 
ATOM     22  C   UNL A   1     -22.172   1.593  26.204  0.00  0.00    +0.319 C 
ATOM     23  F   UNL A   1     -22.652   2.065  25.010  0.00  0.00    -0.198 F 
ENDBRANCH   5  22
BRANCH   4  24
ATOM     24  C   UNL A   1     -24.855  -1.012  30.143  0.00  0.00    +0.064 C 
BRANCH  24  25
ATOM     25  C   UNL A   1     -24.973  -2.505  29.788  0.00  0.00    -0.019 C 
ATOM     26  C   UNL A   1     -23.906  -3.173  29.146  0.00  0.00    -0.004 C 
ATOM     27  C   UNL A   1     -23.989  -4.549  28.853  0.00  0.00    -0.000 C 
ATOM     28  C   UNL A   1     -25.137  -5.280  29.205  0.00  0.00    -0.000 C 
ATOM     29  C   UNL A   1     -26.232  -4.611  29.784  0.00  0.00    -0.000 C 
ATOM     30  C   UNL A   1     -26.155  -3.232  30.065  0.00  0.00    -0.004 C 
ENDBRANCH  24  25
BRANCH  24  31
ATOM     31  C   UNL A   1     -25.387  -0.679  31.571  0.00  0.00    +0.079 C 
ATOM     32  C   UNL A   1     -25.189   0.773  32.028  0.00  0.00    +0.019 C 
ATOM     33  C   UNL A   1     -25.336   0.684  33.544  0.00  0.00    +0.020 C 
ATOM     34  C   UNL A   1     -24.829  -0.715  33.905  0.00  0.00    +0.089 C 
ATOM     35  N   UNL A   1     -24.758  -1.481  32.646  0.00  0.00    -0.219 NA
ENDBRANCH  24  31
ENDBRANCH   4  24
BRANCH   4  36
ATOM     36  O   UNL A   1     -26.249  -0.206  28.539  0.00  0.00    -0.349 OA
BRANCH  36  37
ATOM     37  C   UNL A   1     -26.838   1.018  29.014  0.00  0.00    +0.229 C 
BRANCH  37  41
ATOM     38  O   UNL A   1     -29.108   0.765  29.447  0.00  0.00    -0.271 OA
ATOM     39  C   UNL A   1     -28.814   0.344  32.078  0.00  0.00    +0.139 C 
ATOM     40  N   UNL A   1     -27.751   0.774  31.177  0.00  0.00    -0.201 NA
ATOM     41  C   UNL A   1     -28.016   0.849  29.924  0.00  0.00    +0.272 C 
ENDBRANCH  37  41
ENDBRANCH  36  37
ENDBRANCH   4  36
TORSDOF 12
