MODEL 986
MODEL 1
REMARK VINA RESULT:    -6.614      0.000      0.000
REMARK INTER + INTRA:          -7.435
REMARK INTER:                  -7.001
REMARK INTRA:                  -0.434
REMARK UNBOUND:                -0.434
REMARK  Name = No_986-gen_results/8p0m/2024-11-27-11-27-31/
REMARK  1 active torsions:
REMARK  status: ('A' for Active; 'I' for Inactive)
REMARK    1  A    between atoms: C_1  and  C_3
REMARK                            x       y       z     vdW  Elec       q    Type
REMARK                         _______ _______ _______ _____ _____    ______ ____
ROOT
ATOM      1  C   UNL A   1     -24.336  -2.790  29.140  0.00  0.00    +0.000 A 
ATOM      2  C   UNL A   1     -23.820  -3.508  28.567  0.00  0.00    +0.000 A 
ATOM      3  C   UNL A   1     -24.237  -4.940  28.622  0.00  0.00    +0.000 A 
ATOM      4  C   UNL A   1     -25.386  -5.219  29.376  0.00  0.00    +0.000 A 
ATOM      5  C   UNL A   1     -26.228  -4.236  29.710  0.00  0.00    +0.000 A 
ATOM      6  C   UNL A   1     -25.782  -2.922  29.477  0.00  0.00    +0.000 A 
ENDROOT
BRANCH   1   7
ATOM      7  C   UNL A   1     -23.821  -1.425  28.970  0.00  0.00    +0.000 A 
ATOM      8  C   UNL A   1     -24.481  -0.585  28.097  0.00  0.00    +0.000 A 
ATOM      9  C   UNL A   1     -23.873   0.420  27.522  0.00  0.00    +0.000 A 
ATOM     10  C   UNL A   1     -22.461  -1.051  29.258  0.00  0.00    +0.000 A 
ATOM     11  C   UNL A   1     -21.836   0.076  28.805  0.00  0.00    +0.000 A 
ATOM     12  C   UNL A   1     -22.607   0.878  27.929  0.00  0.00    +0.000 A 
ENDBRANCH   1   7
TORSDOF 1
ENDMDL
ENDMDL
