REMARK  Name = outputs/IAG933/test6/raw/output_987_IAG933_linker_design_.xyz
REMARK  9 active torsions:
REMARK  status: ('A' for Active; 'I' for Inactive)
REMARK    1  A    between atoms: C_1  and  C_2
REMARK    2  A    between atoms: C_1  and  C_8
REMARK    3  A    between atoms: C_13  and  N_36
REMARK    4  A    between atoms: C_14  and  C_15
REMARK    5  A    between atoms: C_21  and  O_22
REMARK    6  A    between atoms: O_22  and  C_23
REMARK    7  A    between atoms: C_23  and  C_24
REMARK    8  A    between atoms: N_29  and  C_30
REMARK    9  A    between atoms: C_30  and  C_43
REMARK                            x       y       z     vdW  Elec       q    Type
REMARK                         _______ _______ _______ _____ _____    ______ ____
ROOT
ATOM      1  N   UNL A   1     -25.157   1.607  29.555  0.00  0.00    -0.049 NA
ATOM      2  F   UNL A   1     -21.170   1.349  26.928  0.00  0.00    -0.229 F 
ATOM      3  F   UNL A   1     -23.058   2.518  25.394  0.00  0.00    -0.182 F 
ATOM      4  N   UNL A   1     -24.559   1.452  27.140  0.00  0.00    -0.144 N 
ATOM      5  C   UNL A   1     -24.334   1.665  28.513  0.00  0.00    +0.309 C 
ATOM      6  C   UNL A   1     -23.089   1.978  28.671  0.00  0.00    +0.160 C 
ATOM      7  C   UNL A   1     -22.453   1.618  27.351  0.00  0.00    +0.251 C 
ATOM      8  C   UNL A   1     -23.389   1.427  26.337  0.00  0.00    +0.359 C 
ENDROOT
BRANCH   4   9
ATOM      9  C   UNL A   1     -25.688   1.614  26.461  0.00  0.00    +0.179 C 
ATOM     10  C   UNL A   1     -26.250   2.920  26.395  0.00  0.00    +0.114 C 
ATOM     11  C   UNL A   1     -27.438   3.091  25.645  0.00  0.00    +0.110 C 
ATOM     12  N   UNL A   1     -28.075   2.089  25.003  0.00  0.00    -0.208 NA
ATOM     13  C   UNL A   1     -27.543   0.849  25.079  0.00  0.00    +0.257 C 
ATOM     14  C   UNL A   1     -26.354   0.576  25.777  0.00  0.00    +0.230 C 
ATOM     15  F   UNL A   1     -25.860  -0.681  25.795  0.00  0.00    -0.196 F 
BRANCH  10  16
ATOM     16  C   UNL A   1     -25.642   4.093  27.123  0.00  0.00    +0.270 C 
ATOM     17  N   UNL A   1     -25.614   5.252  26.449  0.00  0.00    -0.200 NA
ATOM     18  C   UNL A   1     -25.026   6.479  26.963  0.00  0.00    +0.139 C 
ATOM     19  O   UNL A   1     -25.143   3.966  28.243  0.00  0.00    -0.268 OA
ENDBRANCH  10  16
BRANCH  13  20
ATOM     20  O   UNL A   1     -28.193  -0.208  24.477  0.00  0.00    -0.456 OA
BRANCH  20  21
ATOM     21  C   UNL A   1     -29.460   0.005  23.866  0.00  0.00    +0.243 C 
BRANCH  21  22
ATOM     22  C   UNL A   1     -30.065  -1.377  23.573  0.00  0.00    +0.229 C 
ATOM     23  O   UNL A   1     -30.729  -1.878  24.721  0.00  0.00    -0.216 OA
ENDBRANCH  21  22
ENDBRANCH  20  21
ENDBRANCH  13  20
ENDBRANCH   4   9
BRANCH   1  29
ATOM     24  C   UNL A   1     -25.387  -0.679  31.571  0.00  0.00    +0.099 C 
ATOM     25  C   UNL A   1     -25.189   0.773  32.028  0.00  0.00    +0.012 C 
ATOM     26  C   UNL A   1     -25.336   0.684  33.544  0.00  0.00    +0.046 C 
ATOM     27  C   UNL A   1     -24.829  -0.715  33.905  0.00  0.00    +0.093 C 
ATOM     28  N   UNL A   1     -24.758  -1.481  32.646  0.00  0.00    -0.215 NA
ATOM     29  C   UNL A   1     -25.195   1.823  30.904  0.00  0.00    +0.170 C 
BRANCH  29  36
ATOM     30  O   UNL A   1     -25.668   5.856  32.559  0.00  0.00    -0.346 OA
ATOM     31  C   UNL A   1     -26.596   5.275  31.612  0.00  0.00    +0.206 C 
ATOM     32  C   UNL A   1     -26.468   3.795  32.162  0.00  0.00    +0.188 C 
ATOM     33  C   UNL A   1     -24.169   3.962  32.183  0.00  0.00    +0.048 C 
ATOM     34  O   UNL A   1     -27.232   3.295  32.980  0.00  0.00    -0.293 OA
ATOM     35  C   UNL A   1     -24.571   5.098  33.072  0.00  0.00    +0.144 C 
ATOM     36  C   UNL A   1     -25.273   3.237  31.472  0.00  0.00    +0.128 C 
ENDBRANCH  29  36
BRANCH  24  37
ATOM     37  C   UNL A   1     -24.855  -1.012  30.143  0.00  0.00    +0.048 C 
BRANCH  37  38
ATOM     38  C   UNL A   1     -24.973  -2.505  29.788  0.00  0.00    -0.021 C 
ATOM     39  C   UNL A   1     -23.906  -3.173  29.146  0.00  0.00    -0.004 C 
ATOM     40  C   UNL A   1     -23.989  -4.549  28.853  0.00  0.00    -0.000 C 
ATOM     41  C   UNL A   1     -25.137  -5.280  29.205  0.00  0.00    -0.000 C 
ATOM     42  C   UNL A   1     -26.232  -4.611  29.784  0.00  0.00    -0.000 C 
ATOM     43  C   UNL A   1     -26.155  -3.232  30.065  0.00  0.00    -0.004 C 
ENDBRANCH  37  38
ENDBRANCH  24  37
ENDBRANCH   1  29
TORSDOF 9
