REMARK  Name = outputs/IAG933/test6/raw/output_9872_IAG933_linker_design_.xyz
REMARK  12 active torsions:
REMARK  status: ('A' for Active; 'I' for Inactive)
REMARK    1  A    between atoms: C_1  and  C_2
REMARK    2  A    between atoms: C_1  and  C_8
REMARK    3  A    between atoms: C_1  and  C_33
REMARK    4  A    between atoms: C_13  and  C_29
REMARK    5  A    between atoms: C_14  and  C_15
REMARK    6  A    between atoms: C_15  and  O_18
REMARK    7  A    between atoms: O_18  and  C_41
REMARK    8  A    between atoms: C_21  and  O_22
REMARK    9  A    between atoms: O_22  and  C_23
REMARK   10  A    between atoms: C_23  and  C_24
REMARK   11  A    between atoms: C_33  and  C_35
REMARK   12  A    between atoms: C_39  and  C_41
REMARK                            x       y       z     vdW  Elec       q    Type
REMARK                         _______ _______ _______ _____ _____    ______ ____
ROOT
ATOM      1  C   UNL A   1     -25.688   1.614  26.461  0.00  0.00    +0.041 C 
ATOM      2  C   UNL A   1     -26.250   2.920  26.395  0.00  0.00    +0.074 C 
ATOM      3  C   UNL A   1     -27.438   3.091  25.645  0.00  0.00    +0.107 C 
ATOM      4  N   UNL A   1     -28.075   2.089  25.003  0.00  0.00    -0.208 NA
ATOM      5  C   UNL A   1     -27.543   0.849  25.079  0.00  0.00    +0.253 C 
ATOM      6  C   UNL A   1     -26.354   0.576  25.777  0.00  0.00    +0.193 C 
ATOM      7  F   UNL A   1     -25.860  -0.681  25.795  0.00  0.00    -0.199 F 
ENDROOT
BRANCH   1   9
ATOM      8  F   UNL A   1     -21.047   1.921  26.221  0.00  0.00    -0.202 F 
ATOM      9  C   UNL A   1     -24.469   1.258  27.126  0.00  0.00    +0.035 C 
ATOM     10  C   UNL A   1     -22.131   1.500  26.967  0.00  0.00    +0.167 C 
ATOM     11  C   UNL A   1     -23.363   1.599  26.399  0.00  0.00    +0.168 C 
ATOM     12  C   UNL A   1     -24.354   0.627  28.396  0.00  0.00    +0.037 C 
ATOM     13  C   UNL A   1     -23.085   0.607  28.986  0.00  0.00    +0.005 C 
ATOM     14  C   UNL A   1     -21.977   1.027  28.256  0.00  0.00    +0.032 C 
ATOM     15  F   UNL A   1     -23.412   1.943  25.098  0.00  0.00    -0.202 F 
BRANCH  12  16
ATOM     16  C   UNL A   1     -25.382  -0.173  29.083  0.00  0.00    +0.178 C 
ATOM     17  O   UNL A   1     -26.596  -0.197  28.761  0.00  0.00    -0.291 OA
BRANCH  16  18
ATOM     18  C   UNL A   1     -24.855  -1.012  30.143  0.00  0.00    +0.100 C 
BRANCH  18  19
ATOM     19  C   UNL A   1     -24.973  -2.505  29.788  0.00  0.00    -0.014 C 
ATOM     20  C   UNL A   1     -23.906  -3.173  29.146  0.00  0.00    -0.004 C 
ATOM     21  C   UNL A   1     -23.989  -4.549  28.853  0.00  0.00    -0.000 C 
ATOM     22  C   UNL A   1     -25.137  -5.280  29.205  0.00  0.00    -0.000 C 
ATOM     23  C   UNL A   1     -26.232  -4.611  29.784  0.00  0.00    -0.000 C 
ATOM     24  C   UNL A   1     -26.155  -3.232  30.065  0.00  0.00    -0.004 C 
ENDBRANCH  18  19
BRANCH  18  25
ATOM     25  C   UNL A   1     -25.387  -0.679  31.571  0.00  0.00    +0.084 C 
ATOM     26  C   UNL A   1     -25.189   0.773  32.028  0.00  0.00    +0.020 C 
ATOM     27  C   UNL A   1     -25.336   0.684  33.544  0.00  0.00    +0.020 C 
ATOM     28  C   UNL A   1     -24.829  -0.715  33.905  0.00  0.00    +0.089 C 
ATOM     29  N   UNL A   1     -24.758  -1.481  32.646  0.00  0.00    -0.219 NA
ENDBRANCH  18  25
ENDBRANCH  16  18
ENDBRANCH  12  16
ENDBRANCH   1   9
BRANCH   2  30
ATOM     30  C   UNL A   1     -25.642   4.093  27.123  0.00  0.00    +0.222 C 
ATOM     31  N   UNL A   1     -25.614   5.252  26.449  0.00  0.00    -0.236 NA
ATOM     32  C   UNL A   1     -25.026   6.479  26.963  0.00  0.00    +0.155 C 
BRANCH  30  33
ATOM     33  O   UNL A   1     -25.143   3.966  28.243  0.00  0.00    -0.460 OA
BRANCH  33  34
ATOM     34  C   UNL A   1     -25.598   3.352  29.412  0.00  0.00    +0.208 C 
BRANCH  34  37
ATOM     35  C   UNL A   1     -26.215   5.686  33.234  0.00  0.00    +0.088 C 
ATOM     36  C   UNL A   1     -24.611   3.931  31.366  0.00  0.00    +0.006 C 
ATOM     37  C   UNL A   1     -25.748   4.384  30.542  0.00  0.00    +0.060 C 
ATOM     38  C   UNL A   1     -24.767   5.246  33.092  0.00  0.00    +0.073 C 
ATOM     39  C   UNL A   1     -24.730   3.822  32.770  0.00  0.00    +0.018 C 
ATOM     40  N   UNL A   1     -25.545   6.201  32.206  0.00  0.00    -0.271 NA
ATOM     41  C   UNL A   1     -25.578   5.940  30.729  0.00  0.00    +0.076 C 
ENDBRANCH  34  37
ENDBRANCH  33  34
ENDBRANCH  30  33
ENDBRANCH   2  30
BRANCH   5  42
ATOM     42  O   UNL A   1     -28.193  -0.208  24.477  0.00  0.00    -0.456 OA
BRANCH  42  43
ATOM     43  C   UNL A   1     -29.460   0.005  23.866  0.00  0.00    +0.243 C 
BRANCH  43  44
ATOM     44  C   UNL A   1     -30.065  -1.377  23.573  0.00  0.00    +0.229 C 
ATOM     45  O   UNL A   1     -30.729  -1.878  24.721  0.00  0.00    -0.216 OA
ENDBRANCH  43  44
ENDBRANCH  42  43
ENDBRANCH   5  42
TORSDOF 12
