REMARK  Name = outputs/IAG933/test6/raw/output_9873_IAG933_linker_design_.xyz
REMARK  10 active torsions:
REMARK  status: ('A' for Active; 'I' for Inactive)
REMARK    1  A    between atoms: C_1  and  C_2
REMARK    2  A    between atoms: C_1  and  C_8
REMARK    3  A    between atoms: C_1  and  C_33
REMARK    4  A    between atoms: C_13  and  N_36
REMARK    5  A    between atoms: C_14  and  C_15
REMARK    6  A    between atoms: C_21  and  O_22
REMARK    7  A    between atoms: O_22  and  C_23
REMARK    8  A    between atoms: C_23  and  C_24
REMARK    9  A    between atoms: C_33  and  N_35
REMARK   10  A    between atoms: N_35  and  C_39
REMARK                            x       y       z     vdW  Elec       q    Type
REMARK                         _______ _______ _______ _____ _____    ______ ____
ROOT
ATOM      1  C   UNL A   1     -22.427   0.655  27.381  0.00  0.00    +0.026 C 
ATOM      2  C   UNL A   1     -23.342   1.394  26.516  0.00  0.00    +0.096 C 
ATOM      3  C   UNL A   1     -25.587  -0.177  29.048  0.00  0.00    +0.058 C 
ATOM      4  N   UNL A   1     -24.540   1.210  27.052  0.00  0.00    -0.287 N 
ATOM      5  C   UNL A   1     -21.070   1.426  27.563  0.00  0.00    +0.002 C 
ATOM      6  C   UNL A   1     -23.152   0.291  28.709  0.00  0.00    +0.044 C 
ATOM      7  C   UNL A   1     -24.610   0.515  28.255  0.00  0.00    +0.040 C 
ENDROOT
BRANCH   4   8
ATOM      8  C   UNL A   1     -25.688   1.614  26.461  0.00  0.00    +0.090 C 
ATOM      9  C   UNL A   1     -26.250   2.920  26.395  0.00  0.00    +0.090 C 
ATOM     10  C   UNL A   1     -27.438   3.091  25.645  0.00  0.00    +0.108 C 
ATOM     11  N   UNL A   1     -28.075   2.089  25.003  0.00  0.00    -0.208 NA
ATOM     12  C   UNL A   1     -27.543   0.849  25.079  0.00  0.00    +0.255 C 
ATOM     13  C   UNL A   1     -26.354   0.576  25.777  0.00  0.00    +0.206 C 
ATOM     14  F   UNL A   1     -25.860  -0.681  25.795  0.00  0.00    -0.198 F 
BRANCH   9  15
ATOM     15  C   UNL A   1     -25.642   4.093  27.123  0.00  0.00    +0.268 C 
ATOM     16  N   UNL A   1     -25.614   5.252  26.449  0.00  0.00    -0.200 NA
ATOM     17  C   UNL A   1     -25.026   6.479  26.963  0.00  0.00    +0.139 C 
ATOM     18  O   UNL A   1     -25.143   3.966  28.243  0.00  0.00    -0.268 OA
ENDBRANCH   9  15
BRANCH  12  19
ATOM     19  O   UNL A   1     -28.193  -0.208  24.477  0.00  0.00    -0.456 OA
BRANCH  19  20
ATOM     20  C   UNL A   1     -29.460   0.005  23.866  0.00  0.00    +0.243 C 
BRANCH  20  21
ATOM     21  C   UNL A   1     -30.065  -1.377  23.573  0.00  0.00    +0.229 C 
ATOM     22  O   UNL A   1     -30.729  -1.878  24.721  0.00  0.00    -0.216 OA
ENDBRANCH  20  21
ENDBRANCH  19  20
ENDBRANCH  12  19
ENDBRANCH   4   8
BRANCH   3  23
ATOM     23  C   UNL A   1     -24.855  -1.012  30.143  0.00  0.00    +0.076 C 
BRANCH  23  24
ATOM     24  C   UNL A   1     -24.973  -2.505  29.788  0.00  0.00    -0.016 C 
ATOM     25  C   UNL A   1     -23.906  -3.173  29.146  0.00  0.00    -0.004 C 
ATOM     26  C   UNL A   1     -23.989  -4.549  28.853  0.00  0.00    -0.000 C 
ATOM     27  C   UNL A   1     -25.137  -5.280  29.205  0.00  0.00    -0.000 C 
ATOM     28  C   UNL A   1     -26.232  -4.611  29.784  0.00  0.00    -0.000 C 
ATOM     29  C   UNL A   1     -26.155  -3.232  30.065  0.00  0.00    -0.004 C 
ENDBRANCH  23  24
BRANCH  23  30
ATOM     30  C   UNL A   1     -25.387  -0.679  31.571  0.00  0.00    +0.082 C 
ATOM     31  C   UNL A   1     -25.189   0.773  32.028  0.00  0.00    +0.020 C 
ATOM     32  C   UNL A   1     -25.336   0.684  33.544  0.00  0.00    +0.020 C 
ATOM     33  C   UNL A   1     -24.829  -0.715  33.905  0.00  0.00    +0.089 C 
ATOM     34  N   UNL A   1     -24.758  -1.481  32.646  0.00  0.00    -0.219 NA
ENDBRANCH  23  30
ENDBRANCH   3  23
BRANCH   3  35
ATOM     35  N   UNL A   1     -26.988  -0.228  29.030  0.00  0.00    -0.232 NA
BRANCH  35  41
ATOM     36  O   UNL A   1     -30.995  -0.766  28.413  0.00  0.00    -0.351 OA
ATOM     37  C   UNL A   1     -28.938  -0.812  30.229  0.00  0.00    +0.175 C 
ATOM     38  C   UNL A   1     -30.948  -2.089  29.022  0.00  0.00    +0.150 C 
ATOM     39  O   UNL A   1     -28.715   0.064  31.105  0.00  0.00    -0.294 OA
ATOM     40  C   UNL A   1     -29.882  -2.002  30.139  0.00  0.00    +0.098 C 
ATOM     41  C   UNL A   1     -28.439  -0.636  28.814  0.00  0.00    +0.178 C 
ATOM     42  C   UNL A   1     -29.676  -0.210  27.860  0.00  0.00    +0.171 C 
ENDBRANCH  35  41
ENDBRANCH   3  35
TORSDOF 10
