REMARK  Name = outputs/IAG933/test6/raw/output_9876_IAG933_linker_design_.xyz
REMARK  11 active torsions:
REMARK  status: ('A' for Active; 'I' for Inactive)
REMARK    1  A    between atoms: C_1  and  C_2
REMARK    2  A    between atoms: C_1  and  C_8
REMARK    3  A    between atoms: C_1  and  N_28
REMARK    4  A    between atoms: C_13  and  C_32
REMARK    5  A    between atoms: C_14  and  C_15
REMARK    6  A    between atoms: C_21  and  O_22
REMARK    7  A    between atoms: O_22  and  C_23
REMARK    8  A    between atoms: C_23  and  C_24
REMARK    9  A    between atoms: C_34  and  O_40
REMARK   10  A    between atoms: C_34  and  C_41
REMARK   11  A    between atoms: O_40  and  C_44
REMARK                            x       y       z     vdW  Elec       q    Type
REMARK                         _______ _______ _______ _____ _____    ______ ____
ROOT
ATOM      1  N   UNL A   1     -24.013  -0.236  29.064  0.00  0.00    -0.295 N 
ATOM      2  C   UNL A   1     -21.579   1.870  27.475  0.00  0.00    +0.217 C 
ATOM      3  O   UNL A   1     -22.015   2.062  26.089  0.00  0.00    -0.465 OA
ATOM      4  C   UNL A   1     -24.387   1.347  26.910  0.00  0.00    +0.089 C 
ATOM      5  C   UNL A   1     -22.765   0.746  29.390  0.00  0.00    +0.108 C 
ATOM      6  C   UNL A   1     -23.444   1.637  25.959  0.00  0.00    +0.212 C 
ATOM      7  C   UNL A   1     -22.250   1.548  28.516  0.00  0.00    -0.045 C 
ATOM      8  C   UNL A   1     -24.707   0.956  28.183  0.00  0.00    +0.111 C 
ENDROOT
BRANCH   4   9
ATOM      9  C   UNL A   1     -25.688   1.614  26.461  0.00  0.00    +0.021 C 
ATOM     10  C   UNL A   1     -26.250   2.920  26.395  0.00  0.00    +0.073 C 
ATOM     11  C   UNL A   1     -27.438   3.091  25.645  0.00  0.00    +0.106 C 
ATOM     12  N   UNL A   1     -28.075   2.089  25.003  0.00  0.00    -0.208 NA
ATOM     13  C   UNL A   1     -27.543   0.849  25.079  0.00  0.00    +0.253 C 
ATOM     14  C   UNL A   1     -26.354   0.576  25.777  0.00  0.00    +0.189 C 
ATOM     15  F   UNL A   1     -25.860  -0.681  25.795  0.00  0.00    -0.200 F 
BRANCH  10  16
ATOM     16  C   UNL A   1     -25.642   4.093  27.123  0.00  0.00    +0.266 C 
ATOM     17  N   UNL A   1     -25.614   5.252  26.449  0.00  0.00    -0.200 NA
ATOM     18  C   UNL A   1     -25.026   6.479  26.963  0.00  0.00    +0.139 C 
ATOM     19  O   UNL A   1     -25.143   3.966  28.243  0.00  0.00    -0.268 OA
ENDBRANCH  10  16
BRANCH  13  20
ATOM     20  O   UNL A   1     -28.193  -0.208  24.477  0.00  0.00    -0.456 OA
BRANCH  20  21
ATOM     21  C   UNL A   1     -29.460   0.005  23.866  0.00  0.00    +0.243 C 
BRANCH  21  22
ATOM     22  C   UNL A   1     -30.065  -1.377  23.573  0.00  0.00    +0.229 C 
ATOM     23  O   UNL A   1     -30.729  -1.878  24.721  0.00  0.00    -0.216 OA
ENDBRANCH  21  22
ENDBRANCH  20  21
ENDBRANCH  13  20
ENDBRANCH   4   9
BRANCH   1  24
ATOM     24  C   UNL A   1     -24.855  -1.012  30.143  0.00  0.00    +0.112 C 
BRANCH  24  25
ATOM     25  C   UNL A   1     -24.973  -2.505  29.788  0.00  0.00    -0.003 C 
ATOM     26  C   UNL A   1     -23.906  -3.173  29.146  0.00  0.00    -0.003 C 
ATOM     27  C   UNL A   1     -23.989  -4.549  28.853  0.00  0.00    -0.000 C 
ATOM     28  C   UNL A   1     -25.137  -5.280  29.205  0.00  0.00    -0.000 C 
ATOM     29  C   UNL A   1     -26.232  -4.611  29.784  0.00  0.00    -0.000 C 
ATOM     30  C   UNL A   1     -26.155  -3.232  30.065  0.00  0.00    -0.003 C 
ENDBRANCH  24  25
BRANCH  24  31
ATOM     31  C   UNL A   1     -25.387  -0.679  31.571  0.00  0.00    +0.095 C 
ATOM     32  C   UNL A   1     -25.189   0.773  32.028  0.00  0.00    +0.021 C 
ATOM     33  C   UNL A   1     -25.336   0.684  33.544  0.00  0.00    +0.020 C 
ATOM     34  C   UNL A   1     -24.829  -0.715  33.905  0.00  0.00    +0.089 C 
ATOM     35  N   UNL A   1     -24.758  -1.481  32.646  0.00  0.00    -0.217 NA
ENDBRANCH  24  31
ENDBRANCH   1  24
BRANCH   8  36
ATOM     36  C   UNL A   1     -26.015   1.169  28.870  0.00  0.00    +0.167 C 
BRANCH  36  37
ATOM     37  O   UNL A   1     -26.814   0.058  28.356  0.00  0.00    -0.305 OA
BRANCH  37  44
ATOM     38  O   UNL A   1     -30.862  -0.927  30.596  0.00  0.00    -0.192 OA
ATOM     39  C   UNL A   1     -29.503   0.809  31.459  0.00  0.00    +0.067 C 
ATOM     40  O   UNL A   1     -28.773   1.050  28.791  0.00  0.00    -0.302 OA
ATOM     41  O   UNL A   1     -28.672  -0.969  29.802  0.00  0.00    -0.281 OA
ATOM     42  C   UNL A   1     -29.756  -0.177  30.307  0.00  0.00    +0.251 C 
ATOM     43  C   UNL A   1     -29.927   0.631  29.074  0.00  0.00    +0.206 C 
ATOM     44  C   UNL A   1     -27.928  -0.131  29.023  0.00  0.00    +0.377 C 
ENDBRANCH  37  44
ENDBRANCH  36  37
ENDBRANCH   8  36
TORSDOF 11
