REMARK  Name = outputs/IAG933/test6/raw/output_9877_IAG933_linker_design_.xyz
REMARK  13 active torsions:
REMARK  status: ('A' for Active; 'I' for Inactive)
REMARK    1  A    between atoms: C_1  and  C_2
REMARK    2  A    between atoms: C_1  and  C_8
REMARK    3  A    between atoms: C_1  and  C_45
REMARK    4  A    between atoms: C_13  and  C_37
REMARK    5  A    between atoms: C_14  and  C_15
REMARK    6  A    between atoms: C_21  and  O_22
REMARK    7  A    between atoms: O_22  and  C_23
REMARK    8  A    between atoms: C_23  and  C_24
REMARK    9  A    between atoms: C_28  and  C_39
REMARK   10  A    between atoms: C_28  and  C_41
REMARK   11  A    between atoms: C_37  and  C_43
REMARK   12  A    between atoms: C_37  and  C_45
REMARK   13  A    between atoms: C_38  and  C_45
REMARK                            x       y       z     vdW  Elec       q    Type
REMARK                         _______ _______ _______ _____ _____    ______ ____
ROOT
ATOM      1  C   UNL A   1     -25.194   1.006  27.642  0.00  0.00    +0.041 C 
ENDROOT
BRANCH   1   2
ATOM      2  C   UNL A   1     -25.688   1.614  26.461  0.00  0.00    +0.075 C 
ATOM      3  C   UNL A   1     -26.250   2.920  26.395  0.00  0.00    +0.055 C 
ATOM      4  C   UNL A   1     -27.438   3.091  25.645  0.00  0.00    +0.102 C 
ATOM      5  N   UNL A   1     -28.075   2.089  25.003  0.00  0.00    -0.212 NA
ATOM      6  C   UNL A   1     -27.543   0.849  25.079  0.00  0.00    +0.234 C 
ATOM      7  C   UNL A   1     -26.354   0.576  25.777  0.00  0.00    +0.240 C 
ATOM      8  F   UNL A   1     -25.860  -0.681  25.795  0.00  0.00    -0.227 F 
BRANCH   3   9
ATOM      9  C   UNL A   1     -25.642   4.093  27.123  0.00  0.00    +0.262 C 
ATOM     10  N   UNL A   1     -25.614   5.252  26.449  0.00  0.00    -0.200 NA
ATOM     11  C   UNL A   1     -25.026   6.479  26.963  0.00  0.00    +0.139 C 
ATOM     12  O   UNL A   1     -25.143   3.966  28.243  0.00  0.00    -0.269 OA
ENDBRANCH   3   9
BRANCH   6  13
ATOM     13  O   UNL A   1     -28.193  -0.208  24.477  0.00  0.00    -0.459 OA
BRANCH  13  14
ATOM     14  C   UNL A   1     -29.460   0.005  23.866  0.00  0.00    +0.242 C 
BRANCH  14  15
ATOM     15  C   UNL A   1     -30.065  -1.377  23.573  0.00  0.00    +0.229 C 
ATOM     16  O   UNL A   1     -30.729  -1.878  24.721  0.00  0.00    -0.216 OA
ENDBRANCH  14  15
ENDBRANCH  13  14
ENDBRANCH   6  13
ENDBRANCH   1   2
BRANCH   1  22
ATOM     17  C   UNL A   1     -23.271   0.513  28.749  0.00  0.00    -0.005 C 
ATOM     18  C   UNL A   1     -22.982   2.570  25.879  0.00  0.00    +0.031 C 
ATOM     19  C   UNL A   1     -21.502   1.500  27.509  0.00  0.00    -0.005 C 
ATOM     20  C   UNL A   1     -22.324   0.087  29.276  0.00  0.00    -0.000 C 
ATOM     21  C   UNL A   1     -22.799   1.755  27.128  0.00  0.00    -0.026 C 
ATOM     22  C   UNL A   1     -23.839   1.177  27.831  0.00  0.00    -0.025 C 
ATOM     23  C   UNL A   1     -21.426   0.674  28.581  0.00  0.00    -0.000 C 
ENDBRANCH   1  22
BRANCH   1  24
ATOM     24  C   UNL A   1     -25.753  -0.069  29.190  0.00  0.00    +0.115 C 
BRANCH  24  27
ATOM     25  N   UNL A   1     -27.163   2.134  29.642  0.00  0.00    +0.034 NA
ATOM     26  N   UNL A   1     -26.109   3.805  30.816  0.00  0.00    +0.196 NA
ATOM     27  C   UNL A   1     -27.091   0.795  29.076  0.00  0.00    +0.352 C 
ATOM     28  O   UNL A   1     -28.021   0.245  28.619  0.00  0.00    -0.243 OA
ATOM     29  C   UNL A   1     -27.328   3.390  30.383  0.00  0.00    +0.432 C 
BRANCH  29  30
ATOM     30  C   UNL A   1     -28.449   4.194  30.425  0.00  0.00    +0.307 C 
ATOM     31  F   UNL A   1     -29.154   4.157  31.559  0.00  0.00    -0.221 F 
BRANCH  30  33
ATOM     32  O   UNL A   1     -27.437   6.184  30.956  0.00  0.00    -0.217 OA
ATOM     33  C   UNL A   1     -28.247   5.630  29.971  0.00  0.00    +0.230 C 
ENDBRANCH  30  33
ENDBRANCH  29  30
ENDBRANCH  24  27
BRANCH  24  34
ATOM     34  C   UNL A   1     -24.855  -1.012  30.143  0.00  0.00    +0.050 C 
BRANCH  34  35
ATOM     35  C   UNL A   1     -24.973  -2.505  29.788  0.00  0.00    -0.021 C 
ATOM     36  C   UNL A   1     -23.906  -3.173  29.146  0.00  0.00    -0.004 C 
ATOM     37  C   UNL A   1     -23.989  -4.549  28.853  0.00  0.00    -0.000 C 
ATOM     38  C   UNL A   1     -25.137  -5.280  29.205  0.00  0.00    -0.000 C 
ATOM     39  C   UNL A   1     -26.232  -4.611  29.784  0.00  0.00    -0.000 C 
ATOM     40  C   UNL A   1     -26.155  -3.232  30.065  0.00  0.00    -0.004 C 
ENDBRANCH  34  35
BRANCH  34  41
ATOM     41  C   UNL A   1     -25.387  -0.679  31.571  0.00  0.00    +0.077 C 
ATOM     42  C   UNL A   1     -25.189   0.773  32.028  0.00  0.00    +0.019 C 
ATOM     43  C   UNL A   1     -25.336   0.684  33.544  0.00  0.00    +0.020 C 
ATOM     44  C   UNL A   1     -24.829  -0.715  33.905  0.00  0.00    +0.089 C 
ATOM     45  N   UNL A   1     -24.758  -1.481  32.646  0.00  0.00    -0.219 NA
ENDBRANCH  34  41
ENDBRANCH  24  34
ENDBRANCH   1  24
TORSDOF 13
