REMARK  Name = outputs/IAG933/test6/raw/output_9881_IAG933_linker_design_.xyz
REMARK  8 active torsions:
REMARK  status: ('A' for Active; 'I' for Inactive)
REMARK    1  A    between atoms: C_1  and  C_2
REMARK    2  A    between atoms: C_13  and  C_30
REMARK    3  A    between atoms: C_14  and  C_15
REMARK    4  A    between atoms: C_21  and  O_22
REMARK    5  A    between atoms: O_22  and  C_23
REMARK    6  A    between atoms: C_23  and  C_24
REMARK    7  A    between atoms: C_37  and  C_38
REMARK    8  A    between atoms: C_37  and  C_40
REMARK                            x       y       z     vdW  Elec       q    Type
REMARK                         _______ _______ _______ _____ _____    ______ ____
ROOT
ATOM      1  C   UNL A   1     -24.855  -1.012  30.143  0.00  0.00    +0.111 C 
ATOM      2  C   UNL A   1     -25.387  -0.679  31.571  0.00  0.00    +0.095 C 
ATOM      3  C   UNL A   1     -25.189   0.773  32.028  0.00  0.00    +0.022 C 
ATOM      4  C   UNL A   1     -25.336   0.684  33.544  0.00  0.00    +0.020 C 
ATOM      5  C   UNL A   1     -24.829  -0.715  33.905  0.00  0.00    +0.089 C 
ATOM      6  N   UNL A   1     -24.758  -1.481  32.646  0.00  0.00    -0.217 NA
ATOM      7  O   UNL A   1     -22.681   1.852  25.333  0.00  0.00    -0.219 OA
ATOM      8  C   UNL A   1     -23.895   0.821  28.115  0.00  0.00    +0.026 C 
ATOM      9  C   UNL A   1     -24.406   1.224  26.801  0.00  0.00    +0.093 C 
ATOM     10  O   UNL A   1     -21.602   1.736  26.110  0.00  0.00    -0.216 OA
ATOM     11  N   UNL A   1     -24.415   0.205  29.445  0.00  0.00    -0.309 N 
ATOM     12  C   UNL A   1     -23.629   1.147  30.466  0.00  0.00    +0.077 C 
ATOM     13  C   UNL A   1     -22.419   0.875  29.749  0.00  0.00    +0.045 C 
ATOM     14  C   UNL A   1     -23.608   1.203  25.706  0.00  0.00    +0.192 C 
ATOM     15  C   UNL A   1     -24.833   1.929  31.059  0.00  0.00    +0.031 C 
ATOM     16  C   UNL A   1     -21.634   1.447  27.469  0.00  0.00    +0.205 C 
ATOM     17  C   UNL A   1     -22.623   1.010  28.366  0.00  0.00    -0.000 C 
ENDROOT
BRANCH   9  18
ATOM     18  C   UNL A   1     -25.688   1.614  26.461  0.00  0.00    +0.023 C 
ATOM     19  C   UNL A   1     -26.250   2.920  26.395  0.00  0.00    +0.073 C 
ATOM     20  C   UNL A   1     -27.438   3.091  25.645  0.00  0.00    +0.106 C 
ATOM     21  N   UNL A   1     -28.075   2.089  25.003  0.00  0.00    -0.208 NA
ATOM     22  C   UNL A   1     -27.543   0.849  25.079  0.00  0.00    +0.253 C 
ATOM     23  C   UNL A   1     -26.354   0.576  25.777  0.00  0.00    +0.190 C 
ATOM     24  F   UNL A   1     -25.860  -0.681  25.795  0.00  0.00    -0.200 F 
BRANCH  19  25
ATOM     25  C   UNL A   1     -25.642   4.093  27.123  0.00  0.00    +0.266 C 
ATOM     26  N   UNL A   1     -25.614   5.252  26.449  0.00  0.00    -0.200 NA
ATOM     27  C   UNL A   1     -25.026   6.479  26.963  0.00  0.00    +0.139 C 
ATOM     28  O   UNL A   1     -25.143   3.966  28.243  0.00  0.00    -0.268 OA
ENDBRANCH  19  25
BRANCH  22  29
ATOM     29  O   UNL A   1     -28.193  -0.208  24.477  0.00  0.00    -0.456 OA
BRANCH  29  30
ATOM     30  C   UNL A   1     -29.460   0.005  23.866  0.00  0.00    +0.243 C 
BRANCH  30  31
ATOM     31  C   UNL A   1     -30.065  -1.377  23.573  0.00  0.00    +0.229 C 
ATOM     32  O   UNL A   1     -30.729  -1.878  24.721  0.00  0.00    -0.216 OA
ENDBRANCH  30  31
ENDBRANCH  29  30
ENDBRANCH  22  29
ENDBRANCH   9  18
BRANCH   1  33
ATOM     33  C   UNL A   1     -24.973  -2.505  29.788  0.00  0.00    -0.003 C 
ATOM     34  C   UNL A   1     -23.906  -3.173  29.146  0.00  0.00    -0.003 C 
ATOM     35  C   UNL A   1     -23.989  -4.549  28.853  0.00  0.00    -0.000 C 
ATOM     36  C   UNL A   1     -25.137  -5.280  29.205  0.00  0.00    -0.000 C 
ATOM     37  C   UNL A   1     -26.232  -4.611  29.784  0.00  0.00    -0.000 C 
ATOM     38  C   UNL A   1     -26.155  -3.232  30.065  0.00  0.00    -0.003 C 
ENDBRANCH   1  33
BRANCH  15  39
ATOM     39  C   UNL A   1     -25.680   3.192  31.352  0.00  0.00    +0.116 C 
BRANCH  39  42
ATOM     40  O   UNL A   1     -23.703   4.054  32.329  0.00  0.00    -0.246 OA
ATOM     41  O   UNL A   1     -24.822   5.221  30.822  0.00  0.00    -0.246 OA
ATOM     42  C   UNL A   1     -24.648   4.224  31.559  0.00  0.00    +0.365 C 
ENDBRANCH  39  42
ENDBRANCH  15  39
TORSDOF 8
