REMARK  Name = outputs/IAG933/test6/raw/output_9882_IAG933_linker_design_.xyz
REMARK  11 active torsions:
REMARK  status: ('A' for Active; 'I' for Inactive)
REMARK    1  A    between atoms: C_1  and  C_2
REMARK    2  A    between atoms: C_1  and  C_8
REMARK    3  A    between atoms: C_1  and  N_34
REMARK    4  A    between atoms: C_13  and  C_30
REMARK    5  A    between atoms: C_14  and  C_15
REMARK    6  A    between atoms: C_21  and  O_22
REMARK    7  A    between atoms: O_22  and  C_23
REMARK    8  A    between atoms: C_23  and  C_24
REMARK    9  A    between atoms: C_33  and  C_39
REMARK   10  A    between atoms: O_35  and  C_37
REMARK   11  A    between atoms: O_35  and  C_40
REMARK                            x       y       z     vdW  Elec       q    Type
REMARK                         _______ _______ _______ _____ _____    ______ ____
ROOT
ATOM      1  C   UNL A   1     -20.944   0.465  28.508  0.00  0.00    +0.034 C 
ATOM      2  C   UNL A   1     -23.473   1.090  27.688  0.00  0.00    +0.051 A 
ATOM      3  C   UNL A   1     -24.859   1.120  27.546  0.00  0.00    +0.013 A 
ATOM      4  C   UNL A   1     -22.008  -0.195  29.084  0.00  0.00    +0.020 C 
ATOM      5  N   UNL A   1     -24.346  -0.205  29.273  0.00  0.00    -0.318 N 
ATOM      6  F   UNL A   1     -20.166   2.522  27.536  0.00  0.00    -0.201 F 
ATOM      7  C   UNL A   1     -25.421   0.364  28.523  0.00  0.00    +0.100 A 
ATOM      8  C   UNL A   1     -22.388   1.778  27.111  0.00  0.00    +0.170 C 
ATOM      9  C   UNL A   1     -23.267   0.196  28.735  0.00  0.00    +0.063 A 
ATOM     10  C   UNL A   1     -21.125   1.602  27.693  0.00  0.00    +0.174 C 
ENDROOT
BRANCH   3  11
ATOM     11  C   UNL A   1     -25.688   1.614  26.461  0.00  0.00    +0.095 C 
ATOM     12  C   UNL A   1     -26.250   2.920  26.395  0.00  0.00    +0.059 C 
ATOM     13  C   UNL A   1     -27.438   3.091  25.645  0.00  0.00    +0.102 C 
ATOM     14  N   UNL A   1     -28.075   2.089  25.003  0.00  0.00    -0.212 NA
ATOM     15  C   UNL A   1     -27.543   0.849  25.079  0.00  0.00    +0.234 C 
ATOM     16  C   UNL A   1     -26.354   0.576  25.777  0.00  0.00    +0.244 C 
ATOM     17  F   UNL A   1     -25.860  -0.681  25.795  0.00  0.00    -0.227 F 
BRANCH  12  18
ATOM     18  C   UNL A   1     -25.642   4.093  27.123  0.00  0.00    +0.263 C 
ATOM     19  N   UNL A   1     -25.614   5.252  26.449  0.00  0.00    -0.200 NA
ATOM     20  C   UNL A   1     -25.026   6.479  26.963  0.00  0.00    +0.139 C 
ATOM     21  O   UNL A   1     -25.143   3.966  28.243  0.00  0.00    -0.269 OA
ENDBRANCH  12  18
BRANCH  15  22
ATOM     22  O   UNL A   1     -28.193  -0.208  24.477  0.00  0.00    -0.459 OA
BRANCH  22  23
ATOM     23  C   UNL A   1     -29.460   0.005  23.866  0.00  0.00    +0.242 C 
BRANCH  23  24
ATOM     24  C   UNL A   1     -30.065  -1.377  23.573  0.00  0.00    +0.229 C 
ATOM     25  O   UNL A   1     -30.729  -1.878  24.721  0.00  0.00    -0.216 OA
ENDBRANCH  23  24
ENDBRANCH  22  23
ENDBRANCH  15  22
ENDBRANCH   3  11
BRANCH   7  26
ATOM     26  C   UNL A   1     -26.928   0.434  28.816  0.00  0.00    -0.034 C 
ATOM     27  C   UNL A   1     -28.120   0.524  28.940  0.00  0.00    -0.008 C 
ENDBRANCH   7  26
BRANCH   5  28
ATOM     28  C   UNL A   1     -24.855  -1.012  30.143  0.00  0.00    +0.124 C 
BRANCH  28  29
ATOM     29  C   UNL A   1     -24.973  -2.505  29.788  0.00  0.00    -0.000 C 
ATOM     30  C   UNL A   1     -23.906  -3.173  29.146  0.00  0.00    -0.002 C 
ATOM     31  C   UNL A   1     -23.989  -4.549  28.853  0.00  0.00    -0.000 C 
ATOM     32  C   UNL A   1     -25.137  -5.280  29.205  0.00  0.00    -0.000 C 
ATOM     33  C   UNL A   1     -26.232  -4.611  29.784  0.00  0.00    -0.000 C 
ATOM     34  C   UNL A   1     -26.155  -3.232  30.065  0.00  0.00    -0.002 C 
ENDBRANCH  28  29
BRANCH  28  35
ATOM     35  C   UNL A   1     -25.387  -0.679  31.571  0.00  0.00    +0.098 C 
ATOM     36  C   UNL A   1     -25.189   0.773  32.028  0.00  0.00    +0.021 C 
ATOM     37  C   UNL A   1     -25.336   0.684  33.544  0.00  0.00    +0.020 C 
ATOM     38  C   UNL A   1     -24.829  -0.715  33.905  0.00  0.00    +0.089 C 
ATOM     39  N   UNL A   1     -24.758  -1.481  32.646  0.00  0.00    -0.217 NA
ENDBRANCH  28  35
ENDBRANCH   5  28
BRANCH   8  40
ATOM     40  O   UNL A   1     -22.450   2.662  26.039  0.00  0.00    -0.442 OA
BRANCH  40  42
ATOM     41  F   UNL A   1     -23.240   1.136  24.408  0.00  0.00    -0.181 F 
ATOM     42  C   UNL A   1     -22.968   2.328  24.902  0.00  0.00    +0.403 C 
ENDBRANCH  40  42
ENDBRANCH   8  40
TORSDOF 11
