REMARK  Name = outputs/IAG933/test6/raw/output_9886_IAG933_linker_design_.xyz
REMARK  15 active torsions:
REMARK  status: ('A' for Active; 'I' for Inactive)
REMARK    1  A    between atoms: C_1  and  C_2
REMARK    2  A    between atoms: C_1  and  C_8
REMARK    3  A    between atoms: C_9  and  C_45
REMARK    4  A    between atoms: C_13  and  N_30
REMARK    5  A    between atoms: C_14  and  C_15
REMARK    6  A    between atoms: C_21  and  O_22
REMARK    7  A    between atoms: O_22  and  C_23
REMARK    8  A    between atoms: C_23  and  C_24
REMARK    9  A    between atoms: C_28  and  C_36
REMARK   10  A    between atoms: C_29  and  C_36
REMARK   11  A    between atoms: C_29  and  C_39
REMARK   12  A    between atoms: C_36  and  C_40
REMARK   13  A    between atoms: C_39  and  N_42
REMARK   14  A    between atoms: C_41  and  C_45
REMARK   15  A    between atoms: N_43  and  C_45
REMARK                            x       y       z     vdW  Elec       q    Type
REMARK                         _______ _______ _______ _____ _____    ______ ____
ROOT
ATOM      1  C   UNL A   1     -25.587   1.590  30.759  0.00  0.00    +0.248 C 
ENDROOT
BRANCH   1   6
ATOM      2  N   UNL A   1     -24.423   1.558  26.984  0.00  0.00    -0.169 N 
ATOM      3  C   UNL A   1     -22.043   1.603  27.022  0.00  0.00    +0.260 C 
ATOM      4  C   UNL A   1     -23.295   1.935  26.120  0.00  0.00    +0.219 C 
ATOM      5  N   UNL A   1     -22.650   1.310  28.338  0.00  0.00    -0.095 NA
ATOM      6  N   UNL A   1     -24.966   1.356  29.399  0.00  0.00    -0.060 NA
ATOM      7  C   UNL A   1     -24.089   1.358  28.389  0.00  0.00    +0.408 C 
BRANCH   2   8
ATOM      8  C   UNL A   1     -25.688   1.614  26.461  0.00  0.00    +0.150 C 
ATOM      9  C   UNL A   1     -26.250   2.920  26.395  0.00  0.00    +0.105 C 
ATOM     10  C   UNL A   1     -27.438   3.091  25.645  0.00  0.00    +0.109 C 
ATOM     11  N   UNL A   1     -28.075   2.089  25.003  0.00  0.00    -0.208 NA
ATOM     12  C   UNL A   1     -27.543   0.849  25.079  0.00  0.00    +0.256 C 
ATOM     13  C   UNL A   1     -26.354   0.576  25.777  0.00  0.00    +0.222 C 
ATOM     14  F   UNL A   1     -25.860  -0.681  25.795  0.00  0.00    -0.196 F 
BRANCH   9  15
ATOM     15  C   UNL A   1     -25.642   4.093  27.123  0.00  0.00    +0.269 C 
ATOM     16  N   UNL A   1     -25.614   5.252  26.449  0.00  0.00    -0.200 NA
ATOM     17  C   UNL A   1     -25.026   6.479  26.963  0.00  0.00    +0.139 C 
ATOM     18  O   UNL A   1     -25.143   3.966  28.243  0.00  0.00    -0.268 OA
ENDBRANCH   9  15
BRANCH  12  19
ATOM     19  O   UNL A   1     -28.193  -0.208  24.477  0.00  0.00    -0.456 OA
BRANCH  19  20
ATOM     20  C   UNL A   1     -29.460   0.005  23.866  0.00  0.00    +0.243 C 
BRANCH  20  21
ATOM     21  C   UNL A   1     -30.065  -1.377  23.573  0.00  0.00    +0.229 C 
ATOM     22  O   UNL A   1     -30.729  -1.878  24.721  0.00  0.00    -0.216 OA
ENDBRANCH  20  21
ENDBRANCH  19  20
ENDBRANCH  12  19
ENDBRANCH   2   8
ENDBRANCH   1   6
BRANCH   1  24
ATOM     23  C   UNL A   1     -25.387  -0.679  31.571  0.00  0.00    +0.081 C 
ATOM     24  C   UNL A   1     -25.189   0.773  32.028  0.00  0.00    +0.064 C 
ATOM     25  C   UNL A   1     -25.336   0.684  33.544  0.00  0.00    +0.024 C 
ATOM     26  C   UNL A   1     -24.829  -0.715  33.905  0.00  0.00    +0.089 C 
ATOM     27  N   UNL A   1     -24.758  -1.481  32.646  0.00  0.00    -0.219 NA
BRANCH  23  28
ATOM     28  C   UNL A   1     -24.855  -1.012  30.143  0.00  0.00    +0.044 C 
BRANCH  28  29
ATOM     29  C   UNL A   1     -24.973  -2.505  29.788  0.00  0.00    -0.021 C 
ATOM     30  C   UNL A   1     -23.906  -3.173  29.146  0.00  0.00    -0.004 C 
ATOM     31  C   UNL A   1     -23.989  -4.549  28.853  0.00  0.00    -0.000 C 
ATOM     32  C   UNL A   1     -25.137  -5.280  29.205  0.00  0.00    -0.000 C 
ATOM     33  C   UNL A   1     -26.232  -4.611  29.784  0.00  0.00    -0.000 C 
ATOM     34  C   UNL A   1     -26.155  -3.232  30.065  0.00  0.00    -0.004 C 
ENDBRANCH  28  29
ENDBRANCH  23  28
ENDBRANCH   1  24
BRANCH   1  36
ATOM     35  O   UNL A   1     -24.482   3.428  30.892  0.00  0.00    -0.270 OA
ATOM     36  C   UNL A   1     -25.517   3.091  31.246  0.00  0.00    +0.279 C 
ATOM     37  N   UNL A   1     -26.501   3.547  32.019  0.00  0.00    -0.200 NA
BRANCH  37  38
ATOM     38  C   UNL A   1     -26.903   4.755  31.863  0.00  0.00    +0.149 C 
BRANCH  38  39
ATOM     39  C   UNL A   1     -25.604   5.573  31.847  0.00  0.00    +0.187 C 
ATOM     40  O   UNL A   1     -25.984   6.918  31.921  0.00  0.00    -0.221 OA
BRANCH  39  41
ATOM     41  C   UNL A   1     -24.840   5.184  33.148  0.00  0.00    +0.168 C 
BRANCH  41  44
ATOM     42  O   UNL A   1     -25.839   6.439  34.937  0.00  0.00    -0.245 OA
ATOM     43  O   UNL A   1     -26.503   4.403  34.778  0.00  0.00    -0.245 OA
ATOM     44  C   UNL A   1     -25.805   5.346  34.387  0.00  0.00    +0.369 C 
ENDBRANCH  41  44
BRANCH  41  45
ATOM     45  C   UNL A   1     -23.382   5.786  33.029  0.00  0.00    +0.196 C 
ATOM     46  O   UNL A   1     -22.471   4.782  32.592  0.00  0.00    -0.220 OA
ENDBRANCH  41  45
ENDBRANCH  39  41
ENDBRANCH  38  39
ENDBRANCH  37  38
ENDBRANCH   1  36
TORSDOF 15
