REMARK  Name = outputs/IAG933/test6/raw/output_9888_IAG933_linker_design_.xyz
REMARK  18 active torsions:
REMARK  status: ('A' for Active; 'I' for Inactive)
REMARK    1  A    between atoms: C_1  and  C_2
REMARK    2  A    between atoms: C_1  and  C_8
REMARK    3  A    between atoms: C_1  and  N_31
REMARK    4  A    between atoms: C_13  and  C_30
REMARK    5  A    between atoms: C_14  and  C_15
REMARK    6  A    between atoms: C_21  and  O_22
REMARK    7  A    between atoms: O_22  and  C_23
REMARK    8  A    between atoms: C_23  and  C_24
REMARK    9  A    between atoms: N_28  and  N_31
REMARK   10  A    between atoms: N_28  and  N_36
REMARK   11  A    between atoms: N_31  and  C_35
REMARK   12  A    between atoms: C_32  and  C_39
REMARK   13  A    between atoms: C_32  and  O_45
REMARK   14  A    between atoms: C_34  and  C_41
REMARK   15  A    between atoms: C_35  and  C_43
REMARK   16  A    between atoms: C_38  and  C_44
REMARK   17  A    between atoms: C_39  and  C_44
REMARK   18  A    between atoms: C_43  and  O_45
REMARK                            x       y       z     vdW  Elec       q    Type
REMARK                         _______ _______ _______ _____ _____    ______ ____
ROOT
ATOM      1  C   UNL A   1     -24.251   1.390  26.906  0.00  0.00    +0.083 C 
ATOM      2  C   UNL A   1     -23.455   1.482  25.649  0.00  0.00    +0.018 C 
ATOM      3  N   UNL A   1     -23.905   1.368  28.131  0.00  0.00    -0.189 NA
ATOM      4  C   UNL A   1     -22.012   2.064  25.765  0.00  0.00    +0.003 C 
ATOM      5  C   UNL A   1     -22.484   1.860  28.186  0.00  0.00    +0.108 C 
ATOM      6  C   UNL A   1     -21.589   1.504  27.182  0.00  0.00    +0.020 C 
ENDROOT
BRANCH   1   7
ATOM      7  C   UNL A   1     -25.688   1.614  26.461  0.00  0.00    +0.086 C 
ATOM      8  C   UNL A   1     -26.250   2.920  26.395  0.00  0.00    +0.056 C 
ATOM      9  C   UNL A   1     -27.438   3.091  25.645  0.00  0.00    +0.102 C 
ATOM     10  N   UNL A   1     -28.075   2.089  25.003  0.00  0.00    -0.212 NA
ATOM     11  C   UNL A   1     -27.543   0.849  25.079  0.00  0.00    +0.234 C 
ATOM     12  C   UNL A   1     -26.354   0.576  25.777  0.00  0.00    +0.241 C 
ATOM     13  F   UNL A   1     -25.860  -0.681  25.795  0.00  0.00    -0.227 F 
BRANCH   8  14
ATOM     14  C   UNL A   1     -25.642   4.093  27.123  0.00  0.00    +0.263 C 
ATOM     15  N   UNL A   1     -25.614   5.252  26.449  0.00  0.00    -0.200 NA
ATOM     16  C   UNL A   1     -25.026   6.479  26.963  0.00  0.00    +0.139 C 
ATOM     17  O   UNL A   1     -25.143   3.966  28.243  0.00  0.00    -0.269 OA
ENDBRANCH   8  14
BRANCH  11  18
ATOM     18  O   UNL A   1     -28.193  -0.208  24.477  0.00  0.00    -0.459 OA
BRANCH  18  19
ATOM     19  C   UNL A   1     -29.460   0.005  23.866  0.00  0.00    +0.242 C 
BRANCH  19  20
ATOM     20  C   UNL A   1     -30.065  -1.377  23.573  0.00  0.00    +0.229 C 
ATOM     21  O   UNL A   1     -30.729  -1.878  24.721  0.00  0.00    -0.216 OA
ENDBRANCH  19  20
ENDBRANCH  18  19
ENDBRANCH  11  18
ENDBRANCH   1   7
BRANCH   5  22
ATOM     22  C   UNL A   1     -22.062   0.781  29.194  0.00  0.00    +0.199 C 
ATOM     23  O   UNL A   1     -22.372  -0.354  28.745  0.00  0.00    -0.219 OA
ENDBRANCH   5  22
BRANCH   3  24
ATOM     24  N   UNL A   1     -24.953   1.305  29.117  0.00  0.00    -0.069 NA
BRANCH  24  25
ATOM     25  N   UNL A   1     -25.475  -0.038  29.183  0.00  0.00    -0.182 NA
BRANCH  25  26
ATOM     26  C   UNL A   1     -24.855  -1.012  30.143  0.00  0.00    +0.114 C 
BRANCH  26  27
ATOM     27  C   UNL A   1     -24.973  -2.505  29.788  0.00  0.00    -0.005 C 
ATOM     28  C   UNL A   1     -23.906  -3.173  29.146  0.00  0.00    -0.003 C 
ATOM     29  C   UNL A   1     -23.989  -4.549  28.853  0.00  0.00    -0.000 C 
ATOM     30  C   UNL A   1     -25.137  -5.280  29.205  0.00  0.00    -0.000 C 
ATOM     31  C   UNL A   1     -26.232  -4.611  29.784  0.00  0.00    -0.000 C 
ATOM     32  C   UNL A   1     -26.155  -3.232  30.065  0.00  0.00    -0.003 C 
ENDBRANCH  26  27
BRANCH  26  33
ATOM     33  C   UNL A   1     -25.387  -0.679  31.571  0.00  0.00    +0.093 C 
ATOM     34  C   UNL A   1     -25.189   0.773  32.028  0.00  0.00    +0.021 C 
ATOM     35  C   UNL A   1     -25.336   0.684  33.544  0.00  0.00    +0.020 C 
ATOM     36  C   UNL A   1     -24.829  -0.715  33.905  0.00  0.00    +0.089 C 
ATOM     37  N   UNL A   1     -24.758  -1.481  32.646  0.00  0.00    -0.218 NA
ENDBRANCH  26  33
ENDBRANCH  25  26
BRANCH  25  38
ATOM     38  C   UNL A   1     -26.823  -0.333  28.556  0.00  0.00    +0.124 C 
BRANCH  38  39
ATOM     39  C   UNL A   1     -27.967   0.562  28.996  0.00  0.00    +0.161 C 
BRANCH  39  40
ATOM     40  O   UNL A   1     -29.190  -0.011  28.502  0.00  0.00    -0.352 OA
BRANCH  40  41
ATOM     41  C   UNL A   1     -29.962  -1.016  29.241  0.00  0.00    +0.142 C 
BRANCH  41  42
ATOM     42  C   UNL A   1     -31.363  -1.297  28.615  0.00  0.00    +0.034 C 
BRANCH  42  43
ATOM     43  C   UNL A   1     -31.919  -0.135  27.761  0.00  0.00    +0.023 C 
BRANCH  43  45
ATOM     44  N   UNL A   1     -33.977   0.667  28.703  0.00  0.00    -0.131 NA
ATOM     45  C   UNL A   1     -33.473  -0.160  27.582  0.00  0.00    +0.109 C 
ENDBRANCH  43  45
ENDBRANCH  42  43
ENDBRANCH  41  42
ENDBRANCH  40  41
ENDBRANCH  39  40
ENDBRANCH  38  39
ENDBRANCH  25  38
ENDBRANCH  24  25
ENDBRANCH   3  24
TORSDOF 18
