MODEL 988
MODEL 1
REMARK VINA RESULT:    -6.816      0.000      0.000
REMARK INTER + INTRA:         -12.403
REMARK INTER:                 -11.199
REMARK INTRA:                  -1.204
REMARK UNBOUND:                -1.204
REMARK  Name = No_988-gen_results/8p0m/2024-11-27-11-27-31/
REMARK  11 active torsions:
REMARK  status: ('A' for Active; 'I' for Inactive)
REMARK    1  A    between atoms: C_2  and  C_14
REMARK    2  A    between atoms: C_3  and  C_7
REMARK    3  A    between atoms: C_6  and  C_11
REMARK    4  A    between atoms: C_14  and  O_16
REMARK    5  A    between atoms: O_16  and  C_17
REMARK    6  A    between atoms: C_17  and  C_18
REMARK    7  A    between atoms: C_18  and  C_19
REMARK    8  A    between atoms: C_19  and  O_21
REMARK    9  A    between atoms: O_21  and  C_22
REMARK   10  A    between atoms: C_25  and  N_28
REMARK   11  A    between atoms: N_28  and  C_29
REMARK                            x       y       z     vdW  Elec       q    Type
REMARK                         _______ _______ _______ _____ _____    ______ ____
ROOT
ATOM      1  O   UNL A   1     -28.129 -17.845   8.027  0.00  0.00    -0.445 OA
ENDROOT
BRANCH   1   2
ATOM      2  C   UNL A   1     -28.480 -16.503   7.802  0.00  0.00    +0.341 C 
ATOM      3  O   UNL A   1     -28.071 -15.943   6.966  0.00  0.00    -0.245 OA
BRANCH   2   5
ATOM      4  C   UNL A   1     -30.611 -15.905   8.515  0.00  0.00    +0.010 A 
ATOM      5  C   UNL A   1     -29.618 -15.982   8.859  0.00  0.00    +0.076 A 
ATOM      6  C   UNL A   1     -31.571 -15.409   9.459  0.00  0.00    +0.072 A 
ATOM      7  C   UNL A   1     -31.288 -15.208  10.750  0.00  0.00    +0.010 A 
ATOM      8  C   UNL A   1     -29.090 -15.838  10.208  0.00  0.00    +0.013 A 
ATOM      9  C   UNL A   1     -29.971 -15.402  11.099  0.00  0.00    +0.080 A 
BRANCH   6  10
ATOM     10  C   UNL A   1     -33.002 -15.175   8.948  0.00  0.00    +0.419 C 
ATOM     11  F   UNL A   1     -33.400 -13.966   9.165  0.00  0.00    -0.166 F 
ATOM     12  F   UNL A   1     -33.916 -15.987   9.594  0.00  0.00    -0.166 F 
ATOM     13  F   UNL A   1     -33.141 -15.493   7.642  0.00  0.00    -0.166 F 
ENDBRANCH   6  10
BRANCH   9  14
ATOM     14  C   UNL A   1     -29.572 -15.203  12.523  0.00  0.00    +0.388 C 
ATOM     15  O   UNL A   1     -28.798 -15.947  13.049  0.00  0.00    -0.241 OA
ATOM     16  O   UNL A   1     -30.032 -14.119  13.067  0.00  0.00    -0.241 OA
ENDBRANCH   9  14
ENDBRANCH   2   5
ENDBRANCH   1   2
BRANCH   1  17
ATOM     17  C   UNL A   1     -27.701 -18.538   6.964  0.00  0.00    +0.221 C 
BRANCH  17  18
ATOM     18  C   UNL A   1     -26.956 -19.790   7.636  0.00  0.00    +0.157 C 
BRANCH  18  19
ATOM     19  C   UNL A   1     -25.541 -19.346   7.743  0.00  0.00    +0.321 C 
ATOM     20  O   UNL A   1     -24.954 -18.628   7.276  0.00  0.00    -0.250 OA
BRANCH  19  21
ATOM     21  O   UNL A   1     -25.023 -20.142   8.767  0.00  0.00    -0.447 OA
BRANCH  21  22
ATOM     22  C   UNL A   1     -23.782 -20.704   8.738  0.00  0.00    +0.233 C 
ATOM     23  C   UNL A   1     -23.572 -21.650   7.840  0.00  0.00    +0.190 C 
ATOM     24  O   UNL A   1     -22.444 -21.948   7.640  0.00  0.00    -0.332 OA
ATOM     25  C   UNL A   1     -21.531 -21.174   8.069  0.00  0.00    +0.227 C 
ATOM     26  C   UNL A   1     -22.354 -20.365   8.975  0.00  0.00    +0.240 C 
ATOM     27  O   UNL A   1     -22.087 -20.285  10.399  0.00  0.00    -0.215 OA
BRANCH  25  28
ATOM     28  N   UNL A   1     -20.703 -20.373   7.254  0.00  0.00    -0.281 N 
ATOM     29  C   UNL A   1     -21.067 -19.077   6.746  0.00  0.00    +0.115 C 
BRANCH  28  30
ATOM     30  C   UNL A   1     -19.490 -20.825   6.955  0.00  0.00    +0.059 C 
ATOM     31  C   UNL A   1     -18.517 -20.073   6.209  0.00  0.00    -0.010 C 
ATOM     32  C   UNL A   1     -17.218 -20.438   6.146  0.00  0.00    +0.032 C 
ENDBRANCH  28  30
ENDBRANCH  25  28
ENDBRANCH  21  22
ENDBRANCH  19  21
ENDBRANCH  18  19
ENDBRANCH  17  18
ENDBRANCH   1  17
TORSDOF 11
ENDMDL
ENDMDL
