REMARK  Name = No_989-gen_results/8p0m/2024-11-27-11-27-31/
REMARK  12 active torsions:
REMARK  status: ('A' for Active; 'I' for Inactive)
REMARK    1  A    between atoms: C_3  and  C_8
REMARK    2  A    between atoms: C_6  and  O_7
REMARK    3  A    between atoms: O_7  and  C_14
REMARK    4  A    between atoms: C_14  and  C_15
REMARK    5  A    between atoms: C_14  and  C_20
REMARK    6  A    between atoms: C_15  and  C_16
REMARK    7  A    between atoms: C_16  and  C_18
REMARK    8  A    between atoms: C_20  and  O_21
REMARK    9  A    between atoms: O_21  and  C_22
REMARK   10  A    between atoms: C_26  and  C_28
REMARK   11  A    between atoms: C_28  and  N_29
REMARK   12  A    between atoms: N_29  and  C_30
REMARK                            x       y       z     vdW  Elec       q    Type
REMARK                         _______ _______ _______ _____ _____    ______ ____
ROOT
ATOM      1  C   UNL A   1     -30.123  -2.134  30.587  0.00  0.00    +0.239 C 
ENDROOT
BRANCH   1   2
ATOM      2  C   UNL A   1     -30.576  -2.841  31.682  0.00  0.00    +0.198 C 
ATOM      3  O   UNL A   1     -31.147  -1.912  32.682  0.00  0.00    -0.219 OA
BRANCH   2   4
ATOM      4  C   UNL A   1     -29.787  -3.684  32.360  0.00  0.00    +0.072 C 
BRANCH   4   5
ATOM      5  C   UNL A   1     -30.433  -4.779  33.176  0.00  0.00    +0.185 C 
ATOM      6  O   UNL A   1     -29.756  -5.815  33.190  0.00  0.00    -0.220 OA
ENDBRANCH   4   5
ENDBRANCH   2   4
ENDBRANCH   1   2
BRANCH   1   7
ATOM      7  O   UNL A   1     -29.000  -2.701  30.115  0.00  0.00    -0.473 OA
BRANCH   7  13
ATOM      8  C   UNL A   1     -28.016  -0.814  28.878  0.00  0.00    +0.037 A 
ATOM      9  C   UNL A   1     -27.064  -0.119  28.608  0.00  0.00    +0.003 A 
ATOM     10  C   UNL A   1     -25.792  -0.430  29.076  0.00  0.00    +0.000 A 
ATOM     11  C   UNL A   1     -25.576  -1.565  29.936  0.00  0.00    +0.003 A 
ATOM     12  C   UNL A   1     -26.735  -2.300  30.217  0.00  0.00    +0.037 A 
ATOM     13  C   UNL A   1     -27.918  -1.954  29.763  0.00  0.00    +0.139 A 
BRANCH  10  14
ATOM     14  C   UNL A   1     -24.529   0.349  28.800  0.00  0.00    +0.000 A 
ATOM     15  C   UNL A   1     -23.344   0.006  29.166  0.00  0.00    +0.000 A 
ATOM     16  C   UNL A   1     -22.177   0.679  28.801  0.00  0.00    +0.000 A 
ATOM     17  C   UNL A   1     -22.191   1.648  27.807  0.00  0.00    +0.000 A 
ATOM     18  C   UNL A   1     -24.618   1.351  27.731  0.00  0.00    +0.000 A 
ATOM     19  C   UNL A   1     -23.404   2.034  27.355  0.00  0.00    +0.000 A 
ENDBRANCH  10  14
ENDBRANCH   7  13
ENDBRANCH   1   7
BRANCH   1  20
ATOM     20  C   UNL A   1     -31.101  -1.921  29.501  0.00  0.00    +0.251 C 
BRANCH  20  21
ATOM     21  O   UNL A   1     -31.203  -0.767  29.012  0.00  0.00    -0.471 OA
BRANCH  21  22
ATOM     22  C   UNL A   1     -31.850   0.200  29.492  0.00  0.00    +0.139 A 
ATOM     23  C   UNL A   1     -32.215   1.086  28.600  0.00  0.00    +0.037 A 
ATOM     24  C   UNL A   1     -32.932   2.199  29.089  0.00  0.00    +0.003 A 
ATOM     25  C   UNL A   1     -33.167   2.208  30.452  0.00  0.00    -0.002 A 
ATOM     26  C   UNL A   1     -32.712   1.306  31.350  0.00  0.00    +0.002 A 
ATOM     27  C   UNL A   1     -32.016   0.303  30.883  0.00  0.00    +0.034 A 
BRANCH  26  28
ATOM     28  C   UNL A   1     -32.969   1.511  32.790  0.00  0.00    +0.139 C 
BRANCH  28  29
ATOM     29  N   UNL A   1     -32.017   1.779  33.562  0.00  0.00    -0.232 NA
BRANCH  29  30
ATOM     30  C   UNL A   1     -31.059   2.474  33.297  0.00  0.00    +0.081 C 
ATOM     31  C   UNL A   1     -29.936   2.614  34.248  0.00  0.00    +0.019 C 
ENDBRANCH  29  30
ENDBRANCH  28  29
ENDBRANCH  26  28
ENDBRANCH  21  22
ENDBRANCH  20  21
ENDBRANCH   1  20
TORSDOF 12
