REMARK  Name = outputs/IAG933/test6/raw/output_9891_IAG933_linker_design_.xyz
REMARK  10 active torsions:
REMARK  status: ('A' for Active; 'I' for Inactive)
REMARK    1  A    between atoms: C_1  and  C_2
REMARK    2  A    between atoms: C_1  and  C_8
REMARK    3  A    between atoms: C_1  and  C_39
REMARK    4  A    between atoms: C_13  and  N_38
REMARK    5  A    between atoms: C_14  and  C_15
REMARK    6  A    between atoms: C_21  and  O_22
REMARK    7  A    between atoms: O_22  and  C_23
REMARK    8  A    between atoms: C_23  and  C_24
REMARK    9  A    between atoms: C_39  and  C_40
REMARK   10  A    between atoms: C_39  and  C_42
REMARK                            x       y       z     vdW  Elec       q    Type
REMARK                         _______ _______ _______ _____ _____    ______ ____
ROOT
ATOM      1  O   UNL A   1     -22.144  -0.156  29.403  0.00  0.00    -0.218 OA
ATOM      2  C   UNL A   1     -22.016   1.623  27.541  0.00  0.00    +0.212 C 
ATOM      3  C   UNL A   1     -22.998   1.131  28.826  0.00  0.00    +0.204 C 
ATOM      4  F   UNL A   1     -20.846   1.674  27.595  0.00  0.00    -0.233 F 
ATOM      5  C   UNL A   1     -23.079   1.756  26.406  0.00  0.00    +0.129 C 
ATOM      6  N   UNL A   1     -24.248   1.404  27.003  0.00  0.00    -0.302 N 
ATOM      7  C   UNL A   1     -24.124   0.789  28.310  0.00  0.00    +0.110 C 
ENDROOT
BRANCH   6   8
ATOM      8  C   UNL A   1     -25.688   1.614  26.461  0.00  0.00    +0.086 C 
ATOM      9  C   UNL A   1     -26.250   2.920  26.395  0.00  0.00    +0.090 C 
ATOM     10  C   UNL A   1     -27.438   3.091  25.645  0.00  0.00    +0.108 C 
ATOM     11  N   UNL A   1     -28.075   2.089  25.003  0.00  0.00    -0.208 NA
ATOM     12  C   UNL A   1     -27.543   0.849  25.079  0.00  0.00    +0.255 C 
ATOM     13  C   UNL A   1     -26.354   0.576  25.777  0.00  0.00    +0.206 C 
ATOM     14  F   UNL A   1     -25.860  -0.681  25.795  0.00  0.00    -0.198 F 
BRANCH   9  15
ATOM     15  C   UNL A   1     -25.642   4.093  27.123  0.00  0.00    +0.268 C 
ATOM     16  N   UNL A   1     -25.614   5.252  26.449  0.00  0.00    -0.200 NA
ATOM     17  C   UNL A   1     -25.026   6.479  26.963  0.00  0.00    +0.139 C 
ATOM     18  O   UNL A   1     -25.143   3.966  28.243  0.00  0.00    -0.268 OA
ENDBRANCH   9  15
BRANCH  12  19
ATOM     19  O   UNL A   1     -28.193  -0.208  24.477  0.00  0.00    -0.456 OA
BRANCH  19  20
ATOM     20  C   UNL A   1     -29.460   0.005  23.866  0.00  0.00    +0.243 C 
BRANCH  20  21
ATOM     21  C   UNL A   1     -30.065  -1.377  23.573  0.00  0.00    +0.229 C 
ATOM     22  O   UNL A   1     -30.729  -1.878  24.721  0.00  0.00    -0.216 OA
ENDBRANCH  20  21
ENDBRANCH  19  20
ENDBRANCH  12  19
ENDBRANCH   6   8
BRANCH   7  23
ATOM     23  C   UNL A   1     -25.188  -0.114  28.829  0.00  0.00    +0.048 C 
BRANCH  23  29
ATOM     24  C   UNL A   1     -26.771   1.872  29.411  0.00  0.00    -0.004 C 
ATOM     25 BR   UNL A   1     -30.368  -0.753  29.833  0.00  0.00    -0.049 Br
ATOM     26  C   UNL A   1     -28.919   0.190  29.471  0.00  0.00    +0.034 C 
ATOM     27  C   UNL A   1     -28.042   2.348  29.736  0.00  0.00    +0.000 C 
ATOM     28  C   UNL A   1     -29.148   1.543  29.672  0.00  0.00    +0.007 C 
ATOM     29  C   UNL A   1     -26.583   0.527  29.120  0.00  0.00    -0.020 C 
ATOM     30  C   UNL A   1     -27.671  -0.354  29.098  0.00  0.00    +0.003 C 
ENDBRANCH  23  29
BRANCH  23  31
ATOM     31  C   UNL A   1     -24.855  -1.012  30.143  0.00  0.00    +0.044 C 
BRANCH  31  32
ATOM     32  C   UNL A   1     -24.973  -2.505  29.788  0.00  0.00    -0.021 C 
ATOM     33  C   UNL A   1     -23.906  -3.173  29.146  0.00  0.00    -0.004 C 
ATOM     34  C   UNL A   1     -23.989  -4.549  28.853  0.00  0.00    -0.000 C 
ATOM     35  C   UNL A   1     -25.137  -5.280  29.205  0.00  0.00    -0.000 C 
ATOM     36  C   UNL A   1     -26.232  -4.611  29.784  0.00  0.00    -0.000 C 
ATOM     37  C   UNL A   1     -26.155  -3.232  30.065  0.00  0.00    -0.004 C 
ENDBRANCH  31  32
BRANCH  31  38
ATOM     38  C   UNL A   1     -25.387  -0.679  31.571  0.00  0.00    +0.077 C 
ATOM     39  C   UNL A   1     -25.189   0.773  32.028  0.00  0.00    +0.019 C 
ATOM     40  C   UNL A   1     -25.336   0.684  33.544  0.00  0.00    +0.020 C 
ATOM     41  C   UNL A   1     -24.829  -0.715  33.905  0.00  0.00    +0.089 C 
ATOM     42  N   UNL A   1     -24.758  -1.481  32.646  0.00  0.00    -0.219 NA
ENDBRANCH  31  38
ENDBRANCH  23  31
ENDBRANCH   7  23
TORSDOF 10
