REMARK  Name = outputs/IAG933/test6/raw/output_9893_IAG933_linker_design_.xyz
REMARK  14 active torsions:
REMARK  status: ('A' for Active; 'I' for Inactive)
REMARK    1  A    between atoms: C_1  and  C_2
REMARK    2  A    between atoms: C_1  and  C_8
REMARK    3  A    between atoms: C_1  and  C_40
REMARK    4  A    between atoms: C_13  and  C_32
REMARK    5  A    between atoms: C_14  and  C_15
REMARK    6  A    between atoms: C_21  and  O_22
REMARK    7  A    between atoms: O_22  and  C_23
REMARK    8  A    between atoms: C_23  and  C_24
REMARK    9  A    between atoms: O_30  and  C_39
REMARK   10  A    between atoms: O_30  and  C_40
REMARK   11  A    between atoms: C_33  and  C_36
REMARK   12  A    between atoms: C_33  and  C_40
REMARK   13  A    between atoms: O_37  and  C_42
REMARK   14  A    between atoms: C_39  and  C_43
REMARK                            x       y       z     vdW  Elec       q    Type
REMARK                         _______ _______ _______ _____ _____    ______ ____
ROOT
ATOM      1  C   UNL A   1     -25.090   0.380  29.444  0.00  0.00    +0.141 C 
ENDROOT
BRANCH   1   4
ATOM      2  S   UNL A   1     -23.054   1.947  25.808  0.00  0.00    -0.055 S 
ATOM      3  C   UNL A   1     -24.310   1.418  26.869  0.00  0.00    +0.017 C 
ATOM      4  C   UNL A   1     -23.917   0.795  28.237  0.00  0.00    +0.015 C 
BRANCH   3   5
ATOM      5  C   UNL A   1     -25.688   1.614  26.461  0.00  0.00    +0.098 C 
ATOM      6  C   UNL A   1     -26.250   2.920  26.395  0.00  0.00    +0.059 C 
ATOM      7  C   UNL A   1     -27.438   3.091  25.645  0.00  0.00    +0.102 C 
ATOM      8  N   UNL A   1     -28.075   2.089  25.003  0.00  0.00    -0.212 NA
ATOM      9  C   UNL A   1     -27.543   0.849  25.079  0.00  0.00    +0.234 C 
ATOM     10  C   UNL A   1     -26.354   0.576  25.777  0.00  0.00    +0.244 C 
ATOM     11  F   UNL A   1     -25.860  -0.681  25.795  0.00  0.00    -0.227 F 
BRANCH   6  12
ATOM     12  C   UNL A   1     -25.642   4.093  27.123  0.00  0.00    +0.263 C 
ATOM     13  N   UNL A   1     -25.614   5.252  26.449  0.00  0.00    -0.200 NA
ATOM     14  C   UNL A   1     -25.026   6.479  26.963  0.00  0.00    +0.139 C 
ATOM     15  O   UNL A   1     -25.143   3.966  28.243  0.00  0.00    -0.269 OA
ENDBRANCH   6  12
BRANCH   9  16
ATOM     16  O   UNL A   1     -28.193  -0.208  24.477  0.00  0.00    -0.459 OA
BRANCH  16  17
ATOM     17  C   UNL A   1     -29.460   0.005  23.866  0.00  0.00    +0.242 C 
BRANCH  17  18
ATOM     18  C   UNL A   1     -30.065  -1.377  23.573  0.00  0.00    +0.229 C 
ATOM     19  O   UNL A   1     -30.729  -1.878  24.721  0.00  0.00    -0.216 OA
ENDBRANCH  17  18
ENDBRANCH  16  17
ENDBRANCH   9  16
ENDBRANCH   3   5
BRANCH   4  20
ATOM     20  C   UNL A   1     -22.373   0.916  28.527  0.00  0.00    +0.173 C 
ATOM     21  O   UNL A   1     -22.209   0.141  29.619  0.00  0.00    -0.219 OA
ATOM     22  C   UNL A   1     -21.180   1.393  27.691  0.00  0.00    +0.040 C 
ENDBRANCH   4  20
ENDBRANCH   1   4
BRANCH   1  23
ATOM     23  C   UNL A   1     -24.855  -1.012  30.143  0.00  0.00    +0.070 C 
BRANCH  23  24
ATOM     24  C   UNL A   1     -24.973  -2.505  29.788  0.00  0.00    -0.018 C 
ATOM     25  C   UNL A   1     -23.906  -3.173  29.146  0.00  0.00    -0.004 C 
ATOM     26  C   UNL A   1     -23.989  -4.549  28.853  0.00  0.00    -0.000 C 
ATOM     27  C   UNL A   1     -25.137  -5.280  29.205  0.00  0.00    -0.000 C 
ATOM     28  C   UNL A   1     -26.232  -4.611  29.784  0.00  0.00    -0.000 C 
ATOM     29  C   UNL A   1     -26.155  -3.232  30.065  0.00  0.00    -0.004 C 
ENDBRANCH  23  24
BRANCH  23  30
ATOM     30  C   UNL A   1     -25.387  -0.679  31.571  0.00  0.00    +0.080 C 
ATOM     31  C   UNL A   1     -25.189   0.773  32.028  0.00  0.00    +0.019 C 
ATOM     32  C   UNL A   1     -25.336   0.684  33.544  0.00  0.00    +0.020 C 
ATOM     33  C   UNL A   1     -24.829  -0.715  33.905  0.00  0.00    +0.089 C 
ATOM     34  N   UNL A   1     -24.758  -1.481  32.646  0.00  0.00    -0.219 NA
ENDBRANCH  23  30
ENDBRANCH   1  23
BRANCH   1  35
ATOM     35  O   UNL A   1     -26.612   0.737  29.290  0.00  0.00    -0.349 OA
BRANCH  35  36
ATOM     36  C   UNL A   1     -27.844  -0.235  28.933  0.00  0.00    +0.175 C 
BRANCH  36  43
ATOM     37  C   UNL A   1     -31.644   1.837  29.646  0.00  0.00    +0.064 C 
ATOM     38  C   UNL A   1     -30.206   2.423  29.980  0.00  0.00    +0.145 C 
ATOM     39  O   UNL A   1     -29.993  -0.580  27.102  0.00  0.00    -0.218 OA
ATOM     40  O   UNL A   1     -29.221   1.383  30.251  0.00  0.00    -0.351 OA
ATOM     41  C   UNL A   1     -30.142   0.487  28.161  0.00  0.00    +0.208 C 
ATOM     42  C   UNL A   1     -31.547   0.609  28.688  0.00  0.00    +0.151 C 
ATOM     43  C   UNL A   1     -29.208   0.272  29.423  0.00  0.00    +0.177 C 
BRANCH  42  44
ATOM     44  O   UNL A   1     -32.449   0.782  27.564  0.00  0.00    -0.351 OA
ATOM     45  C   UNL A   1     -33.686   1.571  27.741  0.00  0.00    +0.174 C 
ENDBRANCH  42  44
ENDBRANCH  36  43
ENDBRANCH  35  36
ENDBRANCH   1  35
TORSDOF 14
