REMARK  Name = outputs/IAG933/test6/raw/output_9895_IAG933_linker_design_.xyz
REMARK  14 active torsions:
REMARK  status: ('A' for Active; 'I' for Inactive)
REMARK    1  A    between atoms: C_1  and  C_2
REMARK    2  A    between atoms: C_1  and  C_8
REMARK    3  A    between atoms: C_1  and  N_28
REMARK    4  A    between atoms: C_13  and  N_29
REMARK    5  A    between atoms: C_14  and  C_15
REMARK    6  A    between atoms: C_21  and  O_22
REMARK    7  A    between atoms: O_22  and  C_23
REMARK    8  A    between atoms: C_23  and  C_24
REMARK    9  A    between atoms: N_28  and  C_32
REMARK   10  A    between atoms: N_29  and  C_31
REMARK   11  A    between atoms: C_31  and  C_32
REMARK   12  A    between atoms: C_32  and  C_36
REMARK   13  A    between atoms: C_38  and  N_39
REMARK   14  A    between atoms: C_38  and  O_42
REMARK                            x       y       z     vdW  Elec       q    Type
REMARK                         _______ _______ _______ _____ _____    ______ ____
ROOT
ATOM      1  C   UNL A   1     -23.659   0.206  28.550  0.00  0.00    +0.152 C 
ENDROOT
BRANCH   1   2
ATOM      2  N   UNL A   1     -25.022  -0.076  29.097  0.00  0.00    -0.253 N 
ATOM      3  O   UNL A   1     -27.100  -0.483  28.436  0.00  0.00    -0.251 OA
ATOM      4  N   UNL A   1     -26.753   1.479  29.224  0.00  0.00    -0.155 NA
ATOM      5  C   UNL A   1     -26.319   0.299  28.897  0.00  0.00    +0.326 C 
BRANCH   2   6
ATOM      6  C   UNL A   1     -24.855  -1.012  30.143  0.00  0.00    +0.116 C 
BRANCH   6   7
ATOM      7  C   UNL A   1     -24.973  -2.505  29.788  0.00  0.00    -0.003 C 
ATOM      8  C   UNL A   1     -23.906  -3.173  29.146  0.00  0.00    -0.003 C 
ATOM      9  C   UNL A   1     -23.989  -4.549  28.853  0.00  0.00    -0.000 C 
ATOM     10  C   UNL A   1     -25.137  -5.280  29.205  0.00  0.00    -0.000 C 
ATOM     11  C   UNL A   1     -26.232  -4.611  29.784  0.00  0.00    -0.000 C 
ATOM     12  C   UNL A   1     -26.155  -3.232  30.065  0.00  0.00    -0.003 C 
ENDBRANCH   6   7
BRANCH   6  13
ATOM     13  C   UNL A   1     -25.387  -0.679  31.571  0.00  0.00    +0.095 C 
ATOM     14  C   UNL A   1     -25.189   0.773  32.028  0.00  0.00    +0.021 C 
ATOM     15  C   UNL A   1     -25.336   0.684  33.544  0.00  0.00    +0.020 C 
ATOM     16  C   UNL A   1     -24.829  -0.715  33.905  0.00  0.00    +0.089 C 
ATOM     17  N   UNL A   1     -24.758  -1.481  32.646  0.00  0.00    -0.217 NA
ENDBRANCH   6  13
ENDBRANCH   2   6
BRANCH   4  18
ATOM     18  C   UNL A   1     -27.437   2.535  29.466  0.00  0.00    +0.287 C 
BRANCH  18  20
ATOM     19  N   UNL A   1     -25.988   4.099  30.742  0.00  0.00    +0.044 NA
ATOM     20  O   UNL A   1     -26.990   3.517  30.248  0.00  0.00    -0.224 OA
ENDBRANCH  18  20
ENDBRANCH   4  18
ENDBRANCH   1   2
BRANCH   1  22
ATOM     21  C   UNL A   1     -22.271   1.586  26.815  0.00  0.00    +0.291 C 
ATOM     22  C   UNL A   1     -23.520   1.093  27.391  0.00  0.00    +0.124 C 
ATOM     23  F   UNL A   1     -21.148   1.470  27.430  0.00  0.00    -0.171 F 
ATOM     24  F   UNL A   1     -22.302   2.126  25.689  0.00  0.00    -0.171 F 
BRANCH  22  25
ATOM     25  N   UNL A   1     -24.566   1.364  26.921  0.00  0.00    -0.208 NA
BRANCH  25  26
ATOM     26  C   UNL A   1     -25.688   1.614  26.461  0.00  0.00    +0.108 C 
ATOM     27  C   UNL A   1     -26.250   2.920  26.395  0.00  0.00    +0.092 C 
ATOM     28  C   UNL A   1     -27.438   3.091  25.645  0.00  0.00    +0.108 C 
ATOM     29  N   UNL A   1     -28.075   2.089  25.003  0.00  0.00    -0.208 NA
ATOM     30  C   UNL A   1     -27.543   0.849  25.079  0.00  0.00    +0.255 C 
ATOM     31  C   UNL A   1     -26.354   0.576  25.777  0.00  0.00    +0.208 C 
ATOM     32  F   UNL A   1     -25.860  -0.681  25.795  0.00  0.00    -0.198 F 
BRANCH  27  33
ATOM     33  C   UNL A   1     -25.642   4.093  27.123  0.00  0.00    +0.268 C 
ATOM     34  N   UNL A   1     -25.614   5.252  26.449  0.00  0.00    -0.200 NA
ATOM     35  C   UNL A   1     -25.026   6.479  26.963  0.00  0.00    +0.139 C 
ATOM     36  O   UNL A   1     -25.143   3.966  28.243  0.00  0.00    -0.268 OA
ENDBRANCH  27  33
BRANCH  30  37
ATOM     37  O   UNL A   1     -28.193  -0.208  24.477  0.00  0.00    -0.456 OA
BRANCH  37  38
ATOM     38  C   UNL A   1     -29.460   0.005  23.866  0.00  0.00    +0.243 C 
BRANCH  38  39
ATOM     39  C   UNL A   1     -30.065  -1.377  23.573  0.00  0.00    +0.229 C 
ATOM     40  O   UNL A   1     -30.729  -1.878  24.721  0.00  0.00    -0.216 OA
ENDBRANCH  38  39
ENDBRANCH  37  38
ENDBRANCH  30  37
ENDBRANCH  25  26
ENDBRANCH  22  25
ENDBRANCH   1  22
BRANCH   1  41
ATOM     41  C   UNL A   1     -22.649   0.689  29.532  0.00  0.00    +0.208 C 
ATOM     42  O   UNL A   1     -22.771   2.061  29.738  0.00  0.00    -0.218 OA
ENDBRANCH   1  41
TORSDOF 14
