MODEL 989
MODEL 1
REMARK VINA RESULT:    -5.562      0.000      0.000
REMARK INTER + INTRA:         -13.106
REMARK INTER:                  -9.463
REMARK INTRA:                  -3.642
REMARK UNBOUND:                -3.642
REMARK  Name = No_989-gen_results/8p0m/2024-11-27-11-27-31/
REMARK  12 active torsions:
REMARK  status: ('A' for Active; 'I' for Inactive)
REMARK    1  A    between atoms: C_3  and  C_8
REMARK    2  A    between atoms: C_6  and  O_7
REMARK    3  A    between atoms: O_7  and  C_14
REMARK    4  A    between atoms: C_14  and  C_15
REMARK    5  A    between atoms: C_14  and  C_20
REMARK    6  A    between atoms: C_15  and  C_16
REMARK    7  A    between atoms: C_16  and  C_18
REMARK    8  A    between atoms: C_20  and  O_21
REMARK    9  A    between atoms: O_21  and  C_22
REMARK   10  A    between atoms: C_26  and  C_28
REMARK   11  A    between atoms: C_28  and  N_29
REMARK   12  A    between atoms: N_29  and  C_30
REMARK                            x       y       z     vdW  Elec       q    Type
REMARK                         _______ _______ _______ _____ _____    ______ ____
ROOT
ATOM      1  C   UNL A   1     -31.091 -13.302  24.177  0.00  0.00    +0.239 C 
ENDROOT
BRANCH   1   2
ATOM      2  C   UNL A   1     -30.811 -13.581  22.855  0.00  0.00    +0.198 C 
ATOM      3  O   UNL A   1     -30.412 -14.998  22.712  0.00  0.00    -0.219 OA
BRANCH   2   4
ATOM      4  C   UNL A   1     -29.923 -12.868  22.151  0.00  0.00    +0.072 C 
BRANCH   4   5
ATOM      5  C   UNL A   1     -30.372 -12.233  20.856  0.00  0.00    +0.185 C 
ATOM      6  O   UNL A   1     -29.849 -11.126  20.671  0.00  0.00    -0.220 OA
ENDBRANCH   4   5
ENDBRANCH   2   4
ENDBRANCH   1   2
BRANCH   1   7
ATOM      7  O   UNL A   1     -30.424 -12.200  24.559  0.00  0.00    -0.473 OA
BRANCH   7  13
ATOM      8  C   UNL A   1     -29.313 -12.830  26.663  0.00  0.00    +0.037 A 
ATOM      9  C   UNL A   1     -29.021 -12.583  27.810  0.00  0.00    +0.003 A 
ATOM     10  C   UNL A   1     -29.542 -11.469  28.459  0.00  0.00    +0.000 A 
ATOM     11  C   UNL A   1     -30.410 -10.549  27.771  0.00  0.00    +0.003 A 
ATOM     12  C   UNL A   1     -30.676 -10.898  26.441  0.00  0.00    +0.037 A 
ATOM     13  C   UNL A   1     -30.145 -11.953  25.868  0.00  0.00    +0.139 A 
BRANCH  10  14
ATOM     14  C   UNL A   1     -29.264 -11.062  29.886  0.00  0.00    +0.000 A 
ATOM     15  C   UNL A   1     -29.999 -10.281  30.597  0.00  0.00    +0.000 A 
ATOM     16  C   UNL A   1     -29.787 -10.010  31.950  0.00  0.00    +0.000 A 
ATOM     17  C   UNL A   1     -28.890 -10.760  32.698  0.00  0.00    +0.000 A 
ATOM     18  C   UNL A   1     -28.311 -11.907  30.616  0.00  0.00    +0.000 A 
ATOM     19  C   UNL A   1     -28.107 -11.624  32.016  0.00  0.00    +0.000 A 
ENDBRANCH  10  14
ENDBRANCH   7  13
ENDBRANCH   1   7
BRANCH   1  20
ATOM     20  C   UNL A   1     -32.522 -13.200  24.531  0.00  0.00    +0.251 C 
BRANCH  20  21
ATOM     21  O   UNL A   1     -32.980 -13.998  25.387  0.00  0.00    -0.471 OA
BRANCH  21  22
ATOM     22  C   UNL A   1     -32.894 -13.891  26.638  0.00  0.00    +0.139 A 
ATOM     23  C   UNL A   1     -33.517 -12.847  27.123  0.00  0.00    +0.037 A 
ATOM     24  C   UNL A   1     -33.439 -12.673  28.522  0.00  0.00    +0.003 A 
ATOM     25  C   UNL A   1     -32.720 -13.636  29.206  0.00  0.00    -0.002 A 
ATOM     26  C   UNL A   1     -32.033 -14.664  28.658  0.00  0.00    +0.002 A 
ATOM     27  C   UNL A   1     -32.085 -14.785  27.358  0.00  0.00    +0.034 A 
BRANCH  26  28
ATOM     28  C   UNL A   1     -31.232 -15.554  29.523  0.00  0.00    +0.139 C 
BRANCH  28  29
ATOM     29  N   UNL A   1     -30.170 -15.131  30.040  0.00  0.00    -0.232 NA
BRANCH  29  30
ATOM     30  C   UNL A   1     -29.841 -15.261  31.200  0.00  0.00    +0.081 C 
ATOM     31  C   UNL A   1     -30.505 -14.485  32.269  0.00  0.00    +0.019 C 
ENDBRANCH  29  30
ENDBRANCH  28  29
ENDBRANCH  26  28
ENDBRANCH  21  22
ENDBRANCH  20  21
ENDBRANCH   1  20
TORSDOF 12
ENDMDL
ENDMDL
