MODEL 98
MODEL 1
REMARK VINA RESULT:    -8.519      0.000      0.000
REMARK INTER + INTRA:         -14.461
REMARK INTER:                 -12.005
REMARK INTRA:                  -2.456
REMARK UNBOUND:                -2.456
REMARK  Name = No_98-gen_results/8p0m/2024-11-27-11-27-31/
REMARK  7 active torsions:
REMARK  status: ('A' for Active; 'I' for Inactive)
REMARK    1  A    between atoms: C_3  and  C_11
REMARK    2  A    between atoms: C_5  and  C_8
REMARK    3  A    between atoms: C_11  and  C_12
REMARK    4  A    between atoms: C_11  and  C_18
REMARK    5  A    between atoms: C_18  and  C_19
REMARK    6  A    between atoms: C_21  and  C_22
REMARK    7  A    between atoms: C_22  and  C_23
REMARK                            x       y       z     vdW  Elec       q    Type
REMARK                         _______ _______ _______ _____ _____    ______ ____
ROOT
ATOM      1  C   UNL A   1     -11.250   1.275  38.057  0.00  0.00    +0.050 C 
ENDROOT
BRANCH   1   4
ATOM      2 CL   UNL A   1     -13.361   3.110  38.959  0.00  0.00    -0.083 Cl
ATOM      3  C   UNL A   1     -13.144   2.650  37.610  0.00  0.00    +0.054 A 
ATOM      4  C   UNL A   1     -12.301   1.934  37.205  0.00  0.00    -0.007 A 
ATOM      5  C   UNL A   1     -12.165   1.506  35.815  0.00  0.00    +0.004 A 
ATOM      6  C   UNL A   1     -13.079   2.015  34.841  0.00  0.00    +0.080 A 
ATOM      7  C   UNL A   1     -14.046   2.843  35.311  0.00  0.00    +0.007 A 
ATOM      8  C   UNL A   1     -14.132   3.176  36.609  0.00  0.00    +0.011 A 
BRANCH   6   9
ATOM      9  C   UNL A   1     -12.948   1.669  33.420  0.00  0.00    +0.388 C 
ATOM     10  O   UNL A   1     -12.033   1.213  32.929  0.00  0.00    -0.241 OA
ATOM     11  O   UNL A   1     -13.909   2.250  32.618  0.00  0.00    -0.241 OA
ENDBRANCH   6   9
ENDBRANCH   1   4
BRANCH   1  12
ATOM     12  C   UNL A   1     -11.472   0.134  38.436  0.00  0.00    -0.018 A 
ATOM     13  C   UNL A   1     -12.027  -0.265  39.701  0.00  0.00    -0.004 A 
ATOM     14  C   UNL A   1     -12.223  -1.632  40.022  0.00  0.00    -0.000 A 
ATOM     15  C   UNL A   1     -11.988  -2.630  39.108  0.00  0.00    -0.000 A 
ATOM     16  C   UNL A   1     -11.477  -2.281  37.864  0.00  0.00    -0.000 A 
ATOM     17  C   UNL A   1     -11.192  -1.051  37.514  0.00  0.00    -0.004 A 
ENDBRANCH   1  12
BRANCH   1  18
ATOM     18  C   UNL A   1     -10.071   2.034  38.256  0.00  0.00    +0.035 C 
BRANCH  18  19
ATOM     19  C   UNL A   1      -9.288   2.192  37.133  0.00  0.00    -0.022 A 
ATOM     20  C   UNL A   1      -8.743   1.219  36.356  0.00  0.00    -0.008 A 
ATOM     21  C   UNL A   1      -8.192   1.187  35.335  0.00  0.00    -0.018 A 
ATOM     22  C   UNL A   1      -8.074   2.476  34.518  0.00  0.00    -0.004 A 
ATOM     23  C   UNL A   1      -8.644   3.623  35.189  0.00  0.00    -0.001 A 
ATOM     24  C   UNL A   1      -9.260   3.507  36.426  0.00  0.00    -0.004 A 
BRANCH  21  25
ATOM     25  C   UNL A   1      -7.640   0.018  34.531  0.00  0.00    +0.053 C 
BRANCH  25  26
ATOM     26  C   UNL A   1      -6.760  -0.487  34.632  0.00  0.00    -0.018 A 
ATOM     27  C   UNL A   1      -6.629  -1.886  34.321  0.00  0.00    -0.004 A 
ATOM     28  C   UNL A   1      -5.345  -2.576  34.539  0.00  0.00    -0.000 A 
ATOM     29  C   UNL A   1      -4.346  -1.803  34.986  0.00  0.00    -0.000 A 
ATOM     30  C   UNL A   1      -4.296  -0.511  35.067  0.00  0.00    -0.000 A 
ATOM     31  C   UNL A   1      -5.522   0.219  34.882  0.00  0.00    -0.004 A 
ENDBRANCH  25  26
ENDBRANCH  21  25
ENDBRANCH  18  19
ENDBRANCH   1  18
TORSDOF 7
ENDMDL
ENDMDL
