REMARK  Name = No_99-gen_results/8p0m/2024-11-27-11-27-31/
REMARK  2 active torsions:
REMARK  status: ('A' for Active; 'I' for Inactive)
REMARK    1  A    between atoms: C_2  and  C_15
REMARK    2  A    between atoms: C_9  and  C_12
REMARK                            x       y       z     vdW  Elec       q    Type
REMARK                         _______ _______ _______ _____ _____    ______ ____
ROOT
ATOM      1  C   UNL A   1     -28.016  -0.814  28.878  0.00  0.00    +0.015 A 
ATOM      2  C   UNL A   1     -27.064  -0.119  28.608  0.00  0.00    +0.072 A 
ATOM      3  C   UNL A   1     -25.765  -0.390  29.036  0.00  0.00    +0.004 A 
ATOM      4  C   UNL A   1     -25.530  -1.530  29.901  0.00  0.00    +0.001 A 
ATOM      5  C   UNL A   1     -26.689  -2.289  30.181  0.00  0.00    +0.011 A 
ATOM      6  C   UNL A   1     -27.873  -1.951  29.737  0.00  0.00    +0.058 A 
ATOM      7 CL   UNL A   1     -29.194  -2.923  30.219  0.00  0.00    -0.082 Cl
ATOM      8  C   UNL A   1     -24.533   0.419  28.725  0.00  0.00    +0.008 A 
ATOM      9  C   UNL A   1     -23.343   0.108  29.175  0.00  0.00    +0.098 A 
ATOM     10  C   UNL A   1     -23.196  -1.187  29.822  0.00  0.00    +0.008 A 
ATOM     11  C   UNL A   1     -24.259  -1.938  30.280  0.00  0.00    +0.000 A 
ENDROOT
BRANCH   2  12
ATOM     12  C   UNL A   1     -27.186   1.072  27.657  0.00  0.00    +0.419 C 
ATOM     13  F   UNL A   1     -27.545   0.667  26.543  0.00  0.00    -0.166 F 
ATOM     14  F   UNL A   1     -28.192   1.866  28.233  0.00  0.00    -0.166 F 
ATOM     15  F   UNL A   1     -26.416   2.038  27.840  0.00  0.00    -0.166 F 
ENDBRANCH   2  12
BRANCH   9  16
ATOM     16  C   UNL A   1     -22.118   0.791  28.778  0.00  0.00    +0.477 C 
ATOM     17  N   UNL A   1     -22.227   2.010  28.203  0.00  0.00    +0.205 NA
ATOM     18  N   UNL A   1     -20.911   0.137  28.794  0.00  0.00    +0.205 NA
ENDBRANCH   9  16
TORSDOF 2
