REMARK  Name = outputs/IAG933/test6/raw/output_9901_IAG933_linker_design_.xyz
REMARK  13 active torsions:
REMARK  status: ('A' for Active; 'I' for Inactive)
REMARK    1  A    between atoms: C_1  and  C_2
REMARK    2  A    between atoms: C_1  and  C_8
REMARK    3  A    between atoms: C_1  and  C_35
REMARK    4  A    between atoms: C_13  and  C_39
REMARK    5  A    between atoms: C_14  and  C_15
REMARK    6  A    between atoms: C_21  and  O_22
REMARK    7  A    between atoms: O_22  and  C_23
REMARK    8  A    between atoms: C_23  and  C_24
REMARK    9  A    between atoms: C_30  and  C_36
REMARK   10  A    between atoms: C_32  and  C_39
REMARK   11  A    between atoms: C_35  and  C_38
REMARK   12  A    between atoms: C_35  and  C_40
REMARK   13  A    between atoms: C_36  and  C_38
REMARK                            x       y       z     vdW  Elec       q    Type
REMARK                         _______ _______ _______ _____ _____    ______ ____
ROOT
ATOM      1  C   UNL A   1     -22.707   0.190  29.129  0.00  0.00    +0.001 C 
ATOM      2  F   UNL A   1     -20.360   2.474  27.469  0.00  0.00    -0.183 F 
ATOM      3  C   UNL A   1     -23.757   1.528  27.553  0.00  0.00    +0.058 C 
ATOM      4  C   UNL A   1     -21.511   0.789  28.692  0.00  0.00    +0.049 C 
ATOM      5  C   UNL A   1     -23.942   0.615  28.568  0.00  0.00    -0.006 C 
ATOM      6  C   UNL A   1     -21.501   1.882  27.782  0.00  0.00    +0.222 C 
ATOM      7  N   UNL A   1     -22.594   2.348  27.133  0.00  0.00    -0.223 NA
ENDROOT
BRANCH   5   8
ATOM      8  C   UNL A   1     -25.284   0.023  29.066  0.00  0.00    +0.062 C 
BRANCH   8  10
ATOM      9  O   UNL A   1     -28.057  -0.534  28.703  0.00  0.00    -0.220 OA
ATOM     10  C   UNL A   1     -26.986   0.407  28.957  0.00  0.00    +0.186 C 
BRANCH  10  12
ATOM     11  O   UNL A   1     -27.620   2.932  29.619  0.00  0.00    -0.220 OA
ATOM     12  C   UNL A   1     -27.991   1.496  29.637  0.00  0.00    +0.182 C 
BRANCH  12  14
ATOM     13  C   UNL A   1     -29.893   1.990  31.349  0.00  0.00    +0.003 C 
ATOM     14  C   UNL A   1     -29.441   1.060  30.161  0.00  0.00    +0.036 C 
ENDBRANCH  12  14
ENDBRANCH  10  12
ENDBRANCH   8  10
BRANCH   8  15
ATOM     15  C   UNL A   1     -24.855  -1.012  30.143  0.00  0.00    +0.045 C 
BRANCH  15  16
ATOM     16  C   UNL A   1     -24.973  -2.505  29.788  0.00  0.00    -0.021 C 
ATOM     17  C   UNL A   1     -23.906  -3.173  29.146  0.00  0.00    -0.004 C 
ATOM     18  C   UNL A   1     -23.989  -4.549  28.853  0.00  0.00    -0.000 C 
ATOM     19  C   UNL A   1     -25.137  -5.280  29.205  0.00  0.00    -0.000 C 
ATOM     20  C   UNL A   1     -26.232  -4.611  29.784  0.00  0.00    -0.000 C 
ATOM     21  C   UNL A   1     -26.155  -3.232  30.065  0.00  0.00    -0.004 C 
ENDBRANCH  15  16
BRANCH  15  22
ATOM     22  C   UNL A   1     -25.387  -0.679  31.571  0.00  0.00    +0.077 C 
ATOM     23  C   UNL A   1     -25.189   0.773  32.028  0.00  0.00    +0.019 C 
ATOM     24  C   UNL A   1     -25.336   0.684  33.544  0.00  0.00    +0.020 C 
ATOM     25  C   UNL A   1     -24.829  -0.715  33.905  0.00  0.00    +0.089 C 
ATOM     26  N   UNL A   1     -24.758  -1.481  32.646  0.00  0.00    -0.219 NA
ENDBRANCH  15  22
ENDBRANCH   8  15
ENDBRANCH   5   8
BRANCH   3  27
ATOM     27  C   UNL A   1     -24.557   1.714  26.658  0.00  0.00    +0.053 C 
BRANCH  27  28
ATOM     28  C   UNL A   1     -25.688   1.614  26.461  0.00  0.00    +0.076 C 
ATOM     29  C   UNL A   1     -26.250   2.920  26.395  0.00  0.00    +0.055 C 
ATOM     30  C   UNL A   1     -27.438   3.091  25.645  0.00  0.00    +0.102 C 
ATOM     31  N   UNL A   1     -28.075   2.089  25.003  0.00  0.00    -0.212 NA
ATOM     32  C   UNL A   1     -27.543   0.849  25.079  0.00  0.00    +0.234 C 
ATOM     33  C   UNL A   1     -26.354   0.576  25.777  0.00  0.00    +0.240 C 
ATOM     34  F   UNL A   1     -25.860  -0.681  25.795  0.00  0.00    -0.227 F 
BRANCH  29  35
ATOM     35  C   UNL A   1     -25.642   4.093  27.123  0.00  0.00    +0.263 C 
ATOM     36  N   UNL A   1     -25.614   5.252  26.449  0.00  0.00    -0.200 NA
ATOM     37  C   UNL A   1     -25.026   6.479  26.963  0.00  0.00    +0.139 C 
ATOM     38  O   UNL A   1     -25.143   3.966  28.243  0.00  0.00    -0.269 OA
ENDBRANCH  29  35
BRANCH  32  39
ATOM     39  O   UNL A   1     -28.193  -0.208  24.477  0.00  0.00    -0.459 OA
BRANCH  39  40
ATOM     40  C   UNL A   1     -29.460   0.005  23.866  0.00  0.00    +0.242 C 
BRANCH  40  41
ATOM     41  C   UNL A   1     -30.065  -1.377  23.573  0.00  0.00    +0.229 C 
ATOM     42  O   UNL A   1     -30.729  -1.878  24.721  0.00  0.00    -0.216 OA
ENDBRANCH  40  41
ENDBRANCH  39  40
ENDBRANCH  32  39
ENDBRANCH  27  28
ENDBRANCH   3  27
TORSDOF 13
