REMARK  Name = outputs/IAG933/test6/raw/output_9905_IAG933_linker_design_.xyz
REMARK  12 active torsions:
REMARK  status: ('A' for Active; 'I' for Inactive)
REMARK    1  A    between atoms: C_1  and  C_2
REMARK    2  A    between atoms: C_1  and  C_8
REMARK    3  A    between atoms: C_1  and  N_33
REMARK    4  A    between atoms: C_13  and  C_34
REMARK    5  A    between atoms: C_14  and  C_15
REMARK    6  A    between atoms: C_21  and  O_22
REMARK    7  A    between atoms: O_22  and  C_23
REMARK    8  A    between atoms: C_23  and  C_24
REMARK    9  A    between atoms: C_28  and  C_36
REMARK   10  A    between atoms: C_28  and  C_38
REMARK   11  A    between atoms: C_28  and  C_41
REMARK   12  A    between atoms: N_30  and  C_39
REMARK                            x       y       z     vdW  Elec       q    Type
REMARK                         _______ _______ _______ _____ _____    ______ ____
ROOT
ATOM      1  C   UNL A   1     -23.613   1.260  27.578  0.00  0.00    +0.090 A 
ATOM      2  N   UNL A   1     -24.673  -0.126  29.106  0.00  0.00    -0.297 N 
ATOM      3  C   UNL A   1     -25.062   1.256  27.453  0.00  0.00    +0.030 A 
ATOM      4  C   UNL A   1     -23.451   0.493  28.741  0.00  0.00    +0.163 A 
ATOM      5  C   UNL A   1     -25.771   0.358  28.591  0.00  0.00    +0.134 A 
ATOM      6 CL   UNL A   1     -22.436   2.015  26.595  0.00  0.00    -0.080 Cl
ATOM      7  N   UNL A   1     -22.287   0.360  29.450  0.00  0.00    -0.108 NA
ENDROOT
BRANCH   3   8
ATOM      8  C   UNL A   1     -25.688   1.614  26.461  0.00  0.00    +0.096 C 
ATOM      9  C   UNL A   1     -26.250   2.920  26.395  0.00  0.00    +0.059 C 
ATOM     10  C   UNL A   1     -27.438   3.091  25.645  0.00  0.00    +0.102 C 
ATOM     11  N   UNL A   1     -28.075   2.089  25.003  0.00  0.00    -0.212 NA
ATOM     12  C   UNL A   1     -27.543   0.849  25.079  0.00  0.00    +0.234 C 
ATOM     13  C   UNL A   1     -26.354   0.576  25.777  0.00  0.00    +0.244 C 
ATOM     14  F   UNL A   1     -25.860  -0.681  25.795  0.00  0.00    -0.227 F 
BRANCH   9  15
ATOM     15  C   UNL A   1     -25.642   4.093  27.123  0.00  0.00    +0.263 C 
ATOM     16  N   UNL A   1     -25.614   5.252  26.449  0.00  0.00    -0.200 NA
ATOM     17  C   UNL A   1     -25.026   6.479  26.963  0.00  0.00    +0.139 C 
ATOM     18  O   UNL A   1     -25.143   3.966  28.243  0.00  0.00    -0.269 OA
ENDBRANCH   9  15
BRANCH  12  19
ATOM     19  O   UNL A   1     -28.193  -0.208  24.477  0.00  0.00    -0.459 OA
BRANCH  19  20
ATOM     20  C   UNL A   1     -29.460   0.005  23.866  0.00  0.00    +0.242 C 
BRANCH  20  21
ATOM     21  C   UNL A   1     -30.065  -1.377  23.573  0.00  0.00    +0.229 C 
ATOM     22  O   UNL A   1     -30.729  -1.878  24.721  0.00  0.00    -0.216 OA
ENDBRANCH  20  21
ENDBRANCH  19  20
ENDBRANCH  12  19
ENDBRANCH   3   8
BRANCH   5  23
ATOM     23  N   UNL A   1     -27.018  -0.210  28.915  0.00  0.00    -0.162 NA
ATOM     24  O   UNL A   1     -28.369  -1.637  30.043  0.00  0.00    -0.273 OA
ATOM     25  C   UNL A   1     -28.210  -0.704  29.296  0.00  0.00    +0.252 C 
BRANCH  25  26
ATOM     26  C   UNL A   1     -29.585  -0.066  28.982  0.00  0.00    +0.142 C 
BRANCH  26  28
ATOM     27  O   UNL A   1     -28.876   1.760  30.503  0.00  0.00    -0.223 OA
ATOM     28  C   UNL A   1     -29.650   1.413  29.390  0.00  0.00    +0.163 C 
ATOM     29  C   UNL A   1     -31.133   1.963  29.453  0.00  0.00    +0.036 C 
ENDBRANCH  26  28
BRANCH  26  31
ATOM     30  O   UNL A   1     -31.776  -1.203  28.915  0.00  0.00    -0.220 OA
ATOM     31  C   UNL A   1     -30.543  -0.998  28.265  0.00  0.00    +0.194 C 
ENDBRANCH  26  31
ENDBRANCH  25  26
ENDBRANCH   5  23
BRANCH   2  32
ATOM     32  C   UNL A   1     -24.855  -1.012  30.143  0.00  0.00    +0.126 C 
BRANCH  32  33
ATOM     33  C   UNL A   1     -24.973  -2.505  29.788  0.00  0.00    -0.000 C 
ATOM     34  C   UNL A   1     -23.906  -3.173  29.146  0.00  0.00    -0.002 C 
ATOM     35  C   UNL A   1     -23.989  -4.549  28.853  0.00  0.00    -0.000 C 
ATOM     36  C   UNL A   1     -25.137  -5.280  29.205  0.00  0.00    -0.000 C 
ATOM     37  C   UNL A   1     -26.232  -4.611  29.784  0.00  0.00    -0.000 C 
ATOM     38  C   UNL A   1     -26.155  -3.232  30.065  0.00  0.00    -0.002 C 
ENDBRANCH  32  33
BRANCH  32  39
ATOM     39  C   UNL A   1     -25.387  -0.679  31.571  0.00  0.00    +0.098 C 
ATOM     40  C   UNL A   1     -25.189   0.773  32.028  0.00  0.00    +0.021 C 
ATOM     41  C   UNL A   1     -25.336   0.684  33.544  0.00  0.00    +0.020 C 
ATOM     42  C   UNL A   1     -24.829  -0.715  33.905  0.00  0.00    +0.089 C 
ATOM     43  N   UNL A   1     -24.758  -1.481  32.646  0.00  0.00    -0.217 NA
ENDBRANCH  32  39
ENDBRANCH   2  32
TORSDOF 12
