REMARK  Name = outputs/IAG933/test6/raw/output_991_IAG933_linker_design_.xyz
REMARK  11 active torsions:
REMARK  status: ('A' for Active; 'I' for Inactive)
REMARK    1  A    between atoms: C_1  and  C_2
REMARK    2  A    between atoms: C_1  and  C_8
REMARK    3  A    between atoms: C_1  and  C_28
REMARK    4  A    between atoms: C_13  and  N_38
REMARK    5  A    between atoms: C_14  and  C_15
REMARK    6  A    between atoms: C_21  and  O_22
REMARK    7  A    between atoms: O_22  and  C_23
REMARK    8  A    between atoms: C_23  and  C_24
REMARK    9  A    between atoms: C_28  and  C_35
REMARK   10  A    between atoms: C_28  and  C_41
REMARK   11  A    between atoms: C_31  and  O_40
REMARK                            x       y       z     vdW  Elec       q    Type
REMARK                         _______ _______ _______ _____ _____    ______ ____
ROOT
ATOM      1  C   UNL A   1     -21.958   0.325  29.079  0.00  0.00    +0.266 C 
ATOM      2  C   UNL A   1     -23.486   1.883  26.470  0.00  0.00    +0.252 A 
ATOM      3  C   UNL A   1     -21.009   1.708  27.442  0.00  0.00    +0.147 C 
ATOM      4  C   UNL A   1     -22.424   1.593  27.319  0.00  0.00    +0.060 A 
ATOM      5  C   UNL A   1     -22.926   0.793  28.309  0.00  0.00    +0.070 A 
ATOM      6  N   UNL A   1     -20.753   0.840  28.365  0.00  0.00    -0.197 NA
ATOM      7  N   UNL A   1     -24.552   1.319  27.150  0.00  0.00    -0.276 N 
ATOM      8  C   UNL A   1     -24.297   0.636  28.272  0.00  0.00    +0.057 A 
ATOM      9  O   UNL A   1     -21.966  -0.418  30.121  0.00  0.00    -0.268 OA
ENDROOT
BRANCH   7  10
ATOM     10  C   UNL A   1     -25.688   1.614  26.461  0.00  0.00    +0.104 C 
ATOM     11  C   UNL A   1     -26.250   2.920  26.395  0.00  0.00    +0.093 C 
ATOM     12  C   UNL A   1     -27.438   3.091  25.645  0.00  0.00    +0.108 C 
ATOM     13  N   UNL A   1     -28.075   2.089  25.003  0.00  0.00    -0.208 NA
ATOM     14  C   UNL A   1     -27.543   0.849  25.079  0.00  0.00    +0.255 C 
ATOM     15  C   UNL A   1     -26.354   0.576  25.777  0.00  0.00    +0.209 C 
ATOM     16  F   UNL A   1     -25.860  -0.681  25.795  0.00  0.00    -0.198 F 
BRANCH  11  17
ATOM     17  C   UNL A   1     -25.642   4.093  27.123  0.00  0.00    +0.268 C 
ATOM     18  N   UNL A   1     -25.614   5.252  26.449  0.00  0.00    -0.200 NA
ATOM     19  C   UNL A   1     -25.026   6.479  26.963  0.00  0.00    +0.139 C 
ATOM     20  O   UNL A   1     -25.143   3.966  28.243  0.00  0.00    -0.268 OA
ENDBRANCH  11  17
BRANCH  14  21
ATOM     21  O   UNL A   1     -28.193  -0.208  24.477  0.00  0.00    -0.456 OA
BRANCH  21  22
ATOM     22  C   UNL A   1     -29.460   0.005  23.866  0.00  0.00    +0.243 C 
BRANCH  22  23
ATOM     23  C   UNL A   1     -30.065  -1.377  23.573  0.00  0.00    +0.229 C 
ATOM     24  O   UNL A   1     -30.729  -1.878  24.721  0.00  0.00    -0.216 OA
ENDBRANCH  22  23
ENDBRANCH  21  22
ENDBRANCH  14  21
ENDBRANCH   7  10
BRANCH   2  26
ATOM     25  O   UNL A   1     -21.920   2.557  25.003  0.00  0.00    +0.030 OA
ATOM     26  O   UNL A   1     -23.324   2.446  25.277  0.00  0.00    -0.285 OA
ENDBRANCH   2  26
BRANCH   8  27
ATOM     27  C   UNL A   1     -25.213  -0.043  29.073  0.00  0.00    +0.124 C 
BRANCH  27  29
ATOM     28  O   UNL A   1     -27.514  -0.672  28.626  0.00  0.00    -0.271 OA
ATOM     29  C   UNL A   1     -26.656   0.205  28.992  0.00  0.00    +0.266 C 
ATOM     30  N   UNL A   1     -27.119   1.338  29.567  0.00  0.00    -0.087 NA
ENDBRANCH  27  29
BRANCH  27  31
ATOM     31  C   UNL A   1     -24.855  -1.012  30.143  0.00  0.00    +0.053 C 
BRANCH  31  32
ATOM     32  C   UNL A   1     -24.973  -2.505  29.788  0.00  0.00    -0.020 C 
ATOM     33  C   UNL A   1     -23.906  -3.173  29.146  0.00  0.00    -0.004 C 
ATOM     34  C   UNL A   1     -23.989  -4.549  28.853  0.00  0.00    -0.000 C 
ATOM     35  C   UNL A   1     -25.137  -5.280  29.205  0.00  0.00    -0.000 C 
ATOM     36  C   UNL A   1     -26.232  -4.611  29.784  0.00  0.00    -0.000 C 
ATOM     37  C   UNL A   1     -26.155  -3.232  30.065  0.00  0.00    -0.004 C 
ENDBRANCH  31  32
BRANCH  31  38
ATOM     38  C   UNL A   1     -25.387  -0.679  31.571  0.00  0.00    +0.078 C 
ATOM     39  C   UNL A   1     -25.189   0.773  32.028  0.00  0.00    +0.019 C 
ATOM     40  C   UNL A   1     -25.336   0.684  33.544  0.00  0.00    +0.020 C 
ATOM     41  C   UNL A   1     -24.829  -0.715  33.905  0.00  0.00    +0.089 C 
ATOM     42  N   UNL A   1     -24.758  -1.481  32.646  0.00  0.00    -0.219 NA
ENDBRANCH  31  38
ENDBRANCH  27  31
ENDBRANCH   8  27
TORSDOF 11
