REMARK  Name = outputs/IAG933/test6/raw/output_9915_IAG933_linker_design_.xyz
REMARK  11 active torsions:
REMARK  status: ('A' for Active; 'I' for Inactive)
REMARK    1  A    between atoms: C_1  and  C_2
REMARK    2  A    between atoms: C_1  and  C_8
REMARK    3  A    between atoms: C_1  and  N_35
REMARK    4  A    between atoms: C_14  and  C_15
REMARK    5  A    between atoms: C_21  and  O_22
REMARK    6  A    between atoms: O_22  and  C_23
REMARK    7  A    between atoms: C_23  and  C_24
REMARK    8  A    between atoms: N_30  and  C_34
REMARK    9  A    between atoms: C_34  and  N_35
REMARK   10  A    between atoms: N_35  and  C_39
REMARK   11  A    between atoms: C_39  and  C_40
REMARK                            x       y       z     vdW  Elec       q    Type
REMARK                         _______ _______ _______ _____ _____    ______ ____
ROOT
ATOM      1  C   UNL A   1     -25.688   1.614  26.461  0.00  0.00    +0.066 C 
ATOM      2  C   UNL A   1     -26.250   2.920  26.395  0.00  0.00    +0.081 C 
ATOM      3  C   UNL A   1     -27.438   3.091  25.645  0.00  0.00    +0.107 C 
ATOM      4  N   UNL A   1     -28.075   2.089  25.003  0.00  0.00    -0.211 NA
ATOM      5  C   UNL A   1     -27.543   0.849  25.079  0.00  0.00    +0.239 C 
ATOM      6  C   UNL A   1     -26.354   0.576  25.777  0.00  0.00    +0.266 C 
ATOM      7  F   UNL A   1     -25.860  -0.681  25.795  0.00  0.00    -0.222 F 
ATOM      8  C   UNL A   1     -24.347   0.381  28.084  0.00  0.00    +0.357 C 
ATOM      9  C   UNL A   1     -24.827   1.045  27.248  0.00  0.00    -0.017 C 
ENDROOT
BRANCH   2  10
ATOM     10  C   UNL A   1     -25.642   4.093  27.123  0.00  0.00    +0.267 C 
ATOM     11  N   UNL A   1     -25.614   5.252  26.449  0.00  0.00    -0.200 NA
ATOM     12  C   UNL A   1     -25.026   6.479  26.963  0.00  0.00    +0.139 C 
ATOM     13  O   UNL A   1     -25.143   3.966  28.243  0.00  0.00    -0.268 OA
ENDBRANCH   2  10
BRANCH   8  16
ATOM     14  O   UNL A   1     -22.626   2.177  26.679  0.00  0.00    -0.216 OA
ATOM     15  N   UNL A   1     -20.929   1.379  27.869  0.00  0.00    -0.042 NA
ATOM     16  N   UNL A   1     -22.934   0.395  28.117  0.00  0.00    +0.055 NA
ATOM     17  C   UNL A   1     -22.215   1.346  27.527  0.00  0.00    +0.474 C 
ENDBRANCH   8  16
BRANCH   5  18
ATOM     18  O   UNL A   1     -28.193  -0.208  24.477  0.00  0.00    -0.458 OA
BRANCH  18  19
ATOM     19  C   UNL A   1     -29.460   0.005  23.866  0.00  0.00    +0.242 C 
BRANCH  19  20
ATOM     20  C   UNL A   1     -30.065  -1.377  23.573  0.00  0.00    +0.229 C 
ATOM     21  O   UNL A   1     -30.729  -1.878  24.721  0.00  0.00    -0.216 OA
ENDBRANCH  19  20
ENDBRANCH  18  19
ENDBRANCH   5  18
BRANCH   8  22
ATOM     22  N   UNL A   1     -25.332  -0.204  28.982  0.00  0.00    -0.180 N 
BRANCH  22  23
ATOM     23  C   UNL A   1     -24.855  -1.012  30.143  0.00  0.00    +0.199 C 
BRANCH  23  24
ATOM     24  C   UNL A   1     -24.973  -2.505  29.788  0.00  0.00    +0.021 C 
ATOM     25  C   UNL A   1     -23.906  -3.173  29.146  0.00  0.00    -0.000 C 
ATOM     26  C   UNL A   1     -23.989  -4.549  28.853  0.00  0.00    -0.000 C 
ATOM     27  C   UNL A   1     -25.137  -5.280  29.205  0.00  0.00    -0.000 C 
ATOM     28  C   UNL A   1     -26.232  -4.611  29.784  0.00  0.00    -0.000 C 
ATOM     29  C   UNL A   1     -26.155  -3.232  30.065  0.00  0.00    -0.000 C 
ENDBRANCH  23  24
BRANCH  23  30
ATOM     30  C   UNL A   1     -25.387  -0.679  31.571  0.00  0.00    +0.120 C 
ATOM     31  C   UNL A   1     -25.189   0.773  32.028  0.00  0.00    +0.023 C 
ATOM     32  C   UNL A   1     -25.336   0.684  33.544  0.00  0.00    +0.020 C 
ATOM     33  C   UNL A   1     -24.829  -0.715  33.905  0.00  0.00    +0.089 C 
ATOM     34  N   UNL A   1     -24.758  -1.481  32.646  0.00  0.00    -0.215 NA
ENDBRANCH  23  30
ENDBRANCH  22  23
BRANCH  22  35
ATOM     35  C   UNL A   1     -26.735  -0.368  28.633  0.00  0.00    +0.230 C 
BRANCH  35  40
ATOM     36  C   UNL A   1     -30.063   1.097  29.676  0.00  0.00    -0.000 C 
ATOM     37  C   UNL A   1     -27.690   1.945  28.754  0.00  0.00    -0.000 C 
ATOM     38  C   UNL A   1     -29.881   2.428  29.328  0.00  0.00    -0.000 C 
ATOM     39  C   UNL A   1     -29.004   0.203  29.540  0.00  0.00    -0.000 C 
ATOM     40  C   UNL A   1     -27.772   0.609  29.004  0.00  0.00    +0.024 C 
ATOM     41  C   UNL A   1     -28.675   2.901  28.874  0.00  0.00    -0.000 C 
ENDBRANCH  35  40
ENDBRANCH  22  35
ENDBRANCH   8  22
TORSDOF 11
