REMARK  Name = outputs/IAG933/test6/raw/output_9916_IAG933_linker_design_.xyz
REMARK  13 active torsions:
REMARK  status: ('A' for Active; 'I' for Inactive)
REMARK    1  A    between atoms: C_1  and  C_2
REMARK    2  A    between atoms: C_1  and  C_8
REMARK    3  A    between atoms: C_1  and  N_39
REMARK    4  A    between atoms: C_13  and  C_40
REMARK    5  A    between atoms: C_14  and  C_15
REMARK    6  A    between atoms: C_21  and  O_22
REMARK    7  A    between atoms: O_22  and  C_23
REMARK    8  A    between atoms: C_23  and  C_24
REMARK    9  A    between atoms: O_29  and  N_39
REMARK   10  A    between atoms: O_29  and  C_40
REMARK   11  A    between atoms: C_32  and  C_38
REMARK   12  A    between atoms: C_32  and  N_39
REMARK   13  A    between atoms: C_36  and  C_40
REMARK                            x       y       z     vdW  Elec       q    Type
REMARK                         _______ _______ _______ _____ _____    ______ ____
ROOT
ATOM      1  O   UNL A   1     -24.222   0.189  28.164  0.00  0.00    -0.280 OA
ENDROOT
BRANCH   1   2
ATOM      2  N   UNL A   1     -25.152   0.041  29.166  0.00  0.00    -0.157 NA
BRANCH   2   3
ATOM      3  C   UNL A   1     -24.855  -1.012  30.143  0.00  0.00    +0.122 C 
BRANCH   3   4
ATOM      4  C   UNL A   1     -24.973  -2.505  29.788  0.00  0.00    -0.004 C 
ATOM      5  C   UNL A   1     -23.906  -3.173  29.146  0.00  0.00    -0.003 C 
ATOM      6  C   UNL A   1     -23.989  -4.549  28.853  0.00  0.00    -0.000 C 
ATOM      7  C   UNL A   1     -25.137  -5.280  29.205  0.00  0.00    -0.000 C 
ATOM      8  C   UNL A   1     -26.232  -4.611  29.784  0.00  0.00    -0.000 C 
ATOM      9  C   UNL A   1     -26.155  -3.232  30.065  0.00  0.00    -0.003 C 
ENDBRANCH   3   4
BRANCH   3  10
ATOM     10  C   UNL A   1     -25.387  -0.679  31.571  0.00  0.00    +0.094 C 
ATOM     11  C   UNL A   1     -25.189   0.773  32.028  0.00  0.00    +0.021 C 
ATOM     12  C   UNL A   1     -25.336   0.684  33.544  0.00  0.00    +0.020 C 
ATOM     13  C   UNL A   1     -24.829  -0.715  33.905  0.00  0.00    +0.089 C 
ATOM     14  N   UNL A   1     -24.758  -1.481  32.646  0.00  0.00    -0.218 NA
ENDBRANCH   3  10
ENDBRANCH   2   3
BRANCH   2  15
ATOM     15  C   UNL A   1     -26.415  -0.518  28.738  0.00  0.00    +0.128 C 
BRANCH  15  21
ATOM     16  C   UNL A   1     -28.718   2.233  30.103  0.00  0.00    -0.000 C 
ATOM     17  C   UNL A   1     -27.470   1.652  29.802  0.00  0.00    -0.003 C 
ATOM     18  C   UNL A   1     -29.771   0.718  28.505  0.00  0.00    -0.000 C 
ATOM     19  C   UNL A   1     -29.858   1.725  29.480  0.00  0.00    -0.000 C 
ATOM     20  C   UNL A   1     -28.558   0.155  28.209  0.00  0.00    -0.003 C 
ATOM     21  C   UNL A   1     -27.462   0.503  28.968  0.00  0.00    -0.004 C 
ENDBRANCH  15  21
ENDBRANCH   2  15
ENDBRANCH   1   2
BRANCH   1  22
ATOM     22  C   UNL A   1     -24.421   1.158  27.224  0.00  0.00    +0.162 C 
BRANCH  22  23
ATOM     23  C   UNL A   1     -25.688   1.614  26.461  0.00  0.00    +0.045 C 
ATOM     24  C   UNL A   1     -26.250   2.920  26.395  0.00  0.00    +0.075 C 
ATOM     25  C   UNL A   1     -27.438   3.091  25.645  0.00  0.00    +0.106 C 
ATOM     26  N   UNL A   1     -28.075   2.089  25.003  0.00  0.00    -0.208 NA
ATOM     27  C   UNL A   1     -27.543   0.849  25.079  0.00  0.00    +0.253 C 
ATOM     28  C   UNL A   1     -26.354   0.576  25.777  0.00  0.00    +0.191 C 
ATOM     29  F   UNL A   1     -25.860  -0.681  25.795  0.00  0.00    -0.200 F 
BRANCH  24  30
ATOM     30  C   UNL A   1     -25.642   4.093  27.123  0.00  0.00    +0.266 C 
ATOM     31  N   UNL A   1     -25.614   5.252  26.449  0.00  0.00    -0.200 NA
ATOM     32  C   UNL A   1     -25.026   6.479  26.963  0.00  0.00    +0.139 C 
ATOM     33  O   UNL A   1     -25.143   3.966  28.243  0.00  0.00    -0.268 OA
ENDBRANCH  24  30
BRANCH  27  34
ATOM     34  O   UNL A   1     -28.193  -0.208  24.477  0.00  0.00    -0.456 OA
BRANCH  34  35
ATOM     35  C   UNL A   1     -29.460   0.005  23.866  0.00  0.00    +0.243 C 
BRANCH  35  36
ATOM     36  C   UNL A   1     -30.065  -1.377  23.573  0.00  0.00    +0.229 C 
ATOM     37  O   UNL A   1     -30.729  -1.878  24.721  0.00  0.00    -0.216 OA
ENDBRANCH  35  36
ENDBRANCH  34  35
ENDBRANCH  27  34
ENDBRANCH  22  23
BRANCH  22  39
ATOM     38  C   UNL A   1     -21.813   1.696  27.574  0.00  0.00    +0.003 C 
ATOM     39  C   UNL A   1     -23.180   1.705  26.857  0.00  0.00    +0.034 C 
ATOM     40  C   UNL A   1     -23.143   2.437  25.528  0.00  0.00    +0.003 C 
ENDBRANCH  22  39
ENDBRANCH   1  22
TORSDOF 13
