REMARK  Name = outputs/IAG933/test6/raw/output_9918_IAG933_linker_design_.xyz
REMARK  8 active torsions:
REMARK  status: ('A' for Active; 'I' for Inactive)
REMARK    1  A    between atoms: C_1  and  C_2
REMARK    2  A    between atoms: C_1  and  C_8
REMARK    3  A    between atoms: C_1  and  N_31
REMARK    4  A    between atoms: C_13  and  C_28
REMARK    5  A    between atoms: C_14  and  C_15
REMARK    6  A    between atoms: C_21  and  O_22
REMARK    7  A    between atoms: O_22  and  C_23
REMARK    8  A    between atoms: C_23  and  C_24
REMARK                            x       y       z     vdW  Elec       q    Type
REMARK                         _______ _______ _______ _____ _____    ______ ____
ROOT
ATOM      1  C   UNL A   1     -24.773   1.157  27.359  0.00  0.00    +0.116 C 
ATOM      2  O   UNL A   1     -21.267   1.854  26.552  0.00  0.00    -0.244 OA
ATOM      3  O   UNL A   1     -22.139  -0.579  30.009  0.00  0.00    -0.161 OA
ATOM      4  N   UNL A   1     -24.333  -0.119  29.327  0.00  0.00    -0.223 N 
ATOM      5  C   UNL A   1     -23.043   0.215  29.500  0.00  0.00    +0.379 C 
ATOM      6  O   UNL A   1     -21.328   1.072  27.792  0.00  0.00    -0.281 OA
ATOM      7  C   UNL A   1     -23.416   1.332  27.244  0.00  0.00    +0.108 A 
ATOM      8  C   UNL A   1     -22.549   0.922  28.177  0.00  0.00    +0.253 A 
ATOM      9  F   UNL A   1     -23.028   1.345  30.451  0.00  0.00    -0.177 F 
ATOM     10  O   UNL A   1     -22.940   2.640  25.211  0.00  0.00    -0.241 OA
ATOM     11  C   UNL A   1     -25.182   0.436  28.500  0.00  0.00    +0.234 C 
ATOM     12  C   UNL A   1     -22.536   2.092  26.232  0.00  0.00    +0.387 A 
ATOM     13  O   UNL A   1     -26.362   0.508  28.738  0.00  0.00    -0.274 OA
ENDROOT
BRANCH   1  14
ATOM     14  C   UNL A   1     -25.688   1.614  26.461  0.00  0.00    +0.083 C 
ATOM     15  C   UNL A   1     -26.250   2.920  26.395  0.00  0.00    +0.056 C 
ATOM     16  C   UNL A   1     -27.438   3.091  25.645  0.00  0.00    +0.102 C 
ATOM     17  N   UNL A   1     -28.075   2.089  25.003  0.00  0.00    -0.212 NA
ATOM     18  C   UNL A   1     -27.543   0.849  25.079  0.00  0.00    +0.234 C 
ATOM     19  C   UNL A   1     -26.354   0.576  25.777  0.00  0.00    +0.241 C 
ATOM     20  F   UNL A   1     -25.860  -0.681  25.795  0.00  0.00    -0.227 F 
BRANCH  15  21
ATOM     21  C   UNL A   1     -25.642   4.093  27.123  0.00  0.00    +0.263 C 
ATOM     22  N   UNL A   1     -25.614   5.252  26.449  0.00  0.00    -0.200 NA
ATOM     23  C   UNL A   1     -25.026   6.479  26.963  0.00  0.00    +0.139 C 
ATOM     24  O   UNL A   1     -25.143   3.966  28.243  0.00  0.00    -0.269 OA
ENDBRANCH  15  21
BRANCH  18  25
ATOM     25  O   UNL A   1     -28.193  -0.208  24.477  0.00  0.00    -0.459 OA
BRANCH  25  26
ATOM     26  C   UNL A   1     -29.460   0.005  23.866  0.00  0.00    +0.242 C 
BRANCH  26  27
ATOM     27  C   UNL A   1     -30.065  -1.377  23.573  0.00  0.00    +0.229 C 
ATOM     28  O   UNL A   1     -30.729  -1.878  24.721  0.00  0.00    -0.216 OA
ENDBRANCH  26  27
ENDBRANCH  25  26
ENDBRANCH  18  25
ENDBRANCH   1  14
BRANCH   4  29
ATOM     29  C   UNL A   1     -24.855  -1.012  30.143  0.00  0.00    +0.119 C 
BRANCH  29  30
ATOM     30  C   UNL A   1     -24.973  -2.505  29.788  0.00  0.00    -0.003 C 
ATOM     31  C   UNL A   1     -23.906  -3.173  29.146  0.00  0.00    -0.003 C 
ATOM     32  C   UNL A   1     -23.989  -4.549  28.853  0.00  0.00    -0.000 C 
ATOM     33  C   UNL A   1     -25.137  -5.280  29.205  0.00  0.00    -0.000 C 
ATOM     34  C   UNL A   1     -26.232  -4.611  29.784  0.00  0.00    -0.000 C 
ATOM     35  C   UNL A   1     -26.155  -3.232  30.065  0.00  0.00    -0.003 C 
ENDBRANCH  29  30
BRANCH  29  36
ATOM     36  C   UNL A   1     -25.387  -0.679  31.571  0.00  0.00    +0.095 C 
ATOM     37  C   UNL A   1     -25.189   0.773  32.028  0.00  0.00    +0.021 C 
ATOM     38  C   UNL A   1     -25.336   0.684  33.544  0.00  0.00    +0.020 C 
ATOM     39  C   UNL A   1     -24.829  -0.715  33.905  0.00  0.00    +0.089 C 
ATOM     40  N   UNL A   1     -24.758  -1.481  32.646  0.00  0.00    -0.217 NA
ENDBRANCH  29  36
ENDBRANCH   4  29
TORSDOF 8
