REMARK  Name = outputs/IAG933/test6/raw/output_9919_IAG933_linker_design_.xyz
REMARK  13 active torsions:
REMARK  status: ('A' for Active; 'I' for Inactive)
REMARK    1  A    between atoms: C_1  and  C_2
REMARK    2  A    between atoms: C_1  and  C_8
REMARK    3  A    between atoms: C_1  and  C_28
REMARK    4  A    between atoms: C_13  and  C_30
REMARK    5  A    between atoms: C_14  and  C_15
REMARK    6  A    between atoms: C_21  and  O_22
REMARK    7  A    between atoms: O_22  and  C_23
REMARK    8  A    between atoms: C_23  and  C_24
REMARK    9  A    between atoms: C_28  and  N_35
REMARK   10  A    between atoms: C_28  and  N_40
REMARK   11  A    between atoms: C_36  and  C_38
REMARK   12  A    between atoms: N_40  and  C_43
REMARK   13  A    between atoms: C_42  and  C_43
REMARK                            x       y       z     vdW  Elec       q    Type
REMARK                         _______ _______ _______ _____ _____    ______ ____
ROOT
ATOM      1  F   UNL A   1     -22.532  -0.033  29.327  0.00  0.00    -0.212 F 
ATOM      2  C   UNL A   1     -23.427   0.326  28.432  0.00  0.00    +0.264 C 
ENDROOT
BRANCH   2   8
ATOM      3  C   UNL A   1     -23.356   2.207  25.445  0.00  0.00    +0.178 C 
ATOM      4  C   UNL A   1     -24.095   1.658  26.471  0.00  0.00    +0.028 C 
ATOM      5  F   UNL A   1     -20.735   1.647  27.702  0.00  0.00    -0.163 F 
ATOM      6  O   UNL A   1     -22.052   2.220  25.800  0.00  0.00    -0.426 OA
ATOM      7  C   UNL A   1     -21.899   1.651  27.084  0.00  0.00    +0.287 C 
ATOM      8  C   UNL A   1     -23.098   1.181  27.429  0.00  0.00    +0.090 C 
BRANCH   4   9
ATOM      9  C   UNL A   1     -25.688   1.614  26.461  0.00  0.00    +0.095 C 
ATOM     10  C   UNL A   1     -26.250   2.920  26.395  0.00  0.00    +0.059 C 
ATOM     11  C   UNL A   1     -27.438   3.091  25.645  0.00  0.00    +0.102 C 
ATOM     12  N   UNL A   1     -28.075   2.089  25.003  0.00  0.00    -0.212 NA
ATOM     13  C   UNL A   1     -27.543   0.849  25.079  0.00  0.00    +0.234 C 
ATOM     14  C   UNL A   1     -26.354   0.576  25.777  0.00  0.00    +0.244 C 
ATOM     15  F   UNL A   1     -25.860  -0.681  25.795  0.00  0.00    -0.227 F 
BRANCH  10  16
ATOM     16  C   UNL A   1     -25.642   4.093  27.123  0.00  0.00    +0.263 C 
ATOM     17  N   UNL A   1     -25.614   5.252  26.449  0.00  0.00    -0.200 NA
ATOM     18  C   UNL A   1     -25.026   6.479  26.963  0.00  0.00    +0.139 C 
ATOM     19  O   UNL A   1     -25.143   3.966  28.243  0.00  0.00    -0.269 OA
ENDBRANCH  10  16
BRANCH  13  20
ATOM     20  O   UNL A   1     -28.193  -0.208  24.477  0.00  0.00    -0.459 OA
BRANCH  20  21
ATOM     21  C   UNL A   1     -29.460   0.005  23.866  0.00  0.00    +0.242 C 
BRANCH  21  22
ATOM     22  C   UNL A   1     -30.065  -1.377  23.573  0.00  0.00    +0.229 C 
ATOM     23  O   UNL A   1     -30.729  -1.878  24.721  0.00  0.00    -0.216 OA
ENDBRANCH  21  22
ENDBRANCH  20  21
ENDBRANCH  13  20
ENDBRANCH   4   9
ENDBRANCH   2   8
BRANCH   2  24
ATOM     24  N   UNL A   1     -24.649  -0.023  28.296  0.00  0.00    -0.163 NA
BRANCH  24  25
ATOM     25  C   UNL A   1     -25.771  -0.160  29.224  0.00  0.00    +0.176 C 
BRANCH  25  26
ATOM     26  N   UNL A   1     -27.112   0.032  28.705  0.00  0.00    -0.187 NA
ATOM     27  C   UNL A   1     -27.743   1.061  29.355  0.00  0.00    +0.270 C 
ATOM     28  O   UNL A   1     -27.235   1.859  30.134  0.00  0.00    -0.271 OA
BRANCH  27  32
ATOM     29  C   UNL A   1     -31.010   0.811  28.242  0.00  0.00    +0.043 C 
ATOM     30  C   UNL A   1     -29.543   2.737  28.658  0.00  0.00    +0.043 C 
ATOM     31  O   UNL A   1     -29.257   0.475  27.665  0.00  0.00    -0.216 OA
ATOM     32  C   UNL A   1     -29.291   1.252  28.878  0.00  0.00    +0.196 C 
ENDBRANCH  27  32
ENDBRANCH  25  26
BRANCH  25  33
ATOM     33  C   UNL A   1     -24.855  -1.012  30.143  0.00  0.00    +0.075 C 
BRANCH  33  34
ATOM     34  C   UNL A   1     -24.973  -2.505  29.788  0.00  0.00    -0.018 C 
ATOM     35  C   UNL A   1     -23.906  -3.173  29.146  0.00  0.00    -0.004 C 
ATOM     36  C   UNL A   1     -23.989  -4.549  28.853  0.00  0.00    -0.000 C 
ATOM     37  C   UNL A   1     -25.137  -5.280  29.205  0.00  0.00    -0.000 C 
ATOM     38  C   UNL A   1     -26.232  -4.611  29.784  0.00  0.00    -0.000 C 
ATOM     39  C   UNL A   1     -26.155  -3.232  30.065  0.00  0.00    -0.004 C 
ENDBRANCH  33  34
BRANCH  33  40
ATOM     40  C   UNL A   1     -25.387  -0.679  31.571  0.00  0.00    +0.080 C 
ATOM     41  C   UNL A   1     -25.189   0.773  32.028  0.00  0.00    +0.019 C 
ATOM     42  C   UNL A   1     -25.336   0.684  33.544  0.00  0.00    +0.020 C 
ATOM     43  C   UNL A   1     -24.829  -0.715  33.905  0.00  0.00    +0.089 C 
ATOM     44  N   UNL A   1     -24.758  -1.481  32.646  0.00  0.00    -0.219 NA
ENDBRANCH  33  40
ENDBRANCH  25  33
ENDBRANCH  24  25
ENDBRANCH   2  24
TORSDOF 13
