REMARK  Name = outputs/IAG933/test6/raw/output_9920_IAG933_linker_design_.xyz
REMARK  13 active torsions:
REMARK  status: ('A' for Active; 'I' for Inactive)
REMARK    1  A    between atoms: C_1  and  C_2
REMARK    2  A    between atoms: C_1  and  C_8
REMARK    3  A    between atoms: C_9  and  C_34
REMARK    4  A    between atoms: C_13  and  C_29
REMARK    5  A    between atoms: C_14  and  C_15
REMARK    6  A    between atoms: C_21  and  O_22
REMARK    7  A    between atoms: O_22  and  C_23
REMARK    8  A    between atoms: C_23  and  C_24
REMARK    9  A    between atoms: O_31  and  C_39
REMARK   10  A    between atoms: C_32  and  O_40
REMARK   11  A    between atoms: C_33  and  C_34
REMARK   12  A    between atoms: C_33  and  O_40
REMARK   13  A    between atoms: C_34  and  C_39
REMARK                            x       y       z     vdW  Elec       q    Type
REMARK                         _______ _______ _______ _____ _____    ______ ____
ROOT
ATOM      1  F   UNL A   1     -20.562   1.660  27.757  0.00  0.00    -0.204 F 
ATOM      2  C   UNL A   1     -24.280   1.645  26.719  0.00  0.00    +0.125 C 
ATOM      3  F   UNL A   1     -23.645   3.281  25.256  0.00  0.00    -0.174 F 
ATOM      4  C   UNL A   1     -23.831   1.468  28.026  0.00  0.00    +0.129 C 
ATOM      5  C   UNL A   1     -23.410   2.015  25.619  0.00  0.00    +0.370 C 
ATOM      6  C   UNL A   1     -22.610   1.256  28.115  0.00  0.00    +0.097 C 
ATOM      7  F   UNL A   1     -23.641   1.271  24.506  0.00  0.00    -0.174 F 
ATOM      8  C   UNL A   1     -21.660   1.676  27.161  0.00  0.00    +0.284 C 
ATOM      9  O   UNL A   1     -22.034   1.831  25.891  0.00  0.00    -0.276 OA
ENDROOT
BRANCH   2  10
ATOM     10  C   UNL A   1     -25.688   1.614  26.461  0.00  0.00    +0.080 C 
ATOM     11  C   UNL A   1     -26.250   2.920  26.395  0.00  0.00    +0.055 C 
ATOM     12  C   UNL A   1     -27.438   3.091  25.645  0.00  0.00    +0.102 C 
ATOM     13  N   UNL A   1     -28.075   2.089  25.003  0.00  0.00    -0.212 NA
ATOM     14  C   UNL A   1     -27.543   0.849  25.079  0.00  0.00    +0.234 C 
ATOM     15  C   UNL A   1     -26.354   0.576  25.777  0.00  0.00    +0.240 C 
ATOM     16  F   UNL A   1     -25.860  -0.681  25.795  0.00  0.00    -0.227 F 
BRANCH  11  17
ATOM     17  C   UNL A   1     -25.642   4.093  27.123  0.00  0.00    +0.262 C 
ATOM     18  N   UNL A   1     -25.614   5.252  26.449  0.00  0.00    -0.200 NA
ATOM     19  C   UNL A   1     -25.026   6.479  26.963  0.00  0.00    +0.139 C 
ATOM     20  O   UNL A   1     -25.143   3.966  28.243  0.00  0.00    -0.269 OA
ENDBRANCH  11  17
BRANCH  14  21
ATOM     21  O   UNL A   1     -28.193  -0.208  24.477  0.00  0.00    -0.459 OA
BRANCH  21  22
ATOM     22  C   UNL A   1     -29.460   0.005  23.866  0.00  0.00    +0.242 C 
BRANCH  22  23
ATOM     23  C   UNL A   1     -30.065  -1.377  23.573  0.00  0.00    +0.229 C 
ATOM     24  O   UNL A   1     -30.729  -1.878  24.721  0.00  0.00    -0.216 OA
ENDBRANCH  22  23
ENDBRANCH  21  22
ENDBRANCH  14  21
ENDBRANCH   2  10
BRANCH   4  25
ATOM     25  O   UNL A   1     -24.637   1.646  29.241  0.00  0.00    -0.356 OA
BRANCH  25  26
ATOM     26  C   UNL A   1     -23.914   2.202  30.395  0.00  0.00    +0.144 C 
BRANCH  26  27
ATOM     27  C   UNL A   1     -24.689   2.262  31.703  0.00  0.00    +0.061 C 
BRANCH  27  29
ATOM     28  C   UNL A   1     -25.387  -0.679  31.571  0.00  0.00    +0.077 C 
ATOM     29  C   UNL A   1     -25.189   0.773  32.028  0.00  0.00    +0.023 C 
ATOM     30  C   UNL A   1     -25.336   0.684  33.544  0.00  0.00    +0.020 C 
ATOM     31  C   UNL A   1     -24.829  -0.715  33.905  0.00  0.00    +0.089 C 
ATOM     32  N   UNL A   1     -24.758  -1.481  32.646  0.00  0.00    -0.219 NA
BRANCH  28  33
ATOM     33  C   UNL A   1     -24.855  -1.012  30.143  0.00  0.00    +0.044 C 
BRANCH  33  34
ATOM     34  C   UNL A   1     -24.973  -2.505  29.788  0.00  0.00    -0.021 C 
ATOM     35  C   UNL A   1     -23.906  -3.173  29.146  0.00  0.00    -0.004 C 
ATOM     36  C   UNL A   1     -23.989  -4.549  28.853  0.00  0.00    -0.000 C 
ATOM     37  C   UNL A   1     -25.137  -5.280  29.205  0.00  0.00    -0.000 C 
ATOM     38  C   UNL A   1     -26.232  -4.611  29.784  0.00  0.00    -0.000 C 
ATOM     39  C   UNL A   1     -26.155  -3.232  30.065  0.00  0.00    -0.004 C 
ENDBRANCH  33  34
ENDBRANCH  28  33
ENDBRANCH  27  29
BRANCH  27  40
ATOM     40  C   UNL A   1     -25.873   3.248  31.877  0.00  0.00    +0.145 C 
BRANCH  40  41
ATOM     41  O   UNL A   1     -25.287   4.284  32.637  0.00  0.00    -0.351 OA
ATOM     42  C   UNL A   1     -25.460   5.156  31.583  0.00  0.00    +0.174 C 
ENDBRANCH  40  41
ENDBRANCH  27  40
ENDBRANCH  26  27
ENDBRANCH  25  26
ENDBRANCH   4  25
TORSDOF 13
