REMARK  Name = outputs/IAG933/test6/raw/output_9922_IAG933_linker_design_.xyz
REMARK  15 active torsions:
REMARK  status: ('A' for Active; 'I' for Inactive)
REMARK    1  A    between atoms: C_1  and  C_2
REMARK    2  A    between atoms: C_1  and  C_8
REMARK    3  A    between atoms: C_1  and  N_42
REMARK    4  A    between atoms: C_13  and  C_37
REMARK    5  A    between atoms: C_14  and  C_15
REMARK    6  A    between atoms: C_21  and  O_22
REMARK    7  A    between atoms: O_22  and  C_23
REMARK    8  A    between atoms: C_23  and  C_24
REMARK    9  A    between atoms: C_30  and  C_37
REMARK   10  A    between atoms: C_32  and  N_42
REMARK   11  A    between atoms: C_34  and  C_36
REMARK   12  A    between atoms: C_34  and  C_40
REMARK   13  A    between atoms: C_37  and  C_41
REMARK   14  A    between atoms: C_38  and  C_40
REMARK   15  A    between atoms: C_41  and  N_42
REMARK                            x       y       z     vdW  Elec       q    Type
REMARK                         _______ _______ _______ _____ _____    ______ ____
ROOT
ATOM      1  N   UNL A   1     -24.183  -0.237  29.325  0.00  0.00    -0.270 NA
ENDROOT
BRANCH   1   2
ATOM      2  C   UNL A   1     -22.753  -0.164  29.436  0.00  0.00    +0.058 C 
ATOM      3  C   UNL A   1     -20.678   1.174  27.683  0.00  0.00    +0.001 C 
ATOM      4  C   UNL A   1     -22.674   1.446  29.241  0.00  0.00    +0.016 C 
ATOM      5  C   UNL A   1     -21.827   0.593  28.500  0.00  0.00    +0.016 C 
BRANCH   4   6
ATOM      6  C   UNL A   1     -23.233   2.040  30.526  0.00  0.00    +0.001 C 
BRANCH   6   7
ATOM      7  C   UNL A   1     -23.981   3.009  30.948  0.00  0.00    +0.000 C 
BRANCH   7  11
ATOM      8  C   UNL A   1     -24.982   6.031  32.870  0.00  0.00    +0.000 C 
ATOM      9  C   UNL A   1     -24.045   4.810  32.620  0.00  0.00    +0.000 C 
ATOM     10  C   UNL A   1     -26.052   4.419  31.418  0.00  0.00    +0.000 C 
ATOM     11  C   UNL A   1     -24.516   4.230  31.307  0.00  0.00    +0.000 C 
ATOM     12  C   UNL A   1     -26.228   5.857  31.916  0.00  0.00    +0.000 C 
ENDBRANCH   7  11
ENDBRANCH   6   7
ENDBRANCH   4   6
ENDBRANCH   1   2
BRANCH   1  13
ATOM     13  C   UNL A   1     -24.855  -1.012  30.143  0.00  0.00    +0.096 C 
BRANCH  13  14
ATOM     14  C   UNL A   1     -24.973  -2.505  29.788  0.00  0.00    -0.006 C 
ATOM     15  C   UNL A   1     -23.906  -3.173  29.146  0.00  0.00    -0.003 C 
ATOM     16  C   UNL A   1     -23.989  -4.549  28.853  0.00  0.00    -0.000 C 
ATOM     17  C   UNL A   1     -25.137  -5.280  29.205  0.00  0.00    -0.000 C 
ATOM     18  C   UNL A   1     -26.232  -4.611  29.784  0.00  0.00    -0.000 C 
ATOM     19  C   UNL A   1     -26.155  -3.232  30.065  0.00  0.00    -0.003 C 
ENDBRANCH  13  14
BRANCH  13  20
ATOM     20  C   UNL A   1     -25.387  -0.679  31.571  0.00  0.00    +0.092 C 
ATOM     21  C   UNL A   1     -25.189   0.773  32.028  0.00  0.00    +0.021 C 
ATOM     22  C   UNL A   1     -25.336   0.684  33.544  0.00  0.00    +0.020 C 
ATOM     23  C   UNL A   1     -24.829  -0.715  33.905  0.00  0.00    +0.089 C 
ATOM     24  N   UNL A   1     -24.758  -1.481  32.646  0.00  0.00    -0.218 NA
ENDBRANCH  13  20
ENDBRANCH   1  13
BRANCH   1  25
ATOM     25  C   UNL A   1     -24.731   0.116  28.095  0.00  0.00    +0.079 C 
BRANCH  25  26
ATOM     26  C   UNL A   1     -24.341   1.252  27.038  0.00  0.00    +0.074 C 
BRANCH  26  27
ATOM     27  C   UNL A   1     -25.688   1.614  26.461  0.00  0.00    +0.019 C 
ATOM     28  C   UNL A   1     -26.250   2.920  26.395  0.00  0.00    +0.073 C 
ATOM     29  C   UNL A   1     -27.438   3.091  25.645  0.00  0.00    +0.106 C 
ATOM     30  N   UNL A   1     -28.075   2.089  25.003  0.00  0.00    -0.208 NA
ATOM     31  C   UNL A   1     -27.543   0.849  25.079  0.00  0.00    +0.253 C 
ATOM     32  C   UNL A   1     -26.354   0.576  25.777  0.00  0.00    +0.189 C 
ATOM     33  F   UNL A   1     -25.860  -0.681  25.795  0.00  0.00    -0.200 F 
BRANCH  28  34
ATOM     34  C   UNL A   1     -25.642   4.093  27.123  0.00  0.00    +0.266 C 
ATOM     35  N   UNL A   1     -25.614   5.252  26.449  0.00  0.00    -0.200 NA
ATOM     36  C   UNL A   1     -25.026   6.479  26.963  0.00  0.00    +0.139 C 
ATOM     37  O   UNL A   1     -25.143   3.966  28.243  0.00  0.00    -0.268 OA
ENDBRANCH  28  34
BRANCH  31  38
ATOM     38  O   UNL A   1     -28.193  -0.208  24.477  0.00  0.00    -0.456 OA
BRANCH  38  39
ATOM     39  C   UNL A   1     -29.460   0.005  23.866  0.00  0.00    +0.243 C 
BRANCH  39  40
ATOM     40  C   UNL A   1     -30.065  -1.377  23.573  0.00  0.00    +0.229 C 
ATOM     41  O   UNL A   1     -30.729  -1.878  24.721  0.00  0.00    -0.216 OA
ENDBRANCH  39  40
ENDBRANCH  38  39
ENDBRANCH  31  38
ENDBRANCH  26  27
BRANCH  26  42
ATOM     42  C   UNL A   1     -23.227   2.354  26.830  0.00  0.00    +0.188 C 
ATOM     43  O   UNL A   1     -22.250   2.318  25.857  0.00  0.00    -0.220 OA
ENDBRANCH  26  42
ENDBRANCH  25  26
ENDBRANCH   1  25
TORSDOF 15
