MODEL 992
MODEL 1
REMARK VINA RESULT:    -7.933      0.000      0.000
REMARK INTER + INTRA:         -10.787
REMARK INTER:                  -9.788
REMARK INTRA:                  -0.999
REMARK UNBOUND:                -0.999
REMARK  Name = No_992-gen_results/8p0m/2024-11-27-11-27-31/
REMARK  4 active torsions:
REMARK  status: ('A' for Active; 'I' for Inactive)
REMARK    1  A    between atoms: C_1  and  C_2
REMARK    2  A    between atoms: C_5  and  C_13
REMARK    3  A    between atoms: C_12  and  O_16
REMARK    4  A    between atoms: O_16  and  C_17
REMARK                            x       y       z     vdW  Elec       q    Type
REMARK                         _______ _______ _______ _____ _____    ______ ____
ROOT
ATOM      1  C   UNL A   1     -24.176   0.196  26.993  0.00  0.00    +0.035 A 
ATOM      2  C   UNL A   1     -23.124   1.336  27.083  0.00  0.00    +0.003 A 
ATOM      3  C   UNL A   1     -22.446   1.567  27.871  0.00  0.00    +0.000 A 
ATOM      4  C   UNL A   1     -22.177   0.549  28.902  0.00  0.00    +0.003 A 
ATOM      5  C   UNL A   1     -23.067  -0.447  28.995  0.00  0.00    +0.037 A 
ATOM      6  C   UNL A   1     -24.084  -0.468  28.183  0.00  0.00    +0.145 A 
ENDROOT
BRANCH   1   7
ATOM      7  C   UNL A   1     -25.200   0.419  26.390  0.00  0.00    +0.003 A 
ATOM      8  C   UNL A   1     -26.147   1.299  26.803  0.00  0.00    +0.000 A 
ATOM      9  C   UNL A   1     -27.403   1.586  26.075  0.00  0.00    +0.005 A 
ATOM     10  C   UNL A   1     -27.609   0.892  24.838  0.00  0.00    +0.057 A 
ATOM     11  C   UNL A   1     -26.568   0.039  24.407  0.00  0.00    +0.005 A 
ATOM     12  C   UNL A   1     -25.427  -0.178  25.136  0.00  0.00    +0.000 A 
BRANCH  10  13
ATOM     13  C   UNL A   1     -28.744   1.095  23.989  0.00  0.00    +0.284 C 
ATOM     14  O   UNL A   1     -29.331   1.966  23.967  0.00  0.00    -0.267 OA
ATOM     15  N   UNL A   1     -29.167  -0.063  23.377  0.00  0.00    -0.084 NA
ENDBRANCH  10  13
ENDBRANCH   1   7
BRANCH   6  16
ATOM     16  O   UNL A   1     -24.995  -1.501  28.279  0.00  0.00    -0.454 OA
BRANCH  16  17
ATOM     17  C   UNL A   1     -24.983  -2.585  28.906  0.00  0.00    +0.145 A 
ATOM     18  C   UNL A   1     -24.113  -3.561  28.280  0.00  0.00    +0.037 A 
ATOM     19  C   UNL A   1     -25.840  -3.493  29.598  0.00  0.00    +0.037 A 
ATOM     20  C   UNL A   1     -25.961  -4.655  29.550  0.00  0.00    +0.003 A 
ATOM     21  C   UNL A   1     -24.121  -4.664  28.543  0.00  0.00    +0.003 A 
ATOM     22  C   UNL A   1     -24.946  -5.473  29.218  0.00  0.00    +0.000 A 
ENDBRANCH  16  17
ENDBRANCH   6  16
TORSDOF 4
ENDMDL
ENDMDL
