REMARK  Name = No_993-gen_results/8p0m/2024-11-27-11-27-31/
REMARK  6 active torsions:
REMARK  status: ('A' for Active; 'I' for Inactive)
REMARK    1  A    between atoms: C_3  and  C_14
REMARK    2  A    between atoms: C_4  and  C_8
REMARK    3  A    between atoms: C_8  and  C_9
REMARK    4  A    between atoms: C_9  and  C_10
REMARK    5  A    between atoms: C_9  and  C_11
REMARK    6  A    between atoms: C_14  and  C_15
REMARK                            x       y       z     vdW  Elec       q    Type
REMARK                         _______ _______ _______ _____ _____    ______ ____
ROOT
ATOM      1  C   UNL A   1     -28.016  -0.814  28.878  0.00  0.00    +0.007 A 
ATOM      2  C   UNL A   1     -28.469  -0.785  29.829  0.00  0.00    +0.057 A 
ATOM      3  C   UNL A   1     -26.546  -0.876  28.850  0.00  0.00    -0.021 A 
ATOM      4  C   UNL A   1     -25.804  -1.032  30.057  0.00  0.00    -0.025 A 
ATOM      5  C   UNL A   1     -27.944  -0.987  31.207  0.00  0.00    +0.011 A 
ATOM      6  C   UNL A   1     -26.582  -1.039  31.223  0.00  0.00    -0.004 A 
ATOM      7 CL   UNL A   1     -30.281  -0.723  29.883  0.00  0.00    -0.082 Cl
ENDROOT
BRANCH   4   8
ATOM      8  C   UNL A   1     -24.369  -1.119  30.064  0.00  0.00    +0.043 C 
BRANCH   8   9
ATOM      9  C   UNL A   1     -23.681   0.152  30.084  0.00  0.00    +0.149 C 
BRANCH   9  10
ATOM     10  C   UNL A   1     -22.435   0.282  29.399  0.00  0.00    +0.268 C 
ATOM     11  N   UNL A   1     -21.576  -0.581  29.366  0.00  0.00    -0.087 NA
ATOM     12  O   UNL A   1     -22.189   1.397  28.760  0.00  0.00    -0.271 OA
ENDBRANCH   9  10
BRANCH   9  13
ATOM     13  C   UNL A   1     -24.213   1.303  30.758  0.00  0.00    +0.217 C 
ATOM     14  O   UNL A   1     -24.268   1.442  31.921  0.00  0.00    -0.288 OA
ENDBRANCH   9  13
ENDBRANCH   8   9
ENDBRANCH   4   8
BRANCH   3  15
ATOM     15  C   UNL A   1     -25.732  -0.785  27.605  0.00  0.00    +0.052 C 
BRANCH  15  16
ATOM     16  C   UNL A   1     -26.109   0.262  26.663  0.00  0.00    -0.018 A 
ATOM     17  C   UNL A   1     -25.491   0.353  25.473  0.00  0.00    -0.004 A 
ATOM     18  C   UNL A   1     -27.063   1.249  26.977  0.00  0.00    -0.004 A 
ATOM     19  C   UNL A   1     -27.309   2.255  26.035  0.00  0.00    -0.000 A 
ATOM     20  C   UNL A   1     -25.749   1.270  24.515  0.00  0.00    -0.000 A 
ATOM     21  C   UNL A   1     -26.715   2.201  24.814  0.00  0.00    -0.000 A 
ENDBRANCH  15  16
ENDBRANCH   3  15
TORSDOF 6
