REMARK  Name = outputs/IAG933/test6/raw/output_9933_IAG933_linker_design_.xyz
REMARK  13 active torsions:
REMARK  status: ('A' for Active; 'I' for Inactive)
REMARK    1  A    between atoms: C_1  and  C_2
REMARK    2  A    between atoms: C_1  and  C_8
REMARK    3  A    between atoms: C_1  and  C_36
REMARK    4  A    between atoms: C_13  and  C_44
REMARK    5  A    between atoms: C_14  and  C_15
REMARK    6  A    between atoms: C_21  and  O_22
REMARK    7  A    between atoms: O_22  and  C_23
REMARK    8  A    between atoms: C_23  and  C_24
REMARK    9  A    between atoms: C_28  and  C_33
REMARK   10  A    between atoms: C_30  and  O_42
REMARK   11  A    between atoms: CA_32  and  CB_34
REMARK   12  A    between atoms: CA_32  and  N_41
REMARK   13  A    between atoms: CA_32  and  C_43
REMARK                            x       y       z     vdW  Elec       q    Type
REMARK                         _______ _______ _______ _____ _____    ______ ____
ROOT
ATOM      1  C   UNK     1     -23.478   1.603  27.046  0.00  0.00    +0.166 C 
ATOM      2  F   UNK     1     -21.220   1.213  27.598  0.00  0.00    -0.201 F 
ATOM      3  C   UNK     1     -25.260   0.636  28.455  0.00  0.00    +0.054 C 
ATOM      4  C   UNK     1     -22.542   1.002  27.837  0.00  0.00    +0.173 C 
ATOM      5  C   UNK     1     -24.332  -0.024  29.158  0.00  0.00    -0.010 C 
ATOM      6  C   UNK     1     -22.959   0.176  28.866  0.00  0.00    +0.029 C 
ATOM      7  C   UNK     1     -24.831   1.319  27.315  0.00  0.00    +0.039 C 
ENDROOT
BRANCH   7   8
ATOM      8  C   UNK     1     -25.688   1.614  26.461  0.00  0.00    +0.024 C 
ATOM      9  C   UNK     1     -26.250   2.920  26.395  0.00  0.00    +0.056 C 
ATOM     10  C   UNK     1     -27.438   3.091  25.645  0.00  0.00    +0.159 C 
ATOM     11  N   UNK     1     -28.075   2.089  25.003  0.00  0.00    -0.234 NA
ATOM     12  C   UNK     1     -27.543   0.849  25.079  0.00  0.00    +0.234 C 
ATOM     13  C   UNK     1     -26.354   0.576  25.777  0.00  0.00    +0.258 C 
ATOM     14  F   UNK     1     -25.860  -0.681  25.795  0.00  0.00    -0.222 F 
BRANCH   9  15
ATOM     15  C   UNK     1     -25.642   4.093  27.123  0.00  0.00    +0.263 C 
ATOM     16  N   UNK     1     -25.614   5.252  26.449  0.00  0.00    -0.200 NA
ATOM     17  C   UNK     1     -25.026   6.479  26.963  0.00  0.00    +0.139 C 
ATOM     18  O   UNK     1     -25.143   3.966  28.243  0.00  0.00    -0.269 OA
ENDBRANCH   9  15
BRANCH  12  19
ATOM     19  O   UNK     1     -28.193  -0.208  24.477  0.00  0.00    -0.459 OA
BRANCH  19  20
ATOM     20  C   UNK     1     -29.460   0.005  23.866  0.00  0.00    +0.242 C 
BRANCH  20  21
ATOM     21  C   UNK     1     -30.065  -1.377  23.573  0.00  0.00    +0.229 C 
ATOM     22  O   UNK     1     -30.729  -1.878  24.721  0.00  0.00    -0.216 OA
ENDBRANCH  20  21
ENDBRANCH  19  20
ENDBRANCH  12  19
ENDBRANCH   7   8
BRANCH   3  23
ATOM     23  C   UNK     1     -26.688   0.506  28.921  0.00  0.00    +0.265 C 
ATOM     24  O   UNK     1     -27.284  -0.585  28.816  0.00  0.00    -0.268 OA
ATOM     25  N   SER A   1     -27.415   1.519  29.439  0.00  0.00    -0.198 NA
BRANCH  25  26
ATOM     26  CA  SER A   1     -28.819   1.293  29.750  0.00  0.00    +0.161 C 
BRANCH  26  27
ATOM     27  CB  SER A   1     -29.548   1.294  28.397  0.00  0.00    +0.206 C 
ATOM     28  OG  SER A   1     -30.782   1.944  28.593  0.00  0.00    -0.218 OA
ENDBRANCH  26  27
BRANCH  26  30
ATOM     29  O   SER A   1     -28.543   3.447  30.919  0.00  0.00    -0.218 OA
ATOM     30  C   SER A   1     -29.419   2.342  30.714  0.00  0.00    +0.206 C 
ENDBRANCH  26  30
ENDBRANCH  25  26
ENDBRANCH   3  23
BRANCH   1  32
ATOM     31  C   UNK     1     -22.831   1.683  24.757  0.00  0.00    +0.253 C 
ATOM     32  O   UNK     1     -23.136   2.488  25.965  0.00  0.00    -0.469 OA
ENDBRANCH   1  32
BRANCH   5  33
ATOM     33  C   UNK     1     -24.855  -1.012  30.143  0.00  0.00    +0.061 C 
BRANCH  33  34
ATOM     34  C   UNK     1     -24.973  -2.505  29.788  0.00  0.00    -0.017 C 
ATOM     35  C   UNK     1     -23.906  -3.173  29.146  0.00  0.00    -0.004 C 
ATOM     36  C   UNK     1     -23.989  -4.549  28.853  0.00  0.00    -0.000 C 
ATOM     37  C   UNK     1     -25.137  -5.280  29.205  0.00  0.00    -0.000 C 
ATOM     38  C   UNK     1     -26.232  -4.611  29.784  0.00  0.00    -0.000 C 
ATOM     39  C   UNK     1     -26.155  -3.232  30.065  0.00  0.00    -0.004 C 
ENDBRANCH  33  34
BRANCH  33  40
ATOM     40  C   UNK     1     -25.387  -0.679  31.571  0.00  0.00    +0.081 C 
ATOM     41  C   UNK     1     -25.189   0.773  32.028  0.00  0.00    +0.019 C 
ATOM     42  C   UNK     1     -25.336   0.684  33.544  0.00  0.00    +0.020 C 
ATOM     43  C   UNK     1     -24.829  -0.715  33.905  0.00  0.00    +0.089 C 
ATOM     44  N   UNK     1     -24.758  -1.481  32.646  0.00  0.00    -0.219 NA
ENDBRANCH  33  40
ENDBRANCH   5  33
TORSDOF 13
