REMARK  Name = outputs/IAG933/test6/raw/output_9938_IAG933_linker_design_.xyz
REMARK  10 active torsions:
REMARK  status: ('A' for Active; 'I' for Inactive)
REMARK    1  A    between atoms: C_1  and  C_2
REMARK    2  A    between atoms: C_1  and  C_8
REMARK    3  A    between atoms: C_1  and  C_28
REMARK    4  A    between atoms: C_13  and  C_31
REMARK    5  A    between atoms: C_14  and  C_15
REMARK    6  A    between atoms: C_21  and  O_22
REMARK    7  A    between atoms: O_22  and  C_23
REMARK    8  A    between atoms: C_23  and  C_24
REMARK    9  A    between atoms: C_28  and  C_37
REMARK   10  A    between atoms: C_28  and  C_39
REMARK                            x       y       z     vdW  Elec       q    Type
REMARK                         _______ _______ _______ _____ _____    ______ ____
ROOT
ATOM      1  F   UNL A   1     -22.764   1.833  25.175  0.00  0.00    -0.201 F 
ATOM      2  C   UNL A   1     -24.364   1.215  26.949  0.00  0.00    +0.031 C 
ATOM      3  C   UNL A   1     -22.831   0.345  28.253  0.00  0.00    +0.115 C 
ATOM      4  N   UNL A   1     -22.131  -0.552  29.025  0.00  0.00    -0.238 NA
ATOM      5  O   UNL A   1     -20.738   1.255  27.444  0.00  0.00    -0.445 OA
ATOM      6  C   UNL A   1     -23.096   1.500  26.415  0.00  0.00    +0.176 C 
ATOM      7  C   UNL A   1     -22.108   1.143  27.346  0.00  0.00    +0.190 C 
ATOM      8  C   UNL A   1     -24.227   0.491  28.124  0.00  0.00    +0.010 C 
ATOM      9  C   UNL A   1     -20.878  -0.528  28.756  0.00  0.00    +0.140 C 
ATOM     10  C   UNL A   1     -20.127   0.237  28.145  0.00  0.00    +0.200 C 
ENDROOT
BRANCH   2  11
ATOM     11  C   UNL A   1     -25.688   1.614  26.461  0.00  0.00    +0.040 C 
ATOM     12  C   UNL A   1     -26.250   2.920  26.395  0.00  0.00    +0.077 C 
ATOM     13  C   UNL A   1     -27.438   3.091  25.645  0.00  0.00    +0.107 C 
ATOM     14  N   UNL A   1     -28.075   2.089  25.003  0.00  0.00    -0.208 NA
ATOM     15  C   UNL A   1     -27.543   0.849  25.079  0.00  0.00    +0.253 C 
ATOM     16  C   UNL A   1     -26.354   0.576  25.777  0.00  0.00    +0.193 C 
ATOM     17  F   UNL A   1     -25.860  -0.681  25.795  0.00  0.00    -0.199 F 
BRANCH  12  18
ATOM     18  C   UNL A   1     -25.642   4.093  27.123  0.00  0.00    +0.266 C 
ATOM     19  N   UNL A   1     -25.614   5.252  26.449  0.00  0.00    -0.200 NA
ATOM     20  C   UNL A   1     -25.026   6.479  26.963  0.00  0.00    +0.139 C 
ATOM     21  O   UNL A   1     -25.143   3.966  28.243  0.00  0.00    -0.268 OA
ENDBRANCH  12  18
BRANCH  15  22
ATOM     22  O   UNL A   1     -28.193  -0.208  24.477  0.00  0.00    -0.456 OA
BRANCH  22  23
ATOM     23  C   UNL A   1     -29.460   0.005  23.866  0.00  0.00    +0.243 C 
BRANCH  23  24
ATOM     24  C   UNL A   1     -30.065  -1.377  23.573  0.00  0.00    +0.229 C 
ATOM     25  O   UNL A   1     -30.729  -1.878  24.721  0.00  0.00    -0.216 OA
ENDBRANCH  23  24
ENDBRANCH  22  23
ENDBRANCH  15  22
ENDBRANCH   2  11
BRANCH   8  26
ATOM     26  C   UNL A   1     -25.191  -0.069  28.980  0.00  0.00    +0.109 C 
BRANCH  26  29
ATOM     27  O   UNL A   1     -27.293  -0.914  28.805  0.00  0.00    -0.271 OA
ATOM     28  N   UNL A   1     -27.191   1.317  29.048  0.00  0.00    -0.087 NA
ATOM     29  C   UNL A   1     -26.667   0.137  28.865  0.00  0.00    +0.265 C 
ENDBRANCH  26  29
BRANCH  26  30
ATOM     30  C   UNL A   1     -24.855  -1.012  30.143  0.00  0.00    +0.051 C 
BRANCH  30  31
ATOM     31  C   UNL A   1     -24.973  -2.505  29.788  0.00  0.00    -0.020 C 
ATOM     32  C   UNL A   1     -23.906  -3.173  29.146  0.00  0.00    -0.004 C 
ATOM     33  C   UNL A   1     -23.989  -4.549  28.853  0.00  0.00    -0.000 C 
ATOM     34  C   UNL A   1     -25.137  -5.280  29.205  0.00  0.00    -0.000 C 
ATOM     35  C   UNL A   1     -26.232  -4.611  29.784  0.00  0.00    -0.000 C 
ATOM     36  C   UNL A   1     -26.155  -3.232  30.065  0.00  0.00    -0.004 C 
ENDBRANCH  30  31
BRANCH  30  37
ATOM     37  C   UNL A   1     -25.387  -0.679  31.571  0.00  0.00    +0.078 C 
ATOM     38  C   UNL A   1     -25.189   0.773  32.028  0.00  0.00    +0.019 C 
ATOM     39  C   UNL A   1     -25.336   0.684  33.544  0.00  0.00    +0.020 C 
ATOM     40  C   UNL A   1     -24.829  -0.715  33.905  0.00  0.00    +0.089 C 
ATOM     41  N   UNL A   1     -24.758  -1.481  32.646  0.00  0.00    -0.219 NA
ENDBRANCH  30  37
ENDBRANCH  26  30
ENDBRANCH   8  26
TORSDOF 10
