REMARK  Name = outputs/IAG933/test6/raw/output_9939_IAG933_linker_design_.xyz
REMARK  12 active torsions:
REMARK  status: ('A' for Active; 'I' for Inactive)
REMARK    1  A    between atoms: C_1  and  C_2
REMARK    2  A    between atoms: C_1  and  C_8
REMARK    3  A    between atoms: C_1  and  N_29
REMARK    4  A    between atoms: C_13  and  N_35
REMARK    5  A    between atoms: C_14  and  C_15
REMARK    6  A    between atoms: C_21  and  O_22
REMARK    7  A    between atoms: O_22  and  C_23
REMARK    8  A    between atoms: C_23  and  C_24
REMARK    9  A    between atoms: C_31  and  N_35
REMARK   10  A    between atoms: C_31  and  C_37
REMARK   11  A    between atoms: C_31  and  C_41
REMARK   12  A    between atoms: C_33  and  N_35
REMARK                            x       y       z     vdW  Elec       q    Type
REMARK                         _______ _______ _______ _____ _____    ______ ____
ROOT
ATOM      1  N   UNL A   1     -24.595   1.454  27.287  0.00  0.00    -0.292 N 
ENDROOT
BRANCH   1   2
ATOM      2  C   UNL A   1     -25.688   1.614  26.461  0.00  0.00    +0.087 C 
ATOM      3  C   UNL A   1     -26.250   2.920  26.395  0.00  0.00    +0.090 C 
ATOM      4  C   UNL A   1     -27.438   3.091  25.645  0.00  0.00    +0.108 C 
ATOM      5  N   UNL A   1     -28.075   2.089  25.003  0.00  0.00    -0.208 NA
ATOM      6  C   UNL A   1     -27.543   0.849  25.079  0.00  0.00    +0.255 C 
ATOM      7  C   UNL A   1     -26.354   0.576  25.777  0.00  0.00    +0.206 C 
ATOM      8  F   UNL A   1     -25.860  -0.681  25.795  0.00  0.00    -0.198 F 
BRANCH   3   9
ATOM      9  C   UNL A   1     -25.642   4.093  27.123  0.00  0.00    +0.268 C 
ATOM     10  N   UNL A   1     -25.614   5.252  26.449  0.00  0.00    -0.200 NA
ATOM     11  C   UNL A   1     -25.026   6.479  26.963  0.00  0.00    +0.139 C 
ATOM     12  O   UNL A   1     -25.143   3.966  28.243  0.00  0.00    -0.268 OA
ENDBRANCH   3   9
BRANCH   6  13
ATOM     13  O   UNL A   1     -28.193  -0.208  24.477  0.00  0.00    -0.456 OA
BRANCH  13  14
ATOM     14  C   UNL A   1     -29.460   0.005  23.866  0.00  0.00    +0.243 C 
BRANCH  14  15
ATOM     15  C   UNL A   1     -30.065  -1.377  23.573  0.00  0.00    +0.229 C 
ATOM     16  O   UNL A   1     -30.729  -1.878  24.721  0.00  0.00    -0.216 OA
ENDBRANCH  14  15
ENDBRANCH  13  14
ENDBRANCH   6  13
ENDBRANCH   1   2
BRANCH   1  18
ATOM     17  N   UNL A   1     -24.448  -0.233  29.343  0.00  0.00    -0.253 NA
ATOM     18  C   UNL A   1     -24.752   0.925  28.529  0.00  0.00    +0.121 C 
ATOM     19  C   UNL A   1     -24.392  -0.527  28.134  0.00  0.00    +0.108 C 
ATOM     20  C   UNL A   1     -25.402   1.802  29.477  0.00  0.00    +0.038 C 
BRANCH  17  21
ATOM     21  C   UNL A   1     -24.855  -1.012  30.143  0.00  0.00    +0.098 C 
BRANCH  21  22
ATOM     22  C   UNL A   1     -24.973  -2.505  29.788  0.00  0.00    -0.006 C 
ATOM     23  C   UNL A   1     -23.906  -3.173  29.146  0.00  0.00    -0.003 C 
ATOM     24  C   UNL A   1     -23.989  -4.549  28.853  0.00  0.00    -0.000 C 
ATOM     25  C   UNL A   1     -25.137  -5.280  29.205  0.00  0.00    -0.000 C 
ATOM     26  C   UNL A   1     -26.232  -4.611  29.784  0.00  0.00    -0.000 C 
ATOM     27  C   UNL A   1     -26.155  -3.232  30.065  0.00  0.00    -0.003 C 
ENDBRANCH  21  22
BRANCH  21  28
ATOM     28  C   UNL A   1     -25.387  -0.679  31.571  0.00  0.00    +0.092 C 
ATOM     29  C   UNL A   1     -25.189   0.773  32.028  0.00  0.00    +0.021 C 
ATOM     30  C   UNL A   1     -25.336   0.684  33.544  0.00  0.00    +0.020 C 
ATOM     31  C   UNL A   1     -24.829  -0.715  33.905  0.00  0.00    +0.089 C 
ATOM     32  N   UNL A   1     -24.758  -1.481  32.646  0.00  0.00    -0.218 NA
ENDBRANCH  21  28
ENDBRANCH  17  21
ENDBRANCH   1  18
BRANCH   1  33
ATOM     33  C   UNL A   1     -23.265   1.605  26.928  0.00  0.00    +0.137 C 
BRANCH  33  39
ATOM     34  C   UNL A   1     -20.945  -0.286  28.418  0.00  0.00    +0.174 C 
ATOM     35  C   UNL A   1     -22.390   0.682  29.213  0.00  0.00    +0.173 C 
ATOM     36  O   UNL A   1     -20.857   1.560  27.373  0.00  0.00    -0.349 OA
ATOM     37  C   UNL A   1     -20.043   0.836  28.148  0.00  0.00    +0.174 C 
ATOM     38  O   UNL A   1     -21.580  -0.451  29.415  0.00  0.00    -0.348 OA
ATOM     39  C   UNL A   1     -22.291   1.559  27.860  0.00  0.00    +0.165 C 
ENDBRANCH  33  39
BRANCH  33  41
ATOM     40  O   UNL A   1     -23.446   1.121  24.672  0.00  0.00    -0.218 OA
ATOM     41  C   UNL A   1     -22.956   1.871  25.709  0.00  0.00    +0.204 C 
ENDBRANCH  33  41
ENDBRANCH   1  33
TORSDOF 12
