MODEL 993
MODEL 1
REMARK VINA RESULT:    -6.702      0.000      0.000
REMARK INTER + INTRA:          -9.964
REMARK INTER:                  -9.053
REMARK INTRA:                  -0.911
REMARK UNBOUND:                -0.911
REMARK  Name = No_993-gen_results/8p0m/2024-11-27-11-27-31/
REMARK  6 active torsions:
REMARK  status: ('A' for Active; 'I' for Inactive)
REMARK    1  A    between atoms: C_3  and  C_14
REMARK    2  A    between atoms: C_4  and  C_8
REMARK    3  A    between atoms: C_8  and  C_9
REMARK    4  A    between atoms: C_9  and  C_10
REMARK    5  A    between atoms: C_9  and  C_11
REMARK    6  A    between atoms: C_14  and  C_15
REMARK                            x       y       z     vdW  Elec       q    Type
REMARK                         _______ _______ _______ _____ _____    ______ ____
ROOT
ATOM      1  C   UNL A   1     -23.875  -3.043  28.920  0.00  0.00    +0.007 A 
ATOM      2  C   UNL A   1     -24.660  -3.738  29.025  0.00  0.00    +0.057 A 
ATOM      3  C   UNL A   1     -24.156  -1.663  29.347  0.00  0.00    -0.021 A 
ATOM      4  C   UNL A   1     -25.383  -1.341  29.998  0.00  0.00    -0.025 A 
ATOM      5  C   UNL A   1     -25.981  -3.678  29.707  0.00  0.00    +0.011 A 
ATOM      6  C   UNL A   1     -26.282  -2.411  30.109  0.00  0.00    -0.004 A 
ATOM      7 CL   UNL A   1     -24.327  -5.447  28.517  0.00  0.00    -0.082 Cl
ENDROOT
BRANCH   4   8
ATOM      8  C   UNL A   1     -25.680  -0.009  30.449  0.00  0.00    +0.043 C 
BRANCH   8   9
ATOM      9  C   UNL A   1     -25.037   0.375  31.685  0.00  0.00    +0.149 C 
BRANCH   9  10
ATOM     10  C   UNL A   1     -24.655   1.736  31.880  0.00  0.00    +0.268 C 
ATOM     11  N   UNL A   1     -23.819   2.318  31.211  0.00  0.00    -0.087 NA
ATOM     12  O   UNL A   1     -25.235   2.415  32.837  0.00  0.00    -0.271 OA
ENDBRANCH   9  10
BRANCH   9  13
ATOM     13  C   UNL A   1     -24.778  -0.565  32.740  0.00  0.00    +0.217 C 
ATOM     14  O   UNL A   1     -23.720  -0.968  33.044  0.00  0.00    -0.288 OA
ENDBRANCH   9  13
ENDBRANCH   8   9
ENDBRANCH   4   8
BRANCH   3  15
ATOM     15  C   UNL A   1     -23.219  -0.522  29.146  0.00  0.00    +0.052 C 
BRANCH  15  16
ATOM     16  C   UNL A   1     -23.407   0.261  27.931  0.00  0.00    -0.018 A 
ATOM     17  C   UNL A   1     -22.607   1.310  27.673  0.00  0.00    -0.004 A 
ATOM     18  C   UNL A   1     -24.458   0.008  27.028  0.00  0.00    -0.004 A 
ATOM     19  C   UNL A   1     -24.600   0.857  25.924  0.00  0.00    -0.000 A 
ATOM     20  C   UNL A   1     -22.675   2.109  26.586  0.00  0.00    -0.000 A 
ATOM     21  C   UNL A   1     -23.675   1.824  25.688  0.00  0.00    -0.000 A 
ENDBRANCH  15  16
ENDBRANCH   3  15
TORSDOF 6
ENDMDL
ENDMDL
