REMARK  Name = No_994-gen_results/8p0m/2024-11-27-11-27-31/
REMARK  1 active torsions:
REMARK  status: ('A' for Active; 'I' for Inactive)
REMARK    1  A    between atoms: C_5  and  C_10
REMARK                            x       y       z     vdW  Elec       q    Type
REMARK                         _______ _______ _______ _____ _____    ______ ____
ROOT
ATOM      1  C   UNL A   1     -28.016  -0.814  28.878  0.00  0.00    +0.027 C 
ATOM      2  C   UNL A   1     -27.064  -0.119  28.608  0.00  0.00    -0.025 A 
ATOM      3  C   UNL A   1     -26.972   0.714  27.506  0.00  0.00    -0.010 A 
ATOM      4  C   UNL A   1     -25.820   1.491  27.116  0.00  0.00    +0.003 A 
ATOM      5  C   UNL A   1     -24.858   1.342  27.601  0.00  0.00    +0.080 A 
ATOM      6  C   UNL A   1     -24.622   0.529  28.814  0.00  0.00    +0.006 A 
ATOM      7  C   UNL A   1     -25.734  -0.181  29.191  0.00  0.00    -0.004 A 
ATOM      8  C   UNL A   1     -29.213  -0.095  29.383  0.00  0.00    +0.019 C 
ATOM      9  C   UNL A   1     -30.338  -0.851  29.834  0.00  0.00    +0.002 C 
ATOM     10  C   UNL A   1     -30.601  -0.900  31.067  0.00  0.00    +0.000 C 
ATOM     11  C   UNL A   1     -30.427   0.219  31.863  0.00  0.00    +0.000 C 
ATOM     12  C   UNL A   1     -29.430   1.131  31.456  0.00  0.00    +0.000 C 
ATOM     13  C   UNL A   1     -28.645   0.633  30.707  0.00  0.00    +0.002 C 
ATOM     14  C   UNL A   1     -29.669   0.985  28.441  0.00  0.00    +0.073 C 
ATOM     15  N   UNL A   1     -29.651   0.980  27.212  0.00  0.00    -0.268 NA
ATOM     16  C   UNL A   1     -30.716   0.742  26.492  0.00  0.00    +0.090 C 
ATOM     17  C   UNL A   1     -28.295   0.792  26.596  0.00  0.00    +0.099 C 
ENDROOT
BRANCH   5  18
ATOM     18  C   UNL A   1     -23.520   2.144  27.295  0.00  0.00    +0.388 C 
ATOM     19  O   UNL A   1     -23.362   2.442  26.055  0.00  0.00    -0.241 OA
ATOM     20  O   UNL A   1     -22.770   2.684  28.193  0.00  0.00    -0.241 OA
ENDBRANCH   5  18
TORSDOF 1
