REMARK  Name = outputs/IAG933/test6/raw/output_9945_IAG933_linker_design_.xyz
REMARK  12 active torsions:
REMARK  status: ('A' for Active; 'I' for Inactive)
REMARK    1  A    between atoms: C_1  and  C_2
REMARK    2  A    between atoms: C_1  and  C_8
REMARK    3  A    between atoms: C_1  and  C_42
REMARK    4  A    between atoms: C_13  and  C_44
REMARK    5  A    between atoms: C_14  and  C_15
REMARK    6  A    between atoms: C_21  and  O_22
REMARK    7  A    between atoms: O_22  and  C_23
REMARK    8  A    between atoms: C_23  and  C_24
REMARK    9  A    between atoms: C_30  and  C_42
REMARK   10  A    between atoms: N_37  and  C_40
REMARK   11  A    between atoms: N_38  and  C_40
REMARK   12  A    between atoms: C_42  and  C_43
REMARK                            x       y       z     vdW  Elec       q    Type
REMARK                         _______ _______ _______ _____ _____    ______ ____
ROOT
ATOM      1  C   UNL A   1     -25.383  -0.043  29.099  0.00  0.00    +0.106 C 
ENDROOT
BRANCH   1   4
ATOM      2  C   UNL A   1     -22.863   0.720  28.762  0.00  0.00    -0.004 C 
ATOM      3  C   UNL A   1     -23.281   1.892  26.233  0.00  0.00    -0.000 C 
ATOM      4  C   UNL A   1     -24.260   0.714  28.319  0.00  0.00    -0.013 C 
ATOM      5  C   UNL A   1     -21.985   1.845  26.751  0.00  0.00    -0.000 C 
ATOM      6  C   UNL A   1     -21.783   1.291  27.998  0.00  0.00    -0.000 C 
ATOM      7  C   UNL A   1     -24.362   1.392  26.984  0.00  0.00    -0.001 C 
BRANCH   7   8
ATOM      8  C   UNL A   1     -25.688   1.614  26.461  0.00  0.00    +0.038 C 
ATOM      9  C   UNL A   1     -26.250   2.920  26.395  0.00  0.00    +0.076 C 
ATOM     10  C   UNL A   1     -27.438   3.091  25.645  0.00  0.00    +0.107 C 
ATOM     11  N   UNL A   1     -28.075   2.089  25.003  0.00  0.00    -0.208 NA
ATOM     12  C   UNL A   1     -27.543   0.849  25.079  0.00  0.00    +0.253 C 
ATOM     13  C   UNL A   1     -26.354   0.576  25.777  0.00  0.00    +0.193 C 
ATOM     14  F   UNL A   1     -25.860  -0.681  25.795  0.00  0.00    -0.199 F 
BRANCH   9  15
ATOM     15  C   UNL A   1     -25.642   4.093  27.123  0.00  0.00    +0.266 C 
ATOM     16  N   UNL A   1     -25.614   5.252  26.449  0.00  0.00    -0.200 NA
ATOM     17  C   UNL A   1     -25.026   6.479  26.963  0.00  0.00    +0.139 C 
ATOM     18  O   UNL A   1     -25.143   3.966  28.243  0.00  0.00    -0.268 OA
ENDBRANCH   9  15
BRANCH  12  19
ATOM     19  O   UNL A   1     -28.193  -0.208  24.477  0.00  0.00    -0.456 OA
BRANCH  19  20
ATOM     20  C   UNL A   1     -29.460   0.005  23.866  0.00  0.00    +0.243 C 
BRANCH  20  21
ATOM     21  C   UNL A   1     -30.065  -1.377  23.573  0.00  0.00    +0.229 C 
ATOM     22  O   UNL A   1     -30.729  -1.878  24.721  0.00  0.00    -0.216 OA
ENDBRANCH  20  21
ENDBRANCH  19  20
ENDBRANCH  12  19
ENDBRANCH   7   8
ENDBRANCH   1   4
BRANCH   1  25
ATOM     23  N   UNL A   1     -27.590   0.516  30.273  0.00  0.00    -0.187 NA
ATOM     24  O   UNL A   1     -27.593  -0.699  28.430  0.00  0.00    -0.273 OA
ATOM     25  C   UNL A   1     -26.954  -0.076  29.224  0.00  0.00    +0.247 C 
BRANCH  23  26
ATOM     26  C   UNL A   1     -28.780   1.363  30.069  0.00  0.00    +0.190 C 
BRANCH  26  32
ATOM     27  C   UNL A   1     -27.251   3.057  31.049  0.00  0.00    +0.076 C 
ATOM     28  C   UNL A   1     -27.251   4.565  30.969  0.00  0.00    +0.052 C 
ATOM     29  C   UNL A   1     -29.393   3.654  30.358  0.00  0.00    +0.107 C 
ATOM     30  O   UNL A   1     -29.255   5.624  31.856  0.00  0.00    -0.222 OA
ATOM     31  C   UNL A   1     -28.720   4.845  30.929  0.00  0.00    +0.169 C 
ATOM     32  N   UNL A   1     -28.647   2.570  30.993  0.00  0.00    -0.252 NA
ENDBRANCH  26  32
ENDBRANCH  23  26
ENDBRANCH   1  25
BRANCH   1  33
ATOM     33  C   UNL A   1     -24.855  -1.012  30.143  0.00  0.00    +0.051 C 
BRANCH  33  34
ATOM     34  C   UNL A   1     -24.973  -2.505  29.788  0.00  0.00    -0.020 C 
ATOM     35  C   UNL A   1     -23.906  -3.173  29.146  0.00  0.00    -0.004 C 
ATOM     36  C   UNL A   1     -23.989  -4.549  28.853  0.00  0.00    -0.000 C 
ATOM     37  C   UNL A   1     -25.137  -5.280  29.205  0.00  0.00    -0.000 C 
ATOM     38  C   UNL A   1     -26.232  -4.611  29.784  0.00  0.00    -0.000 C 
ATOM     39  C   UNL A   1     -26.155  -3.232  30.065  0.00  0.00    -0.004 C 
ENDBRANCH  33  34
BRANCH  33  40
ATOM     40  C   UNL A   1     -25.387  -0.679  31.571  0.00  0.00    +0.078 C 
ATOM     41  C   UNL A   1     -25.189   0.773  32.028  0.00  0.00    +0.019 C 
ATOM     42  C   UNL A   1     -25.336   0.684  33.544  0.00  0.00    +0.020 C 
ATOM     43  C   UNL A   1     -24.829  -0.715  33.905  0.00  0.00    +0.089 C 
ATOM     44  N   UNL A   1     -24.758  -1.481  32.646  0.00  0.00    -0.219 NA
ENDBRANCH  33  40
ENDBRANCH   1  33
TORSDOF 12
