MODEL 994
MODEL 1
REMARK VINA RESULT:    -7.782      0.000      0.000
REMARK INTER + INTRA:          -8.324
REMARK INTER:                  -8.237
REMARK INTRA:                  -0.087
REMARK UNBOUND:                -0.087
REMARK  Name = No_994-gen_results/8p0m/2024-11-27-11-27-31/
REMARK  1 active torsions:
REMARK  status: ('A' for Active; 'I' for Inactive)
REMARK    1  A    between atoms: C_5  and  C_10
REMARK                            x       y       z     vdW  Elec       q    Type
REMARK                         _______ _______ _______ _____ _____    ______ ____
ROOT
ATOM      1  C   UNL A   1     -26.045  -1.364  28.640  0.00  0.00    +0.027 C 
ATOM      2  C   UNL A   1     -25.352  -0.621  27.984  0.00  0.00    -0.025 A 
ATOM      3  C   UNL A   1     -24.545   0.379  28.499  0.00  0.00    -0.010 A 
ATOM      4  C   UNL A   1     -23.773   1.330  27.737  0.00  0.00    +0.003 A 
ATOM      5  C   UNL A   1     -23.906   1.422  26.662  0.00  0.00    +0.080 A 
ATOM      6  C   UNL A   1     -24.689   0.500  25.810  0.00  0.00    +0.006 A 
ATOM      7  C   UNL A   1     -25.395  -0.418  26.546  0.00  0.00    -0.004 A 
ATOM      8  C   UNL A   1     -25.320  -2.411  29.404  0.00  0.00    +0.019 C 
ATOM      9  C   UNL A   1     -26.070  -3.400  30.111  0.00  0.00    +0.002 C 
ATOM     10  C   UNL A   1     -26.091  -4.587  29.685  0.00  0.00    +0.000 C 
ATOM     11  C   UNL A   1     -24.952  -5.152  29.137  0.00  0.00    +0.000 C 
ATOM     12  C   UNL A   1     -24.046  -4.266  28.518  0.00  0.00    +0.000 C 
ATOM     13  C   UNL A   1     -24.558  -3.225  28.236  0.00  0.00    +0.002 C 
ATOM     14  C   UNL A   1     -24.264  -1.831  30.305  0.00  0.00    +0.073 C 
ATOM     15  N   UNL A   1     -24.298  -0.777  30.936  0.00  0.00    -0.268 NA
ATOM     16  C   UNL A   1     -24.558  -0.729  32.217  0.00  0.00    +0.090 C 
ATOM     17  C   UNL A   1     -24.495   0.457  30.104  0.00  0.00    +0.099 C 
ENDROOT
BRANCH   5  18
ATOM     18  C   UNL A   1     -23.106   2.400  25.698  0.00  0.00    +0.388 C 
ATOM     19  O   UNL A   1     -23.684   3.531  25.505  0.00  0.00    -0.241 OA
ATOM     20  O   UNL A   1     -21.883   2.226  25.331  0.00  0.00    -0.241 OA
ENDBRANCH   5  18
TORSDOF 1
ENDMDL
ENDMDL
