REMARK  Name = outputs/IAG933/test6/raw/output_9956_IAG933_linker_design_.xyz
REMARK  13 active torsions:
REMARK  status: ('A' for Active; 'I' for Inactive)
REMARK    1  A    between atoms: C_1  and  C_2
REMARK    2  A    between atoms: C_1  and  C_8
REMARK    3  A    between atoms: C_1  and  C_29
REMARK    4  A    between atoms: C_13  and  C_34
REMARK    5  A    between atoms: C_14  and  C_15
REMARK    6  A    between atoms: C_21  and  O_22
REMARK    7  A    between atoms: O_22  and  C_23
REMARK    8  A    between atoms: C_23  and  C_24
REMARK    9  A    between atoms: C_29  and  C_36
REMARK   10  A    between atoms: C_29  and  N_41
REMARK   11  A    between atoms: C_32  and  C_40
REMARK   12  A    between atoms: C_32  and  C_42
REMARK   13  A    between atoms: C_39  and  C_42
REMARK                            x       y       z     vdW  Elec       q    Type
REMARK                         _______ _______ _______ _____ _____    ______ ____
ROOT
ATOM      1  O   UNL A   1     -22.982   2.494  25.741  0.00  0.00    -0.284 OA
ATOM      2  C   UNL A   1     -22.991   0.401  28.578  0.00  0.00    +0.209 C 
ATOM      3  C   UNL A   1     -24.578   1.235  27.155  0.00  0.00    +0.030 C 
ATOM      4  F   UNL A   1     -21.064   1.564  27.662  0.00  0.00    -0.198 F 
ATOM      5  C   UNL A   1     -24.440   0.540  28.353  0.00  0.00    +0.110 C 
ATOM      6  C   UNL A   1     -23.293   1.685  26.750  0.00  0.00    +0.222 C 
ATOM      7  O   UNL A   1     -22.419  -0.212  29.580  0.00  0.00    -0.288 OA
ATOM      8  C   UNL A   1     -22.367   1.264  27.580  0.00  0.00    +0.213 C 
ENDROOT
BRANCH   3   9
ATOM      9  C   UNL A   1     -25.688   1.614  26.461  0.00  0.00    +0.038 C 
ATOM     10  C   UNL A   1     -26.250   2.920  26.395  0.00  0.00    +0.076 C 
ATOM     11  C   UNL A   1     -27.438   3.091  25.645  0.00  0.00    +0.107 C 
ATOM     12  N   UNL A   1     -28.075   2.089  25.003  0.00  0.00    -0.208 NA
ATOM     13  C   UNL A   1     -27.543   0.849  25.079  0.00  0.00    +0.253 C 
ATOM     14  C   UNL A   1     -26.354   0.576  25.777  0.00  0.00    +0.193 C 
ATOM     15  F   UNL A   1     -25.860  -0.681  25.795  0.00  0.00    -0.199 F 
BRANCH  10  16
ATOM     16  C   UNL A   1     -25.642   4.093  27.123  0.00  0.00    +0.266 C 
ATOM     17  N   UNL A   1     -25.614   5.252  26.449  0.00  0.00    -0.200 NA
ATOM     18  C   UNL A   1     -25.026   6.479  26.963  0.00  0.00    +0.139 C 
ATOM     19  O   UNL A   1     -25.143   3.966  28.243  0.00  0.00    -0.268 OA
ENDBRANCH  10  16
BRANCH  13  20
ATOM     20  O   UNL A   1     -28.193  -0.208  24.477  0.00  0.00    -0.456 OA
BRANCH  20  21
ATOM     21  C   UNL A   1     -29.460   0.005  23.866  0.00  0.00    +0.243 C 
BRANCH  21  22
ATOM     22  C   UNL A   1     -30.065  -1.377  23.573  0.00  0.00    +0.229 C 
ATOM     23  O   UNL A   1     -30.729  -1.878  24.721  0.00  0.00    -0.216 OA
ENDBRANCH  21  22
ENDBRANCH  20  21
ENDBRANCH  13  20
ENDBRANCH   3   9
BRANCH   5  24
ATOM     24  C   UNL A   1     -25.577  -0.047  29.115  0.00  0.00    +0.112 C 
BRANCH  24  27
ATOM     25  O   UNL A   1     -28.339   0.419  29.275  0.00  0.00    -0.273 OA
ATOM     26  C   UNL A   1     -27.696   1.412  29.398  0.00  0.00    +0.246 C 
ATOM     27  N   UNL A   1     -26.359   1.201  29.242  0.00  0.00    -0.206 NA
BRANCH  26  28
ATOM     28  C   UNL A   1     -28.408   2.732  29.796  0.00  0.00    +0.118 C 
BRANCH  28  29
ATOM     29  C   UNL A   1     -27.725   3.976  30.210  0.00  0.00    +0.033 C 
ATOM     30  S   UNL A   1     -26.514   4.113  31.301  0.00  0.00    -0.057 S 
BRANCH  29  32
ATOM     31  O   UNL A   1     -28.045   5.224  28.230  0.00  0.00    -0.215 OA
ATOM     32  C   UNL A   1     -28.273   5.272  29.642  0.00  0.00    +0.212 C 
ENDBRANCH  29  32
ENDBRANCH  28  29
ENDBRANCH  26  28
ENDBRANCH  24  27
BRANCH  24  33
ATOM     33  C   UNL A   1     -24.855  -1.012  30.143  0.00  0.00    +0.059 C 
BRANCH  33  34
ATOM     34  C   UNL A   1     -24.973  -2.505  29.788  0.00  0.00    -0.019 C 
ATOM     35  C   UNL A   1     -23.906  -3.173  29.146  0.00  0.00    -0.004 C 
ATOM     36  C   UNL A   1     -23.989  -4.549  28.853  0.00  0.00    -0.000 C 
ATOM     37  C   UNL A   1     -25.137  -5.280  29.205  0.00  0.00    -0.000 C 
ATOM     38  C   UNL A   1     -26.232  -4.611  29.784  0.00  0.00    -0.000 C 
ATOM     39  C   UNL A   1     -26.155  -3.232  30.065  0.00  0.00    -0.004 C 
ENDBRANCH  33  34
BRANCH  33  40
ATOM     40  C   UNL A   1     -25.387  -0.679  31.571  0.00  0.00    +0.079 C 
ATOM     41  C   UNL A   1     -25.189   0.773  32.028  0.00  0.00    +0.019 C 
ATOM     42  C   UNL A   1     -25.336   0.684  33.544  0.00  0.00    +0.020 C 
ATOM     43  C   UNL A   1     -24.829  -0.715  33.905  0.00  0.00    +0.089 C 
ATOM     44  N   UNL A   1     -24.758  -1.481  32.646  0.00  0.00    -0.219 NA
ENDBRANCH  33  40
ENDBRANCH  24  33
ENDBRANCH   5  24
TORSDOF 13
