REMARK  Name = outputs/IAG933/test6/raw/output_9958_IAG933_linker_design_.xyz
REMARK  7 active torsions:
REMARK  status: ('A' for Active; 'I' for Inactive)
REMARK    1  A    between atoms: C_1  and  C_2
REMARK    2  A    between atoms: C_13  and  C_31
REMARK    3  A    between atoms: C_14  and  C_15
REMARK    4  A    between atoms: C_21  and  O_22
REMARK    5  A    between atoms: O_22  and  C_23
REMARK    6  A    between atoms: C_23  and  C_24
REMARK    7  A    between atoms: C_35  and  C_43
REMARK                            x       y       z     vdW  Elec       q    Type
REMARK                         _______ _______ _______ _____ _____    ______ ____
ROOT
ATOM      1  C   UNL A   1     -24.855  -1.012  30.143  0.00  0.00    +0.038 C 
ATOM      2  C   UNL A   1     -25.387  -0.679  31.571  0.00  0.00    +0.079 C 
ATOM      3  C   UNL A   1     -25.189   0.773  32.028  0.00  0.00    +0.045 C 
ATOM      4  C   UNL A   1     -25.336   0.684  33.544  0.00  0.00    +0.023 C 
ATOM      5  C   UNL A   1     -24.829  -0.715  33.905  0.00  0.00    +0.089 C 
ATOM      6  N   UNL A   1     -24.758  -1.481  32.646  0.00  0.00    -0.219 NA
ATOM      7  C   UNL A   1     -23.019   1.134  28.302  0.00  0.00    +0.091 C 
ATOM      8  F   UNL A   1     -20.722   1.744  27.852  0.00  0.00    -0.204 F 
ATOM      9  C   UNL A   1     -24.346   1.460  26.753  0.00  0.00    +0.037 C 
ATOM     10  C   UNL A   1     -21.963   1.611  27.426  0.00  0.00    +0.281 C 
ATOM     11  O   UNL A   1     -22.117   2.021  26.158  0.00  0.00    -0.327 OA
ATOM     12  C   UNL A   1     -25.079  -0.116  28.892  0.00  0.00    +0.006 C 
ATOM     13  C   UNL A   1     -23.446   1.997  25.780  0.00  0.00    +0.145 C 
ATOM     14  O   UNL A   1     -23.947   2.024  30.168  0.00  0.00    -0.356 OA
ATOM     15  C   UNL A   1     -22.786   1.247  29.791  0.00  0.00    +0.147 C 
ATOM     16  C   UNL A   1     -24.844   1.948  31.199  0.00  0.00    +0.117 C 
ATOM     17  C   UNL A   1     -24.060   0.533  27.905  0.00  0.00    +0.011 C 
ENDROOT
BRANCH   9  18
ATOM     18  C   UNL A   1     -25.688   1.614  26.461  0.00  0.00    +0.073 C 
ATOM     19  C   UNL A   1     -26.250   2.920  26.395  0.00  0.00    +0.055 C 
ATOM     20  C   UNL A   1     -27.438   3.091  25.645  0.00  0.00    +0.102 C 
ATOM     21  N   UNL A   1     -28.075   2.089  25.003  0.00  0.00    -0.212 NA
ATOM     22  C   UNL A   1     -27.543   0.849  25.079  0.00  0.00    +0.234 C 
ATOM     23  C   UNL A   1     -26.354   0.576  25.777  0.00  0.00    +0.240 C 
ATOM     24  F   UNL A   1     -25.860  -0.681  25.795  0.00  0.00    -0.227 F 
BRANCH  19  25
ATOM     25  C   UNL A   1     -25.642   4.093  27.123  0.00  0.00    +0.262 C 
ATOM     26  N   UNL A   1     -25.614   5.252  26.449  0.00  0.00    -0.200 NA
ATOM     27  C   UNL A   1     -25.026   6.479  26.963  0.00  0.00    +0.139 C 
ATOM     28  O   UNL A   1     -25.143   3.966  28.243  0.00  0.00    -0.269 OA
ENDBRANCH  19  25
BRANCH  22  29
ATOM     29  O   UNL A   1     -28.193  -0.208  24.477  0.00  0.00    -0.459 OA
BRANCH  29  30
ATOM     30  C   UNL A   1     -29.460   0.005  23.866  0.00  0.00    +0.242 C 
BRANCH  30  31
ATOM     31  C   UNL A   1     -30.065  -1.377  23.573  0.00  0.00    +0.229 C 
ATOM     32  O   UNL A   1     -30.729  -1.878  24.721  0.00  0.00    -0.216 OA
ENDBRANCH  30  31
ENDBRANCH  29  30
ENDBRANCH  22  29
ENDBRANCH   9  18
BRANCH  16  36
ATOM     33  O   UNL A   1     -25.865   5.758  32.706  0.00  0.00    -0.329 OA
ATOM     34  C   UNL A   1     -25.665   3.474  33.207  0.00  0.00    +0.067 C 
ATOM     35  O   UNL A   1     -23.738   5.068  33.304  0.00  0.00    -0.190 OA
ATOM     36  C   UNL A   1     -25.402   3.255  31.679  0.00  0.00    +0.035 C 
ATOM     37  C   UNL A   1     -26.430   4.013  30.836  0.00  0.00    +0.035 C 
ATOM     38  C   UNL A   1     -26.847   5.176  31.789  0.00  0.00    +0.145 C 
ATOM     39  C   UNL A   1     -25.119   4.867  33.462  0.00  0.00    +0.269 C 
ENDBRANCH  16  36
BRANCH   1  40
ATOM     40  C   UNL A   1     -24.973  -2.505  29.788  0.00  0.00    -0.021 C 
ATOM     41  C   UNL A   1     -23.906  -3.173  29.146  0.00  0.00    -0.004 C 
ATOM     42  C   UNL A   1     -23.989  -4.549  28.853  0.00  0.00    -0.000 C 
ATOM     43  C   UNL A   1     -25.137  -5.280  29.205  0.00  0.00    -0.000 C 
ATOM     44  C   UNL A   1     -26.232  -4.611  29.784  0.00  0.00    -0.000 C 
ATOM     45  C   UNL A   1     -26.155  -3.232  30.065  0.00  0.00    -0.004 C 
ENDBRANCH   1  40
TORSDOF 7
