MODEL 995
MODEL 1
REMARK VINA RESULT:    -7.207      0.000      0.000
REMARK INTER + INTRA:          -9.317
REMARK INTER:                  -8.471
REMARK INTRA:                  -0.846
REMARK UNBOUND:                -0.846
REMARK  Name = No_995-gen_results/8p0m/2024-11-27-11-27-31/
REMARK  3 active torsions:
REMARK  status: ('A' for Active; 'I' for Inactive)
REMARK    1  A    between atoms: C_3  and  C_7
REMARK    2  A    between atoms: C_7  and  C_8
REMARK    3  A    between atoms: C_8  and  C_10
REMARK                            x       y       z     vdW  Elec       q    Type
REMARK                         _______ _______ _______ _____ _____    ______ ____
ROOT
ATOM      1  C   UNL A   1     -24.213  -1.415  29.877  0.00  0.00    +0.027 C 
ATOM      2  C   UNL A   1     -23.910  -1.274  31.376  0.00  0.00    +0.005 C 
ENDROOT
BRANCH   1   5
ATOM      3  C   UNL A   1     -23.854  -3.600  28.888  0.00  0.00    -0.004 A 
ATOM      4  C   UNL A   1     -24.136  -4.587  28.648  0.00  0.00    -0.000 A 
ATOM      5  C   UNL A   1     -24.799  -2.788  29.554  0.00  0.00    -0.022 A 
ATOM      6  C   UNL A   1     -25.806  -3.182  29.945  0.00  0.00    -0.004 A 
ATOM      7  C   UNL A   1     -26.260  -4.517  29.723  0.00  0.00    -0.000 A 
ATOM      8  C   UNL A   1     -25.338  -5.312  29.054  0.00  0.00    -0.000 A 
ENDBRANCH   1   5
BRANCH   1   9
ATOM      9  C   UNL A   1     -23.000  -1.090  29.220  0.00  0.00    +0.031 C 
BRANCH   9  10
ATOM     10  C   UNL A   1     -23.065  -0.047  28.245  0.00  0.00    -0.022 A 
ATOM     11  C   UNL A   1     -24.236   0.183  27.456  0.00  0.00    -0.004 A 
ATOM     12  C   UNL A   1     -24.290   1.149  26.433  0.00  0.00    -0.000 A 
ATOM     13  C   UNL A   1     -23.169   1.966  26.281  0.00  0.00    -0.000 A 
ATOM     14  C   UNL A   1     -22.092   1.907  27.129  0.00  0.00    -0.000 A 
ATOM     15  C   UNL A   1     -22.033   0.895  28.096  0.00  0.00    -0.004 A 
ENDBRANCH   9  10
ENDBRANCH   1   9
TORSDOF 3
ENDMDL
ENDMDL
