REMARK  Name = outputs/IAG933/test6/raw/output_9963_IAG933_linker_design_.xyz
REMARK  11 active torsions:
REMARK  status: ('A' for Active; 'I' for Inactive)
REMARK    1  A    between atoms: C_1  and  C_2
REMARK    2  A    between atoms: C_1  and  C_8
REMARK    3  A    between atoms: C_1  and  C_30
REMARK    4  A    between atoms: C_13  and  C_28
REMARK    5  A    between atoms: C_14  and  C_15
REMARK    6  A    between atoms: C_21  and  O_22
REMARK    7  A    between atoms: O_22  and  C_23
REMARK    8  A    between atoms: C_23  and  C_24
REMARK    9  A    between atoms: C_30  and  C_43
REMARK   10  A    between atoms: S_32  and  C_38
REMARK   11  A    between atoms: S_32  and  C_39
REMARK                            x       y       z     vdW  Elec       q    Type
REMARK                         _______ _______ _______ _____ _____    ______ ____
ROOT
ATOM      1  C   UNL A   1     -25.190  -0.003  29.011  0.00  0.00    +0.136 C 
ATOM      2  C   UNL A   1     -26.643  -0.269  28.804  0.00  0.00    +0.192 C 
ATOM      3  O   UNL A   1     -26.093   0.996  28.915  0.00  0.00    -0.344 OA
ENDROOT
BRANCH   1   9
ATOM      4  C   UNL A   1     -24.395   1.432  27.203  0.00  0.00    +0.142 C 
ATOM      5  C   UNL A   1     -21.639   1.095  28.045  0.00  0.00    +0.032 C 
ATOM      6  C   UNL A   1     -22.823   0.856  28.928  0.00  0.00    +0.008 C 
ATOM      7  O   UNL A   1     -23.248   1.458  26.167  0.00  0.00    -0.352 OA
ATOM      8  C   UNL A   1     -21.962   1.779  26.813  0.00  0.00    +0.142 C 
ATOM      9  C   UNL A   1     -23.970   0.373  28.121  0.00  0.00    +0.060 C 
BRANCH   4  10
ATOM     10  C   UNL A   1     -25.688   1.614  26.461  0.00  0.00    +0.043 C 
ATOM     11  C   UNL A   1     -26.250   2.920  26.395  0.00  0.00    +0.075 C 
ATOM     12  C   UNL A   1     -27.438   3.091  25.645  0.00  0.00    +0.106 C 
ATOM     13  N   UNL A   1     -28.075   2.089  25.003  0.00  0.00    -0.208 NA
ATOM     14  C   UNL A   1     -27.543   0.849  25.079  0.00  0.00    +0.253 C 
ATOM     15  C   UNL A   1     -26.354   0.576  25.777  0.00  0.00    +0.191 C 
ATOM     16  F   UNL A   1     -25.860  -0.681  25.795  0.00  0.00    -0.200 F 
BRANCH  11  17
ATOM     17  C   UNL A   1     -25.642   4.093  27.123  0.00  0.00    +0.266 C 
ATOM     18  N   UNL A   1     -25.614   5.252  26.449  0.00  0.00    -0.200 NA
ATOM     19  C   UNL A   1     -25.026   6.479  26.963  0.00  0.00    +0.139 C 
ATOM     20  O   UNL A   1     -25.143   3.966  28.243  0.00  0.00    -0.268 OA
ENDBRANCH  11  17
BRANCH  14  21
ATOM     21  O   UNL A   1     -28.193  -0.208  24.477  0.00  0.00    -0.456 OA
BRANCH  21  22
ATOM     22  C   UNL A   1     -29.460   0.005  23.866  0.00  0.00    +0.243 C 
BRANCH  22  23
ATOM     23  C   UNL A   1     -30.065  -1.377  23.573  0.00  0.00    +0.229 C 
ATOM     24  O   UNL A   1     -30.729  -1.878  24.721  0.00  0.00    -0.216 OA
ENDBRANCH  22  23
ENDBRANCH  21  22
ENDBRANCH  14  21
ENDBRANCH   4  10
ENDBRANCH   1   9
BRANCH   1  25
ATOM     25  C   UNL A   1     -24.855  -1.012  30.143  0.00  0.00    +0.067 C 
BRANCH  25  26
ATOM     26  C   UNL A   1     -24.973  -2.505  29.788  0.00  0.00    -0.019 C 
ATOM     27  C   UNL A   1     -23.906  -3.173  29.146  0.00  0.00    -0.004 C 
ATOM     28  C   UNL A   1     -23.989  -4.549  28.853  0.00  0.00    -0.000 C 
ATOM     29  C   UNL A   1     -25.137  -5.280  29.205  0.00  0.00    -0.000 C 
ATOM     30  C   UNL A   1     -26.232  -4.611  29.784  0.00  0.00    -0.000 C 
ATOM     31  C   UNL A   1     -26.155  -3.232  30.065  0.00  0.00    -0.004 C 
ENDBRANCH  25  26
BRANCH  25  32
ATOM     32  C   UNL A   1     -25.387  -0.679  31.571  0.00  0.00    +0.079 C 
ATOM     33  C   UNL A   1     -25.189   0.773  32.028  0.00  0.00    +0.019 C 
ATOM     34  C   UNL A   1     -25.336   0.684  33.544  0.00  0.00    +0.020 C 
ATOM     35  C   UNL A   1     -24.829  -0.715  33.905  0.00  0.00    +0.089 C 
ATOM     36  N   UNL A   1     -24.758  -1.481  32.646  0.00  0.00    -0.219 NA
ENDBRANCH  25  32
ENDBRANCH   1  25
BRANCH   2  37
ATOM     37  S   UNL A   1     -28.383   0.136  29.149  0.00  0.00    -0.083 S 
BRANCH  37  42
ATOM     38  C   UNL A   1     -27.743   2.767  29.923  0.00  0.00    +0.007 C 
ATOM     39  C   UNL A   1     -29.671   1.745  30.966  0.00  0.00    +0.007 C 
ATOM     40  C   UNL A   1     -28.006   3.955  30.605  0.00  0.00    +0.007 C 
ATOM     41 BR   UNL A   1     -29.744   5.642  32.105  0.00  0.00    -0.049 Br
ATOM     42  C   UNL A   1     -28.600   1.648  30.096  0.00  0.00    +0.028 C 
ATOM     43  C   UNL A   1     -29.138   4.015  31.407  0.00  0.00    +0.035 C 
ATOM     44  C   UNL A   1     -29.902   2.890  31.654  0.00  0.00    +0.007 C 
ENDBRANCH  37  42
ENDBRANCH   2  37
TORSDOF 11
