REMARK  Name = outputs/IAG933/test6/raw/output_9965_IAG933_linker_design_.xyz
REMARK  17 active torsions:
REMARK  status: ('A' for Active; 'I' for Inactive)
REMARK    1  A    between atoms: C_1  and  C_2
REMARK    2  A    between atoms: C_1  and  C_8
REMARK    3  A    between atoms: C_1  and  N_40
REMARK    4  A    between atoms: C_13  and  O_36
REMARK    5  A    between atoms: C_14  and  C_15
REMARK    6  A    between atoms: C_21  and  O_22
REMARK    7  A    between atoms: O_22  and  C_23
REMARK    8  A    between atoms: C_23  and  C_24
REMARK    9  A    between atoms: C_28  and  C_38
REMARK   10  A    between atoms: C_30  and  C_38
REMARK   11  A    between atoms: C_31  and  C_32
REMARK   12  A    between atoms: C_31  and  C_42
REMARK   13  A    between atoms: C_32  and  N_40
REMARK   14  A    between atoms: C_33  and  O_36
REMARK   15  A    between atoms: C_33  and  N_40
REMARK   16  A    between atoms: C_33  and  C_43
REMARK   17  A    between atoms: C_43  and  C_46
REMARK                            x       y       z     vdW  Elec       q    Type
REMARK                         _______ _______ _______ _____ _____    ______ ____
ROOT
ATOM      1  N   UNL A   1     -25.558  -0.170  29.022  0.00  0.00    -0.229 NA
ENDROOT
BRANCH   1   2
ATOM      2  C   UNL A   1     -24.855  -1.012  30.143  0.00  0.00    +0.099 C 
BRANCH   2   3
ATOM      3  C   UNL A   1     -24.973  -2.505  29.788  0.00  0.00    -0.006 C 
ATOM      4  C   UNL A   1     -23.906  -3.173  29.146  0.00  0.00    -0.003 C 
ATOM      5  C   UNL A   1     -23.989  -4.549  28.853  0.00  0.00    -0.000 C 
ATOM      6  C   UNL A   1     -25.137  -5.280  29.205  0.00  0.00    -0.000 C 
ATOM      7  C   UNL A   1     -26.232  -4.611  29.784  0.00  0.00    -0.000 C 
ATOM      8  C   UNL A   1     -26.155  -3.232  30.065  0.00  0.00    -0.003 C 
ENDBRANCH   2   3
BRANCH   2   9
ATOM      9  C   UNL A   1     -25.387  -0.679  31.571  0.00  0.00    +0.092 C 
ATOM     10  C   UNL A   1     -25.189   0.773  32.028  0.00  0.00    +0.021 C 
ATOM     11  C   UNL A   1     -25.336   0.684  33.544  0.00  0.00    +0.020 C 
ATOM     12  C   UNL A   1     -24.829  -0.715  33.905  0.00  0.00    +0.089 C 
ATOM     13  N   UNL A   1     -24.758  -1.481  32.646  0.00  0.00    -0.218 NA
ENDBRANCH   2   9
ENDBRANCH   1   2
BRANCH   1  14
ATOM     14  C   UNL A   1     -27.047  -0.189  28.438  0.00  0.00    +0.146 C 
BRANCH  14  15
ATOM     15  C   UNL A   1     -27.900   0.759  29.287  0.00  0.00    +0.223 C 
ATOM     16  O   UNL A   1     -27.567   1.743  29.528  0.00  0.00    -0.289 OA
BRANCH  15  21
ATOM     17  C   UNL A   1     -30.478  -1.615  28.988  0.00  0.00    +0.130 C 
ATOM     18  O   UNL A   1     -29.444   1.091  31.065  0.00  0.00    -0.184 OA
ATOM     19  O   UNL A   1     -29.535  -1.136  29.882  0.00  0.00    -0.327 OA
ATOM     20  C   UNL A   1     -30.719   0.674  29.119  0.00  0.00    +0.215 C 
ATOM     21  C   UNL A   1     -29.379   0.316  29.779  0.00  0.00    +0.300 C 
ATOM     22  C   UNL A   1     -31.006  -0.379  28.066  0.00  0.00    +0.069 C 
ATOM     23  O   UNL A   1     -31.828   0.764  30.001  0.00  0.00    -0.217 OA
BRANCH  17  24
ATOM     24  C   UNL A   1     -30.700  -1.938  30.260  0.00  0.00    +0.118 C 
BRANCH  24  26
ATOM     25  O   UNL A   1     -29.914  -4.231  30.201  0.00  0.00    -0.272 OA
ATOM     26  C   UNL A   1     -29.793  -3.283  30.846  0.00  0.00    +0.263 C 
ATOM     27  N   UNL A   1     -28.967  -3.116  31.928  0.00  0.00    -0.088 NA
ENDBRANCH  24  26
ENDBRANCH  17  24
ENDBRANCH  15  21
ENDBRANCH  14  15
ENDBRANCH   1  14
BRANCH   1  28
ATOM     28  C   UNL A   1     -24.498   0.816  28.434  0.00  0.00    +0.229 C 
BRANCH  28  29
ATOM     29  O   UNL A   1     -24.422   1.398  27.111  0.00  0.00    -0.461 OA
BRANCH  29  30
ATOM     30  C   UNL A   1     -25.688   1.614  26.461  0.00  0.00    +0.178 C 
ATOM     31  C   UNL A   1     -26.250   2.920  26.395  0.00  0.00    +0.111 C 
ATOM     32  C   UNL A   1     -27.438   3.091  25.645  0.00  0.00    +0.110 C 
ATOM     33  N   UNL A   1     -28.075   2.089  25.003  0.00  0.00    -0.208 NA
ATOM     34  C   UNL A   1     -27.543   0.849  25.079  0.00  0.00    +0.256 C 
ATOM     35  C   UNL A   1     -26.354   0.576  25.777  0.00  0.00    +0.227 C 
ATOM     36  F   UNL A   1     -25.860  -0.681  25.795  0.00  0.00    -0.196 F 
BRANCH  31  37
ATOM     37  C   UNL A   1     -25.642   4.093  27.123  0.00  0.00    +0.269 C 
ATOM     38  N   UNL A   1     -25.614   5.252  26.449  0.00  0.00    -0.200 NA
ATOM     39  C   UNL A   1     -25.026   6.479  26.963  0.00  0.00    +0.139 C 
ATOM     40  O   UNL A   1     -25.143   3.966  28.243  0.00  0.00    -0.268 OA
ENDBRANCH  31  37
BRANCH  34  41
ATOM     41  O   UNL A   1     -28.193  -0.208  24.477  0.00  0.00    -0.456 OA
BRANCH  41  42
ATOM     42  C   UNL A   1     -29.460   0.005  23.866  0.00  0.00    +0.243 C 
BRANCH  42  43
ATOM     43  C   UNL A   1     -30.065  -1.377  23.573  0.00  0.00    +0.229 C 
ATOM     44  O   UNL A   1     -30.729  -1.878  24.721  0.00  0.00    -0.216 OA
ENDBRANCH  42  43
ENDBRANCH  41  42
ENDBRANCH  34  41
ENDBRANCH  29  30
ENDBRANCH  28  29
BRANCH  28  45
ATOM     45  C   UNL A   1     -23.131   0.882  29.109  0.00  0.00    +0.061 C 
BRANCH  45  47
ATOM     46  C   UNL A   1     -20.914   1.779  27.874  0.00  0.00    +0.000 C 
ATOM     47  C   UNL A   1     -21.877   0.792  28.290  0.00  0.00    +0.005 C 
ENDBRANCH  45  47
ENDBRANCH  28  45
ENDBRANCH   1  28
TORSDOF 17
