REMARK  Name = outputs/IAG933/test6/raw/output_9966_IAG933_linker_design_.xyz
REMARK  16 active torsions:
REMARK  status: ('A' for Active; 'I' for Inactive)
REMARK    1  A    between atoms: C_1  and  C_2
REMARK    2  A    between atoms: C_1  and  C_8
REMARK    3  A    between atoms: C_9  and  C_44
REMARK    4  A    between atoms: C_13  and  C_35
REMARK    5  A    between atoms: C_14  and  C_15
REMARK    6  A    between atoms: C_21  and  O_22
REMARK    7  A    between atoms: O_22  and  C_23
REMARK    8  A    between atoms: C_23  and  C_24
REMARK    9  A    between atoms: C_31  and  N_37
REMARK   10  A    between atoms: C_31  and  C_44
REMARK   11  A    between atoms: N_32  and  C_35
REMARK   12  A    between atoms: C_33  and  N_37
REMARK   13  A    between atoms: C_33  and  C_42
REMARK   14  A    between atoms: C_34  and  O_38
REMARK   15  A    between atoms: O_38  and  C_43
REMARK   16  A    between atoms: C_41  and  C_44
REMARK                            x       y       z     vdW  Elec       q    Type
REMARK                         _______ _______ _______ _____ _____    ______ ____
ROOT
ATOM      1  N   UNL A   1     -23.637   1.654  29.593  0.00  0.00    -0.212 NA
ENDROOT
BRANCH   1   2
ATOM      2  C   UNL A   1     -24.035   2.536  30.652  0.00  0.00    +0.089 C 
BRANCH   2   3
ATOM      3  C   UNL A   1     -25.317   2.071  31.309  0.00  0.00    +0.022 C 
BRANCH   3   5
ATOM      4  C   UNL A   1     -25.387  -0.679  31.571  0.00  0.00    +0.077 C 
ATOM      5  C   UNL A   1     -25.189   0.773  32.028  0.00  0.00    +0.019 C 
ATOM      6  C   UNL A   1     -25.336   0.684  33.544  0.00  0.00    +0.020 C 
ATOM      7  C   UNL A   1     -24.829  -0.715  33.905  0.00  0.00    +0.089 C 
ATOM      8  N   UNL A   1     -24.758  -1.481  32.646  0.00  0.00    -0.219 NA
BRANCH   4   9
ATOM      9  C   UNL A   1     -24.855  -1.012  30.143  0.00  0.00    +0.044 C 
BRANCH   9  10
ATOM     10  C   UNL A   1     -24.973  -2.505  29.788  0.00  0.00    -0.021 C 
ATOM     11  C   UNL A   1     -23.906  -3.173  29.146  0.00  0.00    -0.004 C 
ATOM     12  C   UNL A   1     -23.989  -4.549  28.853  0.00  0.00    -0.000 C 
ATOM     13  C   UNL A   1     -25.137  -5.280  29.205  0.00  0.00    -0.000 C 
ATOM     14  C   UNL A   1     -26.232  -4.611  29.784  0.00  0.00    -0.000 C 
ATOM     15  C   UNL A   1     -26.155  -3.232  30.065  0.00  0.00    -0.004 C 
ENDBRANCH   9  10
ENDBRANCH   4   9
ENDBRANCH   3   5
BRANCH   3  19
ATOM     16  C   UNL A   1     -26.003   3.894  32.892  0.00  0.00    +0.169 C 
ATOM     17  C   UNL A   1     -27.479   4.503  32.676  0.00  0.00    +0.044 C 
ATOM     18  C   UNL A   1     -27.386   4.147  31.244  0.00  0.00    +0.007 C 
ATOM     19  C   UNL A   1     -26.475   2.967  31.691  0.00  0.00    +0.042 C 
BRANCH  16  20
ATOM     20  O   UNL A   1     -25.202   4.871  32.390  0.00  0.00    -0.452 OA
BRANCH  20  23
ATOM     21  O   UNL A   1     -25.435   6.509  34.000  0.00  0.00    -0.250 OA
ATOM     22  C   UNL A   1     -25.839   7.355  31.828  0.00  0.00    +0.121 C 
ATOM     23  C   UNL A   1     -25.445   6.232  32.842  0.00  0.00    +0.317 C 
ENDBRANCH  20  23
ENDBRANCH  16  20
ENDBRANCH   3  19
ENDBRANCH   2   3
ENDBRANCH   1   2
BRANCH   1  24
ATOM     24  C   UNL A   1     -22.456   1.241  28.987  0.00  0.00    +0.133 C 
BRANCH  24  28
ATOM     25  C   UNL A   1     -21.294   1.891  26.859  0.00  0.00    +0.186 C 
ATOM     26  N   UNL A   1     -23.335   1.601  26.719  0.00  0.00    -0.267 N 
ATOM     27  C   UNL A   1     -23.013   2.000  25.387  0.00  0.00    +0.306 C 
ATOM     28  C   UNL A   1     -22.379   1.616  27.463  0.00  0.00    +0.083 C 
ATOM     29  O   UNL A   1     -21.765   2.146  25.477  0.00  0.00    -0.451 OA
BRANCH  26  30
ATOM     30  C   UNL A   1     -24.461   1.161  27.176  0.00  0.00    +0.123 C 
BRANCH  30  31
ATOM     31  C   UNL A   1     -25.688   1.614  26.461  0.00  0.00    +0.036 C 
ATOM     32  C   UNL A   1     -26.250   2.920  26.395  0.00  0.00    +0.074 C 
ATOM     33  C   UNL A   1     -27.438   3.091  25.645  0.00  0.00    +0.106 C 
ATOM     34  N   UNL A   1     -28.075   2.089  25.003  0.00  0.00    -0.208 NA
ATOM     35  C   UNL A   1     -27.543   0.849  25.079  0.00  0.00    +0.253 C 
ATOM     36  C   UNL A   1     -26.354   0.576  25.777  0.00  0.00    +0.191 C 
ATOM     37  F   UNL A   1     -25.860  -0.681  25.795  0.00  0.00    -0.200 F 
BRANCH  32  38
ATOM     38  C   UNL A   1     -25.642   4.093  27.123  0.00  0.00    +0.266 C 
ATOM     39  N   UNL A   1     -25.614   5.252  26.449  0.00  0.00    -0.200 NA
ATOM     40  C   UNL A   1     -25.026   6.479  26.963  0.00  0.00    +0.139 C 
ATOM     41  O   UNL A   1     -25.143   3.966  28.243  0.00  0.00    -0.268 OA
ENDBRANCH  32  38
BRANCH  35  42
ATOM     42  O   UNL A   1     -28.193  -0.208  24.477  0.00  0.00    -0.456 OA
BRANCH  42  43
ATOM     43  C   UNL A   1     -29.460   0.005  23.866  0.00  0.00    +0.243 C 
BRANCH  43  44
ATOM     44  C   UNL A   1     -30.065  -1.377  23.573  0.00  0.00    +0.229 C 
ATOM     45  O   UNL A   1     -30.729  -1.878  24.721  0.00  0.00    -0.216 OA
ENDBRANCH  43  44
ENDBRANCH  42  43
ENDBRANCH  35  42
ENDBRANCH  30  31
ENDBRANCH  26  30
ENDBRANCH  24  28
ENDBRANCH   1  24
TORSDOF 16
