REMARK  Name = outputs/IAG933/test6/raw/output_9967_IAG933_linker_design_.xyz
REMARK  9 active torsions:
REMARK  status: ('A' for Active; 'I' for Inactive)
REMARK    1  A    between atoms: C_1  and  C_2
REMARK    2  A    between atoms: C_1  and  C_8
REMARK    3  A    between atoms: C_1  and  N_36
REMARK    4  A    between atoms: C_13  and  C_33
REMARK    5  A    between atoms: C_14  and  C_15
REMARK    6  A    between atoms: C_21  and  O_22
REMARK    7  A    between atoms: O_22  and  C_23
REMARK    8  A    between atoms: C_23  and  C_24
REMARK    9  A    between atoms: C_31  and  C_32
REMARK                            x       y       z     vdW  Elec       q    Type
REMARK                         _______ _______ _______ _____ _____    ______ ____
ROOT
ATOM      1  F   UNL A   1     -20.887   1.051  28.024  0.00  0.00    -0.163 F 
ATOM      2  C   UNL A   1     -23.368   1.926  25.818  0.00  0.00    +0.328 C 
ATOM      3  C   UNL A   1     -23.411   1.009  27.865  0.00  0.00    +0.106 C 
ATOM      4  C   UNL A   1     -24.233   1.486  26.733  0.00  0.00    +0.139 C 
ATOM      5  O   UNL A   1     -23.687   2.232  24.612  0.00  0.00    -0.249 OA
ATOM      6  C   UNL A   1     -22.036   1.315  27.471  0.00  0.00    +0.291 C 
ATOM      7  O   UNL A   1     -22.071   1.980  26.265  0.00  0.00    -0.398 OA
ENDROOT
BRANCH   4   8
ATOM      8  C   UNL A   1     -25.688   1.614  26.461  0.00  0.00    +0.085 C 
ATOM      9  C   UNL A   1     -26.250   2.920  26.395  0.00  0.00    +0.056 C 
ATOM     10  C   UNL A   1     -27.438   3.091  25.645  0.00  0.00    +0.102 C 
ATOM     11  N   UNL A   1     -28.075   2.089  25.003  0.00  0.00    -0.212 NA
ATOM     12  C   UNL A   1     -27.543   0.849  25.079  0.00  0.00    +0.234 C 
ATOM     13  C   UNL A   1     -26.354   0.576  25.777  0.00  0.00    +0.241 C 
ATOM     14  F   UNL A   1     -25.860  -0.681  25.795  0.00  0.00    -0.227 F 
BRANCH   9  15
ATOM     15  C   UNL A   1     -25.642   4.093  27.123  0.00  0.00    +0.263 C 
ATOM     16  N   UNL A   1     -25.614   5.252  26.449  0.00  0.00    -0.200 NA
ATOM     17  C   UNL A   1     -25.026   6.479  26.963  0.00  0.00    +0.139 C 
ATOM     18  O   UNL A   1     -25.143   3.966  28.243  0.00  0.00    -0.269 OA
ENDBRANCH   9  15
BRANCH  12  19
ATOM     19  O   UNL A   1     -28.193  -0.208  24.477  0.00  0.00    -0.459 OA
BRANCH  19  20
ATOM     20  C   UNL A   1     -29.460   0.005  23.866  0.00  0.00    +0.242 C 
BRANCH  20  21
ATOM     21  C   UNL A   1     -30.065  -1.377  23.573  0.00  0.00    +0.229 C 
ATOM     22  O   UNL A   1     -30.729  -1.878  24.721  0.00  0.00    -0.216 OA
ENDBRANCH  20  21
ENDBRANCH  19  20
ENDBRANCH  12  19
ENDBRANCH   4   8
BRANCH   3  24
ATOM     23  N   UNL A   1     -26.756   1.679  29.372  0.00  0.00    -0.069 NA
ATOM     24  C   UNL A   1     -23.690   0.320  28.923  0.00  0.00    +0.258 C 
ATOM     25  O   UNL A   1     -22.681  -0.083  29.658  0.00  0.00    -0.270 OA
ATOM     26  N   UNL A   1     -24.982   0.051  29.263  0.00  0.00    -0.204 N 
ATOM     27  O   UNL A   1     -27.247  -0.397  28.775  0.00  0.00    -0.249 OA
ATOM     28  C   UNL A   1     -26.307   0.435  29.093  0.00  0.00    +0.349 C 
BRANCH  26  29
ATOM     29  C   UNL A   1     -24.855  -1.012  30.143  0.00  0.00    +0.122 C 
BRANCH  29  30
ATOM     30  C   UNL A   1     -24.973  -2.505  29.788  0.00  0.00    -0.002 C 
ATOM     31  C   UNL A   1     -23.906  -3.173  29.146  0.00  0.00    -0.003 C 
ATOM     32  C   UNL A   1     -23.989  -4.549  28.853  0.00  0.00    -0.000 C 
ATOM     33  C   UNL A   1     -25.137  -5.280  29.205  0.00  0.00    -0.000 C 
ATOM     34  C   UNL A   1     -26.232  -4.611  29.784  0.00  0.00    -0.000 C 
ATOM     35  C   UNL A   1     -26.155  -3.232  30.065  0.00  0.00    -0.003 C 
ENDBRANCH  29  30
BRANCH  29  36
ATOM     36  C   UNL A   1     -25.387  -0.679  31.571  0.00  0.00    +0.096 C 
ATOM     37  C   UNL A   1     -25.189   0.773  32.028  0.00  0.00    +0.021 C 
ATOM     38  C   UNL A   1     -25.336   0.684  33.544  0.00  0.00    +0.020 C 
ATOM     39  C   UNL A   1     -24.829  -0.715  33.905  0.00  0.00    +0.089 C 
ATOM     40  N   UNL A   1     -24.758  -1.481  32.646  0.00  0.00    -0.217 NA
ENDBRANCH  29  36
ENDBRANCH  26  29
ENDBRANCH   3  24
TORSDOF 9
