REMARK  Name = outputs/IAG933/test6/raw/output_9968_IAG933_linker_design_.xyz
REMARK  11 active torsions:
REMARK  status: ('A' for Active; 'I' for Inactive)
REMARK    1  A    between atoms: C_1  and  C_2
REMARK    2  A    between atoms: C_1  and  C_8
REMARK    3  A    between atoms: C_1  and  N_42
REMARK    4  A    between atoms: C_13  and  C_29
REMARK    5  A    between atoms: C_14  and  C_15
REMARK    6  A    between atoms: C_21  and  O_22
REMARK    7  A    between atoms: O_22  and  C_23
REMARK    8  A    between atoms: C_23  and  C_24
REMARK    9  A    between atoms: C_30  and  C_36
REMARK   10  A    between atoms: C_32  and  C_44
REMARK   11  A    between atoms: C_37  and  C_44
REMARK                            x       y       z     vdW  Elec       q    Type
REMARK                         _______ _______ _______ _____ _____    ______ ____
ROOT
ATOM      1  F   UNL A   1     -21.070   1.980  27.052  0.00  0.00    -0.237 F 
ATOM      2  C   UNL A   1     -24.710   1.294  27.333  0.00  0.00    +0.045 C 
ATOM      3  C   UNL A   1     -23.055   0.731  29.779  0.00  0.00    +0.075 C 
ATOM      4  C   UNL A   1     -23.423   1.604  26.700  0.00  0.00    +0.073 C 
ATOM      5  C   UNL A   1     -24.960   0.243  28.190  0.00  0.00    +0.066 C 
ATOM      6  C   UNL A   1     -21.993   0.698  28.663  0.00  0.00    +0.053 C 
ATOM      7  C   UNL A   1     -22.259   1.433  27.395  0.00  0.00    +0.165 C 
ATOM      8  N   UNL A   1     -24.308   0.008  29.228  0.00  0.00    -0.270 NA
ENDROOT
BRANCH   2   9
ATOM      9  C   UNL A   1     -25.688   1.614  26.461  0.00  0.00    +0.017 C 
ATOM     10  C   UNL A   1     -26.250   2.920  26.395  0.00  0.00    +0.073 C 
ATOM     11  C   UNL A   1     -27.438   3.091  25.645  0.00  0.00    +0.106 C 
ATOM     12  N   UNL A   1     -28.075   2.089  25.003  0.00  0.00    -0.208 NA
ATOM     13  C   UNL A   1     -27.543   0.849  25.079  0.00  0.00    +0.253 C 
ATOM     14  C   UNL A   1     -26.354   0.576  25.777  0.00  0.00    +0.189 C 
ATOM     15  F   UNL A   1     -25.860  -0.681  25.795  0.00  0.00    -0.200 F 
BRANCH  10  16
ATOM     16  C   UNL A   1     -25.642   4.093  27.123  0.00  0.00    +0.266 C 
ATOM     17  N   UNL A   1     -25.614   5.252  26.449  0.00  0.00    -0.200 NA
ATOM     18  C   UNL A   1     -25.026   6.479  26.963  0.00  0.00    +0.139 C 
ATOM     19  O   UNL A   1     -25.143   3.966  28.243  0.00  0.00    -0.268 OA
ENDBRANCH  10  16
BRANCH  13  20
ATOM     20  O   UNL A   1     -28.193  -0.208  24.477  0.00  0.00    -0.456 OA
BRANCH  20  21
ATOM     21  C   UNL A   1     -29.460   0.005  23.866  0.00  0.00    +0.243 C 
BRANCH  21  22
ATOM     22  C   UNL A   1     -30.065  -1.377  23.573  0.00  0.00    +0.229 C 
ATOM     23  O   UNL A   1     -30.729  -1.878  24.721  0.00  0.00    -0.216 OA
ENDBRANCH  21  22
ENDBRANCH  20  21
ENDBRANCH  13  20
ENDBRANCH   2   9
BRANCH   4  24
ATOM     24  C   UNL A   1     -23.403   1.992  25.403  0.00  0.00    +0.196 C 
ATOM     25  F   UNL A   1     -22.339   2.669  25.019  0.00  0.00    -0.234 F 
ENDBRANCH   4  24
BRANCH   8  26
ATOM     26  C   UNL A   1     -24.855  -1.012  30.143  0.00  0.00    +0.096 C 
BRANCH  26  27
ATOM     27  C   UNL A   1     -24.973  -2.505  29.788  0.00  0.00    -0.006 C 
ATOM     28  C   UNL A   1     -23.906  -3.173  29.146  0.00  0.00    -0.003 C 
ATOM     29  C   UNL A   1     -23.989  -4.549  28.853  0.00  0.00    -0.000 C 
ATOM     30  C   UNL A   1     -25.137  -5.280  29.205  0.00  0.00    -0.000 C 
ATOM     31  C   UNL A   1     -26.232  -4.611  29.784  0.00  0.00    -0.000 C 
ATOM     32  C   UNL A   1     -26.155  -3.232  30.065  0.00  0.00    -0.003 C 
ENDBRANCH  26  27
BRANCH  26  33
ATOM     33  C   UNL A   1     -25.387  -0.679  31.571  0.00  0.00    +0.092 C 
ATOM     34  C   UNL A   1     -25.189   0.773  32.028  0.00  0.00    +0.021 C 
ATOM     35  C   UNL A   1     -25.336   0.684  33.544  0.00  0.00    +0.020 C 
ATOM     36  C   UNL A   1     -24.829  -0.715  33.905  0.00  0.00    +0.089 C 
ATOM     37  N   UNL A   1     -24.758  -1.481  32.646  0.00  0.00    -0.218 NA
ENDBRANCH  26  33
ENDBRANCH   8  26
BRANCH   5  38
ATOM     38  C   UNL A   1     -26.564   0.131  28.326  0.00  0.00    +0.043 C 
BRANCH  38  39
ATOM     39  C   UNL A   1     -27.546   1.030  29.127  0.00  0.00    -0.021 C 
ATOM     40  C   UNL A   1     -29.180   0.627  30.910  0.00  0.00    -0.000 C 
ATOM     41  C   UNL A   1     -28.561   2.948  30.416  0.00  0.00    -0.000 C 
ATOM     42  C   UNL A   1     -29.192   2.005  31.259  0.00  0.00    -0.000 C 
ATOM     43  C   UNL A   1     -28.658   0.220  29.656  0.00  0.00    -0.004 C 
ATOM     44  C   UNL A   1     -27.817   2.478  29.299  0.00  0.00    -0.004 C 
ENDBRANCH  38  39
ENDBRANCH   5  38
TORSDOF 11
