REMARK  Name = outputs/IAG933/test6/raw/output_9969_IAG933_linker_design_.xyz
REMARK  14 active torsions:
REMARK  status: ('A' for Active; 'I' for Inactive)
REMARK    1  A    between atoms: C_1  and  C_2
REMARK    2  A    between atoms: C_1  and  C_8
REMARK    3  A    between atoms: C_9  and  C_38
REMARK    4  A    between atoms: C_13  and  C_37
REMARK    5  A    between atoms: C_14  and  C_15
REMARK    6  A    between atoms: C_21  and  O_22
REMARK    7  A    between atoms: O_22  and  C_23
REMARK    8  A    between atoms: C_23  and  C_24
REMARK    9  A    between atoms: S_30  and  C_41
REMARK   10  A    between atoms: S_30  and  C_45
REMARK   11  A    between atoms: N_36  and  C_37
REMARK   12  A    between atoms: N_36  and  C_45
REMARK   13  A    between atoms: C_37  and  C_40
REMARK   14  A    between atoms: C_38  and  C_45
REMARK                            x       y       z     vdW  Elec       q    Type
REMARK                         _______ _______ _______ _____ _____    ______ ____
ROOT
ATOM      1  N   UNL A   1     -25.371   1.435  28.744  0.00  0.00    -0.205 NA
ENDROOT
BRANCH   1   2
ATOM      2  C   UNL A   1     -24.747   1.427  27.460  0.00  0.00    +0.106 C 
BRANCH   2   3
ATOM      3  C   UNL A   1     -25.688   1.614  26.461  0.00  0.00    +0.090 C 
ATOM      4  C   UNL A   1     -26.250   2.920  26.395  0.00  0.00    +0.057 C 
ATOM      5  C   UNL A   1     -27.438   3.091  25.645  0.00  0.00    +0.102 C 
ATOM      6  N   UNL A   1     -28.075   2.089  25.003  0.00  0.00    -0.212 NA
ATOM      7  C   UNL A   1     -27.543   0.849  25.079  0.00  0.00    +0.234 C 
ATOM      8  C   UNL A   1     -26.354   0.576  25.777  0.00  0.00    +0.242 C 
ATOM      9  F   UNL A   1     -25.860  -0.681  25.795  0.00  0.00    -0.227 F 
BRANCH   4  10
ATOM     10  C   UNL A   1     -25.642   4.093  27.123  0.00  0.00    +0.263 C 
ATOM     11  N   UNL A   1     -25.614   5.252  26.449  0.00  0.00    -0.200 NA
ATOM     12  C   UNL A   1     -25.026   6.479  26.963  0.00  0.00    +0.139 C 
ATOM     13  O   UNL A   1     -25.143   3.966  28.243  0.00  0.00    -0.269 OA
ENDBRANCH   4  10
BRANCH   7  14
ATOM     14  O   UNL A   1     -28.193  -0.208  24.477  0.00  0.00    -0.459 OA
BRANCH  14  15
ATOM     15  C   UNL A   1     -29.460   0.005  23.866  0.00  0.00    +0.242 C 
BRANCH  15  16
ATOM     16  C   UNL A   1     -30.065  -1.377  23.573  0.00  0.00    +0.229 C 
ATOM     17  O   UNL A   1     -30.729  -1.878  24.721  0.00  0.00    -0.216 OA
ENDBRANCH  15  16
ENDBRANCH  14  15
ENDBRANCH   7  14
ENDBRANCH   2   3
BRANCH   2  22
ATOM     18  C   UNL A   1     -22.817   2.449  24.912  0.00  0.00    +0.072 C 
ATOM     19  C   UNL A   1     -22.486   0.875  28.302  0.00  0.00    +0.040 C 
ATOM     20  C   UNL A   1     -21.185   1.155  27.990  0.00  0.00    +0.179 C 
ATOM     21  C   UNL A   1     -22.470   1.885  26.284  0.00  0.00    +0.121 C 
ATOM     22  C   UNL A   1     -23.326   1.393  27.295  0.00  0.00    +0.028 C 
ATOM     23  O   UNL A   1     -21.226   1.774  26.679  0.00  0.00    -0.455 OA
ENDBRANCH   2  22
ENDBRANCH   1   2
BRANCH   1  24
ATOM     24  C   UNL A   1     -25.033   2.142  29.971  0.00  0.00    +0.122 C 
BRANCH  24  25
ATOM     25  S   UNL A   1     -26.295   2.900  30.954  0.00  0.00    -0.094 S 
BRANCH  25  30
ATOM     26  N   UNL A   1     -25.456   6.250  32.456  0.00  0.00    -0.217 NA
ATOM     27  O   UNL A   1     -25.179   4.299  33.145  0.00  0.00    -0.304 OA
ATOM     28  F   UNL A   1     -23.792   5.934  33.881  0.00  0.00    -0.184 F 
ATOM     29  C   UNL A   1     -25.541   7.668  32.508  0.00  0.00    +0.094 C 
ATOM     30  C   UNL A   1     -25.852   4.246  31.924  0.00  0.00    +0.184 C 
ATOM     31  C   UNL A   1     -24.805   5.454  33.237  0.00  0.00    +0.348 C 
ATOM     32  C   UNL A   1     -26.095   5.471  31.522  0.00  0.00    +0.118 C 
ENDBRANCH  25  30
ENDBRANCH  24  25
BRANCH  24  33
ATOM     33  C   UNL A   1     -24.281   1.410  30.999  0.00  0.00    +0.030 C 
BRANCH  33  35
ATOM     34  C   UNL A   1     -25.387  -0.679  31.571  0.00  0.00    +0.077 C 
ATOM     35  C   UNL A   1     -25.189   0.773  32.028  0.00  0.00    +0.020 C 
ATOM     36  C   UNL A   1     -25.336   0.684  33.544  0.00  0.00    +0.020 C 
ATOM     37  C   UNL A   1     -24.829  -0.715  33.905  0.00  0.00    +0.089 C 
ATOM     38  N   UNL A   1     -24.758  -1.481  32.646  0.00  0.00    -0.219 NA
BRANCH  34  39
ATOM     39  C   UNL A   1     -24.855  -1.012  30.143  0.00  0.00    +0.044 C 
BRANCH  39  40
ATOM     40  C   UNL A   1     -24.973  -2.505  29.788  0.00  0.00    -0.021 C 
ATOM     41  C   UNL A   1     -23.906  -3.173  29.146  0.00  0.00    -0.004 C 
ATOM     42  C   UNL A   1     -23.989  -4.549  28.853  0.00  0.00    -0.000 C 
ATOM     43  C   UNL A   1     -25.137  -5.280  29.205  0.00  0.00    -0.000 C 
ATOM     44  C   UNL A   1     -26.232  -4.611  29.784  0.00  0.00    -0.000 C 
ATOM     45  C   UNL A   1     -26.155  -3.232  30.065  0.00  0.00    -0.004 C 
ENDBRANCH  39  40
ENDBRANCH  34  39
ENDBRANCH  33  35
ENDBRANCH  24  33
ENDBRANCH   1  24
TORSDOF 14
