REMARK  Name = outputs/IAG933/test6/raw/output_9973_IAG933_linker_design_.xyz
REMARK  15 active torsions:
REMARK  status: ('A' for Active; 'I' for Inactive)
REMARK    1  A    between atoms: C_1  and  C_2
REMARK    2  A    between atoms: C_1  and  C_8
REMARK    3  A    between atoms: C_1  and  C_28
REMARK    4  A    between atoms: C_13  and  C_47
REMARK    5  A    between atoms: C_14  and  C_15
REMARK    6  A    between atoms: C_15  and  O_18
REMARK    7  A    between atoms: O_18  and  C_38
REMARK    8  A    between atoms: C_21  and  O_22
REMARK    9  A    between atoms: O_22  and  C_23
REMARK   10  A    between atoms: C_23  and  C_24
REMARK   11  A    between atoms: C_28  and  N_43
REMARK   12  A    between atoms: C_30  and  C_33
REMARK   13  A    between atoms: C_31  and  O_42
REMARK   14  A    between atoms: C_32  and  C_44
REMARK   15  A    between atoms: C_38  and  C_44
REMARK                            x       y       z     vdW  Elec       q    Type
REMARK                         _______ _______ _______ _____ _____    ______ ____
ROOT
ATOM      1  C   UNL A   1     -25.688   1.614  26.461  0.00  0.00    +0.034 C 
ATOM      2  C   UNL A   1     -26.250   2.920  26.395  0.00  0.00    +0.072 C 
ATOM      3  C   UNL A   1     -27.438   3.091  25.645  0.00  0.00    +0.106 C 
ATOM      4  N   UNL A   1     -28.075   2.089  25.003  0.00  0.00    -0.208 NA
ATOM      5  C   UNL A   1     -27.543   0.849  25.079  0.00  0.00    +0.253 C 
ATOM      6  C   UNL A   1     -26.354   0.576  25.777  0.00  0.00    +0.191 C 
ATOM      7  F   UNL A   1     -25.860  -0.681  25.795  0.00  0.00    -0.200 F 
ENDROOT
BRANCH   1  13
ATOM      8  C   UNL A   1     -22.452   1.269  27.862  0.00  0.00    +0.158 C 
ATOM      9  C   UNL A   1     -23.330   1.972  27.108  0.00  0.00    +0.050 C 
ATOM     10  O   UNL A   1     -22.586  -0.092  29.585  0.00  0.00    -0.274 OA
ATOM     11 CL   UNL A   1     -20.755   1.495  27.631  0.00  0.00    -0.105 Cl
ATOM     12  N   UNL A   1     -24.532   0.552  28.305  0.00  0.00    -0.276 N 
ATOM     13  C   UNL A   1     -24.560   1.337  27.366  0.00  0.00    +0.102 C 
ATOM     14  C   UNL A   1     -23.186   0.529  28.669  0.00  0.00    +0.241 C 
BRANCH  12  15
ATOM     15  C   UNL A   1     -25.657  -0.056  29.118  0.00  0.00    +0.099 C 
BRANCH  15  16
ATOM     16  C   UNL A   1     -24.855  -1.012  30.143  0.00  0.00    +0.058 C 
BRANCH  16  17
ATOM     17  C   UNL A   1     -24.973  -2.505  29.788  0.00  0.00    -0.019 C 
ATOM     18  C   UNL A   1     -23.906  -3.173  29.146  0.00  0.00    -0.004 C 
ATOM     19  C   UNL A   1     -23.989  -4.549  28.853  0.00  0.00    -0.000 C 
ATOM     20  C   UNL A   1     -25.137  -5.280  29.205  0.00  0.00    -0.000 C 
ATOM     21  C   UNL A   1     -26.232  -4.611  29.784  0.00  0.00    -0.000 C 
ATOM     22  C   UNL A   1     -26.155  -3.232  30.065  0.00  0.00    -0.004 C 
ENDBRANCH  16  17
BRANCH  16  23
ATOM     23  C   UNL A   1     -25.387  -0.679  31.571  0.00  0.00    +0.079 C 
ATOM     24  C   UNL A   1     -25.189   0.773  32.028  0.00  0.00    +0.019 C 
ATOM     25  C   UNL A   1     -25.336   0.684  33.544  0.00  0.00    +0.020 C 
ATOM     26  C   UNL A   1     -24.829  -0.715  33.905  0.00  0.00    +0.089 C 
ATOM     27  N   UNL A   1     -24.758  -1.481  32.646  0.00  0.00    -0.219 NA
ENDBRANCH  16  23
ENDBRANCH  15  16
ENDBRANCH  12  15
ENDBRANCH   1  13
BRANCH   2  28
ATOM     28  C   UNL A   1     -25.642   4.093  27.123  0.00  0.00    +0.222 C 
ATOM     29  N   UNL A   1     -25.614   5.252  26.449  0.00  0.00    -0.236 NA
ATOM     30  C   UNL A   1     -25.026   6.479  26.963  0.00  0.00    +0.155 C 
BRANCH  28  31
ATOM     31  O   UNL A   1     -25.143   3.966  28.243  0.00  0.00    -0.458 OA
BRANCH  31  32
ATOM     32  C   UNL A   1     -25.491   4.724  29.445  0.00  0.00    +0.240 C 
BRANCH  32  33
ATOM     33  C   UNL A   1     -26.181   3.889  30.545  0.00  0.00    +0.198 C 
ATOM     34  O   UNL A   1     -25.852   4.569  31.835  0.00  0.00    -0.219 OA
BRANCH  33  37
ATOM     35  C   UNL A   1     -28.516   2.981  29.813  0.00  0.00    +0.037 C 
ATOM     36  C   UNL A   1     -28.212   5.307  30.082  0.00  0.00    +0.148 C 
ATOM     37  C   UNL A   1     -27.835   4.028  30.416  0.00  0.00    +0.066 C 
ATOM     38  C   UNL A   1     -29.588   3.953  29.030  0.00  0.00    +0.035 C 
ATOM     39  O   UNL A   1     -29.087   6.072  27.925  0.00  0.00    -0.221 OA
ATOM     40  C   UNL A   1     -30.600   3.450  28.027  0.00  0.00    +0.003 C 
ATOM     41  C   UNL A   1     -28.972   5.226  28.927  0.00  0.00    +0.179 C 
BRANCH  35  42
ATOM     42  C   UNL A   1     -28.043   2.081  28.978  0.00  0.00    +0.145 C 
ATOM     43  C   UNL A   1     -28.470   0.884  28.450  0.00  0.00    +0.172 C 
ATOM     44  O   UNL A   1     -27.003   1.079  29.188  0.00  0.00    -0.351 OA
ENDBRANCH  35  42
BRANCH  36  46
ATOM     45  C   UNL A   1     -28.307   7.595  30.805  0.00  0.00    +0.174 C 
ATOM     46  O   UNL A   1     -28.539   6.231  30.992  0.00  0.00    -0.351 OA
ENDBRANCH  36  46
ENDBRANCH  33  37
ENDBRANCH  32  33
ENDBRANCH  31  32
ENDBRANCH  28  31
ENDBRANCH   2  28
BRANCH   5  47
ATOM     47  O   UNL A   1     -28.193  -0.208  24.477  0.00  0.00    -0.456 OA
BRANCH  47  48
ATOM     48  C   UNL A   1     -29.460   0.005  23.866  0.00  0.00    +0.243 C 
BRANCH  48  49
ATOM     49  C   UNL A   1     -30.065  -1.377  23.573  0.00  0.00    +0.229 C 
ATOM     50  O   UNL A   1     -30.729  -1.878  24.721  0.00  0.00    -0.216 OA
ENDBRANCH  48  49
ENDBRANCH  47  48
ENDBRANCH   5  47
TORSDOF 15
