MODEL 997
MODEL 1
REMARK VINA RESULT:    -8.489      0.000      0.000
REMARK INTER + INTRA:         -10.723
REMARK INTER:                  -9.978
REMARK INTRA:                  -0.745
REMARK UNBOUND:                -0.745
REMARK  Name = No_997-gen_results/8p0m/2024-11-27-11-27-31/
REMARK  3 active torsions:
REMARK  status: ('A' for Active; 'I' for Inactive)
REMARK    1  A    between atoms: C_3  and  C_7
REMARK    2  A    between atoms: C_10  and  C_11
REMARK    3  A    between atoms: C_11  and  C_12
REMARK                            x       y       z     vdW  Elec       q    Type
REMARK                         _______ _______ _______ _____ _____    ______ ____
ROOT
ATOM      1  C   UNL A   1     -24.769  -1.227  29.952  0.00  0.00    +0.249 C 
ATOM      2  N   UNL A   1     -23.849  -0.520  29.329  0.00  0.00    -0.276 N 
ATOM      3  C   UNL A   1     -24.176   0.677  28.794  0.00  0.00    +0.094 C 
ATOM      4  C   UNL A   1     -23.292   1.311  27.838  0.00  0.00    +0.024 C 
ATOM      5  C   UNL A   1     -22.549  -0.356  30.122  0.00  0.00    +0.094 C 
ATOM      6  C   UNL A   1     -21.916   0.820  27.897  0.00  0.00    +0.004 C 
ATOM      7  C   UNL A   1     -21.531  -0.075  28.939  0.00  0.00    +0.022 C 
ATOM      8  O   UNL A   1     -25.382  -0.754  30.834  0.00  0.00    -0.270 OA
ENDROOT
BRANCH   1  11
ATOM      9  C   UNL A   1     -26.051  -3.416  29.954  0.00  0.00    +0.004 A 
ATOM     10  C   UNL A   1     -26.137  -4.408  29.607  0.00  0.00    +0.000 A 
ATOM     11  C   UNL A   1     -24.871  -2.705  29.553  0.00  0.00    +0.054 A 
ATOM     12  C   UNL A   1     -23.848  -3.287  28.921  0.00  0.00    +0.004 A 
ATOM     13  C   UNL A   1     -25.153  -5.241  28.931  0.00  0.00    +0.000 A 
ATOM     14  C   UNL A   1     -24.046  -4.604  28.574  0.00  0.00    +0.000 A 
ENDBRANCH   1  11
BRANCH   4  15
ATOM     15  C   UNL A   1     -23.746   2.239  26.902  0.00  0.00    +0.028 C 
BRANCH  15  16
ATOM     16  C   UNL A   1     -24.718   2.038  25.929  0.00  0.00    -0.022 A 
ATOM     17  C   UNL A   1     -26.106   2.296  26.247  0.00  0.00    -0.004 A 
ATOM     18  C   UNL A   1     -27.026   1.774  25.254  0.00  0.00    -0.000 A 
ATOM     19  C   UNL A   1     -26.599   0.406  24.807  0.00  0.00    -0.000 A 
ATOM     20  C   UNL A   1     -25.307  -0.089  24.795  0.00  0.00    -0.000 A 
ATOM     21  C   UNL A   1     -24.390   0.699  25.249  0.00  0.00    -0.004 A 
ENDBRANCH  15  16
ENDBRANCH   4  15
TORSDOF 3
ENDMDL
ENDMDL
