REMARK  Name = No_998-gen_results/8p0m/2024-11-27-11-27-31/
REMARK  2 active torsions:
REMARK  status: ('A' for Active; 'I' for Inactive)
REMARK    1  A    between atoms: N_3  and  C_6
REMARK    2  A    between atoms: C_5  and  C_13
REMARK                            x       y       z     vdW  Elec       q    Type
REMARK                         _______ _______ _______ _____ _____    ______ ____
ROOT
ATOM      1  C   UNL A   1     -28.016  -0.814  28.878  0.00  0.00    +0.022 C 
ATOM      2  C   UNL A   1     -27.064  -0.119  28.608  0.00  0.00    +0.091 C 
ATOM      3  N   UNL A   1     -26.985   0.597  27.522  0.00  0.00    -0.307 N 
ATOM      4  C   UNL A   1     -29.231  -0.075  28.790  0.00  0.00    +0.011 C 
ATOM      5  C   UNL A   1     -29.410   0.602  27.557  0.00  0.00    +0.085 C 
ATOM      6  C   UNL A   1     -28.212   1.357  27.168  0.00  0.00    +0.099 C 
ENDROOT
BRANCH   3   7
ATOM      7  C   UNL A   1     -25.797   1.218  26.996  0.00  0.00    +0.048 A 
ATOM      8  C   UNL A   1     -24.640   0.764  27.569  0.00  0.00    +0.015 A 
ATOM      9  C   UNL A   1     -23.441   1.572  27.401  0.00  0.00    +0.001 A 
ATOM     10  C   UNL A   1     -23.388   2.397  26.271  0.00  0.00    +0.000 A 
ATOM     11  C   UNL A   1     -25.537   2.550  26.344  0.00  0.00    +0.015 A 
ATOM     12  C   UNL A   1     -24.471   3.061  25.876  0.00  0.00    +0.001 A 
ENDBRANCH   3   7
BRANCH   5  13
ATOM     13  C   UNL A   1     -30.493   0.554  26.732  0.00  0.00    +0.209 C 
ATOM     14  O   UNL A   1     -31.506   0.186  27.074  0.00  0.00    -0.288 OA
ENDBRANCH   5  13
TORSDOF 2
