REMARK  Name = outputs/IAG933/test6/raw/output_9986_IAG933_linker_design_.xyz
REMARK  13 active torsions:
REMARK  status: ('A' for Active; 'I' for Inactive)
REMARK    1  A    between atoms: C_1  and  C_2
REMARK    2  A    between atoms: C_1  and  C_8
REMARK    3  A    between atoms: C_1  and  O_30
REMARK    4  A    between atoms: C_13  and  C_28
REMARK    5  A    between atoms: C_14  and  C_15
REMARK    6  A    between atoms: C_21  and  O_22
REMARK    7  A    between atoms: O_22  and  C_23
REMARK    8  A    between atoms: C_23  and  C_24
REMARK    9  A    between atoms: C_28  and  C_34
REMARK   10  A    between atoms: O_30  and  C_34
REMARK   11  A    between atoms: C_34  and  N_37
REMARK   12  A    between atoms: C_34  and  C_41
REMARK   13  A    between atoms: N_37  and  C_38
REMARK                            x       y       z     vdW  Elec       q    Type
REMARK                         _______ _______ _______ _____ _____    ______ ____
ROOT
ATOM      1  C   UNL A   1     -24.739   1.094  28.881  0.00  0.00    +0.259 C 
ENDROOT
BRANCH   1   6
ATOM      2  C   UNL A   1     -21.974   1.721  27.035  0.00  0.00    +0.583 C 
ATOM      3  O   UNL A   1     -22.585   2.112  26.001  0.00  0.00    -0.195 OA
ATOM      4  N   UNL A   1     -22.828   0.247  30.125  0.00  0.00    +0.197 NA
ATOM      5  N   UNL A   1     -22.380   0.839  28.009  0.00  0.00    +0.079 NA
ATOM      6  C   UNL A   1     -23.300   0.978  28.980  0.00  0.00    +0.440 C 
ATOM      7  O   UNL A   1     -20.805   2.074  27.102  0.00  0.00    -0.195 OA
ENDBRANCH   1   6
BRANCH   1   8
ATOM      8  C   UNL A   1     -24.721   1.163  27.426  0.00  0.00    +0.065 C 
BRANCH   8   9
ATOM      9  C   UNL A   1     -25.688   1.614  26.461  0.00  0.00    +0.075 C 
ATOM     10  C   UNL A   1     -26.250   2.920  26.395  0.00  0.00    +0.055 C 
ATOM     11  C   UNL A   1     -27.438   3.091  25.645  0.00  0.00    +0.102 C 
ATOM     12  N   UNL A   1     -28.075   2.089  25.003  0.00  0.00    -0.212 NA
ATOM     13  C   UNL A   1     -27.543   0.849  25.079  0.00  0.00    +0.234 C 
ATOM     14  C   UNL A   1     -26.354   0.576  25.777  0.00  0.00    +0.240 C 
ATOM     15  F   UNL A   1     -25.860  -0.681  25.795  0.00  0.00    -0.227 F 
BRANCH  10  16
ATOM     16  C   UNL A   1     -25.642   4.093  27.123  0.00  0.00    +0.262 C 
ATOM     17  N   UNL A   1     -25.614   5.252  26.449  0.00  0.00    -0.200 NA
ATOM     18  C   UNL A   1     -25.026   6.479  26.963  0.00  0.00    +0.139 C 
ATOM     19  O   UNL A   1     -25.143   3.966  28.243  0.00  0.00    -0.269 OA
ENDBRANCH  10  16
BRANCH  13  20
ATOM     20  O   UNL A   1     -28.193  -0.208  24.477  0.00  0.00    -0.459 OA
BRANCH  20  21
ATOM     21  C   UNL A   1     -29.460   0.005  23.866  0.00  0.00    +0.242 C 
BRANCH  21  22
ATOM     22  C   UNL A   1     -30.065  -1.377  23.573  0.00  0.00    +0.229 C 
ATOM     23  O   UNL A   1     -30.729  -1.878  24.721  0.00  0.00    -0.216 OA
ENDBRANCH  21  22
ENDBRANCH  20  21
ENDBRANCH  13  20
ENDBRANCH   8   9
ENDBRANCH   1   8
BRANCH   1  24
ATOM     24  O   UNL A   1     -25.369  -0.195  29.145  0.00  0.00    -0.330 OA
BRANCH  24  25
ATOM     25  C   UNL A   1     -24.855  -1.012  30.143  0.00  0.00    +0.155 C 
BRANCH  25  26
ATOM     26  C   UNL A   1     -24.973  -2.505  29.788  0.00  0.00    +0.006 C 
ATOM     27  C   UNL A   1     -23.906  -3.173  29.146  0.00  0.00    -0.002 C 
ATOM     28  C   UNL A   1     -23.989  -4.549  28.853  0.00  0.00    -0.000 C 
ATOM     29  C   UNL A   1     -25.137  -5.280  29.205  0.00  0.00    -0.000 C 
ATOM     30  C   UNL A   1     -26.232  -4.611  29.784  0.00  0.00    -0.000 C 
ATOM     31  C   UNL A   1     -26.155  -3.232  30.065  0.00  0.00    -0.002 C 
ENDBRANCH  25  26
BRANCH  25  32
ATOM     32  C   UNL A   1     -25.387  -0.679  31.571  0.00  0.00    +0.104 C 
ATOM     33  C   UNL A   1     -25.189   0.773  32.028  0.00  0.00    +0.022 C 
ATOM     34  C   UNL A   1     -25.336   0.684  33.544  0.00  0.00    +0.020 C 
ATOM     35  C   UNL A   1     -24.829  -0.715  33.905  0.00  0.00    +0.089 C 
ATOM     36  N   UNL A   1     -24.758  -1.481  32.646  0.00  0.00    -0.217 NA
ENDBRANCH  25  32
ENDBRANCH  24  25
ENDBRANCH   1  24
BRANCH   1  37
ATOM     37  N   UNL A   1     -25.460   2.165  29.721  0.00  0.00    -0.184 NA
BRANCH  37  41
ATOM     38  C   UNL A   1     -29.546   3.155  28.515  0.00  0.00    +0.003 C 
ATOM     39  C   UNL A   1     -28.488   4.243  28.787  0.00  0.00    +0.034 C 
ATOM     40  C   UNL A   1     -27.773   1.382  28.926  0.00  0.00    +0.020 C 
ATOM     41  C   UNL A   1     -26.948   2.471  29.654  0.00  0.00    +0.106 C 
ATOM     42  C   UNL A   1     -27.717   3.741  30.004  0.00  0.00    +0.168 C 
ATOM     43  O   UNL A   1     -28.776   3.681  31.082  0.00  0.00    -0.222 OA
ATOM     44  C   UNL A   1     -29.274   1.735  29.061  0.00  0.00    +0.002 C 
ENDBRANCH  37  41
ENDBRANCH   1  37
TORSDOF 13
