REMARK  Name = outputs/IAG933/test6/raw/output_9987_IAG933_linker_design_.xyz
REMARK  13 active torsions:
REMARK  status: ('A' for Active; 'I' for Inactive)
REMARK    1  A    between atoms: C_1  and  C_2
REMARK    2  A    between atoms: C_1  and  C_8
REMARK    3  A    between atoms: C_1  and  C_34
REMARK    4  A    between atoms: C_13  and  C_28
REMARK    5  A    between atoms: C_14  and  C_15
REMARK    6  A    between atoms: C_21  and  O_22
REMARK    7  A    between atoms: O_22  and  C_23
REMARK    8  A    between atoms: C_23  and  C_24
REMARK    9  A    between atoms: C_32  and  C_33
REMARK   10  A    between atoms: C_33  and  C_46
REMARK   11  A    between atoms: C_34  and  C_39
REMARK   12  A    between atoms: C_34  and  N_45
REMARK   13  A    between atoms: C_39  and  C_44
REMARK                            x       y       z     vdW  Elec       q    Type
REMARK                         _______ _______ _______ _____ _____    ______ ____
ROOT
ATOM      1  C   UNL A   1     -24.759   0.010  28.880  0.00  0.00    +0.121 C 
ENDROOT
BRANCH   1   3
ATOM      2  O   UNL A   1     -28.375  -0.349  28.534  0.00  0.00    -0.273 OA
ATOM      3  N   UNL A   1     -26.229   0.140  28.671  0.00  0.00    -0.202 NA
ATOM      4  C   UNL A   1     -27.484   0.366  28.914  0.00  0.00    +0.246 C 
BRANCH   4   5
ATOM      5  C   UNL A   1     -27.875   1.566  29.880  0.00  0.00    +0.117 C 
BRANCH   5   8
ATOM      6  N   UNL A   1     -28.775   6.442  28.730  0.00  0.00    +0.089 NA
ATOM      7  C   UNL A   1     -30.267   8.112  27.671  0.00  0.00    +0.180 C 
ATOM      8  C   UNL A   1     -28.549   2.857  29.439  0.00  0.00    +0.040 C 
ATOM      9  N   UNL A   1     -29.741   4.474  28.191  0.00  0.00    -0.047 N 
ATOM     10  C   UNL A   1     -29.638   3.039  28.452  0.00  0.00    +0.220 C 
ATOM     11  C   UNL A   1     -28.835   5.079  29.013  0.00  0.00    +0.376 C 
ATOM     12  O   UNL A   1     -30.408   5.685  27.498  0.00  0.00    -0.049 OA
ATOM     13  N   UNL A   1     -29.742   6.806  27.880  0.00  0.00    +0.071 NA
ATOM     14  C   UNL A   1     -28.096   4.118  29.762  0.00  0.00    +0.094 C 
ENDBRANCH   5   8
ENDBRANCH   4   5
ENDBRANCH   1   3
BRANCH   1  16
ATOM     15  C   UNL A   1     -24.281   1.461  26.645  0.00  0.00    -0.023 C 
ATOM     16  C   UNL A   1     -23.834   0.787  27.805  0.00  0.00    +0.002 C 
BRANCH  15  17
ATOM     17  C   UNL A   1     -25.688   1.614  26.461  0.00  0.00    +0.092 C 
ATOM     18  C   UNL A   1     -26.250   2.920  26.395  0.00  0.00    +0.059 C 
ATOM     19  C   UNL A   1     -27.438   3.091  25.645  0.00  0.00    +0.102 C 
ATOM     20  N   UNL A   1     -28.075   2.089  25.003  0.00  0.00    -0.212 NA
ATOM     21  C   UNL A   1     -27.543   0.849  25.079  0.00  0.00    +0.234 C 
ATOM     22  C   UNL A   1     -26.354   0.576  25.777  0.00  0.00    +0.244 C 
ATOM     23  F   UNL A   1     -25.860  -0.681  25.795  0.00  0.00    -0.227 F 
BRANCH  18  24
ATOM     24  C   UNL A   1     -25.642   4.093  27.123  0.00  0.00    +0.263 C 
ATOM     25  N   UNL A   1     -25.614   5.252  26.449  0.00  0.00    -0.200 NA
ATOM     26  C   UNL A   1     -25.026   6.479  26.963  0.00  0.00    +0.139 C 
ATOM     27  O   UNL A   1     -25.143   3.966  28.243  0.00  0.00    -0.269 OA
ENDBRANCH  18  24
BRANCH  21  28
ATOM     28  O   UNL A   1     -28.193  -0.208  24.477  0.00  0.00    -0.459 OA
BRANCH  28  29
ATOM     29  C   UNL A   1     -29.460   0.005  23.866  0.00  0.00    +0.242 C 
BRANCH  29  30
ATOM     30  C   UNL A   1     -30.065  -1.377  23.573  0.00  0.00    +0.229 C 
ATOM     31  O   UNL A   1     -30.729  -1.878  24.721  0.00  0.00    -0.216 OA
ENDBRANCH  29  30
ENDBRANCH  28  29
ENDBRANCH  21  28
ENDBRANCH  15  17
BRANCH  16  34
ATOM     32  C   UNL A   1     -21.367   1.593  27.279  0.00  0.00    +0.040 C 
ATOM     33  O   UNL A   1     -22.173   0.049  29.393  0.00  0.00    -0.219 OA
ATOM     34  C   UNL A   1     -22.295   0.669  28.123  0.00  0.00    +0.172 C 
ENDBRANCH  16  34
ENDBRANCH   1  16
BRANCH   1  35
ATOM     35  C   UNL A   1     -24.855  -1.012  30.143  0.00  0.00    +0.062 C 
BRANCH  35  36
ATOM     36  C   UNL A   1     -24.973  -2.505  29.788  0.00  0.00    -0.019 C 
ATOM     37  C   UNL A   1     -23.906  -3.173  29.146  0.00  0.00    -0.004 C 
ATOM     38  C   UNL A   1     -23.989  -4.549  28.853  0.00  0.00    -0.000 C 
ATOM     39  C   UNL A   1     -25.137  -5.280  29.205  0.00  0.00    -0.000 C 
ATOM     40  C   UNL A   1     -26.232  -4.611  29.784  0.00  0.00    -0.000 C 
ATOM     41  C   UNL A   1     -26.155  -3.232  30.065  0.00  0.00    -0.004 C 
ENDBRANCH  35  36
BRANCH  35  42
ATOM     42  C   UNL A   1     -25.387  -0.679  31.571  0.00  0.00    +0.079 C 
ATOM     43  C   UNL A   1     -25.189   0.773  32.028  0.00  0.00    +0.019 C 
ATOM     44  C   UNL A   1     -25.336   0.684  33.544  0.00  0.00    +0.020 C 
ATOM     45  C   UNL A   1     -24.829  -0.715  33.905  0.00  0.00    +0.089 C 
ATOM     46  N   UNL A   1     -24.758  -1.481  32.646  0.00  0.00    -0.219 NA
ENDBRANCH  35  42
ENDBRANCH   1  35
TORSDOF 13
