REMARK  Name = outputs/IAG933/test6/raw/output_9988_IAG933_linker_design_.xyz
REMARK  9 active torsions:
REMARK  status: ('A' for Active; 'I' for Inactive)
REMARK    1  A    between atoms: C_1  and  C_2
REMARK    2  A    between atoms: C_1  and  C_8
REMARK    3  A    between atoms: C_1  and  C_36
REMARK    4  A    between atoms: C_21  and  O_22
REMARK    5  A    between atoms: O_22  and  C_23
REMARK    6  A    between atoms: C_23  and  C_24
REMARK    7  A    between atoms: C_36  and  C_45
REMARK    8  A    between atoms: C_38  and  C_41
REMARK    9  A    between atoms: C_44  and  C_47
REMARK                            x       y       z     vdW  Elec       q    Type
REMARK                         _______ _______ _______ _____ _____    ______ ____
ROOT
ATOM      1  C   UNL A   1     -25.688   1.614  26.461  0.00  0.00    +0.037 C 
ATOM      2  C   UNL A   1     -26.250   2.920  26.395  0.00  0.00    +0.074 C 
ATOM      3  C   UNL A   1     -25.642   4.093  27.123  0.00  0.00    +0.223 C 
ATOM      4  N   UNL A   1     -25.614   5.252  26.449  0.00  0.00    -0.236 NA
ATOM      5  C   UNL A   1     -25.026   6.479  26.963  0.00  0.00    +0.155 C 
ATOM      6  O   UNL A   1     -25.143   3.966  28.243  0.00  0.00    -0.450 OA
ATOM      7  C   UNL A   1     -27.438   3.091  25.645  0.00  0.00    +0.107 C 
ATOM      8  N   UNL A   1     -28.075   2.089  25.003  0.00  0.00    -0.208 NA
ATOM      9  C   UNL A   1     -27.543   0.849  25.079  0.00  0.00    +0.253 C 
ATOM     10  C   UNL A   1     -26.354   0.576  25.777  0.00  0.00    +0.193 C 
ATOM     11  F   UNL A   1     -25.860  -0.681  25.795  0.00  0.00    -0.199 F 
ATOM     12  C   UNL A   1     -28.490   3.460  31.613  0.00  0.00    +0.212 C 
ATOM     13  C   UNL A   1     -26.513   6.217  30.790  0.00  0.00    +0.149 C 
ATOM     14  N   UNL A   1     -26.929   3.696  30.318  0.00  0.00    -0.213 NA
ATOM     15  C   UNL A   1     -27.276   4.115  31.535  0.00  0.00    +0.211 C 
ATOM     16  C   UNL A   1     -24.542   1.361  27.108  0.00  0.00    +0.019 C 
ATOM     17  C   UNL A   1     -25.794   4.042  29.523  0.00  0.00    +0.215 C 
ATOM     18 CL   UNL A   1     -23.307   2.716  25.091  0.00  0.00    -0.081 Cl
ATOM     19  C   UNL A   1     -24.913   2.749  30.071  0.00  0.00    +0.198 C 
ATOM     20  C   UNL A   1     -23.453   1.879  26.540  0.00  0.00    +0.077 C 
ATOM     21  O   UNL A   1     -28.772   2.684  32.700  0.00  0.00    -0.217 OA
ATOM     22  O   UNL A   1     -27.087   5.538  31.867  0.00  0.00    -0.338 OA
ATOM     23  C   UNL A   1     -25.345   5.441  30.103  0.00  0.00    +0.091 C 
ATOM     24  C   UNL A   1     -28.271   2.375  30.457  0.00  0.00    +0.127 C 
ATOM     25  C   UNL A   1     -24.515   0.844  28.503  0.00  0.00    +0.139 C 
ATOM     26  O   UNL A   1     -24.093   1.771  29.330  0.00  0.00    -0.347 OA
ENDROOT
BRANCH  24  29
ATOM     27  O   UNL A   1     -29.260   4.072  28.889  0.00  0.00    -0.222 OA
ATOM     28  C   UNL A   1     -29.399   1.288  28.779  0.00  0.00    +0.037 C 
ATOM     29  C   UNL A   1     -28.709   2.691  28.991  0.00  0.00    +0.169 C 
ENDBRANCH  24  29
BRANCH  20  30
ATOM     30  C   UNL A   1     -22.173   1.842  27.178  0.00  0.00    +0.133 C 
ATOM     31  N   UNL A   1     -21.356   1.312  27.925  0.00  0.00    -0.145 NA
ENDBRANCH  20  30
BRANCH   9  32
ATOM     32  O   UNL A   1     -28.193  -0.208  24.477  0.00  0.00    -0.456 OA
BRANCH  32  33
ATOM     33  C   UNL A   1     -29.460   0.005  23.866  0.00  0.00    +0.243 C 
BRANCH  33  34
ATOM     34  C   UNL A   1     -30.065  -1.377  23.573  0.00  0.00    +0.229 C 
ATOM     35  O   UNL A   1     -30.729  -1.878  24.721  0.00  0.00    -0.216 OA
ENDBRANCH  33  34
ENDBRANCH  32  33
ENDBRANCH   9  32
BRANCH  25  36
ATOM     36  C   UNL A   1     -25.100  -0.247  28.931  0.00  0.00    +0.040 C 
BRANCH  36  37
ATOM     37  C   UNL A   1     -24.855  -1.012  30.143  0.00  0.00    +0.041 C 
BRANCH  37  38
ATOM     38  C   UNL A   1     -24.973  -2.505  29.788  0.00  0.00    -0.021 C 
ATOM     39  C   UNL A   1     -23.906  -3.173  29.146  0.00  0.00    -0.004 C 
ATOM     40  C   UNL A   1     -23.989  -4.549  28.853  0.00  0.00    -0.000 C 
ATOM     41  C   UNL A   1     -25.137  -5.280  29.205  0.00  0.00    -0.000 C 
ATOM     42  C   UNL A   1     -26.232  -4.611  29.784  0.00  0.00    -0.000 C 
ATOM     43  C   UNL A   1     -26.155  -3.232  30.065  0.00  0.00    -0.004 C 
ENDBRANCH  37  38
BRANCH  37  44
ATOM     44  C   UNL A   1     -25.387  -0.679  31.571  0.00  0.00    +0.077 C 
ATOM     45  C   UNL A   1     -25.189   0.773  32.028  0.00  0.00    +0.019 C 
ATOM     46  C   UNL A   1     -25.336   0.684  33.544  0.00  0.00    +0.020 C 
ATOM     47  C   UNL A   1     -24.829  -0.715  33.905  0.00  0.00    +0.089 C 
ATOM     48  N   UNL A   1     -24.758  -1.481  32.646  0.00  0.00    -0.219 NA
ENDBRANCH  37  44
ENDBRANCH  36  37
ENDBRANCH  25  36
TORSDOF 9
