REMARK  Name = outputs/IAG933/test6/raw/output_9989_IAG933_linker_design_.xyz
REMARK  6 active torsions:
REMARK  status: ('A' for Active; 'I' for Inactive)
REMARK    1  A    between atoms: C_1  and  C_2
REMARK    2  A    between atoms: C_13  and  C_32
REMARK    3  A    between atoms: C_14  and  C_15
REMARK    4  A    between atoms: C_21  and  O_22
REMARK    5  A    between atoms: O_22  and  C_23
REMARK    6  A    between atoms: C_23  and  C_24
REMARK                            x       y       z     vdW  Elec       q    Type
REMARK                         _______ _______ _______ _____ _____    ______ ____
ROOT
ATOM      1  C   UNL A   1     -24.855  -1.012  30.143  0.00  0.00    +0.125 C 
ATOM      2  C   UNL A   1     -25.387  -0.679  31.571  0.00  0.00    +0.093 C 
ATOM      3  C   UNL A   1     -25.189   0.773  32.028  0.00  0.00    +0.096 C 
ATOM      4  C   UNL A   1     -25.336   0.684  33.544  0.00  0.00    +0.029 C 
ATOM      5  C   UNL A   1     -24.829  -0.715  33.905  0.00  0.00    +0.089 C 
ATOM      6  N   UNL A   1     -24.758  -1.481  32.646  0.00  0.00    -0.218 NA
ATOM      7  C   UNL A   1     -21.336   1.751  27.245  0.00  0.00    +0.289 C 
ATOM      8  O   UNL A   1     -22.609  -0.361  29.842  0.00  0.00    -0.306 OA
ATOM      9  C   UNL A   1     -23.702   2.004  25.373  0.00  0.00    +0.040 C 
ATOM     10  O   UNL A   1     -24.954   3.082  31.242  0.00  0.00    -0.273 OA
ATOM     11  C   UNL A   1     -24.320   1.464  26.529  0.00  0.00    +0.022 C 
ATOM     12  C   UNL A   1     -22.430   2.541  25.168  0.00  0.00    +0.182 C 
ATOM     13  C   UNL A   1     -20.600  -0.238  28.948  0.00  0.00    +0.037 C 
ATOM     14  N   UNL A   1     -24.108   1.434  30.039  0.00  0.00    -0.144 NA
ATOM     15  F   UNL A   1     -20.220   2.097  27.836  0.00  0.00    -0.163 F 
ATOM     16  C   UNL A   1     -22.344   1.046  27.900  0.00  0.00    +0.102 C 
ATOM     17  O   UNL A   1     -24.428  -0.045  28.116  0.00  0.00    -0.442 OA
ATOM     18  C   UNL A   1     -24.721   1.926  31.091  0.00  0.00    +0.247 C 
ATOM     19  O   UNL A   1     -21.411   2.317  26.060  0.00  0.00    -0.426 OA
ATOM     20  C   UNL A   1     -21.913   0.282  28.776  0.00  0.00    +0.151 C 
ATOM     21  C   UNL A   1     -24.020   0.107  29.657  0.00  0.00    +0.323 C 
ATOM     22  C   UNL A   1     -23.639   0.939  27.555  0.00  0.00    +0.143 C 
ENDROOT
BRANCH  11  23
ATOM     23  C   UNL A   1     -25.688   1.614  26.461  0.00  0.00    +0.095 C 
ATOM     24  C   UNL A   1     -26.250   2.920  26.395  0.00  0.00    +0.059 C 
ATOM     25  C   UNL A   1     -27.438   3.091  25.645  0.00  0.00    +0.102 C 
ATOM     26  N   UNL A   1     -28.075   2.089  25.003  0.00  0.00    -0.212 NA
ATOM     27  C   UNL A   1     -27.543   0.849  25.079  0.00  0.00    +0.234 C 
ATOM     28  C   UNL A   1     -26.354   0.576  25.777  0.00  0.00    +0.244 C 
ATOM     29  F   UNL A   1     -25.860  -0.681  25.795  0.00  0.00    -0.227 F 
BRANCH  24  30
ATOM     30  C   UNL A   1     -25.642   4.093  27.123  0.00  0.00    +0.263 C 
ATOM     31  N   UNL A   1     -25.614   5.252  26.449  0.00  0.00    -0.200 NA
ATOM     32  C   UNL A   1     -25.026   6.479  26.963  0.00  0.00    +0.139 C 
ATOM     33  O   UNL A   1     -25.143   3.966  28.243  0.00  0.00    -0.269 OA
ENDBRANCH  24  30
BRANCH  27  34
ATOM     34  O   UNL A   1     -28.193  -0.208  24.477  0.00  0.00    -0.459 OA
BRANCH  34  35
ATOM     35  C   UNL A   1     -29.460   0.005  23.866  0.00  0.00    +0.242 C 
BRANCH  35  36
ATOM     36  C   UNL A   1     -30.065  -1.377  23.573  0.00  0.00    +0.229 C 
ATOM     37  O   UNL A   1     -30.729  -1.878  24.721  0.00  0.00    -0.216 OA
ENDBRANCH  35  36
ENDBRANCH  34  35
ENDBRANCH  27  34
ENDBRANCH  11  23
BRANCH   1  38
ATOM     38  C   UNL A   1     -24.973  -2.505  29.788  0.00  0.00    -0.013 C 
ATOM     39  C   UNL A   1     -23.906  -3.173  29.146  0.00  0.00    -0.004 C 
ATOM     40  C   UNL A   1     -23.989  -4.549  28.853  0.00  0.00    -0.000 C 
ATOM     41  C   UNL A   1     -25.137  -5.280  29.205  0.00  0.00    -0.000 C 
ATOM     42  C   UNL A   1     -26.232  -4.611  29.784  0.00  0.00    -0.000 C 
ATOM     43  C   UNL A   1     -26.155  -3.232  30.065  0.00  0.00    -0.004 C 
ENDBRANCH   1  38
TORSDOF 6
