REMARK  Name = outputs/IAG933/test6/raw/output_9995_IAG933_linker_design_.xyz
REMARK  10 active torsions:
REMARK  status: ('A' for Active; 'I' for Inactive)
REMARK    1  A    between atoms: C_1  and  C_2
REMARK    2  A    between atoms: C_1  and  C_8
REMARK    3  A    between atoms: C_9  and  C_36
REMARK    4  A    between atoms: C_13  and  C_37
REMARK    5  A    between atoms: C_14  and  C_15
REMARK    6  A    between atoms: C_21  and  O_22
REMARK    7  A    between atoms: O_22  and  C_23
REMARK    8  A    between atoms: C_23  and  C_24
REMARK    9  A    between atoms: C_30  and  C_36
REMARK   10  A    between atoms: C_36  and  N_42
REMARK                            x       y       z     vdW  Elec       q    Type
REMARK                         _______ _______ _______ _____ _____    ______ ____
ROOT
ATOM      1  F   UNL A   1     -20.864   1.447  27.508  0.00  0.00    -0.153 F 
ATOM      2  C   UNL A   1     -24.189   1.260  28.668  0.00  0.00    +0.349 C 
ATOM      3  C   UNL A   1     -22.208   1.416  27.690  0.00  0.00    +0.337 C 
ATOM      4  N   UNL A   1     -22.858   1.186  28.944  0.00  0.00    -0.009 NA
ATOM      5  C   UNL A   1     -24.425   1.492  27.222  0.00  0.00    +0.173 C 
ATOM      6  C   UNL A   1     -23.149   1.727  26.711  0.00  0.00    +0.123 C 
ATOM      7 CL   UNL A   1     -22.672   2.369  25.172  0.00  0.00    -0.080 Cl
ATOM      8  N   UNL A   1     -25.106   1.545  29.625  0.00  0.00    -0.034 NA
ENDROOT
BRANCH   5   9
ATOM      9  C   UNL A   1     -25.688   1.614  26.461  0.00  0.00    +0.032 C 
ATOM     10  C   UNL A   1     -26.250   2.920  26.395  0.00  0.00    +0.073 C 
ATOM     11  C   UNL A   1     -27.438   3.091  25.645  0.00  0.00    +0.106 C 
ATOM     12  N   UNL A   1     -28.075   2.089  25.003  0.00  0.00    -0.208 NA
ATOM     13  C   UNL A   1     -27.543   0.849  25.079  0.00  0.00    +0.253 C 
ATOM     14  C   UNL A   1     -26.354   0.576  25.777  0.00  0.00    +0.190 C 
ATOM     15  F   UNL A   1     -25.860  -0.681  25.795  0.00  0.00    -0.200 F 
BRANCH  10  16
ATOM     16  C   UNL A   1     -25.642   4.093  27.123  0.00  0.00    +0.266 C 
ATOM     17  N   UNL A   1     -25.614   5.252  26.449  0.00  0.00    -0.200 NA
ATOM     18  C   UNL A   1     -25.026   6.479  26.963  0.00  0.00    +0.139 C 
ATOM     19  O   UNL A   1     -25.143   3.966  28.243  0.00  0.00    -0.268 OA
ENDBRANCH  10  16
BRANCH  13  20
ATOM     20  O   UNL A   1     -28.193  -0.208  24.477  0.00  0.00    -0.456 OA
BRANCH  20  21
ATOM     21  C   UNL A   1     -29.460   0.005  23.866  0.00  0.00    +0.243 C 
BRANCH  21  22
ATOM     22  C   UNL A   1     -30.065  -1.377  23.573  0.00  0.00    +0.229 C 
ATOM     23  O   UNL A   1     -30.729  -1.878  24.721  0.00  0.00    -0.216 OA
ENDBRANCH  21  22
ENDBRANCH  20  21
ENDBRANCH  13  20
ENDBRANCH   5   9
BRANCH   8  24
ATOM     24  C   UNL A   1     -25.137   1.873  31.047  0.00  0.00    +0.228 C 
BRANCH  24  25
ATOM     25  C   UNL A   1     -25.900   3.146  31.444  0.00  0.00    +0.024 C 
ATOM     26  C   UNL A   1     -26.634   3.155  32.644  0.00  0.00    -0.005 C 
ATOM     27  C   UNL A   1     -27.350   6.994  32.916  0.00  0.00    +0.031 C 
ATOM     28  C   UNL A   1     -25.744   4.320  30.701  0.00  0.00    -0.001 C 
ATOM     29  C   UNL A   1     -26.222   5.534  31.207  0.00  0.00    -0.005 C 
ATOM     30  C   UNL A   1     -27.234   4.354  33.089  0.00  0.00    -0.026 C 
ATOM     31  C   UNL A   1     -26.933   5.591  32.422  0.00  0.00    -0.026 C 
ATOM     32  C   UNL A   1     -28.284   4.316  34.208  0.00  0.00    +0.031 C 
ENDBRANCH  24  25
BRANCH  24  34
ATOM     33  C   UNL A   1     -25.387  -0.679  31.571  0.00  0.00    +0.082 C 
ATOM     34  C   UNL A   1     -25.189   0.773  32.028  0.00  0.00    +0.069 C 
ATOM     35  C   UNL A   1     -25.336   0.684  33.544  0.00  0.00    +0.025 C 
ATOM     36  C   UNL A   1     -24.829  -0.715  33.905  0.00  0.00    +0.089 C 
ATOM     37  N   UNL A   1     -24.758  -1.481  32.646  0.00  0.00    -0.219 NA
BRANCH  33  38
ATOM     38  C   UNL A   1     -24.855  -1.012  30.143  0.00  0.00    +0.044 C 
BRANCH  38  39
ATOM     39  C   UNL A   1     -24.973  -2.505  29.788  0.00  0.00    -0.021 C 
ATOM     40  C   UNL A   1     -23.906  -3.173  29.146  0.00  0.00    -0.004 C 
ATOM     41  C   UNL A   1     -23.989  -4.549  28.853  0.00  0.00    -0.000 C 
ATOM     42  C   UNL A   1     -25.137  -5.280  29.205  0.00  0.00    -0.000 C 
ATOM     43  C   UNL A   1     -26.232  -4.611  29.784  0.00  0.00    -0.000 C 
ATOM     44  C   UNL A   1     -26.155  -3.232  30.065  0.00  0.00    -0.004 C 
ENDBRANCH  38  39
ENDBRANCH  33  38
ENDBRANCH  24  34
ENDBRANCH   8  24
TORSDOF 10
