MODEL 999
MODEL 1
REMARK VINA RESULT:    -5.778      0.000      0.000
REMARK INTER + INTRA:          -6.319
REMARK INTER:                  -6.115
REMARK INTRA:                  -0.204
REMARK UNBOUND:                -0.204
REMARK  Name = No_999-gen_results/8p0m/2024-11-27-11-27-31/
REMARK  1 active torsions:
REMARK  status: ('A' for Active; 'I' for Inactive)
REMARK    1  A    between atoms: C_5  and  C_11
REMARK                            x       y       z     vdW  Elec       q    Type
REMARK                         _______ _______ _______ _____ _____    ______ ____
ROOT
ATOM      1  C   UNL A   1     -24.529  -1.667  29.372  0.00  0.00    +0.021 A 
ATOM      2  C   UNL A   1     -24.137  -0.769  28.663  0.00  0.00    +0.003 A 
ATOM      3  C   UNL A   1     -23.045  -0.071  28.786  0.00  0.00    +0.019 A 
ATOM      4  C   UNL A   1     -22.596   1.023  27.889  0.00  0.00    +0.005 A 
ATOM      5  C   UNL A   1     -23.423   1.297  26.763  0.00  0.00    +0.071 A 
ATOM      6  C   UNL A   1     -24.544   0.524  26.596  0.00  0.00    +0.004 A 
ATOM      7  C   UNL A   1     -24.911  -0.476  27.431  0.00  0.00    +0.000 A 
ATOM      8  C   UNL A   1     -24.024  -1.651  30.685  0.00  0.00    +0.099 A 
ATOM      9  N   UNL A   1     -22.954  -0.970  30.953  0.00  0.00    -0.242 NA
ATOM     10  C   UNL A   1     -22.482  -0.038  30.077  0.00  0.00    +0.099 A 
ENDROOT
BRANCH   5  11
ATOM     11  C   UNL A   1     -23.061   2.232  25.718  0.00  0.00    +0.419 C 
ATOM     12  F   UNL A   1     -23.503   3.246  25.618  0.00  0.00    -0.166 F 
ATOM     13  F   UNL A   1     -23.355   1.535  24.447  0.00  0.00    -0.166 F 
ATOM     14  F   UNL A   1     -21.665   2.248  25.623  0.00  0.00    -0.166 F 
ENDBRANCH   5  11
TORSDOF 1
ENDMDL
ENDMDL
