MODEL 99
MODEL 1
REMARK VINA RESULT:    -6.452      0.000      0.000
REMARK INTER + INTRA:          -7.484
REMARK INTER:                  -7.206
REMARK INTRA:                  -0.277
REMARK UNBOUND:                -0.277
REMARK  Name = No_99-gen_results/8p0m/2024-11-27-11-27-31/
REMARK  2 active torsions:
REMARK  status: ('A' for Active; 'I' for Inactive)
REMARK    1  A    between atoms: C_2  and  C_15
REMARK    2  A    between atoms: C_9  and  C_12
REMARK                            x       y       z     vdW  Elec       q    Type
REMARK                         _______ _______ _______ _____ _____    ______ ____
ROOT
ATOM      1  C   UNL A   1     -10.378   3.728  10.785  0.00  0.00    +0.015 A 
ATOM      2  C   UNL A   1      -9.730   2.773  11.145  0.00  0.00    +0.072 A 
ATOM      3  C   UNL A   1      -8.952   2.000  10.283  0.00  0.00    +0.004 A 
ATOM      4  C   UNL A   1      -8.952   2.306   8.866  0.00  0.00    +0.001 A 
ATOM      5  C   UNL A   1      -9.738   3.428   8.519  0.00  0.00    +0.011 A 
ATOM      6  C   UNL A   1     -10.443   4.090   9.401  0.00  0.00    +0.058 A 
ATOM      7 CL   UNL A   1     -11.405   5.380   8.822  0.00  0.00    -0.082 Cl
ATOM      8  C   UNL A   1      -8.109   0.811  10.663  0.00  0.00    +0.008 A 
ATOM      9  C   UNL A   1      -7.412   0.124   9.793  0.00  0.00    +0.098 A 
ATOM     10  C   UNL A   1      -7.296   0.675   8.452  0.00  0.00    +0.008 A 
ATOM     11  C   UNL A   1      -8.122   1.664   7.957  0.00  0.00    +0.000 A 
ENDROOT
BRANCH   2  12
ATOM     12  C   UNL A   1      -9.611   2.396  12.622  0.00  0.00    +0.419 C 
ATOM     13  F   UNL A   1      -8.664   3.016  13.124  0.00  0.00    -0.166 F 
ATOM     14  F   UNL A   1     -10.826   2.827  13.182  0.00  0.00    -0.166 F 
ATOM     15  F   UNL A   1      -9.950   1.240  12.952  0.00  0.00    -0.166 F 
ENDBRANCH   2  12
BRANCH   9  16
ATOM     16  C   UNL A   1      -6.483  -0.941  10.152  0.00  0.00    +0.477 C 
ATOM     17  N   UNL A   1      -5.389  -1.119   9.377  0.00  0.00    +0.205 NA
ATOM     18  N   UNL A   1      -6.808  -1.863  11.116  0.00  0.00    +0.205 NA
ENDBRANCH   9  16
TORSDOF 2
ENDMDL
ENDMDL
