No_0-gen_results/8p0m/2024-11-27-11-27-31/
     RDKit          3D

 33 35  0  0  0  0  0  0  0  0999 V2000
  -28.0162   -0.8135   28.8779 C   0  0  0  0  0  0  0  0  0  0  0  0
  -27.0636   -0.1190   28.6079 C   0  0  0  0  0  0  0  0  0  0  0  0
  -26.9287    1.1713   29.0083 C   0  0  0  0  0  0  0  0  0  0  0  0
  -25.7702    2.0341   28.6884 C   0  0  0  0  0  0  0  0  0  0  0  0
  -24.7141    1.4431   27.9188 C   0  0  0  0  0  0  0  0  0  0  0  0
  -24.8590    0.0783   27.5836 C   0  0  0  0  0  0  0  0  0  0  0  0
  -25.9647   -0.6606   27.9164 C   0  0  0  0  0  0  0  0  0  0  0  0
  -27.9821   -1.6367   30.0748 N   0  0  0  0  0  0  0  0  0  0  0  0
  -29.1950   -0.6035   28.4621 O   0  0  0  0  0  0  0  0  0  0  0  0
  -29.0495   -2.5038   30.5225 C   0  0  0  0  0  0  0  0  0  0  0  0
  -26.6889   -1.8860   30.7613 C   0  0  0  0  0  0  0  0  0  0  0  0
  -23.5137    2.1536   27.5449 C   0  0  0  0  0  0  0  0  0  0  0  0
  -22.4324    1.7032   27.1484 N   0  0  0  0  0  0  0  0  0  0  0  0
  -23.6932    3.4589   27.4887 O   0  0  0  0  0  0  0  0  0  0  0  0
  -28.8673   -3.8282   30.2818 C   0  0  0  0  0  0  0  0  0  0  0  0
  -29.5657   -4.6700   31.2303 C   0  0  0  0  0  0  0  0  0  0  0  0
  -29.8575   -5.7968   31.0745 C   0  0  0  0  0  0  0  0  0  0  0  0
  -30.6250   -6.6750   32.0059 C   0  0  0  0  0  0  0  0  0  0  0  0
  -31.1047   -6.0101   33.1540 C   0  0  0  0  0  0  0  0  0  0  0  0
  -30.8142   -4.7184   33.3585 C   0  0  0  0  0  0  0  0  0  0  0  0
  -30.0810   -3.9832   32.4561 C   0  0  0  0  0  0  0  0  0  0  0  0
  -28.1058   -4.3425   29.4540 O   0  0  0  0  0  0  0  0  0  0  0  0
  -30.7941   -7.9711   31.7864 O   0  0  0  0  0  0  0  0  0  0  0  0
  -31.2239   -8.3831   30.5868 C   0  0  0  0  0  0  0  0  0  0  0  0
  -31.9190   -7.6941   29.7463 C   0  0  0  0  0  0  0  0  0  0  0  0
  -32.3166   -8.2278   28.4815 C   0  0  0  0  0  0  0  0  0  0  0  0
  -32.9359   -7.4493   27.4777 C   0  0  0  0  0  0  0  0  0  0  0  0
  -33.1192   -6.0567   27.7607 C   0  0  0  0  0  0  0  0  0  0  0  0
  -32.7262   -5.5033   28.9315 C   0  0  0  0  0  0  0  0  0  0  0  0
  -32.1425   -6.2020   29.8745 C   0  0  0  0  0  0  0  0  0  0  0  0
  -30.9425   -9.8075   30.2976 C   0  0  0  0  0  0  0  0  0  0  0  0
  -30.3687  -10.5697   31.3496 C   0  0  0  0  0  0  0  0  0  0  0  0
  -30.1285  -10.1558   32.5003 C   0  0  0  0  0  0  0  0  0  0  0  0
  1  2  1  0
  1  8  1  0
  1  9  2  0
  8 10  1  0
  8 11  1  0
  5 12  1  0
 12 13  1  0
 12 14  2  0
 10 15  1  0
 15 16  1  0
 15 22  2  0
 18 23  1  0
 23 24  1  0
 24 31  1  0
 31 32  3  0
 32 33  1  0
 24 25  1  0
  2  3  2  0
  3  4  1  0
  4  5  2  0
  5  6  1  0
  6  7  2  0
  7  2  1  0
 25 26  2  0
 26 27  1  0
 27 28  2  0
 28 29  1  0
 29 30  2  0
 30 25  1  0
 16 17  2  0
 17 18  1  0
 18 19  2  0
 19 20  1  0
 20 21  2  0
 21 16  1  0
M  END

$$$$
