No_1833-gen_results/8p0m/2024-11-27-11-27-31/
     RDKit          3D

 17 18  0  0  0  0  0  0  0  0999 V2000
  -28.0162   -0.8135   28.8779 C   0  0  0  0  0  0  0  0  0  0  0  0
  -28.4690   -0.7850   29.8287 C   0  0  0  0  0  0  0  0  0  0  0  0
  -26.5042   -0.7777   28.8766 C   0  0  0  0  0  0  0  0  0  0  0  0
  -25.8103   -0.8531   30.1028 C   0  0  0  0  0  0  0  0  0  0  0  0
  -27.9906   -0.8916   31.2257 C   0  0  0  0  0  0  0  0  0  0  0  0
  -26.6042   -0.8676   31.2652 C   0  0  0  0  0  0  0  0  0  0  0  0
  -30.0417   -0.7687   29.6526 C   0  0  0  0  0  0  0  0  0  0  0  0
  -30.7283    0.0081   28.6931 Cl  0  0  0  0  0  0  0  0  0  0  0  0
  -30.7986   -1.7375   30.6059 C   0  0  0  0  0  0  0  0  0  0  0  0
  -31.0484   -1.6688   31.6004 N   0  0  0  0  0  0  0  0  0  0  0  0
  -31.2285   -2.8722   29.8450 O   0  0  0  0  0  0  0  0  0  0  0  0
  -31.8383   -2.6154   32.4646 C   0  0  0  0  0  0  0  0  0  0  0  0
  -25.6651   -0.6967   27.6687 C   0  0  0  0  0  0  0  0  0  0  0  0
  -24.4004   -0.4506   27.8397 N   0  0  0  0  0  0  0  0  0  0  0  0
  -26.2022   -0.5815   26.5618 O   0  0  0  0  0  0  0  0  0  0  0  0
  -23.5928   -0.6122   28.9758 C   0  0  0  0  0  0  0  0  0  0  0  0
  -24.3786   -0.7205   30.2278 C   0  0  0  0  0  0  0  0  0  0  0  0
  2  7  1  0
  7  8  1  0
  7  9  1  0
  9 10  1  0
  9 11  2  0
 10 12  1  0
  3 13  1  0
 13 14  1  0
 13 15  2  0
 14 16  1  0
  4 17  1  0
 17 16  1  0
  1  2  2  0
  2  5  1  0
  5  6  2  0
  6  4  1  0
  4  3  2  0
  3  1  1  0
M  END

$$$$
