No_1665-gen_results/8p0m/2024-11-27-11-27-31/
     RDKit          3D

 16 17  0  0  0  0  0  0  0  0999 V2000
  -28.0162   -0.8135   28.8779 C   0  0  0  0  0  0  0  0  0  0  0  0
  -27.0636   -0.1190   28.6079 C   0  0  0  0  0  0  0  0  0  0  0  0
  -27.0010    0.6913   27.4910 C   0  0  0  0  0  0  0  0  0  0  0  0
  -28.1373    0.7363   26.6350 C   0  0  0  0  0  0  0  0  0  0  0  0
  -29.2360    0.0765   27.0690 C   0  0  0  0  0  0  0  0  0  0  0  0
  -29.2177   -0.6429   28.1747 C   0  0  0  0  0  0  0  0  0  0  0  0
  -30.4152    0.1590   26.1820 C   0  0  0  0  0  0  0  0  0  0  0  0
  -30.2945    0.1460   24.8818 C   0  0  0  0  0  0  0  0  0  0  0  0
  -31.3311   -0.0609   24.1280 C   0  0  0  0  0  0  0  0  0  0  0  0
  -32.6376   -0.2553   24.5957 C   0  0  0  0  0  0  0  0  0  0  0  0
  -31.6658   -0.2217   26.7303 C   0  0  0  0  0  0  0  0  0  0  0  0
  -32.7591   -0.3543   25.9385 C   0  0  0  0  0  0  0  0  0  0  0  0
  -28.0974   -1.6466   30.1578 C   0  0  0  0  0  0  0  0  0  0  0  0
  -29.0662   -1.8795   30.5937 F   0  0  0  0  0  0  0  0  0  0  0  0
  -27.3696   -2.8305   29.8645 F   0  0  0  0  0  0  0  0  0  0  0  0
  -27.2184   -1.0748   31.1004 F   0  0  0  0  0  0  0  0  0  0  0  0
  5  7  1  0
  1 13  1  0
 13 14  1  0
 13 15  1  0
 13 16  1  0
  7  8  2  0
  8  9  1  0
  9 10  2  0
 10 12  1  0
 12 11  2  0
 11  7  1  0
  1  2  2  0
  2  3  1  0
  3  4  2  0
  4  5  1  0
  5  6  2  0
  6  1  1  0
M  END

$$$$
