No_1943-gen_results/8p0m/2024-11-27-11-27-31/
     RDKit          3D

  8  7  0  0  0  0  0  0  0  0999 V2000
  -28.1493   -0.8198   28.9079 Cl  0  0  0  0  0  0  0  0  0  0  0  0
  -27.8339    0.4961   29.0598 C   0  0  0  0  0  0  0  0  0  0  0  0
  -27.8833    1.0376   30.1944 F   0  0  0  0  0  0  0  0  0  0  0  0
  -28.5839    1.3877   28.0769 C   0  0  0  0  0  0  0  0  0  0  0  0
  -26.4997    0.6251   28.6364 F   0  0  0  0  0  0  0  0  0  0  0  0
  -28.7124    0.8240   27.0526 F   0  0  0  0  0  0  0  0  0  0  0  0
  -27.8721    2.5346   27.8632 F   0  0  0  0  0  0  0  0  0  0  0  0
  -29.7762    1.7747   28.4293 F   0  0  0  0  0  0  0  0  0  0  0  0
  1  2  1  0
  2  3  1  0
  2  4  1  0
  2  5  1  0
  4  6  1  0
  4  7  1  0
  4  8  1  0
M  END

$$$$
