No_1020-gen_results/8p0m/2024-11-27-11-27-31/
     RDKit          3D

  9  8  0  0  0  0  0  0  0  0999 V2000
  -28.0162   -0.8135   28.8779 C   0  0  0  0  0  0  0  0  0  0  0  0
  -27.0636   -0.1189   28.6079 C   0  0  0  0  0  0  0  0  0  0  0  0
  -27.0010    0.6913   27.4910 C   0  0  0  0  0  0  0  0  0  0  0  0
  -25.7770    1.0214   26.9135 C   0  0  0  0  0  0  0  0  0  0  0  0
  -24.5088    0.7364   27.5686 C   0  0  0  0  0  0  0  0  0  0  0  0
  -23.2776    1.1676   27.1017 C   0  0  0  0  0  0  0  0  0  0  0  0
  -28.9759   -0.2903   29.8014 C   0  0  0  0  0  0  0  0  0  0  0  0
  -25.6514   -0.5609   29.0518 C   0  0  0  0  0  0  0  0  0  0  0  0
  -24.4450   -0.1054   28.7043 C   0  0  0  0  0  0  0  0  0  0  0  0
  1  2  1  0
  2  3  1  0
  3  4  2  3
  4  5  1  0
  5  6  2  0
  1  7  1  0
  2  8  1  0
  8  9  2  0
M  END

$$$$
