No_1096-gen_results/8p0m/2024-11-27-11-27-31/
     RDKit          3D

 35 37  0  0  0  0  0  0  0  0999 V2000
  -28.0727   -1.2542   28.5316 F   0  0  0  0  0  0  0  0  0  0  0  0
  -27.3591   -0.3792   28.7224 C   0  0  0  0  0  0  0  0  0  0  0  0
  -26.3323   -0.6441   29.4520 C   0  0  0  0  0  0  0  0  0  0  0  0
  -25.2562    0.3203   29.7818 C   0  0  0  0  0  0  0  0  0  0  0  0
  -25.4242    1.6275   29.2026 C   0  0  0  0  0  0  0  0  0  0  0  0
  -26.5263    1.8254   28.4032 C   0  0  0  0  0  0  0  0  0  0  0  0
  -27.4513    0.8601   28.1355 C   0  0  0  0  0  0  0  0  0  0  0  0
  -28.5399    1.2022   27.2448 C   0  0  0  0  0  0  0  0  0  0  0  0
  -29.4852    0.8770   27.0868 C   0  0  0  0  0  0  0  0  0  0  0  0
  -30.4923    1.2139   26.0511 C   0  0  0  0  0  0  0  0  0  0  0  0
  -30.0041    2.1667   25.1365 C   0  0  0  0  0  0  0  0  0  0  0  0
  -28.7203    2.6729   25.1781 C   0  0  0  0  0  0  0  0  0  0  0  0
  -27.8962    2.2733   26.2088 C   0  0  0  0  0  0  0  0  0  0  0  0
  -24.4358    2.6388   29.5396 C   0  0  0  0  0  0  0  0  0  0  0  0
  -24.2285    3.6766   28.8956 O   0  0  0  0  0  0  0  0  0  0  0  0
  -23.6069    2.3735   30.5751 O   0  0  0  0  0  0  0  0  0  0  0  0
  -30.9132    2.6443   24.0367 C   0  0  0  0  0  0  0  0  0  0  0  0
  -32.1966    2.4758   24.0661 C   0  0  0  0  0  0  0  0  0  0  0  0
  -33.0040    2.9695   22.9444 C   0  0  0  0  0  0  0  0  0  0  0  0
  -32.3130    3.4382   21.8317 C   0  0  0  0  0  0  0  0  0  0  0  0
  -30.9576    3.2919   21.7099 C   0  0  0  0  0  0  0  0  0  0  0  0
  -30.2248    2.9484   22.7776 C   0  0  0  0  0  0  0  0  0  0  0  0
  -32.9621    3.6969   20.6027 F   0  0  0  0  0  0  0  0  0  0  0  0
  -34.7007    3.1328   22.8678 Cl  0  0  0  0  0  0  0  0  0  0  0  0
  -26.0461   -1.9627   30.1202 C   0  0  0  0  0  0  0  0  0  0  0  0
  -25.0164   -2.4639   30.0879 O   0  0  0  0  0  0  0  0  0  0  0  0
  -27.1604   -2.5384   30.5230 O   0  0  0  0  0  0  0  0  0  0  0  0
  -27.7501   -3.5106   29.9983 C   0  0  0  0  0  0  0  0  0  0  0  0
  -29.0815   -3.8444   30.5972 C   0  0  0  0  0  0  0  0  0  0  0  0
  -29.8089   -4.9271   30.0005 C   0  0  0  0  0  0  0  0  0  0  0  0
  -30.7378   -4.5584   29.0109 C   0  0  0  0  0  0  0  0  0  0  0  0
  -31.3292   -3.3747   29.0254 C   0  0  0  0  0  0  0  0  0  0  0  0
  -31.8602   -2.9684   29.7887 N   0  0  0  0  0  0  0  0  0  0  0  0
  -32.5956   -1.7788   29.8300 C   0  0  0  0  0  0  0  0  0  0  0  0
  -32.6786   -1.1325   28.6769 C   0  0  0  0  0  0  0  0  0  0  0  0
  1  2  1  0
  7  8  1  0
  5 14  1  0
 14 15  2  0
 14 16  1  0
 11 17  1  0
 20 23  1  0
 19 24  1  0
  3 25  1  0
 25 26  2  0
 25 27  1  0
 27 28  1  0
 28 29  1  0
 29 30  1  0
 30 31  2  3
 31 32  1  0
 32 33  1  0
 33 34  1  0
 34 35  2  0
 17 18  2  0
 18 19  1  0
 19 20  2  0
 20 21  1  0
 21 22  2  0
 22 17  1  0
  2  3  2  0
  3  4  1  0
  4  5  2  0
  5  6  1  0
  6  7  2  0
  7  2  1  0
  8  9  2  0
  9 10  1  0
 10 11  2  0
 11 12  1  0
 12 13  2  0
 13  8  1  0
M  END

$$$$
