No_1540-gen_results/8p0m/2024-11-27-11-27-31/
     RDKit          3D

  9  9  0  0  0  0  0  0  0  0999 V2000
  -28.0162   -0.8135   28.8779 C   0  0  0  0  0  0  0  0  0  0  0  0
  -27.0636   -0.1189   28.6079 C   0  0  0  0  0  0  0  0  0  0  0  0
  -26.8756    1.1325   28.9134 C   0  0  0  0  0  0  0  0  0  0  0  0
  -27.9014    1.8066   29.6436 C   0  0  0  0  0  0  0  0  0  0  0  0
  -27.7904    3.1512   30.0021 C   0  0  0  0  0  0  0  0  0  0  0  0
  -29.0699   -0.3114   29.6885 C   0  0  0  0  0  0  0  0  0  0  0  0
  -28.9665    1.0257   30.0680 C   0  0  0  0  0  0  0  0  0  0  0  0
  -27.3214    3.9369   29.5068 N   0  0  0  0  0  0  0  0  0  0  0  0
  -27.1587    5.3129   29.9487 C   0  0  0  0  0  0  0  0  0  0  0  0
  4  5  1  0
  5  8  2  3
  8  9  1  0
  1  2  2  0
  2  3  1  0
  3  4  2  0
  4  7  1  0
  7  6  2  0
  6  1  1  0
M  END

$$$$
