No_1593-gen_results/8p0m/2024-11-27-11-27-31/
     RDKit          3D

 16 17  0  0  0  0  0  0  0  0999 V2000
  -28.0162   -0.8135   28.8779 C   0  0  0  0  0  0  0  0  0  0  0  0
  -27.0636   -0.1189   28.6079 C   0  0  0  0  0  0  0  0  0  0  0  0
  -26.9716    0.7139   27.5060 C   0  0  0  0  0  0  0  0  0  0  0  0
  -28.1053    0.7744   26.6421 C   0  0  0  0  0  0  0  0  0  0  0  0
  -29.2041    0.1179   27.0477 C   0  0  0  0  0  0  0  0  0  0  0  0
  -29.2528   -0.3099   28.1229 C   0  0  0  0  0  0  0  0  0  0  0  0
  -30.3674    0.3541   26.1273 C   0  0  0  0  0  0  0  0  0  0  0  0
  -30.9062    1.3524   26.1790 F   0  0  0  0  0  0  0  0  0  0  0  0
  -31.3013   -0.6477   26.4223 F   0  0  0  0  0  0  0  0  0  0  0  0
  -30.0323    0.0020   24.8323 F   0  0  0  0  0  0  0  0  0  0  0  0
  -25.6158    1.3310   27.0764 C   0  0  0  0  0  0  0  0  0  0  0  0
  -25.1017    2.2970   28.0081 C   0  0  0  0  0  0  0  0  0  0  0  0
  -24.0816    2.6427   28.2070 C   0  0  0  0  0  0  0  0  0  0  0  0
  -23.0333    1.8586   27.6782 C   0  0  0  0  0  0  0  0  0  0  0  0
  -23.3530    0.8736   26.7936 C   0  0  0  0  0  0  0  0  0  0  0  0
  -24.5412    0.2754   27.0377 C   0  0  0  0  0  0  0  0  0  0  0  0
  5  7  1  0
  7  8  1  0
  7  9  1  0
  7 10  1  0
  3 11  1  0
 11 12  2  0
 12 13  1  0
 13 14  2  0
 14 15  1  0
 15 16  2  0
 16 11  1  0
  1  2  2  0
  2  3  1  0
  3  4  2  0
  4  5  1  0
  5  6  2  0
  6  1  1  0
M  END

$$$$
