No_1503-gen_results/8p0m/2024-11-27-11-27-31/
     RDKit          3D

 28 29  0  0  0  0  0  0  0  0999 V2000
  -28.0162   -0.8135   28.8779 C   0  0  0  0  0  0  0  0  0  0  0  0
  -28.4690   -0.7850   29.8287 C   0  0  0  0  0  0  0  0  0  0  0  0
  -27.0871    0.2903   28.6377 C   0  0  0  0  0  0  0  0  0  0  0  0
  -26.8317    1.2487   29.5869 C   0  0  0  0  0  0  0  0  0  0  0  0
  -28.3914    0.0801   31.0065 C   0  0  0  0  0  0  0  0  0  0  0  0
  -27.4940    1.1521   30.7841 C   0  0  0  0  0  0  0  0  0  0  0  0
  -26.3172    0.3994   27.3653 C   0  0  0  0  0  0  0  0  0  0  0  0
  -26.8797    0.7923   26.3846 N   0  0  0  0  0  0  0  0  0  0  0  0
  -25.0633    0.1092   27.3656 O   0  0  0  0  0  0  0  0  0  0  0  0
  -26.2751    0.7974   25.0437 C   0  0  0  0  0  0  0  0  0  0  0  0
  -28.3040    1.1411   26.2550 C   0  0  0  0  0  0  0  0  0  0  0  0
  -29.0626    0.6136   25.2341 C   0  0  0  0  0  0  0  0  0  0  0  0
  -29.8297   -0.1633   25.4035 C   0  0  0  0  0  0  0  0  0  0  0  0
  -30.4274   -0.3829   26.7058 C   0  0  0  0  0  0  0  0  0  0  0  0
  -30.2824    0.7495   27.6035 C   0  0  0  0  0  0  0  0  0  0  0  0
  -28.9684    1.4049   27.4390 C   0  0  0  0  0  0  0  0  0  0  0  0
  -31.1866    0.9561   28.7025 C   0  0  0  0  0  0  0  0  0  0  0  0
  -31.1599    2.1187   29.3432 N   0  0  0  0  0  0  0  0  0  0  0  0
  -31.9934    0.1075   29.0331 O   0  0  0  0  0  0  0  0  0  0  0  0
  -31.9836    2.4939   30.4664 C   0  0  0  0  0  0  0  0  0  0  0  0
  -31.6454    3.5524   31.0313 C   0  0  0  0  0  0  0  0  0  0  0  0
  -32.2192    4.0076   32.2799 C   0  0  0  0  0  0  0  0  0  0  0  0
  -31.8190    5.1808   32.9769 C   0  0  0  0  0  0  0  0  0  0  0  0
  -30.8212    5.9428   32.3894 C   0  0  0  0  0  0  0  0  0  0  0  0
  -30.2041    5.5719   31.2168 C   0  0  0  0  0  0  0  0  0  0  0  0
  -30.5680    4.3810   30.5842 C   0  0  0  0  0  0  0  0  0  0  0  0
  -31.1228    4.3122   30.3627 Cl  0  0  0  0  0  0  0  0  0  0  0  0
  -32.1113    3.0726   32.4721 C   0  0  0  0  0  0  0  0  0  0  0  0
  3  7  1  0
  7  8  1  0
  7  9  2  0
  8 10  1  0
  8 11  1  0
 15 17  1  0
 17 18  1  0
 17 19  2  0
 18 20  1  0
 20 21  2  3
 21 22  1  0
 22 23  1  0
 23 24  2  3
 24 25  1  0
 25 26  2  3
 26 27  1  0
 22 28  1  0
 11 12  2  0
 12 13  1  0
 13 14  2  0
 14 15  1  0
 15 16  2  0
 16 11  1  0
  1  2  2  0
  2  5  1  0
  5  6  2  0
  6  4  1  0
  4  3  2  0
  3  1  1  0
M  END

$$$$
