No_1415-gen_results/8p0m/2024-11-27-11-27-31/
     RDKit          3D

 16 17  0  0  0  0  0  0  0  0999 V2000
  -28.1229   -1.3353   28.4874 O   0  0  0  0  0  0  0  0  0  0  0  0
  -27.4806   -0.4044   28.7094 C   0  0  0  0  0  0  0  0  0  0  0  0
  -27.1904    0.2460   29.5268 C   0  0  0  0  0  0  0  0  0  0  0  0
  -26.6021   -0.1576   27.5515 N   0  0  0  0  0  0  0  0  0  0  0  0
  -25.6821    0.8355   27.5846 C   0  0  0  0  0  0  0  0  0  0  0  0
  -25.5035    1.5913   28.7199 C   0  0  0  0  0  0  0  0  0  0  0  0
  -26.2633    1.2802   29.7996 C   0  0  0  0  0  0  0  0  0  0  0  0
  -28.0146   -0.0262   30.9338 C   0  0  0  0  0  0  0  0  0  0  0  0
  -27.4668   -0.3529   31.9249 C   0  0  0  0  0  0  0  0  0  0  0  0
  -28.1860   -0.5258   33.2222 C   0  0  0  0  0  0  0  0  0  0  0  0
  -29.5588   -0.5661   33.1627 C   0  0  0  0  0  0  0  0  0  0  0  0
  -30.1650   -0.3033   31.9453 C   0  0  0  0  0  0  0  0  0  0  0  0
  -29.4202   -0.0148   30.8015 C   0  0  0  0  0  0  0  0  0  0  0  0
  -24.8243    1.1561   26.4029 C   0  0  0  0  0  0  0  0  0  0  0  0
  -23.7095    2.0499   26.5527 C   0  0  0  0  0  0  0  0  0  0  0  0
  -23.5705    2.7120   27.7891 C   0  0  0  0  0  0  0  0  0  0  0  0
  1  2  2  0
  2  3  1  0
  2  4  1  0
  4  5  1  0
  3  7  1  0
  6  7  1  0
  3  8  1  0
  5 14  1  0
 14 15  2  3
 15 16  1  0
  6  5  1  0
  8  9  2  0
  9 10  1  0
 10 11  2  0
 11 12  1  0
 12 13  2  0
 13  8  1  0
M  END

$$$$
