No_1277-gen_results/8p0m/2024-11-27-11-27-31/
     RDKit          3D

 20 21  0  0  0  0  0  0  0  0999 V2000
  -28.0162   -0.8135   28.8779 C   0  0  0  0  0  0  0  0  0  0  0  0
  -27.0636   -0.1190   28.6079 C   0  0  0  0  0  0  0  0  0  0  0  0
  -25.7923   -0.4302   29.0761 C   0  0  0  0  0  0  0  0  0  0  0  0
  -25.5756   -1.5654   29.9363 C   0  0  0  0  0  0  0  0  0  0  0  0
  -24.3722   -1.9422   30.4466 C   0  0  0  0  0  0  0  0  0  0  0  0
  -27.9640   -1.9247   29.7899 C   0  0  0  0  0  0  0  0  0  0  0  0
  -26.7624   -2.3055   30.3031 C   0  0  0  0  0  0  0  0  0  0  0  0
  -29.0629   -2.6624   30.1195 O   0  0  0  0  0  0  0  0  0  0  0  0
  -28.9789   -3.9468   30.5153 C   0  0  0  0  0  0  0  0  0  0  0  0
  -30.1714   -4.3722   31.2925 C   0  0  0  0  0  0  0  0  0  0  0  0
  -30.2422   -5.7162   31.5180 C   0  0  0  0  0  0  0  0  0  0  0  0
  -29.4677   -6.1880   32.3915 C   0  0  0  0  0  0  0  0  0  0  0  0
  -29.5601   -7.5858   32.5477 N   0  0  0  0  0  0  0  0  0  0  0  0
  -29.2698   -8.2236   33.6114 C   0  0  0  0  0  0  0  0  0  0  0  0
  -28.7679   -7.5306   34.6523 N   0  0  0  0  0  0  0  0  0  0  0  0
  -29.3425   -9.5722   33.6606 N   0  0  0  0  0  0  0  0  0  0  0  0
  -31.3782   -3.8598   30.6773 O   0  0  0  0  0  0  0  0  0  0  0  0
  -23.2868   -1.9352   29.5183 C   0  0  0  0  0  0  0  0  0  0  0  0
  -23.4119   -1.1628   28.3905 C   0  0  0  0  0  0  0  0  0  0  0  0
  -24.7061   -0.5472   28.0726 C   0  0  0  0  0  0  0  0  0  0  0  0
  6  8  1  0
  8  9  1  0
  9 10  1  0
 10 11  1  0
 11 12  2  3
 12 13  1  0
 13 14  2  3
 14 15  1  0
 14 16  1  0
 10 17  1  0
  4  5  2  0
  5 18  1  0
 18 19  2  0
 19 20  1  0
 20  3  2  0
  1  2  2  0
  2  3  1  0
  3  4  1  0
  4  7  1  0
  7  6  2  0
  6  1  1  0
M  END

$$$$
