No_199-gen_results/8p0m/2024-11-27-11-27-31/
     RDKit          3D

 30 33  0  0  0  0  0  0  0  0999 V2000
  -28.1493   -0.8198   28.9079 Cl  0  0  0  0  0  0  0  0  0  0  0  0
  -26.9116   -0.0797   28.9452 C   0  0  0  0  0  0  0  0  0  0  0  0
  -26.7384    1.0439   29.2534 C   0  0  0  0  0  0  0  0  0  0  0  0
  -25.4392    1.7115   29.2755 C   0  0  0  0  0  0  0  0  0  0  0  0
  -24.2812    0.9888   28.8542 C   0  0  0  0  0  0  0  0  0  0  0  0
  -24.4869   -0.3041   28.4957 C   0  0  0  0  0  0  0  0  0  0  0  0
  -25.7046   -0.8667   28.5244 C   0  0  0  0  0  0  0  0  0  0  0  0
  -22.9617    1.6322   28.7948 C   0  0  0  0  0  0  0  0  0  0  0  0
  -21.8992    1.0002   28.6578 O   0  0  0  0  0  0  0  0  0  0  0  0
  -22.9533    2.9451   28.4806 O   0  0  0  0  0  0  0  0  0  0  0  0
  -27.8161    1.9694   29.7473 C   0  0  0  0  0  0  0  0  0  0  0  0
  -28.1039    2.9356   29.0789 C   0  0  0  0  0  0  0  0  0  0  0  0
  -29.1919    3.8709   29.5099 C   0  0  0  0  0  0  0  0  0  0  0  0
  -29.4560    5.0451   28.8206 C   0  0  0  0  0  0  0  0  0  0  0  0
  -28.6434    5.3686   27.6660 C   0  0  0  0  0  0  0  0  0  0  0  0
  -27.6326    4.5462   27.2376 C   0  0  0  0  0  0  0  0  0  0  0  0
  -27.3089    3.3844   27.9633 C   0  0  0  0  0  0  0  0  0  0  0  0
  -28.5128    1.5436   30.9099 C   0  0  0  0  0  0  0  0  0  0  0  0
  -28.0357    2.0431   32.1126 C   0  0  0  0  0  0  0  0  0  0  0  0
  -27.7895    1.7052   33.0826 C   0  0  0  0  0  0  0  0  0  0  0  0
  -27.3851    2.4257   34.3231 C   0  0  0  0  0  0  0  0  0  0  0  0
  -27.1455    3.7952   34.1819 C   0  0  0  0  0  0  0  0  0  0  0  0
  -27.3762    4.3691   32.9208 C   0  0  0  0  0  0  0  0  0  0  0  0
  -27.7915    3.5882   31.8660 C   0  0  0  0  0  0  0  0  0  0  0  0
  -27.1348    5.8367   32.7448 C   0  0  0  0  0  0  0  0  0  0  0  0
  -26.1018    6.3257   32.4948 C   0  0  0  0  0  0  0  0  0  0  0  0
  -25.9070    7.6788   32.0743 C   0  0  0  0  0  0  0  0  0  0  0  0
  -28.3506    6.6322   32.7468 C   0  0  0  0  0  0  0  0  0  0  0  0
  -28.2749    7.9984   32.4096 C   0  0  0  0  0  0  0  0  0  0  0  0
  -27.0145    8.5263   32.0906 C   0  0  0  0  0  0  0  0  0  0  0  0
  1  2  1  0
  5  8  1  0
  8  9  2  0
  8 10  1  0
  3 11  1  0
 11 18  1  0
 18 19  1  0
 23 25  1  0
 11 12  1  0
 12 13  2  0
 13 14  1  0
 14 15  2  0
 15 16  1  0
 16 17  2  0
 17 12  1  0
  2  3  2  0
  3  4  1  0
  4  5  2  0
  5  6  1  0
  6  7  2  0
  7  2  1  0
 25 26  2  0
 26 27  1  0
 27 30  2  0
 30 29  1  0
 29 28  2  0
 28 25  1  0
 19 20  2  0
 20 21  1  0
 21 22  2  0
 22 23  1  0
 23 24  2  0
 24 19  1  0
M  END

$$$$
