No_1774-gen_results/8p0m/2024-11-27-11-27-31/
     RDKit          3D

 16 16  0  0  0  0  0  0  0  0999 V2000
  -28.0544   -1.0498   28.7246 N   0  0  0  0  0  0  0  0  0  0  0  0
  -26.9659   -0.4722   28.7709 C   0  0  0  0  0  0  0  0  0  0  0  0
  -26.5486    0.3876   27.8310 C   0  0  0  0  0  0  0  0  0  0  0  0
  -25.2228    0.8526   27.7033 C   0  0  0  0  0  0  0  0  0  0  0  0
  -24.2464    0.4683   28.6950 C   0  0  0  0  0  0  0  0  0  0  0  0
  -24.6776   -0.4720   29.6743 C   0  0  0  0  0  0  0  0  0  0  0  0
  -25.9469   -0.9734   29.7011 C   0  0  0  0  0  0  0  0  0  0  0  0
  -29.0906   -0.1995   28.8354 C   0  0  0  0  0  0  0  0  0  0  0  0
  -30.3078   -0.7779   29.2928 C   0  0  0  0  0  0  0  0  0  0  0  0
  -31.0321   -0.1823   30.1006 O   0  0  0  0  0  0  0  0  0  0  0  0
  -22.8704    0.9706   28.6475 C   0  0  0  0  0  0  0  0  0  0  0  0
  -22.5484    1.4808   27.5828 F   0  0  0  0  0  0  0  0  0  0  0  0
  -21.9968   -0.0874   28.8381 F   0  0  0  0  0  0  0  0  0  0  0  0
  -22.6569    1.8135   29.6758 F   0  0  0  0  0  0  0  0  0  0  0  0
  -30.9072    0.9178   30.4670 C   0  0  0  0  0  0  0  0  0  0  0  0
  -31.2384    1.5051   31.5762 C   0  0  0  0  0  0  0  0  0  0  0  0
  1  2  1  0
  1  8  1  0
  8  9  1  0
  9 10  1  0
  5 11  1  0
 11 12  1  0
 11 13  1  0
 11 14  1  0
 10 15  1  0
 15 16  2  0
  2  3  2  0
  3  4  1  0
  4  5  2  0
  5  6  1  0
  6  7  2  0
  7  2  1  0
M  END

$$$$
