No_1089-gen_results/8p0m/2024-11-27-11-27-31/
     RDKit          3D

 19 20  0  0  0  0  0  0  0  0999 V2000
  -28.0162   -0.8135   28.8779 C   0  0  0  0  0  0  0  0  0  0  0  0
  -27.0636   -0.1189   28.6079 C   0  0  0  0  0  0  0  0  0  0  0  0
  -27.0010    0.6913   27.4910 C   0  0  0  0  0  0  0  0  0  0  0  0
  -28.1373    0.7363   26.6350 C   0  0  0  0  0  0  0  0  0  0  0  0
  -29.2360    0.0765   27.0690 C   0  0  0  0  0  0  0  0  0  0  0  0
  -29.2177   -0.6429   28.1747 C   0  0  0  0  0  0  0  0  0  0  0  0
  -28.0326   -1.5744   30.0419 O   0  0  0  0  0  0  0  0  0  0  0  0
  -30.5276    0.0779   26.3750 C   0  0  0  0  0  0  0  0  0  0  0  0
  -30.5494   -0.0244   25.1937 O   0  0  0  0  0  0  0  0  0  0  0  0
  -31.6118    0.4758   26.9887 N   0  0  0  0  0  0  0  0  0  0  0  0
  -31.7211    0.7742   28.3733 C   0  0  0  0  0  0  0  0  0  0  0  0
  -31.4965    1.8851   28.7457 C   0  0  0  0  0  0  0  0  0  0  0  0
  -31.7619    3.1120   28.0056 C   0  0  0  0  0  0  0  0  0  0  0  0
  -32.7244    3.1147   27.1281 C   0  0  0  0  0  0  0  0  0  0  0  0
  -32.7889    0.6002   26.2207 C   0  0  0  0  0  0  0  0  0  0  0  0
  -32.7223    2.1820   25.9657 C   0  0  0  0  0  0  0  0  0  0  0  0
  -28.4603   -1.6486   30.9719 C   0  0  0  0  0  0  0  0  0  0  0  0
  -29.2181   -2.8291   31.3106 C   0  0  0  0  0  0  0  0  0  0  0  0
  -29.8642   -2.9523   32.5320 C   0  0  0  0  0  0  0  0  0  0  0  0
  1  7  1  0
  5  8  1  0
  8  9  2  0
  8 10  1  0
 10 11  1  0
 11 12  2  0
 12 13  1  0
 13 14  2  0
 10 15  1  0
 14 16  1  0
 15 16  1  0
  7 17  1  0
 17 18  2  3
 18 19  1  0
  1  2  2  0
  2  3  1  0
  3  4  2  0
  4  5  1  0
  5  6  2  0
  6  1  1  0
M  END

$$$$
