No_1068-gen_results/8p0m/2024-11-27-11-27-31/
     RDKit          3D

 21 22  0  0  0  0  0  0  0  0999 V2000
  -28.0162   -0.8135   28.8779 C   0  0  0  0  0  0  0  0  0  0  0  0
  -28.4690   -0.7850   29.8287 C   0  0  0  0  0  0  0  0  0  0  0  0
  -28.1816    0.4277   28.1134 C   0  0  0  0  0  0  0  0  0  0  0  0
  -27.4498    0.6435   26.8500 C   0  0  0  0  0  0  0  0  0  0  0  0
  -26.1815    0.0357   26.7145 C   0  0  0  0  0  0  0  0  0  0  0  0
  -25.7800   -0.9326   27.6938 C   0  0  0  0  0  0  0  0  0  0  0  0
  -26.5568   -1.2134   28.7413 C   0  0  0  0  0  0  0  0  0  0  0  0
  -29.6198   -0.2424   30.2347 C   0  0  0  0  0  0  0  0  0  0  0  0
  -30.0397    0.8257   29.3606 C   0  0  0  0  0  0  0  0  0  0  0  0
  -29.3523    1.1382   28.2041 C   0  0  0  0  0  0  0  0  0  0  0  0
  -25.9876   -2.2963   29.6358 C   0  0  0  0  0  0  0  0  0  0  0  0
  -25.5109   -3.0666   29.0790 F   0  0  0  0  0  0  0  0  0  0  0  0
  -27.0921   -2.7641   30.3775 F   0  0  0  0  0  0  0  0  0  0  0  0
  -25.1521   -1.6645   30.5474 F   0  0  0  0  0  0  0  0  0  0  0  0
  -31.2524    1.4699   29.6969 O   0  0  0  0  0  0  0  0  0  0  0  0
  -25.3231    0.3210   25.5832 C   0  0  0  0  0  0  0  0  0  0  0  0
  -25.7833    1.3317   25.1103 F   0  0  0  0  0  0  0  0  0  0  0  0
  -24.0686    0.6117   26.0552 F   0  0  0  0  0  0  0  0  0  0  0  0
  -25.2745   -0.6759   24.7405 F   0  0  0  0  0  0  0  0  0  0  0  0
  -31.1806    2.4743   30.5162 C   0  0  0  0  0  0  0  0  0  0  0  0
  -31.8659    3.4010   30.7005 C   0  0  0  0  0  0  0  0  0  0  0  0
  7 11  1  0
 11 12  1  0
 11 13  1  0
 11 14  1  0
  9 15  1  0
  5 16  1  0
 16 17  1  0
 16 18  1  0
 16 19  1  0
 15 20  1  0
 20 21  2  0
  1  2  2  0
  2  8  1  0
  8  9  2  0
  9 10  1  0
 10  3  2  0
  1  3  1  0
  3  4  1  0
  4  5  2  0
  5  6  1  0
  6  7  2  0
  7  1  1  0
M  END

$$$$
