No_1180-gen_results/8p0m/2024-11-27-11-27-31/
     RDKit          3D

 14 15  0  0  0  0  0  0  0  0999 V2000
  -28.0162   -0.8135   28.8779 C   0  0  0  0  0  0  0  0  0  0  0  0
  -27.0636   -0.1190   28.6079 C   0  0  0  0  0  0  0  0  0  0  0  0
  -26.9716    0.7139   27.5060 C   0  0  0  0  0  0  0  0  0  0  0  0
  -25.8205    1.4909   27.1160 C   0  0  0  0  0  0  0  0  0  0  0  0
  -24.6562    1.4242   27.9180 C   0  0  0  0  0  0  0  0  0  0  0  0
  -24.7114    0.5419   29.0507 C   0  0  0  0  0  0  0  0  0  0  0  0
  -25.8042   -0.2058   29.3881 C   0  0  0  0  0  0  0  0  0  0  0  0
  -28.9449   -0.7145   28.1169 F   0  0  0  0  0  0  0  0  0  0  0  0
  -28.4736   -0.5530   30.2034 F   0  0  0  0  0  0  0  0  0  0  0  0
  -23.4635    2.1527   27.6264 C   0  0  0  0  0  0  0  0  0  0  0  0
  -23.4436    3.1069   26.8455 N   0  0  0  0  0  0  0  0  0  0  0  0
  -22.3728    1.9742   28.3498 O   0  0  0  0  0  0  0  0  0  0  0  0
  -24.2276    3.1839   25.6458 C   0  0  0  0  0  0  0  0  0  0  0  0
  -25.8714    2.3143   26.0152 C   0  0  0  0  0  0  0  0  0  0  0  0
  1  8  1  0
  1  9  1  0
 10 12  1  0
  1  2  1  0
  2  3  2  0
  3  4  1  0
  5  6  1  0
  6  7  2  0
  7  2  1  0
  4  5  2  0
  5 10  1  0
 10 11  2  0
 11 13  1  0
 13 14  2  0
 14  4  1  0
M  END

$$$$
