No_1429-gen_results/8p0m/2024-11-27-11-27-31/
     RDKit          3D

 22 25  0  0  0  0  0  0  0  0999 V2000
  -28.0162   -0.8135   28.8779 C   0  0  0  0  0  0  0  0  0  0  0  0
  -27.0636   -0.1189   28.6079 C   0  0  0  0  0  0  0  0  0  0  0  0
  -26.9287    1.1713   29.0083 C   0  0  0  0  0  0  0  0  0  0  0  0
  -25.7702    2.0341   28.6884 C   0  0  0  0  0  0  0  0  0  0  0  0
  -24.7141    1.4431   27.9188 C   0  0  0  0  0  0  0  0  0  0  0  0
  -23.5566    2.1673   27.5933 C   0  0  0  0  0  0  0  0  0  0  0  0
  -29.0912   -0.2748   29.7317 C   0  0  0  0  0  0  0  0  0  0  0  0
  -29.0503    0.9872   30.1426 C   0  0  0  0  0  0  0  0  0  0  0  0
  -27.9501    1.7660   29.8118 C   0  0  0  0  0  0  0  0  0  0  0  0
  -25.6210    3.3874   28.9730 C   0  0  0  0  0  0  0  0  0  0  0  0
  -24.5895    4.2089   28.4034 C   0  0  0  0  0  0  0  0  0  0  0  0
  -23.5223    3.5277   27.7603 C   0  0  0  0  0  0  0  0  0  0  0  0
  -30.3647   -1.3555   30.1069 Cl  0  0  0  0  0  0  0  0  0  0  0  0
  -22.5325    1.5983   26.9021 O   0  0  0  0  0  0  0  0  0  0  0  0
  -21.4842    2.4583   27.0526 C   0  0  0  0  0  0  0  0  0  0  0  0
  -22.0452    3.5698   27.5975 O   0  0  0  0  0  0  0  0  0  0  0  0
  -25.7883   -0.8104   27.6294 Cl  0  0  0  0  0  0  0  0  0  0  0  0
  -30.0369    1.4797   30.9167 O   0  0  0  0  0  0  0  0  0  0  0  0
  -29.9804    1.4577   32.2165 C   0  0  0  0  0  0  0  0  0  0  0  0
  -28.9579    1.5873   32.8078 C   0  0  0  0  0  0  0  0  0  0  0  0
  -27.7260    2.0981   32.2816 C   0  0  0  0  0  0  0  0  0  0  0  0
  -27.2497    1.9325   30.9277 C   0  0  0  0  0  0  0  0  0  0  0  0
  3  4  1  0
  7 13  1  0
  6 14  1  0
 14 15  1  0
 12 16  1  0
 15 16  1  0
  2 17  1  0
  8 18  1  0
 18 19  1  0
 19 20  2  0
 20 21  1  0
  9 22  1  0
 21 22  2  0
  4  5  2  0
  5  6  1  0
  6 12  2  0
 12 11  1  0
 11 10  2  0
 10  4  1  0
  1  2  2  0
  2  3  1  0
  3  9  2  0
  9  8  1  0
  8  7  2  0
  7  1  1  0
M  END

$$$$
