No_1903-gen_results/8p0m/2024-11-27-11-27-31/
     RDKit          3D

 32 36  0  0  0  0  0  0  0  0999 V2000
  -28.0162   -0.8135   28.8779 C   0  0  0  0  0  0  0  0  0  0  0  0
  -27.0636   -0.1189   28.6079 C   0  0  0  0  0  0  0  0  0  0  0  0
  -25.7923   -0.4302   29.0761 C   0  0  0  0  0  0  0  0  0  0  0  0
  -24.5456    0.3494   28.8225 C   0  0  0  0  0  0  0  0  0  0  0  0
  -24.6586    1.4196   27.8878 C   0  0  0  0  0  0  0  0  0  0  0  0
  -25.9471    1.6811   27.3792 C   0  0  0  0  0  0  0  0  0  0  0  0
  -27.0439    0.9739   27.6871 C   0  0  0  0  0  0  0  0  0  0  0  0
  -29.2364   -0.0611   29.2668 C   0  0  0  0  0  0  0  0  0  0  0  0
  -29.8066   -0.3562   30.3832 C   0  0  0  0  0  0  0  0  0  0  0  0
  -29.6377   -1.6892   30.9871 C   0  0  0  0  0  0  0  0  0  0  0  0
  -28.5402   -2.4407   30.5652 C   0  0  0  0  0  0  0  0  0  0  0  0
  -27.7176   -1.8902   29.8136 C   0  0  0  0  0  0  0  0  0  0  0  0
  -26.2928   -2.2821   29.8130 C   0  0  0  0  0  0  0  0  0  0  0  0
  -25.4263   -1.5989   29.7358 C   0  0  0  0  0  0  0  0  0  0  0  0
  -23.1920    0.0248   29.2521 C   0  0  0  0  0  0  0  0  0  0  0  0
  -23.1697   -1.0331   29.8693 F   0  0  0  0  0  0  0  0  0  0  0  0
  -22.1425    0.8722   28.9528 C   0  0  0  0  0  0  0  0  0  0  0  0
  -22.1892    1.8835   28.1624 N   0  0  0  0  0  0  0  0  0  0  0  0
  -23.4812    2.2403   27.5983 C   0  0  0  0  0  0  0  0  0  0  0  0
  -23.5440    3.2935   26.9199 O   0  0  0  0  0  0  0  0  0  0  0  0
  -30.6290   -2.2290   32.0137 C   0  0  0  0  0  0  0  0  0  0  0  0
  -30.8302   -3.3150   32.1947 O   0  0  0  0  0  0  0  0  0  0  0  0
  -31.1396   -1.2594   32.6836 O   0  0  0  0  0  0  0  0  0  0  0  0
  -28.3195    1.3728   27.0058 C   0  0  0  0  0  0  0  0  0  0  0  0
  -28.5973    2.5355   27.1203 N   0  0  0  0  0  0  0  0  0  0  0  0
  -29.0923    3.3584   26.5206 C   0  0  0  0  0  0  0  0  0  0  0  0
  -29.3441    4.7821   26.8447 C   0  0  0  0  0  0  0  0  0  0  0  0
  -29.5734    3.0268   25.1186 C   0  0  0  0  0  0  0  0  0  0  0  0
  -30.3924    3.9165   24.3667 C   0  0  0  0  0  0  0  0  0  0  0  0
  -30.1871    5.6490   26.0742 C   0  0  0  0  0  0  0  0  0  0  0  0
  -30.6476    5.1709   24.8240 C   0  0  0  0  0  0  0  0  0  0  0  0
  -28.7516    0.6471   26.1038 O   0  0  0  0  0  0  0  0  0  0  0  0
  4 15  1  0
 15 16  1  0
 15 17  1  0
  5 19  1  0
 18 19  1  0
 19 20  2  0
 10 21  1  0
 21 22  2  0
 21 23  1  0
  7 24  1  0
 24 25  1  0
 25 26  1  0
 24 32  2  0
 17 18  1  0
  1  2  1  0
  3 14  1  0
 14 13  2  0
 13 12  1  0
  2  3  1  0
  3  4  2  0
  4  5  1  0
  5  6  2  0
  6  7  1  0
  7  2  2  0
 26 27  2  0
 27 30  1  0
 30 31  2  0
 31 29  1  0
 29 28  2  0
 28 26  1  0
  1  8  2  0
  8  9  1  0
  9 10  2  0
 10 11  1  0
 11 12  2  0
 12  1  1  0
M  END

$$$$
