No_1314-gen_results/8p0m/2024-11-27-11-27-31/
     RDKit          3D

 32 36  0  0  0  0  0  0  0  0999 V2000
  -28.0162   -0.8135   28.8779 C   0  0  0  0  0  0  0  0  0  0  0  0
  -27.0636   -0.1190   28.6079 C   0  0  0  0  0  0  0  0  0  0  0  0
  -25.7902   -0.2340   29.1297 C   0  0  0  0  0  0  0  0  0  0  0  0
  -24.6170    0.5841   28.8317 C   0  0  0  0  0  0  0  0  0  0  0  0
  -23.3377    0.4296   29.4273 C   0  0  0  0  0  0  0  0  0  0  0  0
  -27.8089   -1.8626   29.9735 C   0  0  0  0  0  0  0  0  0  0  0  0
  -26.5549   -2.1359   30.4840 C   0  0  0  0  0  0  0  0  0  0  0  0
  -25.4394   -1.2867   30.1187 C   0  0  0  0  0  0  0  0  0  0  0  0
  -23.2063   -0.7370   30.2635 C   0  0  0  0  0  0  0  0  0  0  0  0
  -24.1979   -1.5131   30.6761 C   0  0  0  0  0  0  0  0  0  0  0  0
  -24.6961    1.6987   27.8827 C   0  0  0  0  0  0  0  0  0  0  0  0
  -25.0799    1.6000   26.7696 C   0  0  0  0  0  0  0  0  0  0  0  0
  -25.3639    0.3717   26.0821 C   0  0  0  0  0  0  0  0  0  0  0  0
  -25.7436    0.2612   24.7874 C   0  0  0  0  0  0  0  0  0  0  0  0
  -28.8716   -2.5907   30.3335 O   0  0  0  0  0  0  0  0  0  0  0  0
  -29.1778   -2.7512   31.6055 C   0  0  0  0  0  0  0  0  0  0  0  0
  -30.5891   -2.6698   31.8737 C   0  0  0  0  0  0  0  0  0  0  0  0
  -31.3317   -2.3847   31.0653 O   0  0  0  0  0  0  0  0  0  0  0  0
  -31.0255   -2.9439   33.1972 N   0  0  0  0  0  0  0  0  0  0  0  0
  -30.1351   -3.2415   34.2918 C   0  0  0  0  0  0  0  0  0  0  0  0
  -30.4442   -3.4071   35.3181 C   0  0  0  0  0  0  0  0  0  0  0  0
  -29.4732   -3.7988   36.4073 C   0  0  0  0  0  0  0  0  0  0  0  0
  -28.1145   -3.9180   36.0509 C   0  0  0  0  0  0  0  0  0  0  0  0
  -27.8302   -3.7438   34.7677 N   0  0  0  0  0  0  0  0  0  0  0  0
  -28.7338   -3.3705   33.8168 C   0  0  0  0  0  0  0  0  0  0  0  0
  -28.3578   -3.1568   32.5314 O   0  0  0  0  0  0  0  0  0  0  0  0
  -22.2756    1.1056   29.1084 O   0  0  0  0  0  0  0  0  0  0  0  0
  -22.1586    1.8328   27.9702 C   0  0  0  0  0  0  0  0  0  0  0  0
  -25.3479    2.8682   28.7615 C   0  0  0  0  0  0  0  0  0  0  0  0
  -25.6225    4.0535   27.9646 C   0  0  0  0  0  0  0  0  0  0  0  0
  -25.9116    3.9276   26.5703 C   0  0  0  0  0  0  0  0  0  0  0  0
  -25.6940    2.7331   25.9657 C   0  0  0  0  0  0  0  0  0  0  0  0
  4 11  1  0
 12 13  1  0
 13 14  1  0
  6 15  1  0
 15 16  1  0
 16 17  1  0
 17 18  2  0
 17 19  1  0
 19 20  1  0
 16 26  1  0
 25 26  1  0
  5 27  1  0
 27 28  1  0
 20 21  2  0
 21 22  1  0
 22 23  2  0
 23 24  1  0
 24 25  2  0
 25 20  1  0
  1  2  2  0
  2  3  1  0
  8  7  1  0
  7  6  2  0
  6  1  1  0
 11 12  2  0
 12 32  1  0
 32 31  2  0
 31 30  1  0
 30 29  2  0
 29 11  1  0
  3  4  2  0
  4  5  1  0
  5  9  2  0
  9 10  1  0
 10  8  2  0
  8  3  1  0
M  END

$$$$
