No_1138-gen_results/8p0m/2024-11-27-11-27-31/
     RDKit          3D

 18 19  0  0  0  0  0  0  0  0999 V2000
  -28.0162   -0.8135   28.8779 C   0  0  0  0  0  0  0  0  0  0  0  0
  -28.4690   -0.7850   29.8287 C   0  0  0  0  0  0  0  0  0  0  0  0
  -26.5042   -0.7777   28.8766 C   0  0  0  0  0  0  0  0  0  0  0  0
  -25.8103   -0.8531   30.1028 C   0  0  0  0  0  0  0  0  0  0  0  0
  -27.9906   -0.8916   31.2257 C   0  0  0  0  0  0  0  0  0  0  0  0
  -26.6042   -0.8676   31.2652 C   0  0  0  0  0  0  0  0  0  0  0  0
  -29.9385   -0.8194   29.8358 O   0  0  0  0  0  0  0  0  0  0  0  0
  -30.6978   -1.6543   30.3501 C   0  0  0  0  0  0  0  0  0  0  0  0
  -24.3664   -0.8009   30.1517 C   0  0  0  0  0  0  0  0  0  0  0  0
  -23.6883   -1.1790   30.8400 C   0  0  0  0  0  0  0  0  0  0  0  0
  -22.1768   -1.0301   30.9218 C   0  0  0  0  0  0  0  0  0  0  0  0
  -21.6963   -0.4179   29.8040 C   0  0  0  0  0  0  0  0  0  0  0  0
  -23.6765   -0.0967   29.0190 C   0  0  0  0  0  0  0  0  0  0  0  0
  -22.4273    0.1003   28.8897 C   0  0  0  0  0  0  0  0  0  0  0  0
  -31.8914   -1.1365   30.8229 C   0  0  0  0  0  0  0  0  0  0  0  0
  -32.3367    0.2642   30.4596 Cl  0  0  0  0  0  0  0  0  0  0  0  0
  -32.7209   -1.9346   31.4289 F   0  0  0  0  0  0  0  0  0  0  0  0
  -30.3444   -2.8398   30.5287 O   0  0  0  0  0  0  0  0  0  0  0  0
  2  7  1  0
  7  8  1  0
  4  9  1  0
  8 15  1  0
 15 16  1  0
 15 17  1  0
  8 18  2  0
  1  2  2  0
  2  5  1  0
  5  6  2  0
  6  4  1  0
  4  3  2  0
  3  1  1  0
  9 10  2  0
 10 11  1  0
 11 12  2  0
 12 14  1  0
 14 13  2  0
 13  9  1  0
M  END

$$$$
