No_1104-gen_results/8p0m/2024-11-27-11-27-31/
     RDKit          3D

  7  6  0  0  0  0  0  0  0  0999 V2000
  -28.0544   -1.0498   28.7246 N   0  0  0  0  0  0  0  0  0  0  0  0
  -27.7460   -0.0733   29.0098 C   0  0  0  0  0  0  0  0  0  0  0  0
  -27.1071    0.7906   29.1050 C   0  0  0  0  0  0  0  0  0  0  0  0
  -27.4698    1.7306   29.7707 O   0  0  0  0  0  0  0  0  0  0  0  0
  -25.9750    1.1685   28.2289 N   0  0  0  0  0  0  0  0  0  0  0  0
  -25.2593    2.3878   28.3171 C   0  0  0  0  0  0  0  0  0  0  0  0
  -24.2300    2.3711   27.8076 C   0  0  0  0  0  0  0  0  0  0  0  0
  1  2  3  0
  2  3  1  0
  3  4  2  0
  3  5  1  0
  5  6  1  0
  6  7  2  0
M  END

$$$$
