No_1281-gen_results/8p0m/2024-11-27-11-27-31/
     RDKit          3D

 24 25  0  0  0  0  0  0  0  0999 V2000
  -28.0162   -0.8135   28.8779 C   0  0  0  0  0  0  0  0  0  0  0  0
  -28.4690   -0.7850   29.8287 C   0  0  0  0  0  0  0  0  0  0  0  0
  -27.0871    0.2903   28.6377 C   0  0  0  0  0  0  0  0  0  0  0  0
  -26.2516    0.4114   27.4223 C   0  0  0  0  0  0  0  0  0  0  0  0
  -28.3913    0.1041   30.9805 C   0  0  0  0  0  0  0  0  0  0  0  0
  -27.5332    1.1666   30.7866 C   0  0  0  0  0  0  0  0  0  0  0  0
  -26.8281    1.2557   29.6454 C   0  0  0  0  0  0  0  0  0  0  0  0
  -25.0638    0.2673   27.5265 N   0  0  0  0  0  0  0  0  0  0  0  0
  -26.8721    0.6383   26.1615 C   0  0  0  0  0  0  0  0  0  0  0  0
  -26.0048    0.5129   25.0700 C   0  0  0  0  0  0  0  0  0  0  0  0
  -24.1417    0.3180   26.5125 C   0  0  0  0  0  0  0  0  0  0  0  0
  -24.7058    0.4718   25.2740 N   0  0  0  0  0  0  0  0  0  0  0  0
  -28.2627    0.6285   25.9231 C   0  0  0  0  0  0  0  0  0  0  0  0
  -29.0004    1.2813   26.6335 O   0  0  0  0  0  0  0  0  0  0  0  0
  -28.7991   -0.1883   25.0829 O   0  0  0  0  0  0  0  0  0  0  0  0
  -30.1645   -0.2272   24.8922 C   0  0  0  0  0  0  0  0  0  0  0  0
  -30.5805   -1.5038   24.6756 C   0  0  0  0  0  0  0  0  0  0  0  0
  -32.0407   -1.7401   24.4640 C   0  0  0  0  0  0  0  0  0  0  0  0
  -32.6729   -2.6015   25.4417 C   0  0  0  0  0  0  0  0  0  0  0  0
  -33.8117   -2.8315   25.3566 O   0  0  0  0  0  0  0  0  0  0  0  0
  -31.9022   -3.4564   26.1192 O   0  0  0  0  0  0  0  0  0  0  0  0
  -29.5131   -1.9777   30.1574 C   0  0  0  0  0  0  0  0  0  0  0  0
  -30.5513   -2.0626   30.3426 O   0  0  0  0  0  0  0  0  0  0  0  0
  -28.8210   -3.1752   30.1555 O   0  0  0  0  0  0  0  0  0  0  0  0
  3  4  1  0
  9 13  1  0
 13 14  2  0
 13 15  1  0
 15 16  1  0
 16 17  1  0
 17 18  1  0
 18 19  1  0
 19 20  2  0
 19 21  1  0
  2 22  1  0
 22 23  1  0
 22 24  2  0
  4  8  2  0
  8 11  1  0
 11 12  2  0
 12 10  1  0
 10  9  2  0
  9  4  1  0
  1  2  2  0
  2  5  1  0
  5  6  2  0
  6  7  1  0
  7  3  2  0
  3  1  1  0
M  END

$$$$
