No_1009-gen_results/8p0m/2024-11-27-11-27-31/
     RDKit          3D

 15 16  0  0  0  0  0  0  0  0999 V2000
  -28.0162   -0.8135   28.8779 C   0  0  0  0  0  0  0  0  0  0  0  0
  -27.0636   -0.1189   28.6079 C   0  0  0  0  0  0  0  0  0  0  0  0
  -25.7923   -0.4302   29.0761 C   0  0  0  0  0  0  0  0  0  0  0  0
  -24.5456    0.3494   28.8225 C   0  0  0  0  0  0  0  0  0  0  0  0
  -23.2409    0.0217   29.3323 C   0  0  0  0  0  0  0  0  0  0  0  0
  -23.1926   -1.2816   29.8967 C   0  0  0  0  0  0  0  0  0  0  0  0
  -28.2472   -1.2396   30.0801 C   0  0  0  0  0  0  0  0  0  0  0  0
  -27.0209   -1.6694   30.8226 C   0  0  0  0  0  0  0  0  0  0  0  0
  -25.7364   -1.1926   30.3847 C   0  0  0  0  0  0  0  0  0  0  0  0
  -24.4095   -1.7749   30.5769 C   0  0  0  0  0  0  0  0  0  0  0  0
  -24.5600    1.4368   27.8240 C   0  0  0  0  0  0  0  0  0  0  0  0
  -24.7496    2.6576   28.2245 C   0  0  0  0  0  0  0  0  0  0  0  0
  -24.9131    3.7252   27.3486 C   0  0  0  0  0  0  0  0  0  0  0  0
  -24.7328    3.3812   25.9306 C   0  0  0  0  0  0  0  0  0  0  0  0
  -24.5898    1.1351   26.4590 F   0  0  0  0  0  0  0  0  0  0  0  0
  4 11  1  0
 11 12  1  0
 12 13  2  3
 13 14  1  0
 11 15  1  0
  1  2  2  0
  2  3  1  0
  9  8  1  0
  8  7  2  0
  7  1  1  0
  3  4  2  0
  4  5  1  0
  5  6  2  0
  6 10  1  0
 10  9  2  0
  9  3  1  0
M  END

$$$$
