No_1495-gen_results/8p0m/2024-11-27-11-27-31/
     RDKit          3D

 23 24  0  0  0  0  0  0  0  0999 V2000
  -28.0162   -0.8135   28.8779 C   0  0  0  0  0  0  0  0  0  0  0  0
  -28.4690   -0.7850   29.8287 C   0  0  0  0  0  0  0  0  0  0  0  0
  -28.1960    0.3478   28.0550 C   0  0  0  0  0  0  0  0  0  0  0  0
  -27.4421    0.5100   26.7946 C   0  0  0  0  0  0  0  0  0  0  0  0
  -26.1689   -0.0794   26.6787 C   0  0  0  0  0  0  0  0  0  0  0  0
  -25.7312   -0.9607   27.6875 C   0  0  0  0  0  0  0  0  0  0  0  0
  -26.5043   -1.2222   28.7582 C   0  0  0  0  0  0  0  0  0  0  0  0
  -28.4210   -2.0451   30.7337 C   0  0  0  0  0  0  0  0  0  0  0  0
  -27.1919   -2.7490   30.6631 C   0  0  0  0  0  0  0  0  0  0  0  0
  -26.1471   -2.3975   29.6377 C   0  0  0  0  0  0  0  0  0  0  0  0
  -24.9939   -3.1440   29.4529 C   0  0  0  0  0  0  0  0  0  0  0  0
  -24.6230   -3.9103   28.7541 C   0  0  0  0  0  0  0  0  0  0  0  0
  -23.7869   -1.9984   29.5950 C   0  0  0  0  0  0  0  0  0  0  0  0
  -23.7957   -1.0038   30.6223 C   0  0  0  0  0  0  0  0  0  0  0  0
  -23.9615    0.2165   30.3886 C   0  0  0  0  0  0  0  0  0  0  0  0
  -24.6825    1.1258   31.2911 C   0  0  0  0  0  0  0  0  0  0  0  0
  -23.3117    0.8914   29.2698 C   0  0  0  0  0  0  0  0  0  0  0  0
  -25.5031    1.7131   31.0720 C   0  0  0  0  0  0  0  0  0  0  0  0
  -26.3081    2.5441   32.0295 C   0  0  0  0  0  0  0  0  0  0  0  0
  -26.6354    3.8397   31.7817 C   0  0  0  0  0  0  0  0  0  0  0  0
  -22.1832    0.4497   28.7278 C   0  0  0  0  0  0  0  0  0  0  0  0
  -26.7860    4.2990   30.4667 C   0  0  0  0  0  0  0  0  0  0  0  0
  -26.1065    3.5290   29.4554 C   0  0  0  0  0  0  0  0  0  0  0  0
  1  3  1  0
  3  4  1  0
  4  5  1  0
  5  6  1  0
  6  7  1  0
 10 11  1  0
 11 12  1  0
 11 13  1  0
 13 14  1  0
 14 15  1  0
 15 16  2  3
 15 17  1  0
 16 18  1  0
 18 19  2  3
 19 20  1  0
 17 21  1  0
 20 22  2  3
 22 23  1  0
  1  2  2  0
  2  8  1  0
  8  9  2  0
  9 10  1  0
 10  7  2  0
  7  1  1  0
M  END

$$$$
