No_1063-gen_results/8p0m/2024-11-27-11-27-31/
     RDKit          3D

  9  9  0  0  0  0  0  0  0  0999 V2000
  -28.0162   -0.8135   28.8779 C   0  0  0  0  0  0  0  0  0  0  0  0
  -28.4690   -0.7850   29.8287 C   0  0  0  0  0  0  0  0  0  0  0  0
  -26.5042   -0.7777   28.8766 C   0  0  0  0  0  0  0  0  0  0  0  0
  -25.9500    0.1157   29.4052 C   0  0  0  0  0  0  0  0  0  0  0  0
  -27.9964    0.1190   30.9527 C   0  0  0  0  0  0  0  0  0  0  0  0
  -26.6037    0.4647   30.8030 C   0  0  0  0  0  0  0  0  0  0  0  0
  -29.9608   -1.0927   30.0975 C   0  0  0  0  0  0  0  0  0  0  0  0
  -30.2956   -2.0384   30.4914 O   0  0  0  0  0  0  0  0  0  0  0  0
  -30.8652   -0.2130   29.7171 O   0  0  0  0  0  0  0  0  0  0  0  0
  2  7  1  0
  7  8  2  0
  7  9  1  0
  1  2  2  0
  2  5  1  0
  5  6  2  0
  6  4  1  0
  4  3  2  0
  3  1  1  0
M  END

$$$$
