No_1842-gen_results/8p0m/2024-11-27-11-27-31/
     RDKit          3D

 22 24  0  0  0  0  0  0  0  0999 V2000
  -28.0544   -1.0498   28.7246 N   0  0  0  0  0  0  0  0  0  0  0  0
  -27.7460   -0.0733   29.0098 C   0  0  0  0  0  0  0  0  0  0  0  0
  -27.5562    0.3369   30.3393 C   0  0  0  0  0  0  0  0  0  0  0  0
  -27.0710    1.6709   30.7899 C   0  0  0  0  0  0  0  0  0  0  0  0
  -26.6539    2.5222   29.7363 C   0  0  0  0  0  0  0  0  0  0  0  0
  -26.7304    2.0603   28.4078 C   0  0  0  0  0  0  0  0  0  0  0  0
  -27.1892    0.8153   28.0522 C   0  0  0  0  0  0  0  0  0  0  0  0
  -29.0838   -1.5480   29.4797 C   0  0  0  0  0  0  0  0  0  0  0  0
  -28.8851   -1.6388   30.9106 C   0  0  0  0  0  0  0  0  0  0  0  0
  -27.9326   -1.0114   31.4491 N   0  0  0  0  0  0  0  0  0  0  0  0
  -27.1881    0.5484   26.6276 C   0  0  0  0  0  0  0  0  0  0  0  0
  -26.4266    1.2565   25.7315 C   0  0  0  0  0  0  0  0  0  0  0  0
  -25.9531    2.5300   26.1395 C   0  0  0  0  0  0  0  0  0  0  0  0
  -26.0404    2.9681   27.4651 C   0  0  0  0  0  0  0  0  0  0  0  0
  -26.0673    3.7901   30.1216 C   0  0  0  0  0  0  0  0  0  0  0  0
  -25.1488    3.8861   30.8436 O   0  0  0  0  0  0  0  0  0  0  0  0
  -26.8208    4.8627   29.8744 O   0  0  0  0  0  0  0  0  0  0  0  0
  -29.3328   -2.6613   31.6618 N   0  0  0  0  0  0  0  0  0  0  0  0
  -30.0773   -3.6368   31.2033 C   0  0  0  0  0  0  0  0  0  0  0  0
  -30.4356   -3.6859   30.0456 C   0  0  0  0  0  0  0  0  0  0  0  0
  -31.2322   -4.8439   29.5442 C   0  0  0  0  0  0  0  0  0  0  0  0
  -31.5984   -4.8194   28.1714 C   0  0  0  0  0  0  0  0  0  0  0  0
  5 15  1  0
 15 16  2  0
 15 17  1  0
  9 18  1  0
 18 19  1  0
 19 20  1  0
 20 21  2  3
 21 22  1  0
  3  4  1  0
  4  5  2  0
  5  6  1  0
  7  2  1  0
  1  2  2  0
  2  3  1  0
  3 10  2  0
 10  9  1  0
  9  8  2  0
  8  1  1  0
  6  7  2  0
  7 11  1  0
 11 12  2  0
 12 13  1  0
 13 14  2  0
 14  6  1  0
M  END

$$$$
