No_1448-gen_results/8p0m/2024-11-27-11-27-31/
     RDKit          3D

 19 20  0  0  0  0  0  0  0  0999 V2000
  -28.0162   -0.8135   28.8779 C   0  0  0  0  0  0  0  0  0  0  0  0
  -27.0636   -0.1190   28.6079 C   0  0  0  0  0  0  0  0  0  0  0  0
  -25.7923   -0.4302   29.0761 C   0  0  0  0  0  0  0  0  0  0  0  0
  -25.5756   -1.5654   29.9363 C   0  0  0  0  0  0  0  0  0  0  0  0
  -26.7354   -2.3004   30.2173 C   0  0  0  0  0  0  0  0  0  0  0  0
  -27.9184   -1.9537   29.7629 C   0  0  0  0  0  0  0  0  0  0  0  0
  -27.1057    1.1023   27.7593 C   0  0  0  0  0  0  0  0  0  0  0  0
  -26.1219    1.4820   27.0232 C   0  0  0  0  0  0  0  0  0  0  0  0
  -26.0928    2.6187   26.1808 C   0  0  0  0  0  0  0  0  0  0  0  0
  -27.3249    3.3089   25.9857 C   0  0  0  0  0  0  0  0  0  0  0  0
  -28.4319    2.8713   26.6578 C   0  0  0  0  0  0  0  0  0  0  0  0
  -28.3674    1.7616   27.5562 C   0  0  0  0  0  0  0  0  0  0  0  0
  -29.0628   -2.7776   30.2259 C   0  0  0  0  0  0  0  0  0  0  0  0
  -30.0571   -2.4930   29.8176 F   0  0  0  0  0  0  0  0  0  0  0  0
  -28.7392   -4.1122   30.0331 F   0  0  0  0  0  0  0  0  0  0  0  0
  -29.0286   -2.6692   31.6154 F   0  0  0  0  0  0  0  0  0  0  0  0
  -24.0483   -1.9665   30.4616 Cl  0  0  0  0  0  0  0  0  0  0  0  0
  -24.6440    3.1289   25.4712 Cl  0  0  0  0  0  0  0  0  0  0  0  0
  -29.5469    3.5585   26.5177 F   0  0  0  0  0  0  0  0  0  0  0  0
  2  7  1  0
  6 13  1  0
 13 14  1  0
 13 15  1  0
 13 16  1  0
  4 17  1  0
  9 18  1  0
 11 19  1  0
  1  2  2  0
  2  3  1  0
  3  4  2  0
  4  5  1  0
  5  6  2  0
  6  1  1  0
  7  8  2  0
  8  9  1  0
  9 10  2  0
 10 11  1  0
 11 12  2  0
 12  7  1  0
M  END

$$$$
