No_1419-gen_results/8p0m/2024-11-27-11-27-31/
     RDKit          3D

 14 16  0  0  0  0  0  0  0  0999 V2000
  -28.0162   -0.8135   28.8779 C   0  0  0  0  0  0  0  0  0  0  0  0
  -27.0636   -0.1189   28.6079 C   0  0  0  0  0  0  0  0  0  0  0  0
  -25.7923   -0.4302   29.0761 C   0  0  0  0  0  0  0  0  0  0  0  0
  -25.5756   -1.5654   29.9363 C   0  0  0  0  0  0  0  0  0  0  0  0
  -26.7354   -2.3004   30.2173 C   0  0  0  0  0  0  0  0  0  0  0  0
  -27.9184   -1.9537   29.7629 C   0  0  0  0  0  0  0  0  0  0  0  0
  -27.1059    1.0338   27.8185 N   0  0  0  0  0  0  0  0  0  0  0  0
  -26.2610    1.3293   26.9037 C   0  0  0  0  0  0  0  0  0  0  0  0
  -24.8442    1.0808   27.3000 C   0  0  0  0  0  0  0  0  0  0  0  0
  -24.6175    0.0282   28.2924 C   0  0  0  0  0  0  0  0  0  0  0  0
  -23.7251    1.2323   26.5034 C   0  0  0  0  0  0  0  0  0  0  0  0
  -22.4877    1.5591   27.1298 C   0  0  0  0  0  0  0  0  0  0  0  0
  -22.1888    0.8795   28.3590 C   0  0  0  0  0  0  0  0  0  0  0  0
  -23.3211   -0.0081   28.9505 C   0  0  0  0  0  0  0  0  0  0  0  0
  1  2  2  0
  3  4  2  0
  4  5  1  0
  5  6  2  0
  6  1  1  0
  2  3  1  0
  3 10  1  0
  9  8  1  0
  8  7  2  0
  7  2  1  0
  9 10  2  0
 10 14  1  0
 14 13  2  0
 13 12  1  0
 12 11  2  0
 11  9  1  0
M  END

$$$$
