No_1093-gen_results/8p0m/2024-11-27-11-27-31/
     RDKit          3D

  7  7  0  0  0  0  0  0  0  0999 V2000
  -28.1146   -0.6256   29.0813 Br  0  0  0  0  0  0  0  0  0  0  0  0
  -26.9268    0.4545   28.6846 C   0  0  0  0  0  0  0  0  0  0  0  0
  -25.8457    0.7043   29.3312 C   0  0  0  0  0  0  0  0  0  0  0  0
  -24.7279    1.4477   28.8871 C   0  0  0  0  0  0  0  0  0  0  0  0
  -24.8689    2.0866   27.6343 C   0  0  0  0  0  0  0  0  0  0  0  0
  -25.9924    1.8522   26.8962 C   0  0  0  0  0  0  0  0  0  0  0  0
  -26.9133    1.0340   27.3905 C   0  0  0  0  0  0  0  0  0  0  0  0
  1  2  1  0
  2  3  2  0
  3  4  1  0
  4  5  2  0
  5  6  1  0
  6  7  2  0
  7  2  1  0
M  END

$$$$
