No_1094-gen_results/8p0m/2024-11-27-11-27-31/
     RDKit          3D

 17 17  0  0  0  0  0  0  0  0999 V2000
  -28.0162   -0.8135   28.8779 C   0  0  0  0  0  0  0  0  0  0  0  0
  -27.0636   -0.1189   28.6079 C   0  0  0  0  0  0  0  0  0  0  0  0
  -26.8756    1.1325   28.9134 C   0  0  0  0  0  0  0  0  0  0  0  0
  -25.6883    1.9515   28.5672 C   0  0  0  0  0  0  0  0  0  0  0  0
  -24.6394    1.2834   27.8753 C   0  0  0  0  0  0  0  0  0  0  0  0
  -24.8068   -0.0513   27.6040 C   0  0  0  0  0  0  0  0  0  0  0  0
  -25.9019   -0.7670   27.9511 C   0  0  0  0  0  0  0  0  0  0  0  0
  -28.0611   -1.4288   30.2827 C   0  0  0  0  0  0  0  0  0  0  0  0
  -28.9553   -2.3242   30.5041 O   0  0  0  0  0  0  0  0  0  0  0  0
  -27.1983   -1.1565   31.1209 O   0  0  0  0  0  0  0  0  0  0  0  0
  -23.4149    1.9682   27.5050 C   0  0  0  0  0  0  0  0  0  0  0  0
  -22.4287    1.4055   27.6806 F   0  0  0  0  0  0  0  0  0  0  0  0
  -23.3449    3.2028   28.1553 F   0  0  0  0  0  0  0  0  0  0  0  0
  -23.5598    2.4279   26.2252 F   0  0  0  0  0  0  0  0  0  0  0  0
  -27.9375    1.9252   29.6043 C   0  0  0  0  0  0  0  0  0  0  0  0
  -28.8283    2.5234   29.1979 C   0  0  0  0  0  0  0  0  0  0  0  0
  -29.8086    3.2440   29.9404 C   0  0  0  0  0  0  0  0  0  0  0  0
  1  2  2  3
  2  3  1  0
  3  4  1  0
  4  5  1  0
  5  6  1  0
  2  7  1  0
  6  7  1  0
  1  8  1  0
  8  9  1  0
  8 10  2  0
  5 11  1  0
 11 12  1  0
 11 13  1  0
 11 14  1  0
  3 15  1  0
 15 16  2  3
 16 17  1  0
M  END

$$$$
