No_1158-gen_results/8p0m/2024-11-27-11-27-31/
     RDKit          3D

 20 22  0  0  0  0  0  0  0  0999 V2000
  -28.1229   -1.3353   28.4874 O   0  0  0  0  0  0  0  0  0  0  0  0
  -27.4806   -0.4044   28.7094 C   0  0  0  0  0  0  0  0  0  0  0  0
  -26.3804   -0.0867   27.9394 C   0  0  0  0  0  0  0  0  0  0  0  0
  -27.6664    0.4468   29.8988 N   0  0  0  0  0  0  0  0  0  0  0  0
  -25.1773   -0.4388   28.3946 C   0  0  0  0  0  0  0  0  0  0  0  0
  -26.5259    0.6036   26.6867 C   0  0  0  0  0  0  0  0  0  0  0  0
  -24.8099   -1.1180   29.5646 C   0  0  0  0  0  0  0  0  0  0  0  0
  -26.9560    1.5703   30.2630 C   0  0  0  0  0  0  0  0  0  0  0  0
  -27.4826    2.5486   30.5762 C   0  0  0  0  0  0  0  0  0  0  0  0
  -26.7543    3.7374   30.9576 C   0  0  0  0  0  0  0  0  0  0  0  0
  -25.3261    3.6869   30.9475 C   0  0  0  0  0  0  0  0  0  0  0  0
  -24.7308    2.4769   30.5995 C   0  0  0  0  0  0  0  0  0  0  0  0
  -25.5172    1.3897   30.2675 C   0  0  0  0  0  0  0  0  0  0  0  0
  -24.6510    0.0890   30.5989 C   0  0  0  0  0  0  0  0  0  0  0  0
  -25.4750    0.7627   25.8230 C   0  0  0  0  0  0  0  0  0  0  0  0
  -24.1514    0.3920   26.2930 C   0  0  0  0  0  0  0  0  0  0  0  0
  -24.0154   -0.1344   27.4844 C   0  0  0  0  0  0  0  0  0  0  0  0
  -28.9108    0.1512   30.6354 C   0  0  0  0  0  0  0  0  0  0  0  0
  -24.7263   -0.3418   32.0686 C   0  0  0  0  0  0  0  0  0  0  0  0
  -23.1003    0.5303   30.4570 C   0  0  0  0  0  0  0  0  0  0  0  0
  1  2  2  0
  2  3  1  0
  2  4  1  0
  5  7  1  0
  4  8  1  0
  7 14  1  0
 13 14  1  0
  4 18  1  0
 14 19  1  0
 14 20  1  0
  3  5  2  0
  5 17  1  0
 17 16  2  0
 16 15  1  0
 15  6  2  0
  6  3  1  0
  8  9  2  0
  9 10  1  0
 10 11  2  0
 11 12  1  0
 12 13  2  0
 13  8  1  0
M  END

$$$$
