No_1023-gen_results/8p0m/2024-11-27-11-27-31/
     RDKit          3D

 27 29  0  0  0  0  0  0  0  0999 V2000
  -28.0162   -0.8135   28.8779 C   0  0  0  0  0  0  0  0  0  0  0  0
  -28.4690   -0.7850   29.8287 C   0  0  0  0  0  0  0  0  0  0  0  0
  -27.0871    0.2903   28.6377 C   0  0  0  0  0  0  0  0  0  0  0  0
  -26.0238    0.3644   29.2526 C   0  0  0  0  0  0  0  0  0  0  0  0
  -26.2460    0.4334   30.7986 C   0  0  0  0  0  0  0  0  0  0  0  0
  -29.5736   -1.6268   30.3318 C   0  0  0  0  0  0  0  0  0  0  0  0
  -27.2885   -0.6712   31.0920 C   0  0  0  0  0  0  0  0  0  0  0  0
  -30.6988   -1.2594   29.8612 N   0  0  0  0  0  0  0  0  0  0  0  0
  -31.7073   -2.1467   29.5337 C   0  0  0  0  0  0  0  0  0  0  0  0
  -29.4937   -2.6156   31.1645 O   0  0  0  0  0  0  0  0  0  0  0  0
  -25.1410    1.6891   29.0191 C   0  0  0  0  0  0  0  0  0  0  0  0
  -25.2053    2.6510   29.4110 C   0  0  0  0  0  0  0  0  0  0  0  0
  -24.0029    1.3468   27.9711 C   0  0  0  0  0  0  0  0  0  0  0  0
  -23.1708    2.3599   27.5090 C   0  0  0  0  0  0  0  0  0  0  0  0
  -24.4336    3.9057   28.8834 C   0  0  0  0  0  0  0  0  0  0  0  0
  -23.3920    3.6258   27.9321 C   0  0  0  0  0  0  0  0  0  0  0  0
  -25.1233   -0.8877   29.0561 C   0  0  0  0  0  0  0  0  0  0  0  0
  -32.4477   -1.8240   28.4421 C   0  0  0  0  0  0  0  0  0  0  0  0
  -33.0720   -2.5714   27.7795 N   0  0  0  0  0  0  0  0  0  0  0  0
  -32.5462   -0.6208   27.9446 F   0  0  0  0  0  0  0  0  0  0  0  0
  -33.2234   -3.9497   27.9900 C   0  0  0  0  0  0  0  0  0  0  0  0
  -32.4019   -4.7788   27.7212 C   0  0  0  0  0  0  0  0  0  0  0  0
  -31.2268   -4.5394   27.0741 C   0  0  0  0  0  0  0  0  0  0  0  0
  -30.2577   -5.7097   26.9889 C   0  0  0  0  0  0  0  0  0  0  0  0
  -32.5478   -6.2264   27.9743 C   0  0  0  0  0  0  0  0  0  0  0  0
  -31.7802   -7.2626   27.7810 C   0  0  0  0  0  0  0  0  0  0  0  0
  -30.5847   -6.9531   27.2283 C   0  0  0  0  0  0  0  0  0  0  0  0
  1  2  1  0
  1  3  1  0
  3  4  1  0
  4  5  1  0
  2  6  1  0
  2  7  1  0
  5  7  1  0
  6  8  1  0
  8  9  1  0
  6 10  2  0
  4 11  1  0
  4 17  1  0
  9 18  2  3
 18 19  1  0
 18 20  1  0
 19 21  1  0
 21 22  1  0
 11 12  2  0
 12 15  1  0
 15 16  2  0
 16 14  1  0
 14 13  2  0
 13 11  1  0
 22 23  2  0
 23 24  1  0
 24 27  2  0
 27 26  1  0
 26 25  2  0
 25 22  1  0
M  END

$$$$
