No_1805-gen_results/8p0m/2024-11-27-11-27-31/
     RDKit          3D

 10 11  0  0  0  0  0  0  0  0999 V2000
  -28.0544   -1.0498   28.7246 N   0  0  0  0  0  0  0  0  0  0  0  0
  -26.9659   -0.4722   28.7709 C   0  0  0  0  0  0  0  0  0  0  0  0
  -25.9289   -1.0196   29.5059 C   0  0  0  0  0  0  0  0  0  0  0  0
  -24.6309   -0.4459   29.5994 C   0  0  0  0  0  0  0  0  0  0  0  0
  -24.4031    0.7890   28.9309 C   0  0  0  0  0  0  0  0  0  0  0  0
  -25.4769    1.3309   28.1733 C   0  0  0  0  0  0  0  0  0  0  0  0
  -26.6735    0.7165   28.0807 C   0  0  0  0  0  0  0  0  0  0  0  0
  -28.6048   -1.5255   29.9160 C   0  0  0  0  0  0  0  0  0  0  0  0
  -27.7455   -2.4643   30.6164 C   0  0  0  0  0  0  0  0  0  0  0  0
  -26.3514   -1.9343   30.6528 N   0  0  0  0  0  0  0  0  0  0  0  0
  1  2  1  0
  1  8  1  0
  8  9  1  0
  3 10  1  0
  9 10  1  0
  2  3  2  0
  3  4  1  0
  4  5  2  0
  5  6  1  0
  6  7  2  0
  7  2  1  0
M  END

$$$$
