No_1924-gen_results/8p0m/2024-11-27-11-27-31/
     RDKit          3D

 16 16  0  0  0  0  0  0  0  0999 V2000
  -28.0162   -0.8135   28.8779 C   0  0  0  0  0  0  0  0  0  0  0  0
  -27.0636   -0.1190   28.6079 C   0  0  0  0  0  0  0  0  0  0  0  0
  -26.9716    0.7139   27.5060 C   0  0  0  0  0  0  0  0  0  0  0  0
  -25.8205    1.4909   27.1160 C   0  0  0  0  0  0  0  0  0  0  0  0
  -24.6562    1.4242   27.9180 C   0  0  0  0  0  0  0  0  0  0  0  0
  -24.6847    0.5901   29.0659 C   0  0  0  0  0  0  0  0  0  0  0  0
  -25.8099   -0.1266   29.3338 C   0  0  0  0  0  0  0  0  0  0  0  0
  -28.7093   -0.4588   30.1754 C   0  0  0  0  0  0  0  0  0  0  0  0
  -28.5882    0.4074   30.7539 F   0  0  0  0  0  0  0  0  0  0  0  0
  -29.6242   -1.4271   30.5317 F   0  0  0  0  0  0  0  0  0  0  0  0
  -23.4671    2.2143   27.6135 C   0  0  0  0  0  0  0  0  0  0  0  0
  -22.3254    2.3079   28.7669 Cl  0  0  0  0  0  0  0  0  0  0  0  0
  -23.2126    2.6960   26.4794 O   0  0  0  0  0  0  0  0  0  0  0  0
  -28.2664    0.8018   26.4290 Cl  0  0  0  0  0  0  0  0  0  0  0  0
  -25.7331   -0.8614   30.4148 F   0  0  0  0  0  0  0  0  0  0  0  0
  -26.3302   -0.9864   29.7623 Cl  0  0  0  0  0  0  0  0  0  0  0  0
  1  2  2  3
  2  3  1  0
  3  4  1  0
  4  5  1  0
  5  6  1  0
  2  7  1  0
  6  7  1  0
  1  8  1  0
  8  9  1  0
  8 10  1  0
  5 11  1  0
 11 12  1  0
 11 13  2  0
  3 14  1  0
  7 15  1  0
  7 16  1  0
M  END

$$$$
