No_1356-gen_results/8p0m/2024-11-27-11-27-31/
     RDKit          3D

 25 27  0  0  0  0  0  0  0  0999 V2000
  -28.0162   -0.8135   28.8779 C   0  0  0  0  0  0  0  0  0  0  0  0
  -27.0636   -0.1189   28.6079 C   0  0  0  0  0  0  0  0  0  0  0  0
  -25.7923   -0.4302   29.0761 C   0  0  0  0  0  0  0  0  0  0  0  0
  -25.5756   -1.5654   29.9363 C   0  0  0  0  0  0  0  0  0  0  0  0
  -26.7354   -2.3004   30.2173 C   0  0  0  0  0  0  0  0  0  0  0  0
  -27.9184   -1.9537   29.7629 C   0  0  0  0  0  0  0  0  0  0  0  0
  -29.0001   -2.7012   30.1151 O   0  0  0  0  0  0  0  0  0  0  0  0
  -24.5290    0.3490   28.7998 C   0  0  0  0  0  0  0  0  0  0  0  0
  -23.3792   -0.0463   29.0486 N   0  0  0  0  0  0  0  0  0  0  0  0
  -22.2365    0.6290   28.6529 C   0  0  0  0  0  0  0  0  0  0  0  0
  -21.0850    0.1478   28.9515 F   0  0  0  0  0  0  0  0  0  0  0  0
  -24.6686    1.5559   28.0032 C   0  0  0  0  0  0  0  0  0  0  0  0
  -22.2990    1.7156   27.8078 C   0  0  0  0  0  0  0  0  0  0  0  0
  -23.5111    2.2351   27.5264 C   0  0  0  0  0  0  0  0  0  0  0  0
  -29.3525   -2.8268   31.4420 C   0  0  0  0  0  0  0  0  0  0  0  0
  -29.7855   -4.1382   31.7382 C   0  0  0  0  0  0  0  0  0  0  0  0
  -30.9684   -4.2885   31.6241 F   0  0  0  0  0  0  0  0  0  0  0  0
  -29.4537   -4.4261   33.0863 F   0  0  0  0  0  0  0  0  0  0  0  0
  -29.1903   -5.1364   31.0328 F   0  0  0  0  0  0  0  0  0  0  0  0
  -30.2552   -1.7807   31.8201 N   0  0  0  0  0  0  0  0  0  0  0  0
  -30.2994   -1.1844   32.7897 C   0  0  0  0  0  0  0  0  0  0  0  0
  -30.5462   -0.1819   33.1631 C   0  0  0  0  0  0  0  0  0  0  0  0
  -31.0408    0.8279   32.2354 C   0  0  0  0  0  0  0  0  0  0  0  0
  -31.2627    0.2741   30.9466 C   0  0  0  0  0  0  0  0  0  0  0  0
  -30.8538   -1.0834   30.6391 C   0  0  0  0  0  0  0  0  0  0  0  0
  6  7  1  0
  3  8  1  0
 10 11  1  0
  7 15  1  0
 15 16  1  0
 16 17  1  0
 16 18  1  0
 16 19  1  0
 15 20  1  0
 20 21  1  0
 22 23  1  0
 20 25  1  0
 24 25  1  0
 21 22  1  0
 23 24  1  0
  1  2  2  0
  2  3  1  0
  3  4  2  0
  4  5  1  0
  5  6  2  0
  6  1  1  0
  8  9  2  0
  9 10  1  0
 10 13  2  0
 13 14  1  0
 14 12  2  0
 12  8  1  0
M  END

$$$$
