No_1753-gen_results/8p0m/2024-11-27-11-27-31/
     RDKit          3D

 18 19  0  0  0  0  0  0  0  0999 V2000
  -28.0162   -0.8135   28.8779 C   0  0  0  0  0  0  0  0  0  0  0  0
  -27.0636   -0.1189   28.6079 C   0  0  0  0  0  0  0  0  0  0  0  0
  -25.7923   -0.4302   29.0761 C   0  0  0  0  0  0  0  0  0  0  0  0
  -25.5756   -1.5654   29.9363 C   0  0  0  0  0  0  0  0  0  0  0  0
  -26.7354   -2.3004   30.2173 C   0  0  0  0  0  0  0  0  0  0  0  0
  -27.9184   -1.9537   29.7629 C   0  0  0  0  0  0  0  0  0  0  0  0
  -27.1057    1.1023   27.7593 C   0  0  0  0  0  0  0  0  0  0  0  0
  -26.1219    1.4820   27.0232 C   0  0  0  0  0  0  0  0  0  0  0  0
  -24.7142    1.1299   27.4889 C   0  0  0  0  0  0  0  0  0  0  0  0
  -24.5718    0.0966   28.4066 C   0  0  0  0  0  0  0  0  0  0  0  0
  -23.5495    1.7790   26.9027 C   0  0  0  0  0  0  0  0  0  0  0  0
  -22.7570    2.5404   26.9975 N   0  0  0  0  0  0  0  0  0  0  0  0
  -28.9634   -2.6627   30.1722 F   0  0  0  0  0  0  0  0  0  0  0  0
  -23.0251   -0.3563   28.8577 Cl  0  0  0  0  0  0  0  0  0  0  0  0
  -28.4864    1.5755   27.3871 C   0  0  0  0  0  0  0  0  0  0  0  0
  -28.9476    2.4054   28.1170 O   0  0  0  0  0  0  0  0  0  0  0  0
  -29.0733    1.0216   26.4205 O   0  0  0  0  0  0  0  0  0  0  0  0
  -26.1987    2.4937   26.2283 O   0  0  0  0  0  0  0  0  0  0  0  0
  9 11  1  0
 11 12  3  0
  6 13  1  0
 10 14  1  0
  7 15  1  0
 15 16  1  0
 15 17  2  0
  8 18  1  0
  1  2  2  0
  3  4  2  0
  4  5  1  0
  5  6  2  0
  6  1  1  0
  2  3  1  0
  3 10  1  0
 10  9  2  0
  9  8  1  0
  8  7  2  0
  7  2  1  0
M  END

$$$$
