No_1046-gen_results/8p0m/2024-11-27-11-27-31/
     RDKit          3D

 21 24  0  0  0  0  0  0  0  0999 V2000
  -28.0162   -0.8135   28.8779 C   0  0  0  0  0  0  0  0  0  0  0  0
  -27.0636   -0.1189   28.6079 C   0  0  0  0  0  0  0  0  0  0  0  0
  -25.7647   -0.3897   29.0360 C   0  0  0  0  0  0  0  0  0  0  0  0
  -25.5296   -1.5302   29.9014 C   0  0  0  0  0  0  0  0  0  0  0  0
  -26.6888   -2.2893   30.1810 C   0  0  0  0  0  0  0  0  0  0  0  0
  -27.8727   -1.9508   29.7373 C   0  0  0  0  0  0  0  0  0  0  0  0
  -28.9304   -2.7298   30.1154 O   0  0  0  0  0  0  0  0  0  0  0  0
  -24.6507    0.3849   28.7753 O   0  0  0  0  0  0  0  0  0  0  0  0
  -23.4144    0.1536   29.1812 C   0  0  0  0  0  0  0  0  0  0  0  0
  -22.4427    1.0140   28.6679 C   0  0  0  0  0  0  0  0  0  0  0  0
  -21.1587    0.5921   28.2675 C   0  0  0  0  0  0  0  0  0  0  0  0
  -20.8499   -0.6878   28.8668 C   0  0  0  0  0  0  0  0  0  0  0  0
  -21.8139   -1.5283   29.4154 C   0  0  0  0  0  0  0  0  0  0  0  0
  -23.0921   -1.1355   29.5084 C   0  0  0  0  0  0  0  0  0  0  0  0
  -24.2612   -1.9397   30.1762 N   0  0  0  0  0  0  0  0  0  0  0  0
  -30.0471   -2.2326   30.6059 C   0  0  0  0  0  0  0  0  0  0  0  0
  -31.0777   -2.9636   30.2690 C   0  0  0  0  0  0  0  0  0  0  0  0
  -32.4118   -2.4229   30.4620 C   0  0  0  0  0  0  0  0  0  0  0  0
  -32.5350   -1.4154   30.4143 C   0  0  0  0  0  0  0  0  0  0  0  0
  -31.5282   -0.3784   30.7296 C   0  0  0  0  0  0  0  0  0  0  0  0
  -30.1413   -0.8340   30.1845 C   0  0  0  0  0  0  0  0  0  0  0  0
  6  7  1  0
  3  8  1  0
  8  9  1  0
  4 15  1  0
 14 15  1  0
  7 16  1  0
  1  2  2  0
  2  3  1  0
  3  4  2  0
  4  5  1  0
  5  6  2  0
  6  1  1  0
  9 10  2  0
 10 11  1  0
 11 12  2  0
 12 13  1  0
 13 14  2  0
 14  9  1  0
 16 17  2  0
 17 18  1  0
 18 19  2  0
 19 20  1  0
 20 21  2  0
 21 16  1  0
M  END

$$$$
