No_1051-gen_results/8p0m/2024-11-27-11-27-31/
     RDKit          3D

  7  7  0  0  0  0  0  0  0  0999 V2000
  -28.1493   -0.8198   28.9079 Cl  0  0  0  0  0  0  0  0  0  0  0  0
  -28.5324   -0.0471   29.7727 C   0  0  0  0  0  0  0  0  0  0  0  0
  -29.7006    0.0350   30.2420 C   0  0  0  0  0  0  0  0  0  0  0  0
  -27.4574    0.8974   30.3816 C   0  0  0  0  0  0  0  0  0  0  0  0
  -27.8536    1.8525   31.4456 C   0  0  0  0  0  0  0  0  0  0  0  0
  -30.0619    1.0516   31.3474 C   0  0  0  0  0  0  0  0  0  0  0  0
  -29.1241    1.8665   31.8749 C   0  0  0  0  0  0  0  0  0  0  0  0
  1  2  1  0
  2  3  2  0
  3  6  1  0
  6  7  2  0
  7  5  1  0
  5  4  2  0
  4  2  1  0
M  END

$$$$
