No_1233-gen_results/8p0m/2024-11-27-11-27-31/
     RDKit          3D

 11 11  0  0  0  0  0  0  0  0999 V2000
  -28.0162   -0.8135   28.8779 C   0  0  0  0  0  0  0  0  0  0  0  0
  -28.4690   -0.7850   29.8287 C   0  0  0  0  0  0  0  0  0  0  0  0
  -26.5042   -0.7777   28.8766 C   0  0  0  0  0  0  0  0  0  0  0  0
  -25.7623   -0.0022   27.9705 C   0  0  0  0  0  0  0  0  0  0  0  0
  -27.9832   -1.4903   31.0818 C   0  0  0  0  0  0  0  0  0  0  0  0
  -26.6062   -1.5983   31.1298 C   0  0  0  0  0  0  0  0  0  0  0  0
  -25.8085   -1.2512   30.0553 C   0  0  0  0  0  0  0  0  0  0  0  0
  -26.1933    0.3675   26.8153 C   0  0  0  0  0  0  0  0  0  0  0  0
  -25.3587    1.0203   25.8454 C   0  0  0  0  0  0  0  0  0  0  0  0
  -24.0506    1.2946   26.1296 C   0  0  0  0  0  0  0  0  0  0  0  0
  -23.5606    0.9667   27.4247 C   0  0  0  0  0  0  0  0  0  0  0  0
  4  8  1  0
  8  9  2  3
  9 10  1  0
 10 11  2  0
  4  3  1  0
  1  2  2  0
  2  5  1  0
  5  6  2  0
  6  7  1  0
  7  3  2  0
  3  1  1  0
M  END

$$$$
