No_1608-gen_results/8p0m/2024-11-27-11-27-31/
     RDKit          3D

 14 15  0  0  0  0  0  0  0  0999 V2000
  -28.0162   -0.8135   28.8779 C   0  0  0  0  0  0  0  0  0  0  0  0
  -28.4690   -0.7850   29.8287 C   0  0  0  0  0  0  0  0  0  0  0  0
  -26.5042   -0.7777   28.8766 C   0  0  0  0  0  0  0  0  0  0  0  0
  -25.6540   -0.6597   27.7191 C   0  0  0  0  0  0  0  0  0  0  0  0
  -27.9180   -0.9374   31.1824 C   0  0  0  0  0  0  0  0  0  0  0  0
  -26.5423   -0.9399   31.2606 C   0  0  0  0  0  0  0  0  0  0  0  0
  -25.7832   -0.8935   30.1201 C   0  0  0  0  0  0  0  0  0  0  0  0
  -24.3096   -0.3015   27.8531 C   0  0  0  0  0  0  0  0  0  0  0  0
  -23.6669   -0.4595   29.0986 C   0  0  0  0  0  0  0  0  0  0  0  0
  -24.3474   -0.7873   30.2643 C   0  0  0  0  0  0  0  0  0  0  0  0
  -22.1903   -0.2573   29.1586 C   0  0  0  0  0  0  0  0  0  0  0  0
  -21.5817    0.8735   29.2763 N   0  0  0  0  0  0  0  0  0  0  0  0
  -21.5001   -1.3443   29.0171 O   0  0  0  0  0  0  0  0  0  0  0  0
  -29.8902   -0.9116   30.0083 F   0  0  0  0  0  0  0  0  0  0  0  0
  9 11  1  0
 11 12  1  0
 11 13  2  0
  2 14  1  0
  1  2  2  0
  2  5  1  0
  5  6  2  0
  6  7  1  0
  3  1  1  0
  3  4  2  0
  4  8  1  0
  8  9  2  0
  9 10  1  0
 10  7  2  0
  7  3  1  0
M  END

$$$$
