No_1497-gen_results/8p0m/2024-11-27-11-27-31/
     RDKit          3D

 16 18  0  0  0  0  0  0  0  0999 V2000
  -28.0162   -0.8135   28.8779 C   0  0  0  0  0  0  0  0  0  0  0  0
  -27.0636   -0.1189   28.6079 C   0  0  0  0  0  0  0  0  0  0  0  0
  -27.0010    0.6913   27.4910 C   0  0  0  0  0  0  0  0  0  0  0  0
  -25.8548    1.4825   27.0830 C   0  0  0  0  0  0  0  0  0  0  0  0
  -24.6901    1.4526   27.8807 C   0  0  0  0  0  0  0  0  0  0  0  0
  -24.7379    0.6010   29.0416 C   0  0  0  0  0  0  0  0  0  0  0  0
  -25.8234   -0.1688   29.3887 C   0  0  0  0  0  0  0  0  0  0  0  0
  -28.7350   -0.4637   30.1419 C   0  0  0  0  0  0  0  0  0  0  0  0
  -29.8111   -1.3049   30.6007 C   0  0  0  0  0  0  0  0  0  0  0  0
  -23.6598    2.1375   27.5843 F   0  0  0  0  0  0  0  0  0  0  0  0
  -30.9016   -1.0668   30.6484 C   0  0  0  0  0  0  0  0  0  0  0  0
  -31.3449    0.2688   30.2711 C   0  0  0  0  0  0  0  0  0  0  0  0
  -30.4153    1.2783   30.2295 C   0  0  0  0  0  0  0  0  0  0  0  0
  -29.3738    0.9136   29.9245 C   0  0  0  0  0  0  0  0  0  0  0  0
  -27.7218   -0.2854   31.3474 C   0  0  0  0  0  0  0  0  0  0  0  0
  -26.3564    0.2352   30.9120 C   0  0  0  0  0  0  0  0  0  0  0  0
  1  2  1  0
  1  8  1  0
  8  9  1  0
  5 10  1  0
 11 12  1  0
  8 14  1  0
 13 14  1  0
  8 15  1  0
  7 16  1  0
 15 16  1  0
  9 11  1  0
 12 13  1  0
  2  3  2  0
  3  4  1  0
  4  5  2  0
  5  6  1  0
  6  7  2  0
  7  2  1  0
M  END

$$$$
