No_143-gen_results/8p0m/2024-11-27-11-27-31/
     RDKit          3D

 35 38  0  0  0  0  0  0  0  0999 V2000
  -28.0162   -0.8135   28.8779 C   0  0  0  0  0  0  0  0  0  0  0  0
  -27.0636   -0.1189   28.6079 C   0  0  0  0  0  0  0  0  0  0  0  0
  -25.7647   -0.3897   29.0360 C   0  0  0  0  0  0  0  0  0  0  0  0
  -24.5516    0.4058   28.7646 C   0  0  0  0  0  0  0  0  0  0  0  0
  -23.2300    0.1178   29.2575 C   0  0  0  0  0  0  0  0  0  0  0  0
  -22.1393    0.9427   28.9224 C   0  0  0  0  0  0  0  0  0  0  0  0
  -27.8294   -1.9287   29.8545 C   0  0  0  0  0  0  0  0  0  0  0  0
  -26.5882   -2.3272   30.2682 C   0  0  0  0  0  0  0  0  0  0  0  0
  -25.4565   -1.5432   29.9146 C   0  0  0  0  0  0  0  0  0  0  0  0
  -22.2302    1.9089   27.8723 C   0  0  0  0  0  0  0  0  0  0  0  0
  -24.6745    1.7035   28.1407 C   0  0  0  0  0  0  0  0  0  0  0  0
  -23.5073    2.3437   27.5742 C   0  0  0  0  0  0  0  0  0  0  0  0
  -28.9763   -2.7754   30.2520 C   0  0  0  0  0  0  0  0  0  0  0  0
  -28.9001   -4.0004   30.3366 O   0  0  0  0  0  0  0  0  0  0  0  0
  -29.9361   -2.1645   30.9819 N   0  0  0  0  0  0  0  0  0  0  0  0
  -31.0769   -2.9366   31.5410 C   0  0  0  0  0  0  0  0  0  0  0  0
  -31.9488   -2.1149   32.0887 C   0  0  0  0  0  0  0  0  0  0  0  0
  -31.8114   -0.8724   31.9831 C   0  0  0  0  0  0  0  0  0  0  0  0
  -30.2886   -0.7821   31.2369 C   0  0  0  0  0  0  0  0  0  0  0  0
  -29.6831    0.2124   30.9729 O   0  0  0  0  0  0  0  0  0  0  0  0
  -32.2879    0.3901   32.3632 C   0  0  0  0  0  0  0  0  0  0  0  0
  -31.7583    1.3314   32.7066 O   0  0  0  0  0  0  0  0  0  0  0  0
  -33.6237    0.3340   32.2609 O   0  0  0  0  0  0  0  0  0  0  0  0
  -33.1785   -2.6484   32.7375 C   0  0  0  0  0  0  0  0  0  0  0  0
  -33.4071   -3.9932   32.4789 C   0  0  0  0  0  0  0  0  0  0  0  0
  -34.1165   -4.6780   33.1726 C   0  0  0  0  0  0  0  0  0  0  0  0
  -34.6494   -4.0876   34.3673 C   0  0  0  0  0  0  0  0  0  0  0  0
  -34.4982   -2.7516   34.6470 C   0  0  0  0  0  0  0  0  0  0  0  0
  -33.6011   -2.0905   33.9439 C   0  0  0  0  0  0  0  0  0  0  0  0
  -35.5806   -4.8452   35.0544 F   0  0  0  0  0  0  0  0  0  0  0  0
  -34.2324    0.7400   31.1885 C   0  0  0  0  0  0  0  0  0  0  0  0
  -35.4107    1.4061   31.5575 C   0  0  0  0  0  0  0  0  0  0  0  0
  -35.9706    1.4980   32.6431 C   0  0  0  0  0  0  0  0  0  0  0  0
  -36.7541    1.8312   33.2077 C   0  0  0  0  0  0  0  0  0  0  0  0
  -37.8138    2.5888   32.5429 C   0  0  0  0  0  0  0  0  0  0  0  0
  3  4  1  0
  7 13  1  0
 13 14  2  0
 13 15  1  0
 15 16  1  0
 16 17  1  0
 17 18  2  0
 15 19  1  0
 18 19  1  0
 19 20  2  0
 18 21  1  0
 21 22  2  0
 21 23  1  0
 17 24  1  0
 27 30  1  0
 23 31  1  0
 31 32  1  0
 32 33  2  3
 33 34  1  0
 34 35  2  0
 24 25  2  0
 25 26  1  0
 26 27  2  0
 27 28  1  0
 28 29  2  0
 29 24  1  0
  1  2  2  0
  2  3  1  0
  3  9  2  0
  9  8  1  0
  8  7  2  0
  7  1  1  0
  4  5  2  0
  5  6  1  0
  6 10  2  0
 10 12  1  0
 12 11  2  0
 11  4  1  0
M  END

$$$$
