No_1278-gen_results/8p0m/2024-11-27-11-27-31/
     RDKit          3D

 15 16  0  0  0  0  0  0  0  0999 V2000
  -28.0162   -0.8135   28.8779 C   0  0  0  0  0  0  0  0  0  0  0  0
  -27.0636   -0.1189   28.6079 C   0  0  0  0  0  0  0  0  0  0  0  0
  -25.7923   -0.4302   29.0761 C   0  0  0  0  0  0  0  0  0  0  0  0
  -24.5456    0.3494   28.8225 C   0  0  0  0  0  0  0  0  0  0  0  0
  -24.6586    1.4196   27.8878 C   0  0  0  0  0  0  0  0  0  0  0  0
  -25.9471    1.6811   27.3792 C   0  0  0  0  0  0  0  0  0  0  0  0
  -27.0439    0.9739   27.6871 C   0  0  0  0  0  0  0  0  0  0  0  0
  -28.6597   -0.4600   30.2006 C   0  0  0  0  0  0  0  0  0  0  0  0
  -29.7497   -1.2486   30.6773 C   0  0  0  0  0  0  0  0  0  0  0  0
  -23.4472    2.1466   27.5918 C   0  0  0  0  0  0  0  0  0  0  0  0
  -22.2595    1.7395   28.0790 N   0  0  0  0  0  0  0  0  0  0  0  0
  -23.4832    3.0206   26.5669 N   0  0  0  0  0  0  0  0  0  0  0  0
  -30.1979   -2.1805   29.8905 C   0  0  0  0  0  0  0  0  0  0  0  0
  -29.7611   -2.5983   28.7911 C   0  0  0  0  0  0  0  0  0  0  0  0
  -28.6548   -1.8629   28.3098 N   0  0  0  0  0  0  0  0  0  0  0  0
  1  2  1  0
  5 10  1  0
 10 11  2  0
 10 12  1  0
  1  8  2  0
  8  9  1  0
  9 13  2  0
 13 14  1  0
 14 15  2  0
 15  1  1  0
  2  3  2  0
  3  4  1  0
  4  5  2  0
  5  6  1  0
  6  7  2  0
  7  2  1  0
M  END

$$$$
