No_1017-gen_results/8p0m/2024-11-27-11-27-31/
     RDKit          3D

 12 12  0  0  0  0  0  0  0  0999 V2000
  -28.0162   -0.8135   28.8779 C   0  0  0  0  0  0  0  0  0  0  0  0
  -28.4690   -0.7850   29.8287 C   0  0  0  0  0  0  0  0  0  0  0  0
  -27.1356    0.2359   28.5352 C   0  0  0  0  0  0  0  0  0  0  0  0
  -26.8745    1.2825   29.3982 C   0  0  0  0  0  0  0  0  0  0  0  0
  -28.3613    0.1987   30.9244 C   0  0  0  0  0  0  0  0  0  0  0  0
  -27.5277    1.2234   30.6356 C   0  0  0  0  0  0  0  0  0  0  0  0
  -26.4487    0.2864   27.3121 N   0  0  0  0  0  0  0  0  0  0  0  0
  -25.5451    1.2898   27.0262 C   0  0  0  0  0  0  0  0  0  0  0  0
  -24.3351    1.2075   27.1164 C   0  0  0  0  0  0  0  0  0  0  0  0
  -23.5683    0.1918   27.8203 C   0  0  0  0  0  0  0  0  0  0  0  0
  -22.2061    0.3511   28.2139 C   0  0  0  0  0  0  0  0  0  0  0  0
  -21.5075    1.4532   27.7185 C   0  0  0  0  0  0  0  0  0  0  0  0
  3  7  1  0
  7  8  1  0
  8  9  2  3
  9 10  1  0
 10 11  2  3
 11 12  1  0
  1  2  2  0
  2  5  1  0
  5  6  2  0
  6  4  1  0
  4  3  2  0
  3  1  1  0
M  END

$$$$
