No_1727-gen_results/8p0m/2024-11-27-11-27-31/
     RDKit          3D

 30 33  0  0  0  0  0  0  0  0999 V2000
  -28.0162   -0.8135   28.8779 C   0  0  0  0  0  0  0  0  0  0  0  0
  -28.4690   -0.7850   29.8287 C   0  0  0  0  0  0  0  0  0  0  0  0
  -28.1960    0.3478   28.0550 C   0  0  0  0  0  0  0  0  0  0  0  0
  -29.0191    1.3501   28.3782 C   0  0  0  0  0  0  0  0  0  0  0  0
  -29.4107    0.1803   30.3782 C   0  0  0  0  0  0  0  0  0  0  0  0
  -29.6059    1.2495   29.6193 C   0  0  0  0  0  0  0  0  0  0  0  0
  -27.3362    0.3775   26.5214 Cl  0  0  0  0  0  0  0  0  0  0  0  0
  -30.0314   -0.0282   31.7602 C   0  0  0  0  0  0  0  0  0  0  0  0
  -29.7898    0.8698   32.6446 C   0  0  0  0  0  0  0  0  0  0  0  0
  -30.4261    0.7484   33.9585 C   0  0  0  0  0  0  0  0  0  0  0  0
  -31.1919   -0.3626   34.2137 C   0  0  0  0  0  0  0  0  0  0  0  0
  -30.7733   -1.1722   32.0175 C   0  0  0  0  0  0  0  0  0  0  0  0
  -31.3529   -1.3394   33.2456 C   0  0  0  0  0  0  0  0  0  0  0  0
  -28.2248   -2.2630   30.9554 Cl  0  0  0  0  0  0  0  0  0  0  0  0
  -29.2225    2.5174   27.5119 C   0  0  0  0  0  0  0  0  0  0  0  0
  -30.6582    2.1141   30.1432 C   0  0  0  0  0  0  0  0  0  0  0  0
  -31.6534    2.2012   29.9312 C   0  0  0  0  0  0  0  0  0  0  0  0
  -32.5902    3.1790   30.4825 C   0  0  0  0  0  0  0  0  0  0  0  0
  -32.4028    1.1132   29.3048 C   0  0  0  0  0  0  0  0  0  0  0  0
  -33.7984    0.9466   29.3976 C   0  0  0  0  0  0  0  0  0  0  0  0
  -33.9947    3.0980   30.4708 C   0  0  0  0  0  0  0  0  0  0  0  0
  -34.5761    1.9983   29.8582 C   0  0  0  0  0  0  0  0  0  0  0  0
  -28.5087    3.5987   27.5763 N   0  0  0  0  0  0  0  0  0  0  0  0
  -30.2163    2.4065   26.6830 O   0  0  0  0  0  0  0  0  0  0  0  0
  -27.3823    3.8637   28.4478 C   0  0  0  0  0  0  0  0  0  0  0  0
  -27.1568    4.6058   29.1427 C   0  0  0  0  0  0  0  0  0  0  0  0
  -26.4609    4.8695   29.9941 C   0  0  0  0  0  0  0  0  0  0  0  0
  -25.3174    3.9261   30.1429 C   0  0  0  0  0  0  0  0  0  0  0  0
  -25.2912    2.8665   29.2741 C   0  0  0  0  0  0  0  0  0  0  0  0
  -26.3969    2.7384   28.4272 C   0  0  0  0  0  0  0  0  0  0  0  0
  3  7  1  0
  5  8  1  0
  2 14  1  0
  4 15  1  0
  6 16  1  0
 15 23  1  0
 15 24  2  0
 23 25  1  0
 16 17  1  0
 25 26  2  0
 26 27  1  0
 27 28  2  0
 28 29  1  0
 29 30  2  0
 30 25  1  0
 17 18  2  0
 18 21  1  0
 21 22  2  0
 22 20  1  0
 20 19  2  0
 19 17  1  0
  1  2  2  0
  2  5  1  0
  5  6  2  0
  6  4  1  0
  4  3  2  0
  3  1  1  0
  8  9  2  0
  9 10  1  0
 10 11  2  0
 11 13  1  0
 13 12  2  0
 12  8  1  0
M  END

$$$$
