No_1741-gen_results/8p0m/2024-11-27-11-27-31/
     RDKit          3D

 22 23  0  0  0  0  0  0  0  0999 V2000
  -28.0162   -0.8135   28.8779 C   0  0  0  0  0  0  0  0  0  0  0  0
  -27.0636   -0.1189   28.6079 C   0  0  0  0  0  0  0  0  0  0  0  0
  -26.9287    1.1713   29.0083 C   0  0  0  0  0  0  0  0  0  0  0  0
  -27.9560    1.7411   29.7840 C   0  0  0  0  0  0  0  0  0  0  0  0
  -29.0569   -0.3271   29.7466 C   0  0  0  0  0  0  0  0  0  0  0  0
  -28.9828    0.9722   30.1516 C   0  0  0  0  0  0  0  0  0  0  0  0
  -25.8815   -0.6260   27.7945 C   0  0  0  0  0  0  0  0  0  0  0  0
  -24.6972   -1.0572   28.6241 C   0  0  0  0  0  0  0  0  0  0  0  0
  -24.6429   -2.2546   29.1042 C   0  0  0  0  0  0  0  0  0  0  0  0
  -23.6235   -0.1510   28.7891 C   0  0  0  0  0  0  0  0  0  0  0  0
  -23.4091    1.1597   28.3094 C   0  0  0  0  0  0  0  0  0  0  0  0
  -24.1728    2.1886   28.4937 C   0  0  0  0  0  0  0  0  0  0  0  0
  -24.0721    3.4259   27.8063 C   0  0  0  0  0  0  0  0  0  0  0  0
  -25.0383    4.4381   27.9950 C   0  0  0  0  0  0  0  0  0  0  0  0
  -25.1922    5.4514   27.0874 C   0  0  0  0  0  0  0  0  0  0  0  0
  -22.5403   -0.7618   29.5970 C   0  0  0  0  0  0  0  0  0  0  0  0
  -25.9301    6.5945   27.3702 C   0  0  0  0  0  0  0  0  0  0  0  0
  -26.7245    6.5932   28.5192 C   0  0  0  0  0  0  0  0  0  0  0  0
  -26.6709    5.5662   29.4011 C   0  0  0  0  0  0  0  0  0  0  0  0
  -25.7820    4.5075   29.1867 C   0  0  0  0  0  0  0  0  0  0  0  0
  -22.2141    1.3371   27.4743 C   0  0  0  0  0  0  0  0  0  0  0  0
  -30.0331    1.4441   30.9297 O   0  0  0  0  0  0  0  0  0  0  0  0
  2  7  1  0
  7  8  1  0
  8  9  1  0
  8 10  1  0
 10 11  1  0
 11 12  2  3
 12 13  1  0
 10 16  1  0
 11 21  1  0
  6 22  1  0
 13 14  1  0
 14 15  2  0
 15 17  1  0
 17 18  2  0
 18 19  1  0
 19 20  2  0
 20 14  1  0
  1  2  2  0
  2  3  1  0
  3  4  2  0
  4  6  1  0
  6  5  2  0
  5  1  1  0
M  END

$$$$
