No_1333-gen_results/8p0m/2024-11-27-11-27-31/
     RDKit          3D

 23 24  0  0  0  0  0  0  0  0999 V2000
  -28.0162   -0.8135   28.8779 C   0  0  0  0  0  0  0  0  0  0  0  0
  -27.0636   -0.1189   28.6079 C   0  0  0  0  0  0  0  0  0  0  0  0
  -26.9287    1.1713   29.0083 C   0  0  0  0  0  0  0  0  0  0  0  0
  -25.7702    2.0341   28.6884 C   0  0  0  0  0  0  0  0  0  0  0  0
  -24.7141    1.4431   27.9188 C   0  0  0  0  0  0  0  0  0  0  0  0
  -24.8590    0.0783   27.5836 C   0  0  0  0  0  0  0  0  0  0  0  0
  -25.9647   -0.6606   27.9164 C   0  0  0  0  0  0  0  0  0  0  0  0
  -29.1701   -0.2984   28.9471 N   0  0  0  0  0  0  0  0  0  0  0  0
  -30.1841   -0.8920   29.7048 C   0  0  0  0  0  0  0  0  0  0  0  0
  -23.5181    2.1583   27.5785 C   0  0  0  0  0  0  0  0  0  0  0  0
  -22.4095    2.1351   28.1983 N   0  0  0  0  0  0  0  0  0  0  0  0
  -23.2974    2.1351   26.0724 C   0  0  0  0  0  0  0  0  0  0  0  0
  -29.8594   -2.0698   30.3636 C   0  0  0  0  0  0  0  0  0  0  0  0
  -28.5715   -2.5797   30.4194 C   0  0  0  0  0  0  0  0  0  0  0  0
  -27.6241   -1.8810   29.8434 C   0  0  0  0  0  0  0  0  0  0  0  0
  -31.3802   -0.5133   29.5847 O   0  0  0  0  0  0  0  0  0  0  0  0
  -30.9131   -2.8369   31.1213 C   0  0  0  0  0  0  0  0  0  0  0  0
  -31.9266   -2.3512   31.4055 F   0  0  0  0  0  0  0  0  0  0  0  0
  -30.7308   -4.0741   31.2829 F   0  0  0  0  0  0  0  0  0  0  0  0
  -25.6200    3.4165   29.1008 C   0  0  0  0  0  0  0  0  0  0  0  0
  -26.7661    4.0000   29.3197 O   0  0  0  0  0  0  0  0  0  0  0  0
  -27.5277    3.8885   30.0793 C   0  0  0  0  0  0  0  0  0  0  0  0
  -27.2685    4.0312   31.3708 C   0  0  0  0  0  0  0  0  0  0  0  0
  1  2  1  0
  1  8  1  0
  8  9  1  0
  5 10  1  0
 10 11  1  0
 10 12  1  0
  9 13  1  0
  1 15  1  0
 14 15  1  0
  9 16  2  0
 13 17  1  0
 17 18  1  0
 17 19  1  0
  4 20  1  0
 20 21  1  0
 21 22  1  0
 22 23  2  0
 14 13  1  0
  2  3  2  0
  3  4  1  0
  4  5  2  0
  5  6  1  0
  6  7  2  0
  7  2  1  0
M  END

$$$$
