No_1897-gen_results/8p0m/2024-11-27-11-27-31/
     RDKit          3D

 15 16  0  0  0  0  0  0  0  0999 V2000
  -28.1493   -0.8198   28.9079 Cl  0  0  0  0  0  0  0  0  0  0  0  0
  -27.8339    0.4961   29.0598 C   0  0  0  0  0  0  0  0  0  0  0  0
  -27.6022    1.0128   30.2974 C   0  0  0  0  0  0  0  0  0  0  0  0
  -27.1699    2.3964   30.5338 C   0  0  0  0  0  0  0  0  0  0  0  0
  -26.9133    3.1828   29.3680 C   0  0  0  0  0  0  0  0  0  0  0  0
  -27.0551    2.6221   28.1384 C   0  0  0  0  0  0  0  0  0  0  0  0
  -27.4622    1.3345   27.9669 C   0  0  0  0  0  0  0  0  0  0  0  0
  -26.4033    4.5344   29.3638 C   0  0  0  0  0  0  0  0  0  0  0  0
  -26.6290    5.5321   29.0009 N   0  0  0  0  0  0  0  0  0  0  0  0
  -25.8498    6.6776   29.1551 C   0  0  0  0  0  0  0  0  0  0  0  0
  -25.2373    7.3196   28.0996 C   0  0  0  0  0  0  0  0  0  0  0  0
  -24.4312    8.4434   28.2475 C   0  0  0  0  0  0  0  0  0  0  0  0
  -24.0980    8.9017   29.5329 C   0  0  0  0  0  0  0  0  0  0  0  0
  -25.4077    7.2588   30.3993 C   0  0  0  0  0  0  0  0  0  0  0  0
  -24.6384    8.2804   30.5997 C   0  0  0  0  0  0  0  0  0  0  0  0
  1  2  1  0
  5  8  1  0
  8  9  2  3
  9 10  1  0
  2  3  2  0
  3  4  1  0
  4  5  2  0
  5  6  1  0
  6  7  2  0
  7  2  1  0
 10 11  2  0
 11 12  1  0
 12 13  2  0
 13 15  1  0
 15 14  2  0
 14 10  1  0
M  END

$$$$
