No_1836-gen_results/8p0m/2024-11-27-11-27-31/
     RDKit          3D

 29 32  0  0  0  0  0  0  0  0999 V2000
  -28.0162   -0.8135   28.8779 C   0  0  0  0  0  0  0  0  0  0  0  0
  -28.4690   -0.7850   29.8287 C   0  0  0  0  0  0  0  0  0  0  0  0
  -27.0871    0.2903   28.6377 C   0  0  0  0  0  0  0  0  0  0  0  0
  -26.8317    1.2487   29.5869 C   0  0  0  0  0  0  0  0  0  0  0  0
  -28.3914    0.0801   31.0065 C   0  0  0  0  0  0  0  0  0  0  0  0
  -27.4940    1.1521   30.7841 C   0  0  0  0  0  0  0  0  0  0  0  0
  -26.3109    0.3918   27.3640 C   0  0  0  0  0  0  0  0  0  0  0  0
  -24.9686    0.2477   27.4806 C   0  0  0  0  0  0  0  0  0  0  0  0
  -26.9237    0.5760   26.1378 C   0  0  0  0  0  0  0  0  0  0  0  0
  -28.2756    0.6826   25.9801 C   0  0  0  0  0  0  0  0  0  0  0  0
  -28.7840    0.7118   24.6873 C   0  0  0  0  0  0  0  0  0  0  0  0
  -30.1764    0.8329   24.4848 C   0  0  0  0  0  0  0  0  0  0  0  0
  -30.9981    0.8550   25.5515 C   0  0  0  0  0  0  0  0  0  0  0  0
  -30.5177    0.8330   26.8554 C   0  0  0  0  0  0  0  0  0  0  0  0
  -29.2028    0.7841   27.0710 C   0  0  0  0  0  0  0  0  0  0  0  0
  -26.0422    0.6924   25.0068 C   0  0  0  0  0  0  0  0  0  0  0  0
  -24.2299    1.0796   28.3584 C   0  0  0  0  0  0  0  0  0  0  0  0
  -22.8146    1.0257   28.2428 C   0  0  0  0  0  0  0  0  0  0  0  0
  -21.7298    1.0820   28.0519 C   0  0  0  0  0  0  0  0  0  0  0  0
  -24.6844    1.8824   29.4000 C   0  0  0  0  0  0  0  0  0  0  0  0
  -26.0417    2.5146   29.4587 C   0  0  0  0  0  0  0  0  0  0  0  0
  -26.1814    3.5130   30.5335 C   0  0  0  0  0  0  0  0  0  0  0  0
  -26.3363    3.2405   28.1144 C   0  0  0  0  0  0  0  0  0  0  0  0
  -25.2739    4.3183   27.7464 C   0  0  0  0  0  0  0  0  0  0  0  0
  -26.0181    4.8062   30.3637 C   0  0  0  0  0  0  0  0  0  0  0  0
  -26.1152    5.7426   31.3796 C   0  0  0  0  0  0  0  0  0  0  0  0
  -25.4568    5.1753   28.9411 C   0  0  0  0  0  0  0  0  0  0  0  0
  -25.8537    6.8632   31.3577 O   0  0  0  0  0  0  0  0  0  0  0  0
  -26.2398    5.2133   32.6136 O   0  0  0  0  0  0  0  0  0  0  0  0
  3  7  1  0
  7  8  1  0
  7  9  1  0
  9 10  1  0
  9 16  1  0
  8 17  1  0
 17 18  1  0
 18 19  3  0
 17 20  1  0
  4 21  1  0
 20 21  1  0
 21 22  1  0
 21 23  1  0
 23 24  1  0
 22 25  1  0
 25 26  1  0
 24 27  1  0
 25 27  1  0
 26 28  2  0
 26 29  1  0
  1  2  2  0
  2  5  1  0
  5  6  2  0
  6  4  1  0
  4  3  2  0
  3  1  1  0
 10 11  2  0
 11 12  1  0
 12 13  2  0
 13 14  1  0
 14 15  2  0
 15 10  1  0
M  END

$$$$
