No_1811-gen_results/8p0m/2024-11-27-11-27-31/
     RDKit          3D

 12 13  0  0  0  0  0  0  0  0999 V2000
  -28.0162   -0.8135   28.8779 C   0  0  0  0  0  0  0  0  0  0  0  0
  -27.0636   -0.1189   28.6079 C   0  0  0  0  0  0  0  0  0  0  0  0
  -25.7647   -0.3897   29.0360 C   0  0  0  0  0  0  0  0  0  0  0  0
  -25.5296   -1.5302   29.9014 C   0  0  0  0  0  0  0  0  0  0  0  0
  -24.2910   -1.8751   30.3797 C   0  0  0  0  0  0  0  0  0  0  0  0
  -27.9084   -1.9224   29.8277 C   0  0  0  0  0  0  0  0  0  0  0  0
  -26.6512   -2.2902   30.3071 C   0  0  0  0  0  0  0  0  0  0  0  0
  -23.2431   -1.9083   29.4294 C   0  0  0  0  0  0  0  0  0  0  0  0
  -24.5160    0.2706   28.5678 C   0  0  0  0  0  0  0  0  0  0  0  0
  -23.1150   -0.3398   28.9528 C   0  0  0  0  0  0  0  0  0  0  0  0
  -24.4293    1.4383   27.8041 C   0  0  0  0  0  0  0  0  0  0  0  0
  -24.4685    2.5635   28.2331 C   0  0  0  0  0  0  0  0  0  0  0  0
  4  5  1  0
  5  8  1  0
  3  9  1  0
  8 10  1  0
  9 10  1  0
  9 11  1  0
 11 12  2  0
  1  2  2  0
  2  3  1  0
  3  4  2  0
  4  7  1  0
  7  6  2  0
  6  1  1  0
M  END

$$$$
