No_1364-gen_results/8p0m/2024-11-27-11-27-31/
     RDKit          3D

 25 28  0  0  0  0  0  0  0  0999 V2000
  -28.1229   -1.3353   28.4874 O   0  0  0  0  0  0  0  0  0  0  0  0
  -27.4806   -0.4044   28.7094 C   0  0  0  0  0  0  0  0  0  0  0  0
  -26.3804   -0.0867   27.9394 C   0  0  0  0  0  0  0  0  0  0  0  0
  -27.6664    0.4468   29.8988 N   0  0  0  0  0  0  0  0  0  0  0  0
  -25.1773   -0.4388   28.3946 C   0  0  0  0  0  0  0  0  0  0  0  0
  -23.9281   -0.2469   27.6677 C   0  0  0  0  0  0  0  0  0  0  0  0
  -22.6980   -0.4046   28.4363 C   0  0  0  0  0  0  0  0  0  0  0  0
  -22.7943   -1.0875   29.7065 C   0  0  0  0  0  0  0  0  0  0  0  0
  -23.9663   -1.4068   30.3034 C   0  0  0  0  0  0  0  0  0  0  0  0
  -25.1322   -1.0549   29.7159 C   0  0  0  0  0  0  0  0  0  0  0  0
  -28.5898    0.7152   30.3606 C   0  0  0  0  0  0  0  0  0  0  0  0
  -29.2761    1.5439   30.3942 C   0  0  0  0  0  0  0  0  0  0  0  0
  -30.5494    1.8168   31.1500 C   0  0  0  0  0  0  0  0  0  0  0  0
  -29.0847   -0.4523   31.3275 C   0  0  0  0  0  0  0  0  0  0  0  0
  -30.2754   -0.3426   32.0749 C   0  0  0  0  0  0  0  0  0  0  0  0
  -30.9601    0.8315   31.9946 C   0  0  0  0  0  0  0  0  0  0  0  0
  -26.5546    0.4915   26.6313 C   0  0  0  0  0  0  0  0  0  0  0  0
  -26.4251    1.7799   26.4898 C   0  0  0  0  0  0  0  0  0  0  0  0
  -26.1616    2.6743   27.6100 C   0  0  0  0  0  0  0  0  0  0  0  0
  -25.9741    4.0798   27.3927 C   0  0  0  0  0  0  0  0  0  0  0  0
  -25.6481    4.9670   28.4284 C   0  0  0  0  0  0  0  0  0  0  0  0
  -25.6645    4.4321   29.7640 C   0  0  0  0  0  0  0  0  0  0  0  0
  -25.7926    3.0853   29.9792 C   0  0  0  0  0  0  0  0  0  0  0  0
  -26.0330    2.2727   28.9351 C   0  0  0  0  0  0  0  0  0  0  0  0
  -27.1576    1.4709   29.5606 N   0  0  0  0  0  0  0  0  0  0  0  0
  1  2  2  0
  2  3  1  0
  2  4  1  0
  4 11  1  0
  3 17  1  0
 17 18  2  3
 18 19  1  0
  4 25  1  0
 25 24  1  0
  3  5  1  0
  5  6  2  0
  6  7  1  0
  7  8  2  0
  8  9  1  0
  9 10  2  0
 10  5  1  0
 19 20  2  0
 20 21  1  0
 21 22  2  0
 22 23  1  0
 23 24  2  0
 24 19  1  0
 11 12  2  0
 12 13  1  0
 13 16  2  0
 16 15  1  0
 15 14  2  0
 14 11  1  0
M  END

$$$$
