No_1630-gen_results/8p0m/2024-11-27-11-27-31/
     RDKit          3D

 10 10  0  0  0  0  0  0  0  0999 V2000
  -28.0162   -0.8135   28.8779 C   0  0  0  0  0  0  0  0  0  0  0  0
  -27.0636   -0.1189   28.6079 C   0  0  0  0  0  0  0  0  0  0  0  0
  -26.9287    1.1713   29.0083 C   0  0  0  0  0  0  0  0  0  0  0  0
  -25.7702    2.0341   28.6884 C   0  0  0  0  0  0  0  0  0  0  0  0
  -25.6189    3.3482   29.0918 C   0  0  0  0  0  0  0  0  0  0  0  0
  -29.0930   -0.3336   29.7603 C   0  0  0  0  0  0  0  0  0  0  0  0
  -29.0308    0.9547   30.1605 C   0  0  0  0  0  0  0  0  0  0  0  0
  -27.8999    1.7859   29.8348 C   0  0  0  0  0  0  0  0  0  0  0  0
  -24.7707    1.5039   27.7792 C   0  0  0  0  0  0  0  0  0  0  0  0
  -23.9360    0.7020   28.0709 C   0  0  0  0  0  0  0  0  0  0  0  0
  3  4  1  0
  4  5  1  0
  4  9  1  0
  9 10  1  0
  1  2  2  0
  2  3  1  0
  3  8  2  0
  8  7  1  0
  7  6  2  0
  6  1  1  0
M  END

$$$$
