No_1192-gen_results/8p0m/2024-11-27-11-27-31/
     RDKit          3D

 27 29  0  0  0  0  0  0  0  0999 V2000
  -28.0162   -0.8135   28.8779 C   0  0  0  0  0  0  0  0  0  0  0  0
  -28.4690   -0.7850   29.8287 C   0  0  0  0  0  0  0  0  0  0  0  0
  -26.5455   -0.8762   28.8500 C   0  0  0  0  0  0  0  0  0  0  0  0
  -25.8041   -1.0324   30.0571 C   0  0  0  0  0  0  0  0  0  0  0  0
  -27.9437   -0.9869   31.2075 C   0  0  0  0  0  0  0  0  0  0  0  0
  -26.5825   -1.0386   31.2231 C   0  0  0  0  0  0  0  0  0  0  0  0
  -30.0606   -0.7371   29.9024 C   0  0  0  0  0  0  0  0  0  0  0  0
  -30.7372   -1.7556   30.3823 C   0  0  0  0  0  0  0  0  0  0  0  0
  -32.1796   -1.7857   30.3294 C   0  0  0  0  0  0  0  0  0  0  0  0
  -32.7866   -0.6838   29.7174 C   0  0  0  0  0  0  0  0  0  0  0  0
  -30.6874    0.3184   29.2790 C   0  0  0  0  0  0  0  0  0  0  0  0
  -32.0191    0.3416   29.1969 C   0  0  0  0  0  0  0  0  0  0  0  0
  -24.3744   -1.0722   30.0654 C   0  0  0  0  0  0  0  0  0  0  0  0
  -23.7401    0.1415   29.8150 C   0  0  0  0  0  0  0  0  0  0  0  0
  -22.5036    0.1699   29.0926 C   0  0  0  0  0  0  0  0  0  0  0  0
  -21.9090    1.3564   28.7417 C   0  0  0  0  0  0  0  0  0  0  0  0
  -22.5330    2.0504   27.6703 C   0  0  0  0  0  0  0  0  0  0  0  0
  -23.9186    1.9164   27.3847 C   0  0  0  0  0  0  0  0  0  0  0  0
  -24.5755    2.9479   27.3029 C   0  0  0  0  0  0  0  0  0  0  0  0
  -26.0076    2.8702   26.8584 C   0  0  0  0  0  0  0  0  0  0  0  0
  -26.3168    1.6671   26.2567 C   0  0  0  0  0  0  0  0  0  0  0  0
  -25.4936    0.6105   26.1408 C   0  0  0  0  0  0  0  0  0  0  0  0
  -24.1582    0.6999   26.6849 C   0  0  0  0  0  0  0  0  0  0  0  0
  -32.7053    1.5076   28.5622 C   0  0  0  0  0  0  0  0  0  0  0  0
  -32.2994    2.0671   27.7082 O   0  0  0  0  0  0  0  0  0  0  0  0
  -33.5978    2.0760   29.3881 O   0  0  0  0  0  0  0  0  0  0  0  0
  -24.1733    1.3668   30.4111 C   0  0  0  0  0  0  0  0  0  0  0  0
  2  7  1  0
  4 13  1  0
 13 14  1  0
 14 15  2  3
 15 16  1  0
 16 17  2  3
 17 18  1  0
 12 24  1  0
 24 25  2  0
 24 26  1  0
 14 27  1  0
  7  8  2  0
  8  9  1  0
  9 10  2  0
 10 12  1  0
 12 11  2  0
 11  7  1  0
 18 19  2  0
 19 20  1  0
 20 21  2  0
 21 22  1  0
 22 23  2  0
 23 18  1  0
  1  2  2  0
  2  5  1  0
  5  6  2  0
  6  4  1  0
  4  3  2  0
  3  1  1  0
M  END

$$$$
