No_1229-gen_results/8p0m/2024-11-27-11-27-31/
     RDKit          3D

 15 16  0  0  0  0  0  0  0  0999 V2000
  -28.0162   -0.8135   28.8779 C   0  0  0  0  0  0  0  0  0  0  0  0
  -28.4690   -0.7850   29.8287 C   0  0  0  0  0  0  0  0  0  0  0  0
  -26.5042   -0.7777   28.8766 C   0  0  0  0  0  0  0  0  0  0  0  0
  -25.8103   -0.8531   30.1028 C   0  0  0  0  0  0  0  0  0  0  0  0
  -27.9906   -0.8916   31.2257 C   0  0  0  0  0  0  0  0  0  0  0  0
  -26.6042   -0.8676   31.2652 C   0  0  0  0  0  0  0  0  0  0  0  0
  -30.0417   -0.7687   29.6526 C   0  0  0  0  0  0  0  0  0  0  0  0
  -30.6973    0.2391   30.2017 N   0  0  0  0  0  0  0  0  0  0  0  0
  -31.3554    1.0151   29.8089 C   0  0  0  0  0  0  0  0  0  0  0  0
  -31.7446    1.9706   29.8082 C   0  0  0  0  0  0  0  0  0  0  0  0
  -32.1508    0.3867   28.7127 N   0  0  0  0  0  0  0  0  0  0  0  0
  -32.7321    2.8654   29.1845 C   0  0  0  0  0  0  0  0  0  0  0  0
  -33.0879    0.9758   27.9911 C   0  0  0  0  0  0  0  0  0  0  0  0
  -33.4203    2.2385   28.2100 C   0  0  0  0  0  0  0  0  0  0  0  0
  -30.5432   -1.6385   29.0506 O   0  0  0  0  0  0  0  0  0  0  0  0
  2  7  1  0
  7  8  1  0
  8  9  1  0
  7 15  2  0
  9 10  2  0
 10 12  1  0
 12 14  2  0
 14 13  1  0
 13 11  2  0
 11  9  1  0
  1  2  2  0
  2  5  1  0
  5  6  2  0
  6  4  1  0
  4  3  2  0
  3  1  1  0
M  END

$$$$
