No_1437-gen_results/8p0m/2024-11-27-11-27-31/
     RDKit          3D

 19 20  0  0  0  0  0  0  0  0999 V2000
  -28.0162   -0.8135   28.8779 C   0  0  0  0  0  0  0  0  0  0  0  0
  -28.4690   -0.7850   29.8287 C   0  0  0  0  0  0  0  0  0  0  0  0
  -27.0871    0.2903   28.6377 C   0  0  0  0  0  0  0  0  0  0  0  0
  -26.2516    0.4114   27.4223 C   0  0  0  0  0  0  0  0  0  0  0  0
  -28.3913    0.1041   30.9805 C   0  0  0  0  0  0  0  0  0  0  0  0
  -27.5332    1.1666   30.7866 C   0  0  0  0  0  0  0  0  0  0  0  0
  -26.8281    1.2557   29.6454 C   0  0  0  0  0  0  0  0  0  0  0  0
  -26.4954   -0.2383   26.5458 F   0  0  0  0  0  0  0  0  0  0  0  0
  -24.9920    0.2882   27.7428 F   0  0  0  0  0  0  0  0  0  0  0  0
  -26.2880    1.7595   26.9324 F   0  0  0  0  0  0  0  0  0  0  0  0
  -29.4618   -2.0263   30.2116 C   0  0  0  0  0  0  0  0  0  0  0  0
  -30.5123   -1.8802   29.8201 O   0  0  0  0  0  0  0  0  0  0  0  0
  -29.0207   -3.0487   30.8665 O   0  0  0  0  0  0  0  0  0  0  0  0
  -27.2966    2.1812   31.8331 C   0  0  0  0  0  0  0  0  0  0  0  0
  -26.5051    3.0375   31.7276 C   0  0  0  0  0  0  0  0  0  0  0  0
  -26.0879    4.0081   32.1581 C   0  0  0  0  0  0  0  0  0  0  0  0
  -26.9391    4.6796   33.1471 C   0  0  0  0  0  0  0  0  0  0  0  0
  -28.0095    3.7938   33.5489 C   0  0  0  0  0  0  0  0  0  0  0  0
  -28.3077    2.6270   32.8365 C   0  0  0  0  0  0  0  0  0  0  0  0
  3  4  1  0
  4  8  1  0
  4  9  1  0
  4 10  1  0
  2 11  1  0
 11 12  2  0
 11 13  1  0
  6 14  1  0
 14 15  2  0
 15 16  1  0
 16 17  2  0
 17 18  1  0
 18 19  2  0
 19 14  1  0
  1  2  2  0
  2  5  1  0
  5  6  2  0
  6  7  1  0
  7  3  2  0
  3  1  1  0
M  END

$$$$
