No_1507-gen_results/8p0m/2024-11-27-11-27-31/
     RDKit          3D

 35 37  0  0  0  0  0  0  0  0999 V2000
  -28.0162   -0.8135   28.8779 C   0  0  0  0  0  0  0  0  0  0  0  0
  -28.4690   -0.7850   29.8287 C   0  0  0  0  0  0  0  0  0  0  0  0
  -26.5042   -0.7777   28.8766 C   0  0  0  0  0  0  0  0  0  0  0  0
  -25.8103   -0.8531   30.1028 C   0  0  0  0  0  0  0  0  0  0  0  0
  -27.9906   -0.8916   31.2257 C   0  0  0  0  0  0  0  0  0  0  0  0
  -26.6042   -0.8676   31.2652 C   0  0  0  0  0  0  0  0  0  0  0  0
  -24.3894   -0.8050   30.1638 C   0  0  0  0  0  0  0  0  0  0  0  0
  -23.6350   -0.8621   29.1472 C   0  0  0  0  0  0  0  0  0  0  0  0
  -22.1747   -0.6734   29.2132 C   0  0  0  0  0  0  0  0  0  0  0  0
  -23.6708    0.1976   30.9737 C   0  0  0  0  0  0  0  0  0  0  0  0
  -21.5452    0.1951   28.5018 C   0  0  0  0  0  0  0  0  0  0  0  0
  -22.1149    1.1706   27.7565 N   0  0  0  0  0  0  0  0  0  0  0  0
  -23.0776    1.9895   28.3253 C   0  0  0  0  0  0  0  0  0  0  0  0
  -23.8502    2.8238   27.3448 C   0  0  0  0  0  0  0  0  0  0  0  0
  -25.0933    2.5193   27.2629 C   0  0  0  0  0  0  0  0  0  0  0  0
  -25.8304    3.2887   26.2899 C   0  0  0  0  0  0  0  0  0  0  0  0
  -27.1836    3.0277   26.0580 C   0  0  0  0  0  0  0  0  0  0  0  0
  -27.9685    3.8314   25.4254 C   0  0  0  0  0  0  0  0  0  0  0  0
  -29.3086    3.4989   25.1261 C   0  0  0  0  0  0  0  0  0  0  0  0
  -29.7134    2.1947   25.4869 C   0  0  0  0  0  0  0  0  0  0  0  0
  -31.0436    1.8722   25.2182 C   0  0  0  0  0  0  0  0  0  0  0  0
  -27.8016    1.7379   26.2854 C   0  0  0  0  0  0  0  0  0  0  0  0
  -28.9945    1.3693   26.0463 C   0  0  0  0  0  0  0  0  0  0  0  0
  -32.1412    2.5569   25.5026 C   0  0  0  0  0  0  0  0  0  0  0  0
  -31.9604    3.7283   26.3499 C   0  0  0  0  0  0  0  0  0  0  0  0
  -33.1920    4.5367   26.5858 C   0  0  0  0  0  0  0  0  0  0  0  0
  -33.1309    5.6872   27.4088 C   0  0  0  0  0  0  0  0  0  0  0  0
  -31.8679    6.0484   27.9430 C   0  0  0  0  0  0  0  0  0  0  0  0
  -30.7353    5.3263   27.6670 C   0  0  0  0  0  0  0  0  0  0  0  0
  -30.8072    4.2260   26.8353 C   0  0  0  0  0  0  0  0  0  0  0  0
  -30.0948   -0.8324   29.8186 C   0  0  0  0  0  0  0  0  0  0  0  0
  -30.7305   -0.5363   29.0861 O   0  0  0  0  0  0  0  0  0  0  0  0
  -30.7047   -0.8867   31.0711 O   0  0  0  0  0  0  0  0  0  0  0  0
  -31.2636    0.5275   24.6702 C   0  0  0  0  0  0  0  0  0  0  0  0
  -32.1865    0.1497   24.1011 O   0  0  0  0  0  0  0  0  0  0  0  0
  4  7  1  0
  7  8  2  3
  8  9  1  0
  7 10  1  0
  9 11  1  0
 11 12  1  0
 12 13  1  0
 13 14  2  3
 14 15  1  0
 15 16  2  3
 16 17  1  0
 20 21  1  0
 21 24  2  3
 24 25  1  0
  2 31  1  0
 31 32  2  0
 31 33  1  0
 21 34  1  0
 34 35  2  0
 25 26  2  0
 26 27  1  0
 27 28  2  0
 28 29  1  0
 29 30  2  0
 30 25  1  0
  1  2  2  0
  2  5  1  0
  5  6  2  0
  6  4  1  0
  4  3  2  0
  3  1  1  0
 17 18  2  0
 18 19  1  0
 19 20  2  0
 20 23  1  0
 23 22  2  0
 22 17  1  0
M  END

$$$$
