No_1081-gen_results/8p0m/2024-11-27-11-27-31/
     RDKit          3D

 18 17  0  0  0  0  0  0  0  0999 V2000
  -28.0162   -0.8135   28.8779 C   0  0  0  0  0  0  0  0  0  0  0  0
  -27.0636   -0.1189   28.6079 C   0  0  0  0  0  0  0  0  0  0  0  0
  -26.9515    1.1286   28.9566 N   0  0  0  0  0  0  0  0  0  0  0  0
  -28.4906   -0.4860   30.2489 C   0  0  0  0  0  0  0  0  0  0  0  0
  -29.4586   -1.2595   30.4632 F   0  0  0  0  0  0  0  0  0  0  0  0
  -27.4911   -0.6252   31.3605 C   0  0  0  0  0  0  0  0  0  0  0  0
  -29.0548    0.7528   30.2224 F   0  0  0  0  0  0  0  0  0  0  0  0
  -25.5753    1.6204   29.2457 C   0  0  0  0  0  0  0  0  0  0  0  0
  -25.4816    3.0353   29.6084 C   0  0  0  0  0  0  0  0  0  0  0  0
  -24.4833    0.9386   29.1692 N   0  0  0  0  0  0  0  0  0  0  0  0
  -23.2236    1.4474   29.3848 C   0  0  0  0  0  0  0  0  0  0  0  0
  -26.5733    3.8179   29.6784 N   0  0  0  0  0  0  0  0  0  0  0  0
  -26.4870    5.0899   29.8948 C   0  0  0  0  0  0  0  0  0  0  0  0
  -22.2944    1.2417   28.6779 N   0  0  0  0  0  0  0  0  0  0  0  0
  -27.1004    5.9185   29.4763 C   0  0  0  0  0  0  0  0  0  0  0  0
  -26.9353    7.3866   29.7271 C   0  0  0  0  0  0  0  0  0  0  0  0
  -25.9004    7.7705   30.5941 C   0  0  0  0  0  0  0  0  0  0  0  0
  -25.1140    6.7903   31.1241 C   0  0  0  0  0  0  0  0  0  0  0  0
  1  2  1  0
  2  3  1  0
  1  4  1  0
  4  5  1  0
  4  6  1  0
  4  7  1  0
  3  8  1  0
  8  9  2  3
  8 10  1  0
 10 11  1  0
  9 12  1  0
 12 13  2  3
 11 14  1  0
 13 15  1  0
 15 16  2  3
 16 17  1  0
 17 18  2  0
M  END

$$$$
