No_1215-gen_results/8p0m/2024-11-27-11-27-31/
     RDKit          3D

 23 25  0  0  0  0  0  0  0  0999 V2000
  -28.0162   -0.8135   28.8779 C   0  0  0  0  0  0  0  0  0  0  0  0
  -27.0636   -0.1189   28.6079 C   0  0  0  0  0  0  0  0  0  0  0  0
  -25.7647   -0.3897   29.0360 C   0  0  0  0  0  0  0  0  0  0  0  0
  -25.5296   -1.5302   29.9014 C   0  0  0  0  0  0  0  0  0  0  0  0
  -26.6888   -2.2893   30.1810 C   0  0  0  0  0  0  0  0  0  0  0  0
  -27.8727   -1.9508   29.7373 C   0  0  0  0  0  0  0  0  0  0  0  0
  -29.0016   -2.8142   30.1793 C   0  0  0  0  0  0  0  0  0  0  0  0
  -28.8271   -4.0755   30.4770 N   0  0  0  0  0  0  0  0  0  0  0  0
  -30.1375   -2.3668   30.1855 F   0  0  0  0  0  0  0  0  0  0  0  0
  -29.9278   -4.9683   30.6586 C   0  0  0  0  0  0  0  0  0  0  0  0
  -30.7062   -5.1970   29.5936 C   0  0  0  0  0  0  0  0  0  0  0  0
  -31.5084   -6.3383   29.6601 C   0  0  0  0  0  0  0  0  0  0  0  0
  -32.2685   -6.6956   28.4808 C   0  0  0  0  0  0  0  0  0  0  0  0
  -32.1166   -5.9090   27.2965 C   0  0  0  0  0  0  0  0  0  0  0  0
  -31.2462   -4.8071   27.3047 C   0  0  0  0  0  0  0  0  0  0  0  0
  -30.5123   -4.5085   28.4036 C   0  0  0  0  0  0  0  0  0  0  0  0
  -24.5475    0.4350   28.7175 C   0  0  0  0  0  0  0  0  0  0  0  0
  -24.5819    1.3036   27.6412 C   0  0  0  0  0  0  0  0  0  0  0  0
  -23.3728    1.9945   27.3249 C   0  0  0  0  0  0  0  0  0  0  0  0
  -22.1698    1.7938   27.9558 C   0  0  0  0  0  0  0  0  0  0  0  0
  -23.3106    0.1724   29.3507 C   0  0  0  0  0  0  0  0  0  0  0  0
  -22.1232    0.8667   28.9842 C   0  0  0  0  0  0  0  0  0  0  0  0
  -29.6834   -5.8199   31.6855 O   0  0  0  0  0  0  0  0  0  0  0  0
  6  7  1  0
  7  8  1  0
  7  9  1  0
  8 10  1  0
 10 11  1  0
  3 17  1  0
 10 23  2  0
 11 12  2  0
 12 13  1  0
 13 14  2  0
 14 15  1  0
 15 16  2  0
 16 11  1  0
  1  2  2  0
  2  3  1  0
  3  4  2  0
  4  5  1  0
  5  6  2  0
  6  1  1  0
 17 18  2  0
 18 19  1  0
 19 20  2  0
 20 22  1  0
 22 21  2  0
 21 17  1  0
M  END

$$$$
