No_130-gen_results/8p0m/2024-11-27-11-27-31/
     RDKit          3D

 14 15  0  0  0  0  0  0  0  0999 V2000
  -28.0162   -0.8135   28.8779 C   0  0  0  0  0  0  0  0  0  0  0  0
  -28.4690   -0.7850   29.8287 C   0  0  0  0  0  0  0  0  0  0  0  0
  -26.5042   -0.7777   28.8766 C   0  0  0  0  0  0  0  0  0  0  0  0
  -25.7622   -0.0022   27.9705 C   0  0  0  0  0  0  0  0  0  0  0  0
  -25.2031    1.1747   28.5115 C   0  0  0  0  0  0  0  0  0  0  0  0
  -23.8565    1.2491   28.4361 C   0  0  0  0  0  0  0  0  0  0  0  0
  -29.9980   -0.7270   29.9299 C   0  0  0  0  0  0  0  0  0  0  0  0
  -30.8102   -0.2960   28.6230 Cl  0  0  0  0  0  0  0  0  0  0  0  0
  -23.0113    0.3956   29.1627 C   0  0  0  0  0  0  0  0  0  0  0  0
  -23.4279   -0.0656   30.3168 C   0  0  0  0  0  0  0  0  0  0  0  0
  -27.7381   -1.4600   31.0337 C   0  0  0  0  0  0  0  0  0  0  0  0
  -26.4329   -1.5720   31.0757 C   0  0  0  0  0  0  0  0  0  0  0  0
  -25.7629   -1.3284   29.9316 C   0  0  0  0  0  0  0  0  0  0  0  0
  -24.6153   -0.3491   30.5394 C   0  0  0  0  0  0  0  0  0  0  0  0
  3  4  1  0
  4  5  1  0
  5  6  2  3
  2  7  1  0
  7  8  1  0
  6  9  1  0
  9 10  2  3
 10 14  1  0
 13 14  1  0
  1  2  2  0
  2 11  1  0
 11 12  2  0
 12 13  1  0
 13  3  2  0
  3  1  1  0
M  END

$$$$
