No_1274-gen_results/8p0m/2024-11-27-11-27-31/
     RDKit          3D

 29 31  0  0  0  0  0  0  0  0999 V2000
  -28.1229   -1.3353   28.4874 O   0  0  0  0  0  0  0  0  0  0  0  0
  -27.4806   -0.4044   28.7094 C   0  0  0  0  0  0  0  0  0  0  0  0
  -26.3804   -0.0867   27.9394 C   0  0  0  0  0  0  0  0  0  0  0  0
  -27.6664    0.4468   29.8988 N   0  0  0  0  0  0  0  0  0  0  0  0
  -25.1773   -0.4388   28.3946 C   0  0  0  0  0  0  0  0  0  0  0  0
  -23.9281   -0.2469   27.6677 C   0  0  0  0  0  0  0  0  0  0  0  0
  -24.0115    0.7683   26.6848 C   0  0  0  0  0  0  0  0  0  0  0  0
  -25.2436    1.2341   26.2435 C   0  0  0  0  0  0  0  0  0  0  0  0
  -26.3955    0.8712   26.8685 C   0  0  0  0  0  0  0  0  0  0  0  0
  -28.7606    0.1154   30.7715 C   0  0  0  0  0  0  0  0  0  0  0  0
  -26.8564    1.5271   30.2014 C   0  0  0  0  0  0  0  0  0  0  0  0
  -26.3606    1.6712   31.1605 C   0  0  0  0  0  0  0  0  0  0  0  0
  -27.2448    1.6336   32.4398 C   0  0  0  0  0  0  0  0  0  0  0  0
  -28.1748    0.3881   32.2424 C   0  0  0  0  0  0  0  0  0  0  0  0
  -27.6370    1.3593   26.2943 C   0  0  0  0  0  0  0  0  0  0  0  0
  -28.0320    2.5567   26.7440 C   0  0  0  0  0  0  0  0  0  0  0  0
  -29.2807    3.1142   26.2978 C   0  0  0  0  0  0  0  0  0  0  0  0
  -30.0985    2.3174   25.5057 C   0  0  0  0  0  0  0  0  0  0  0  0
  -28.4490    0.5898   25.5755 C   0  0  0  0  0  0  0  0  0  0  0  0
  -29.6593    1.0573   25.1466 C   0  0  0  0  0  0  0  0  0  0  0  0
  -24.9789   -1.4769   29.5013 C   0  0  0  0  0  0  0  0  0  0  0  0
  -23.8769   -1.9822   29.9253 C   0  0  0  0  0  0  0  0  0  0  0  0
  -23.0617   -1.4337   30.5301 C   0  0  0  0  0  0  0  0  0  0  0  0
  -23.3006   -0.1565   31.2259 C   0  0  0  0  0  0  0  0  0  0  0  0
  -25.1308    2.5210   31.5610 C   0  0  0  0  0  0  0  0  0  0  0  0
  -25.0636    3.2409   32.5063 O   0  0  0  0  0  0  0  0  0  0  0  0
  -24.0394    2.2665   30.8088 O   0  0  0  0  0  0  0  0  0  0  0  0
  -28.5899   -0.4624   33.2870 C   0  0  0  0  0  0  0  0  0  0  0  0
  -28.7419   -1.5820   32.9955 O   0  0  0  0  0  0  0  0  0  0  0  0
  1  2  2  0
  2  3  1  0
  2  4  1  0
  4 10  1  0
  4 11  1  0
 12 13  1  0
 10 14  1  0
 13 14  1  0
  9 15  1  0
  5 21  1  0
 21 22  1  0
 22 23  2  3
 23 24  1  0
 12 25  1  0
 25 26  2  0
 25 27  1  0
 14 28  1  0
 28 29  2  0
 12 11  1  0
 15 16  2  0
 16 17  1  0
 17 18  2  0
 18 20  1  0
 20 19  2  0
 19 15  1  0
  3  5  2  0
  5  6  1  0
  6  7  2  0
  7  8  1  0
  8  9  2  0
  9  3  1  0
M  END

$$$$
