No_1919-gen_results/8p0m/2024-11-27-11-27-31/
     RDKit          3D

 21 22  0  0  0  0  0  0  0  0999 V2000
  -28.0162   -0.8135   28.8779 C   0  0  0  0  0  0  0  0  0  0  0  0
  -27.0636   -0.1189   28.6079 C   0  0  0  0  0  0  0  0  0  0  0  0
  -25.7647   -0.3897   29.0360 C   0  0  0  0  0  0  0  0  0  0  0  0
  -25.5296   -1.5302   29.9014 C   0  0  0  0  0  0  0  0  0  0  0  0
  -26.6888   -2.2893   30.1810 C   0  0  0  0  0  0  0  0  0  0  0  0
  -27.8727   -1.9508   29.7373 C   0  0  0  0  0  0  0  0  0  0  0  0
  -28.9304   -2.7298   30.1154 O   0  0  0  0  0  0  0  0  0  0  0  0
  -24.5394    0.4211   28.7421 C   0  0  0  0  0  0  0  0  0  0  0  0
  -24.5259    1.2743   27.7265 C   0  0  0  0  0  0  0  0  0  0  0  0
  -23.3416    1.9045   27.3361 C   0  0  0  0  0  0  0  0  0  0  0  0
  -22.1280    1.7084   27.9936 C   0  0  0  0  0  0  0  0  0  0  0  0
  -23.2921    0.1076   29.3655 C   0  0  0  0  0  0  0  0  0  0  0  0
  -22.0894    0.7943   29.0137 C   0  0  0  0  0  0  0  0  0  0  0  0
  -28.7847   -3.9986   30.6384 C   0  0  0  0  0  0  0  0  0  0  0  0
  -29.8341   -4.8483   30.2417 C   0  0  0  0  0  0  0  0  0  0  0  0
  -31.0298   -4.3871   30.7341 C   0  0  0  0  0  0  0  0  0  0  0  0
  -31.3603   -3.5759   31.4110 C   0  0  0  0  0  0  0  0  0  0  0  0
  -31.9701   -2.8178   31.7783 C   0  0  0  0  0  0  0  0  0  0  0  0
  -31.8170   -2.0125   33.0316 C   0  0  0  0  0  0  0  0  0  0  0  0
  -30.6206   -2.0693   33.6840 C   0  0  0  0  0  0  0  0  0  0  0  0
  -29.6759   -2.9767   33.2750 C   0  0  0  0  0  0  0  0  0  0  0  0
  6  7  1  0
  3  8  1  0
  7 14  1  0
 14 15  1  0
 15 16  1  0
 16 17  2  3
 17 18  1  0
 18 19  2  3
 19 20  1  0
 20 21  2  0
  1  2  2  0
  2  3  1  0
  3  4  2  0
  4  5  1  0
  5  6  2  0
  6  1  1  0
  8  9  2  0
  9 10  1  0
 10 11  2  0
 11 13  1  0
 13 12  2  0
 12  8  1  0
M  END

$$$$
