No_1207-gen_results/8p0m/2024-11-27-11-27-31/
     RDKit          3D

 35 38  0  0  0  0  0  0  0  0999 V2000
  -28.0162   -0.8135   28.8779 C   0  0  0  0  0  0  0  0  0  0  0  0
  -27.0636   -0.1189   28.6079 C   0  0  0  0  0  0  0  0  0  0  0  0
  -25.7923   -0.4302   29.0761 C   0  0  0  0  0  0  0  0  0  0  0  0
  -24.5456    0.3494   28.8225 C   0  0  0  0  0  0  0  0  0  0  0  0
  -23.2409    0.0217   29.3323 C   0  0  0  0  0  0  0  0  0  0  0  0
  -23.1926   -1.2816   29.8967 C   0  0  0  0  0  0  0  0  0  0  0  0
  -27.8703   -1.9138   29.8642 C   0  0  0  0  0  0  0  0  0  0  0  0
  -26.6310   -2.3256   30.2990 C   0  0  0  0  0  0  0  0  0  0  0  0
  -25.5115   -1.5728   29.9655 C   0  0  0  0  0  0  0  0  0  0  0  0
  -24.2124   -1.9703   30.3280 C   0  0  0  0  0  0  0  0  0  0  0  0
  -24.5933    1.5941   27.9969 C   0  0  0  0  0  0  0  0  0  0  0  0
  -25.0773    1.5235   26.8763 N   0  0  0  0  0  0  0  0  0  0  0  0
  -25.3614    2.4631   26.0452 C   0  0  0  0  0  0  0  0  0  0  0  0
  -24.2044    2.6239   28.5622 O   0  0  0  0  0  0  0  0  0  0  0  0
  -25.3397    0.2278   26.1514 C   0  0  0  0  0  0  0  0  0  0  0  0
  -29.0069   -2.6235   30.1797 O   0  0  0  0  0  0  0  0  0  0  0  0
  -30.1100   -1.9407   30.5696 C   0  0  0  0  0  0  0  0  0  0  0  0
  -30.7848   -2.6379   31.5934 C   0  0  0  0  0  0  0  0  0  0  0  0
  -30.5117   -3.7181   31.9121 F   0  0  0  0  0  0  0  0  0  0  0  0
  -32.2250   -2.6765   31.3660 F   0  0  0  0  0  0  0  0  0  0  0  0
  -30.6591   -1.9099   32.8023 F   0  0  0  0  0  0  0  0  0  0  0  0
  -30.9804   -1.7230   29.4152 N   0  0  0  0  0  0  0  0  0  0  0  0
  -25.7528    0.1655   25.2260 C   0  0  0  0  0  0  0  0  0  0  0  0
  -24.9711    3.7969   26.6325 C   0  0  0  0  0  0  0  0  0  0  0  0
  -25.9650    2.2738   24.8214 C   0  0  0  0  0  0  0  0  0  0  0  0
  -26.2070    1.1183   24.3454 C   0  0  0  0  0  0  0  0  0  0  0  0
  -32.0186   -0.9820   29.3947 C   0  0  0  0  0  0  0  0  0  0  0  0
  -32.0339   -0.1436   28.3078 C   0  0  0  0  0  0  0  0  0  0  0  0
  -31.9926   -0.7462   27.0721 C   0  0  0  0  0  0  0  0  0  0  0  0
  -31.4155    0.0477   26.0808 C   0  0  0  0  0  0  0  0  0  0  0  0
  -30.9257   -0.5317   24.8698 C   0  0  0  0  0  0  0  0  0  0  0  0
  -31.1802   -1.9036   24.6772 C   0  0  0  0  0  0  0  0  0  0  0  0
  -31.7995   -2.6649   25.6054 C   0  0  0  0  0  0  0  0  0  0  0  0
  -32.0642   -2.0802   26.8445 C   0  0  0  0  0  0  0  0  0  0  0  0
  -33.2402    0.8278   28.3254 C   0  0  0  0  0  0  0  0  0  0  0  0
  4 11  1  0
 11 12  1  0
 12 13  1  0
 11 14  2  0
 12 15  1  0
  7 16  1  0
 16 17  1  0
 17 18  1  0
 18 19  1  0
 18 20  1  0
 18 21  1  0
 17 22  1  0
 13 24  1  0
 13 25  1  0
 23 26  1  0
 22 27  1  0
 27 28  1  0
 28 29  1  0
 28 35  1  0
 25 26  1  0
 23 15  1  0
 29 30  2  0
 30 31  1  0
 31 32  2  0
 32 33  1  0
 33 34  2  0
 34 29  1  0
  1  2  2  0
  2  3  1  0
  9  8  1  0
  8  7  2  0
  7  1  1  0
  3  4  2  0
  4  5  1  0
  5  6  2  0
  6 10  1  0
 10  9  2  0
  9  3  1  0
M  END

$$$$
