No_1938-gen_results/8p0m/2024-11-27-11-27-31/
     RDKit          3D

 14 15  0  0  0  0  0  0  0  0999 V2000
  -28.0162   -0.8135   28.8779 C   0  0  0  0  0  0  0  0  0  0  0  0
  -27.0636   -0.1189   28.6079 C   0  0  0  0  0  0  0  0  0  0  0  0
  -25.7923   -0.4302   29.0761 C   0  0  0  0  0  0  0  0  0  0  0  0
  -25.5756   -1.5654   29.9363 C   0  0  0  0  0  0  0  0  0  0  0  0
  -26.7354   -2.3004   30.2173 C   0  0  0  0  0  0  0  0  0  0  0  0
  -27.9184   -1.9537   29.7629 C   0  0  0  0  0  0  0  0  0  0  0  0
  -29.2090   -2.9956   30.2439 Cl  0  0  0  0  0  0  0  0  0  0  0  0
  -27.1188    1.1066   27.7637 C   0  0  0  0  0  0  0  0  0  0  0  0
  -26.6210    2.1820   27.8854 C   0  0  0  0  0  0  0  0  0  0  0  0
  -26.6570    3.2808   26.9327 C   0  0  0  0  0  0  0  0  0  0  0  0
  -25.9531    4.5554   27.0979 C   0  0  0  0  0  0  0  0  0  0  0  0
  -25.1349    4.6248   28.2136 C   0  0  0  0  0  0  0  0  0  0  0  0
  -25.0253    3.5791   29.1061 C   0  0  0  0  0  0  0  0  0  0  0  0
  -25.6561    2.4356   28.9718 C   0  0  0  0  0  0  0  0  0  0  0  0
  6  7  1  0
  2  8  1  0
  8  9  1  0
  1  2  2  0
  2  3  1  0
  3  4  2  0
  4  5  1  0
  5  6  2  0
  6  1  1  0
  9 10  2  0
 10 11  1  0
 11 12  2  0
 12 13  1  0
 13 14  2  0
 14  9  1  0
M  END

$$$$
