No_1819-gen_results/8p0m/2024-11-27-11-27-31/
     RDKit          3D

 34 38  0  0  0  0  0  0  0  0999 V2000
  -28.0162   -0.8135   28.8779 C   0  0  0  0  0  0  0  0  0  0  0  0
  -28.4690   -0.7850   29.8287 C   0  0  0  0  0  0  0  0  0  0  0  0
  -26.5455   -0.8762   28.8500 C   0  0  0  0  0  0  0  0  0  0  0  0
  -25.8041   -1.0324   30.0571 C   0  0  0  0  0  0  0  0  0  0  0  0
  -27.9437   -0.9869   31.2075 C   0  0  0  0  0  0  0  0  0  0  0  0
  -26.5825   -1.0386   31.2231 C   0  0  0  0  0  0  0  0  0  0  0  0
  -24.3810   -1.1082   30.0855 C   0  0  0  0  0  0  0  0  0  0  0  0
  -23.7055    0.0955   29.8440 C   0  0  0  0  0  0  0  0  0  0  0  0
  -22.4285    0.1160   29.2171 C   0  0  0  0  0  0  0  0  0  0  0  0
  -21.8149    1.2942   28.8765 C   0  0  0  0  0  0  0  0  0  0  0  0
  -24.3363    1.3689   29.7217 C   0  0  0  0  0  0  0  0  0  0  0  0
  -23.8041    2.5378   29.3142 C   0  0  0  0  0  0  0  0  0  0  0  0
  -20.4612    1.3401   28.2122 C   0  0  0  0  0  0  0  0  0  0  0  0
  -22.5714    2.5485   28.7819 C   0  0  0  0  0  0  0  0  0  0  0  0
  -25.8160   -0.8179   27.7525 F   0  0  0  0  0  0  0  0  0  0  0  0
  -30.0854   -0.7648   30.0393 C   0  0  0  0  0  0  0  0  0  0  0  0
  -30.6879   -0.0117   29.4037 O   0  0  0  0  0  0  0  0  0  0  0  0
  -30.6245   -1.3191   31.0686 O   0  0  0  0  0  0  0  0  0  0  0  0
  -31.7665   -1.9761   30.8920 C   0  0  0  0  0  0  0  0  0  0  0  0
  -32.0379   -2.9338   31.8112 C   0  0  0  0  0  0  0  0  0  0  0  0
  -31.6131   -3.9899   31.7385 C   0  0  0  0  0  0  0  0  0  0  0  0
  -31.3419   -4.6448   30.4641 C   0  0  0  0  0  0  0  0  0  0  0  0
  -30.4826   -5.6826   30.3029 C   0  0  0  0  0  0  0  0  0  0  0  0
  -29.9616   -6.3263   31.4461 C   0  0  0  0  0  0  0  0  0  0  0  0
  -30.1842   -5.8732   32.7078 C   0  0  0  0  0  0  0  0  0  0  0  0
  -30.8855   -4.7166   32.8441 C   0  0  0  0  0  0  0  0  0  0  0  0
  -33.5213   -3.0020   32.1109 N   0  0  0  0  0  0  0  0  0  0  0  0
  -34.0022   -3.1910   33.1936 C   0  0  0  0  0  0  0  0  0  0  0  0
  -35.4331   -3.2788   33.3009 C   0  0  0  0  0  0  0  0  0  0  0  0
  -34.3974   -2.9259   31.0097 C   0  0  0  0  0  0  0  0  0  0  0  0
  -34.0274   -2.7071   29.7690 C   0  0  0  0  0  0  0  0  0  0  0  0
  -32.6754   -1.8897   29.7024 C   0  0  0  0  0  0  0  0  0  0  0  0
  -35.6988   -3.1002   31.2999 C   0  0  0  0  0  0  0  0  0  0  0  0
  -36.2335   -3.2307   32.4442 C   0  0  0  0  0  0  0  0  0  0  0  0
  4  7  1  0
  7  8  1  0
 10 13  1  0
  3 15  1  0
  2 16  1  0
 16 17  2  0
 16 18  1  0
 18 19  1  0
 20 21  1  0
 20 27  1  0
 27 28  1  0
 27 30  1  0
 30 31  1  0
 19 32  1  0
 31 32  1  0
 30 33  1  0
 29 34  1  0
 33 34  1  0
 28 29  1  0
 20 19  1  0
  8  9  2  0
  9 10  1  0
 10 14  2  0
 14 12  1  0
 12 11  2  0
 11  8  1  0
  1  2  2  0
  2  5  1  0
  5  6  2  0
  6  4  1  0
  4  3  2  0
  3  1  1  0
 21 22  2  0
 22 23  1  0
 23 24  2  0
 24 25  1  0
 25 26  2  0
 26 21  1  0
M  END

$$$$
