No_1301-gen_results/8p0m/2024-11-27-11-27-31/
     RDKit          3D

 23 26  0  0  0  0  0  0  0  0999 V2000
  -28.0162   -0.8135   28.8779 C   0  0  0  0  0  0  0  0  0  0  0  0
  -27.0636   -0.1190   28.6079 C   0  0  0  0  0  0  0  0  0  0  0  0
  -25.7923   -0.4302   29.0761 C   0  0  0  0  0  0  0  0  0  0  0  0
  -25.5756   -1.5654   29.9363 C   0  0  0  0  0  0  0  0  0  0  0  0
  -26.7354   -2.3004   30.2173 C   0  0  0  0  0  0  0  0  0  0  0  0
  -27.9184   -1.9537   29.7629 C   0  0  0  0  0  0  0  0  0  0  0  0
  -29.0001   -2.7012   30.1151 O   0  0  0  0  0  0  0  0  0  0  0  0
  -24.5290    0.3490   28.7998 C   0  0  0  0  0  0  0  0  0  0  0  0
  -24.4808    1.2113   27.7998 C   0  0  0  0  0  0  0  0  0  0  0  0
  -23.2478    1.8974   27.4951 C   0  0  0  0  0  0  0  0  0  0  0  0
  -22.0497    1.5890   28.1642 C   0  0  0  0  0  0  0  0  0  0  0  0
  -23.3926    0.2168   29.6790 C   0  0  0  0  0  0  0  0  0  0  0  0
  -22.1330    0.8031   29.2514 C   0  0  0  0  0  0  0  0  0  0  0  0
  -30.1272   -2.1329   30.5810 C   0  0  0  0  0  0  0  0  0  0  0  0
  -31.1983   -2.7163   30.1245 C   0  0  0  0  0  0  0  0  0  0  0  0
  -32.4847   -2.1015   30.3159 C   0  0  0  0  0  0  0  0  0  0  0  0
  -33.6085   -2.5408   29.7661 C   0  0  0  0  0  0  0  0  0  0  0  0
  -34.8314   -1.8916   29.8324 C   0  0  0  0  0  0  0  0  0  0  0  0
  -34.8596   -0.6973   30.6115 C   0  0  0  0  0  0  0  0  0  0  0  0
  -33.7613   -0.2128   31.2058 C   0  0  0  0  0  0  0  0  0  0  0  0
  -32.5188   -0.8526   31.0303 C   0  0  0  0  0  0  0  0  0  0  0  0
  -31.3164   -0.3281   31.5712 C   0  0  0  0  0  0  0  0  0  0  0  0
  -30.0496   -0.9087   31.2558 C   0  0  0  0  0  0  0  0  0  0  0  0
  6  7  1  0
  3  8  1  0
  7 14  1  0
  1  2  2  0
  2  3  1  0
  3  4  2  0
  4  5  1  0
  5  6  2  0
  6  1  1  0
 16 17  2  0
 17 18  1  0
 18 19  2  0
 19 20  1  0
 20 21  2  0
 14 15  2  0
 15 16  1  0
 16 21  1  0
 21 22  1  0
 22 23  2  0
 23 14  1  0
  8  9  2  0
  9 10  1  0
 10 11  2  0
 11 13  1  0
 13 12  2  0
 12  8  1  0
M  END

$$$$
