No_1931-gen_results/8p0m/2024-11-27-11-27-31/
     RDKit          3D

 17 18  0  0  0  0  0  0  0  0999 V2000
  -28.0162   -0.8135   28.8779 C   0  0  0  0  0  0  0  0  0  0  0  0
  -27.0636   -0.1189   28.6079 C   0  0  0  0  0  0  0  0  0  0  0  0
  -26.8756    1.1325   28.9134 C   0  0  0  0  0  0  0  0  0  0  0  0
  -25.6883    1.9515   28.5672 C   0  0  0  0  0  0  0  0  0  0  0  0
  -24.6394    1.2834   27.8753 C   0  0  0  0  0  0  0  0  0  0  0  0
  -24.8181   -0.0802   27.6166 C   0  0  0  0  0  0  0  0  0  0  0  0
  -25.9311   -0.7717   27.9696 C   0  0  0  0  0  0  0  0  0  0  0  0
  -28.6536   -0.5272   30.2401 C   0  0  0  0  0  0  0  0  0  0  0  0
  -28.8474    0.8243   30.5135 C   0  0  0  0  0  0  0  0  0  0  0  0
  -29.6117    1.2806   31.5416 C   0  0  0  0  0  0  0  0  0  0  0  0
  -27.7995    1.6637   29.8961 C   0  0  0  0  0  0  0  0  0  0  0  0
  -23.4533    1.9561   27.3827 C   0  0  0  0  0  0  0  0  0  0  0  0
  -22.4227    1.4184   27.6669 F   0  0  0  0  0  0  0  0  0  0  0  0
  -23.4142    3.2041   28.0805 F   0  0  0  0  0  0  0  0  0  0  0  0
  -23.5610    2.3301   26.1281 F   0  0  0  0  0  0  0  0  0  0  0  0
  -29.4441    2.2390   32.1749 O   0  0  0  0  0  0  0  0  0  0  0  0
  -30.9045    0.7876   31.4931 O   0  0  0  0  0  0  0  0  0  0  0  0
  9 10  1  0
  5 12  1  0
 12 13  1  0
 12 14  1  0
 12 15  1  0
 10 16  2  0
 10 17  1  0
  3  4  1  0
  4  5  2  0
  5  6  1  0
  6  7  2  0
  7  2  1  0
  1  2  2  0
  2  3  1  0
  3 11  2  0
 11  9  1  0
  9  8  2  0
  8  1  1  0
M  END

$$$$
