No_118-gen_results/8p0m/2024-11-27-11-27-31/
     RDKit          3D

 18 21  0  0  0  0  0  0  0  0999 V2000
  -28.0162   -0.8135   28.8779 C   0  0  0  0  0  0  0  0  0  0  0  0
  -27.0636   -0.1190   28.6079 C   0  0  0  0  0  0  0  0  0  0  0  0
  -26.9716    0.7139   27.5060 C   0  0  0  0  0  0  0  0  0  0  0  0
  -25.8205    1.4909   27.1160 C   0  0  0  0  0  0  0  0  0  0  0  0
  -24.8579    1.3421   27.6008 C   0  0  0  0  0  0  0  0  0  0  0  0
  -24.6224    0.5295   28.8144 C   0  0  0  0  0  0  0  0  0  0  0  0
  -25.7344   -0.1811   29.1908 C   0  0  0  0  0  0  0  0  0  0  0  0
  -29.2135   -0.0949   29.3828 C   0  0  0  0  0  0  0  0  0  0  0  0
  -29.5388    0.9294   28.9079 C   0  0  0  0  0  0  0  0  0  0  0  0
  -30.7118    1.5828   29.4374 C   0  0  0  0  0  0  0  0  0  0  0  0
  -31.1135    2.8952   29.0209 C   0  0  0  0  0  0  0  0  0  0  0  0
  -30.3413    3.4703   27.9779 C   0  0  0  0  0  0  0  0  0  0  0  0
  -29.2647    2.8751   27.4199 C   0  0  0  0  0  0  0  0  0  0  0  0
  -28.8242    1.6267   27.9133 C   0  0  0  0  0  0  0  0  0  0  0  0
  -27.7073    1.1685   27.3474 N   0  0  0  0  0  0  0  0  0  0  0  0
  -27.7941    1.2885   25.8798 C   0  0  0  0  0  0  0  0  0  0  0  0
  -26.6193    1.2940   25.2525 C   0  0  0  0  0  0  0  0  0  0  0  0
  -25.7338    1.8204   25.7096 C   0  0  0  0  0  0  0  0  0  0  0  0
  1  8  1  0
  3 15  1  0
 14 15  1  0
 15 16  1  0
  4 18  1  0
 17 18  1  0
  1  2  1  0
  8  9  1  0
 17 16  1  0
  2  3  2  0
  3  4  1  0
  4  5  2  0
  5  6  1  0
  6  7  2  0
  7  2  1  0
  9 10  2  0
 10 11  1  0
 11 12  2  0
 12 13  1  0
 13 14  2  0
 14  9  1  0
M  END

$$$$
