No_1717-gen_results/8p0m/2024-11-27-11-27-31/
     RDKit          3D

 13 13  0  0  0  0  0  0  0  0999 V2000
  -28.0162   -0.8135   28.8779 C   0  0  0  0  0  0  0  0  0  0  0  0
  -27.0636   -0.1189   28.6079 C   0  0  0  0  0  0  0  0  0  0  0  0
  -26.9716    0.7139   27.5060 C   0  0  0  0  0  0  0  0  0  0  0  0
  -28.1053    0.7744   26.6421 C   0  0  0  0  0  0  0  0  0  0  0  0
  -29.2041    0.1179   27.0477 C   0  0  0  0  0  0  0  0  0  0  0  0
  -29.2127   -0.6088   28.1281 C   0  0  0  0  0  0  0  0  0  0  0  0
  -25.8740    1.5845   27.0322 C   0  0  0  0  0  0  0  0  0  0  0  0
  -24.6219    1.0418   27.3321 C   0  0  0  0  0  0  0  0  0  0  0  0
  -24.1591    0.2689   28.1774 C   0  0  0  0  0  0  0  0  0  0  0  0
  -24.9332   -0.7089   28.8243 C   0  0  0  0  0  0  0  0  0  0  0  0
  -24.1589   -1.6305   29.5830 C   0  0  0  0  0  0  0  0  0  0  0  0
  -26.2374   -0.8283   29.0050 C   0  0  0  0  0  0  0  0  0  0  0  0
  -26.5637   -1.9312   29.8582 N   0  0  0  0  0  0  0  0  0  0  0  0
  3  7  1  0
  7  8  1  0
  8  9  2  3
  9 10  1  0
 10 11  2  0
  2 12  1  0
 12 13  1  0
  1  2  2  0
  2  3  1  0
  3  4  2  0
  4  5  1  0
  5  6  2  0
  6  1  1  0
M  END

$$$$
