No_1740-gen_results/8p0m/2024-11-27-11-27-31/
     RDKit          3D

 35 36  0  0  0  0  0  0  0  0999 V2000
  -28.0162   -0.8135   28.8779 C   0  0  0  0  0  0  0  0  0  0  0  0
  -27.0636   -0.1190   28.6079 C   0  0  0  0  0  0  0  0  0  0  0  0
  -27.0010    0.6913   27.4910 C   0  0  0  0  0  0  0  0  0  0  0  0
  -25.8548    1.4825   27.0830 C   0  0  0  0  0  0  0  0  0  0  0  0
  -24.6901    1.4526   27.8807 C   0  0  0  0  0  0  0  0  0  0  0  0
  -23.4878    2.1451   27.6011 C   0  0  0  0  0  0  0  0  0  0  0  0
  -25.8122   -0.1656   29.4299 C   0  0  0  0  0  0  0  0  0  0  0  0
  -24.6457    0.5887   29.0806 C   0  0  0  0  0  0  0  0  0  0  0  0
  -27.8770   -1.6675   29.8462 O   0  0  0  0  0  0  0  0  0  0  0  0
  -29.1762   -0.5827   28.5020 O   0  0  0  0  0  0  0  0  0  0  0  0
  -22.4612    1.6301   27.2296 N   0  0  0  0  0  0  0  0  0  0  0  0
  -23.7133    3.8986   27.3721 Cl  0  0  0  0  0  0  0  0  0  0  0  0
  -21.4557    1.1737   28.0527 C   0  0  0  0  0  0  0  0  0  0  0  0
  -21.2270    0.1384   28.4489 C   0  0  0  0  0  0  0  0  0  0  0  0
  -20.3036   -0.7335   28.2404 O   0  0  0  0  0  0  0  0  0  0  0  0
  -22.1194   -0.3620   29.3890 O   0  0  0  0  0  0  0  0  0  0  0  0
  -28.0068    0.7381   26.6763 O   0  0  0  0  0  0  0  0  0  0  0  0
  -27.7996    0.5490   25.3180 C   0  0  0  0  0  0  0  0  0  0  0  0
  -28.9607    0.1089   24.6709 C   0  0  0  0  0  0  0  0  0  0  0  0
  -29.9107   -0.3722   25.4603 C   0  0  0  0  0  0  0  0  0  0  0  0
  -31.1562   -0.3960   24.7820 C   0  0  0  0  0  0  0  0  0  0  0  0
  -31.2884   -0.1869   23.4164 C   0  0  0  0  0  0  0  0  0  0  0  0
  -30.2943    0.3914   22.7746 C   0  0  0  0  0  0  0  0  0  0  0  0
  -29.1460    0.6148   23.3786 C   0  0  0  0  0  0  0  0  0  0  0  0
  -26.6726    0.5557   24.7884 O   0  0  0  0  0  0  0  0  0  0  0  0
  -32.3317   -1.1528   25.5184 C   0  0  0  0  0  0  0  0  0  0  0  0
  -32.1878   -2.3556   26.4275 Cl  0  0  0  0  0  0  0  0  0  0  0  0
  -33.6363   -0.6207   25.2017 C   0  0  0  0  0  0  0  0  0  0  0  0
  -28.9817   -2.5299   30.3128 C   0  0  0  0  0  0  0  0  0  0  0  0
  -28.5935   -3.8634   30.3521 C   0  0  0  0  0  0  0  0  0  0  0  0
  -29.6144   -5.1856   30.2507 Cl  0  0  0  0  0  0  0  0  0  0  0  0
  -27.3173   -4.2654   30.3081 F   0  0  0  0  0  0  0  0  0  0  0  0
  -30.0006   -2.1031   30.6394 O   0  0  0  0  0  0  0  0  0  0  0  0
  -33.9944    0.4758   26.0451 C   0  0  0  0  0  0  0  0  0  0  0  0
  -33.6025    0.4992   27.3254 C   0  0  0  0  0  0  0  0  0  0  0  0
  1  2  1  0
  5  6  1  0
  1  9  1  0
  1 10  2  0
  6 11  2  3
  6 12  1  0
 11 13  1  0
 13 14  1  0
 14 15  2  0
 14 16  1  0
  3 17  1  0
 17 18  1  0
 18 19  1  0
 18 25  2  0
 21 26  1  0
 26 27  1  0
 26 28  1  0
  9 29  1  0
 29 30  1  0
 30 31  1  0
 30 32  1  0
 29 33  2  0
 28 34  1  0
 34 35  2  0
  2  3  2  0
  3  4  1  0
  4  5  2  0
  5  8  1  0
  8  7  2  0
  7  2  1  0
 19 20  2  0
 20 21  1  0
 21 22  2  0
 22 23  1  0
 23 24  2  0
 24 19  1  0
M  END

$$$$
