No_1638-gen_results/8p0m/2024-11-27-11-27-31/
     RDKit          3D

 23 26  0  0  0  0  0  0  0  0999 V2000
  -28.0162   -0.8135   28.8779 C   0  0  0  0  0  0  0  0  0  0  0  0
  -28.4690   -0.7850   29.8287 C   0  0  0  0  0  0  0  0  0  0  0  0
  -28.1816    0.4277   28.1134 C   0  0  0  0  0  0  0  0  0  0  0  0
  -28.9841    1.4155   28.5154 C   0  0  0  0  0  0  0  0  0  0  0  0
  -29.3802    0.1384   30.4612 C   0  0  0  0  0  0  0  0  0  0  0  0
  -29.9932   -0.0234   31.7370 C   0  0  0  0  0  0  0  0  0  0  0  0
  -29.5370    1.2619   29.7119 C   0  0  0  0  0  0  0  0  0  0  0  0
  -27.3564    0.2932   26.9410 F   0  0  0  0  0  0  0  0  0  0  0  0
  -29.8901    0.9582   32.5696 C   0  0  0  0  0  0  0  0  0  0  0  0
  -29.9245    2.3200   31.9402 C   0  0  0  0  0  0  0  0  0  0  0  0
  -29.6002    2.4955   30.6228 C   0  0  0  0  0  0  0  0  0  0  0  0
  -29.9859    3.7459   30.1311 C   0  0  0  0  0  0  0  0  0  0  0  0
  -30.5919    4.0542   29.1572 C   0  0  0  0  0  0  0  0  0  0  0  0
  -30.7643    5.4137   28.6566 C   0  0  0  0  0  0  0  0  0  0  0  0
  -28.9797    4.8319   30.3108 C   0  0  0  0  0  0  0  0  0  0  0  0
  -27.8396    4.5663   31.3682 C   0  0  0  0  0  0  0  0  0  0  0  0
  -29.0618    6.0711   29.8140 C   0  0  0  0  0  0  0  0  0  0  0  0
  -30.0169    6.4011   28.9818 C   0  0  0  0  0  0  0  0  0  0  0  0
  -27.8886    5.1643   32.6076 C   0  0  0  0  0  0  0  0  0  0  0  0
  -26.7534    3.7402   30.9367 C   0  0  0  0  0  0  0  0  0  0  0  0
  -25.9457    3.1404   31.8614 C   0  0  0  0  0  0  0  0  0  0  0  0
  -26.9676    4.6493   33.5589 C   0  0  0  0  0  0  0  0  0  0  0  0
  -25.9376    3.7506   33.2035 C   0  0  0  0  0  0  0  0  0  0  0  0
  3  8  1  0
 11 12  1  0
 15 16  1  0
  5  6  2  0
  6  9  1  0
  9 10  2  0
 10 11  1  0
 11  7  2  0
 12 13  2  0
 13 14  1  0
 14 18  2  0
 18 17  1  0
 17 15  2  0
 15 12  1  0
 16 19  2  0
 19 22  1  0
 22 23  2  0
 23 21  1  0
 21 20  2  0
 20 16  1  0
  1  2  2  0
  2  5  1  0
  5  7  1  0
  7  4  1  0
  4  3  2  0
  3  1  1  0
M  END

$$$$
