No_1902-gen_results/8p0m/2024-11-27-11-27-31/
     RDKit          3D

 25 26  0  0  0  0  0  0  0  0999 V2000
  -28.0162   -0.8135   28.8779 C   0  0  0  0  0  0  0  0  0  0  0  0
  -27.0636   -0.1190   28.6079 C   0  0  0  0  0  0  0  0  0  0  0  0
  -25.7923   -0.4302   29.0761 C   0  0  0  0  0  0  0  0  0  0  0  0
  -24.5456    0.3494   28.8225 C   0  0  0  0  0  0  0  0  0  0  0  0
  -23.2409    0.0217   29.3323 C   0  0  0  0  0  0  0  0  0  0  0  0
  -27.8820   -1.8995   29.8633 C   0  0  0  0  0  0  0  0  0  0  0  0
  -26.6706   -2.3272   30.3212 C   0  0  0  0  0  0  0  0  0  0  0  0
  -25.5433   -1.5852   29.9316 C   0  0  0  0  0  0  0  0  0  0  0  0
  -22.1918    0.8302   29.0004 C   0  0  0  0  0  0  0  0  0  0  0  0
  -22.1472    1.7783   28.0287 C   0  0  0  0  0  0  0  0  0  0  0  0
  -24.5322    1.3987   27.8163 C   0  0  0  0  0  0  0  0  0  0  0  0
  -23.3620    2.0694   27.4607 C   0  0  0  0  0  0  0  0  0  0  0  0
  -29.0683   -2.7198   30.2979 C   0  0  0  0  0  0  0  0  0  0  0  0
  -29.2866   -2.7334   31.5002 O   0  0  0  0  0  0  0  0  0  0  0  0
  -29.6902   -3.4501   29.4969 O   0  0  0  0  0  0  0  0  0  0  0  0
  -23.4873    3.0209   26.4988 O   0  0  0  0  0  0  0  0  0  0  0  0
  -24.7945    3.3716   26.1337 C   0  0  0  0  0  0  0  0  0  0  0  0
  -29.1787   -0.3601   28.4146 O   0  0  0  0  0  0  0  0  0  0  0  0
  -29.2791    0.5234   27.4671 C   0  0  0  0  0  0  0  0  0  0  0  0
  -30.2590    0.6522   26.7914 C   0  0  0  0  0  0  0  0  0  0  0  0
  -31.4370    0.0423   27.2112 C   0  0  0  0  0  0  0  0  0  0  0  0
  -31.9431    0.1068   28.2489 N   0  0  0  0  0  0  0  0  0  0  0  0
  -33.1406    0.2000   28.6895 C   0  0  0  0  0  0  0  0  0  0  0  0
  -33.7726   -0.2845   29.5061 C   0  0  0  0  0  0  0  0  0  0  0  0
  -35.1477   -0.0803   29.8948 C   0  0  0  0  0  0  0  0  0  0  0  0
  3  4  1  0
  6 13  1  0
 13 14  2  0
 13 15  1  0
 12 16  1  0
 16 17  1  0
  1 18  1  0
 18 19  1  0
 19 20  2  3
 20 21  1  0
 21 22  1  0
 22 23  1  0
 23 24  2  3
 24 25  1  0
  1  2  2  0
  2  3  1  0
  3  8  2  0
  8  7  1  0
  7  6  2  0
  6  1  1  0
  4  5  2  0
  5  9  1  0
  9 10  2  0
 10 12  1  0
 12 11  2  0
 11  4  1  0
M  END

$$$$
