No_1054-gen_results/8p0m/2024-11-27-11-27-31/
     RDKit          3D

 28 31  0  0  0  0  0  0  0  0999 V2000
  -28.0162   -0.8135   28.8779 C   0  0  0  0  0  0  0  0  0  0  0  0
  -27.0636   -0.1190   28.6079 C   0  0  0  0  0  0  0  0  0  0  0  0
  -27.0010    0.6913   27.4910 C   0  0  0  0  0  0  0  0  0  0  0  0
  -28.1373    0.7363   26.6350 C   0  0  0  0  0  0  0  0  0  0  0  0
  -29.2360    0.0765   27.0690 C   0  0  0  0  0  0  0  0  0  0  0  0
  -29.2177   -0.6429   28.1747 C   0  0  0  0  0  0  0  0  0  0  0  0
  -30.3516    0.1564   26.2430 N   0  0  0  0  0  0  0  0  0  0  0  0
  -31.4313   -0.4312   26.5996 C   0  0  0  0  0  0  0  0  0  0  0  0
  -31.4825   -1.1210   27.8409 C   0  0  0  0  0  0  0  0  0  0  0  0
  -30.4093   -1.2929   28.5803 C   0  0  0  0  0  0  0  0  0  0  0  0
  -32.7640   -1.5847   28.0799 O   0  0  0  0  0  0  0  0  0  0  0  0
  -25.7074    1.3943   27.0948 C   0  0  0  0  0  0  0  0  0  0  0  0
  -24.6183    0.9037   27.6859 C   0  0  0  0  0  0  0  0  0  0  0  0
  -24.5700    0.1203   28.8375 C   0  0  0  0  0  0  0  0  0  0  0  0
  -25.7251   -0.5013   29.1935 C   0  0  0  0  0  0  0  0  0  0  0  0
  -23.4179    1.8699   27.4484 C   0  0  0  0  0  0  0  0  0  0  0  0
  -23.2143    2.2325   26.1754 N   0  0  0  0  0  0  0  0  0  0  0  0
  -22.6462    2.3593   28.3883 N   0  0  0  0  0  0  0  0  0  0  0  0
  -33.2938   -2.5001   27.5468 C   0  0  0  0  0  0  0  0  0  0  0  0
  -25.6374   -1.4092   30.3365 C   0  0  0  0  0  0  0  0  0  0  0  0
  -25.3605   -1.0055   31.4284 N   0  0  0  0  0  0  0  0  0  0  0  0
  -26.0475   -2.5960   30.0828 O   0  0  0  0  0  0  0  0  0  0  0  0
  -32.6736   -3.7474   27.6211 C   0  0  0  0  0  0  0  0  0  0  0  0
  -32.9948   -4.5387   28.3750 C   0  0  0  0  0  0  0  0  0  0  0  0
  -32.5043   -5.1141   29.1365 C   0  0  0  0  0  0  0  0  0  0  0  0
  -30.9826   -5.4756   28.9722 C   0  0  0  0  0  0  0  0  0  0  0  0
  -30.5248   -4.9245   27.8249 C   0  0  0  0  0  0  0  0  0  0  0  0
  -31.2804   -3.9665   27.1637 C   0  0  0  0  0  0  0  0  0  0  0  0
  9 11  1  0
 13 16  1  0
 16 17  2  0
 16 18  1  0
 11 19  1  0
 15 20  1  0
 20 21  1  0
 20 22  2  0
 19 23  1  0
  1  2  2  0
  3  4  2  0
  4  5  1  0
  6  1  1  0
 23 24  2  0
 24 25  1  0
 25 26  2  0
 26 27  1  0
 27 28  2  0
 28 23  1  0
  5  6  2  0
  6 10  1  0
 10  9  2  0
  9  8  1  0
  8  7  2  0
  7  5  1  0
  2  3  1  0
  3 12  1  0
 12 13  2  0
 13 14  1  0
 14 15  2  0
 15  2  1  0
M  END

$$$$
