No_1481-gen_results/8p0m/2024-11-27-11-27-31/
     RDKit          3D

 24 28  0  0  0  0  0  0  0  0999 V2000
  -28.0162   -0.8135   28.8779 C   0  0  0  0  0  0  0  0  0  0  0  0
  -28.4690   -0.7850   29.8287 C   0  0  0  0  0  0  0  0  0  0  0  0
  -28.1960    0.3478   28.0550 C   0  0  0  0  0  0  0  0  0  0  0  0
  -29.0191    1.3501   28.3782 C   0  0  0  0  0  0  0  0  0  0  0  0
  -29.1993    2.4568   27.5396 C   0  0  0  0  0  0  0  0  0  0  0  0
  -29.3831    0.1511   30.4352 C   0  0  0  0  0  0  0  0  0  0  0  0
  -29.6005    1.2796   29.6234 C   0  0  0  0  0  0  0  0  0  0  0  0
  -29.4080    2.5341   26.4282 C   0  0  0  0  0  0  0  0  0  0  0  0
  -29.4735    1.2439   25.6662 C   0  0  0  0  0  0  0  0  0  0  0  0
  -28.2198    0.7943   25.2669 C   0  0  0  0  0  0  0  0  0  0  0  0
  -27.1986    0.5548   26.1652 C   0  0  0  0  0  0  0  0  0  0  0  0
  -27.4579    0.3113   26.9283 C   0  0  0  0  0  0  0  0  0  0  0  0
  -25.8301    0.6629   25.4291 C   0  0  0  0  0  0  0  0  0  0  0  0
  -24.5746    0.9683   26.2501 C   0  0  0  0  0  0  0  0  0  0  0  0
  -24.3735    0.2374   27.2881 C   0  0  0  0  0  0  0  0  0  0  0  0
  -23.2806    0.5242   28.1652 C   0  0  0  0  0  0  0  0  0  0  0  0
  -22.8982   -0.2711   29.3174 C   0  0  0  0  0  0  0  0  0  0  0  0
  -26.4990   -0.5604   27.6712 N   0  0  0  0  0  0  0  0  0  0  0  0
  -25.2965    0.1356   27.9376 C   0  0  0  0  0  0  0  0  0  0  0  0
  -26.3849   -1.8523   27.3965 C   0  0  0  0  0  0  0  0  0  0  0  0
  -25.0813   -0.3528   29.4732 C   0  0  0  0  0  0  0  0  0  0  0  0
  -23.9122   -0.0577   30.1557 C   0  0  0  0  0  0  0  0  0  0  0  0
  -27.1861   -1.9323   28.5499 C   0  0  0  0  0  0  0  0  0  0  0  0
  -27.8316    1.6127   24.1523 C   0  0  0  0  0  0  0  0  0  0  0  0
  4  5  1  0
  5  8  2  3
  8  9  1  0
  9 10  2  3
 10 11  1  0
  3 12  1  0
 11 12  1  0
 11 13  1  0
 13 14  1  0
 14 15  2  0
 15 16  1  0
 16 17  1  0
 12 18  1  0
 15 19  1  0
 18 19  1  0
 18 20  1  0
 19 21  1  0
 17 22  1  0
 21 22  1  0
  1 23  1  0
 20 23  1  0
 10 24  1  0
  1  2  2  0
  2  6  1  0
  6  7  2  0
  7  4  1  0
  4  3  2  0
  3  1  1  0
M  END

$$$$
