No_1703-gen_results/8p0m/2024-11-27-11-27-31/
     RDKit          3D

 21 22  0  0  0  0  0  0  0  0999 V2000
  -28.0162   -0.8135   28.8779 C   0  0  0  0  0  0  0  0  0  0  0  0
  -27.0636   -0.1189   28.6079 C   0  0  0  0  0  0  0  0  0  0  0  0
  -25.7923   -0.4302   29.0761 C   0  0  0  0  0  0  0  0  0  0  0  0
  -24.5456    0.3494   28.8225 C   0  0  0  0  0  0  0  0  0  0  0  0
  -24.6586    1.4196   27.8878 C   0  0  0  0  0  0  0  0  0  0  0  0
  -25.9471    1.6811   27.3792 C   0  0  0  0  0  0  0  0  0  0  0  0
  -27.0439    0.9739   27.6871 C   0  0  0  0  0  0  0  0  0  0  0  0
  -29.1797   -0.1202   29.1288 N   0  0  0  0  0  0  0  0  0  0  0  0
  -29.5842    0.1318   30.4036 C   0  0  0  0  0  0  0  0  0  0  0  0
  -29.5343    0.7685   28.1878 C   0  0  0  0  0  0  0  0  0  0  0  0
  -28.4377    1.5620   27.5896 C   0  0  0  0  0  0  0  0  0  0  0  0
  -23.4298    2.1243   27.5397 C   0  0  0  0  0  0  0  0  0  0  0  0
  -23.5267    3.0640   26.6451 N   0  0  0  0  0  0  0  0  0  0  0  0
  -22.2930    1.9148   28.0173 O   0  0  0  0  0  0  0  0  0  0  0  0
  -30.3192    0.1628   27.2521 N   0  0  0  0  0  0  0  0  0  0  0  0
  -31.3983    0.6942   26.6849 C   0  0  0  0  0  0  0  0  0  0  0  0
  -32.0802   -0.0604   25.7079 C   0  0  0  0  0  0  0  0  0  0  0  0
  -31.5984   -1.1893   25.3727 C   0  0  0  0  0  0  0  0  0  0  0  0
  -30.9401   -1.5640   24.5602 C   0  0  0  0  0  0  0  0  0  0  0  0
  -29.6212   -1.4046   24.4009 C   0  0  0  0  0  0  0  0  0  0  0  0
  -28.7479   -1.7540   23.4338 C   0  0  0  0  0  0  0  0  0  0  0  0
  1  2  1  0
  1  8  1  0
  8  9  1  0
  8 10  1  0
  7 11  1  0
 10 11  1  0
  5 12  1  0
 12 13  1  0
 12 14  2  0
 10 15  1  0
 15 16  1  0
 16 17  2  3
 17 18  1  0
 18 19  2  3
 19 20  1  0
 20 21  1  0
  2  3  2  0
  3  4  1  0
  4  5  2  0
  5  6  1  0
  6  7  2  0
  7  2  1  0
M  END

$$$$
