No_1458-gen_results/8p0m/2024-11-27-11-27-31/
     RDKit          3D

 23 24  0  0  0  0  0  0  0  0999 V2000
  -28.0162   -0.8135   28.8779 C   0  0  0  0  0  0  0  0  0  0  0  0
  -27.0636   -0.1190   28.6079 C   0  0  0  0  0  0  0  0  0  0  0  0
  -26.9287    1.1713   29.0083 C   0  0  0  0  0  0  0  0  0  0  0  0
  -25.7702    2.0341   28.6884 C   0  0  0  0  0  0  0  0  0  0  0  0
  -24.7141    1.4431   27.9188 C   0  0  0  0  0  0  0  0  0  0  0  0
  -24.8590    0.0783   27.5836 C   0  0  0  0  0  0  0  0  0  0  0  0
  -25.9647   -0.6606   27.9164 C   0  0  0  0  0  0  0  0  0  0  0  0
  -28.7025   -0.6427   30.0750 N   0  0  0  0  0  0  0  0  0  0  0  0
  -29.7976   -1.3633   30.5080 C   0  0  0  0  0  0  0  0  0  0  0  0
  -30.3289   -2.2310   29.7449 C   0  0  0  0  0  0  0  0  0  0  0  0
  -30.0746   -3.4361   29.9980 O   0  0  0  0  0  0  0  0  0  0  0  0
  -23.5362    2.1666   27.5513 C   0  0  0  0  0  0  0  0  0  0  0  0
  -22.6562    1.5822   27.1387 F   0  0  0  0  0  0  0  0  0  0  0  0
  -23.9551    3.1065   26.5658 F   0  0  0  0  0  0  0  0  0  0  0  0
  -23.1120    2.9604   28.5840 F   0  0  0  0  0  0  0  0  0  0  0  0
  -31.4182   -2.0239   29.1170 O   0  0  0  0  0  0  0  0  0  0  0  0
  -30.2925   -0.9590   31.6560 O   0  0  0  0  0  0  0  0  0  0  0  0
  -32.0935   -3.0484   28.4032 C   0  0  0  0  0  0  0  0  0  0  0  0
  -32.5666   -2.7110   27.1232 C   0  0  0  0  0  0  0  0  0  0  0  0
  -32.7785   -3.6830   26.2377 C   0  0  0  0  0  0  0  0  0  0  0  0
  -32.7208   -5.0969   26.5626 C   0  0  0  0  0  0  0  0  0  0  0  0
  -32.1849   -5.3798   27.8200 C   0  0  0  0  0  0  0  0  0  0  0  0
  -31.7768   -4.3526   28.6706 C   0  0  0  0  0  0  0  0  0  0  0  0
  1  2  1  0
  1  8  1  0
  8  9  1  0
  9 10  1  0
 10 11  2  0
  5 12  1  0
 12 13  1  0
 12 14  1  0
 12 15  1  0
 10 16  1  0
  9 17  2  0
 16 18  1  0
 18 19  2  0
 19 20  1  0
 20 21  2  0
 21 22  1  0
 22 23  2  0
 23 18  1  0
  2  3  2  0
  3  4  1  0
  4  5  2  0
  5  6  1  0
  6  7  2  0
  7  2  1  0
M  END

$$$$
