No_1732-gen_results/8p0m/2024-11-27-11-27-31/
     RDKit          3D

 18 19  0  0  0  0  0  0  0  0999 V2000
  -28.0727   -1.2542   28.5316 F   0  0  0  0  0  0  0  0  0  0  0  0
  -27.3591   -0.3792   28.7224 C   0  0  0  0  0  0  0  0  0  0  0  0
  -27.7576    0.4972   29.4009 F   0  0  0  0  0  0  0  0  0  0  0  0
  -26.2092   -0.9492   29.3470 F   0  0  0  0  0  0  0  0  0  0  0  0
  -26.8574    0.1197   27.3815 C   0  0  0  0  0  0  0  0  0  0  0  0
  -26.7086    1.5220   27.3504 C   0  0  0  0  0  0  0  0  0  0  0  0
  -26.4666   -0.6404   26.4275 O   0  0  0  0  0  0  0  0  0  0  0  0
  -27.7596    2.3004   27.1296 C   0  0  0  0  0  0  0  0  0  0  0  0
  -25.3610    2.0801   27.3249 C   0  0  0  0  0  0  0  0  0  0  0  0
  -24.2234    1.4433   27.7032 C   0  0  0  0  0  0  0  0  0  0  0  0
  -23.9345    1.2109   29.1298 C   0  0  0  0  0  0  0  0  0  0  0  0
  -23.0269    0.4664   29.4887 C   0  0  0  0  0  0  0  0  0  0  0  0
  -22.2036   -0.2269   28.5787 C   0  0  0  0  0  0  0  0  0  0  0  0
  -22.2355    0.1468   27.3074 C   0  0  0  0  0  0  0  0  0  0  0  0
  -23.3093    0.9027   26.8653 C   0  0  0  0  0  0  0  0  0  0  0  0
  -25.2320    3.4558   26.8977 C   0  0  0  0  0  0  0  0  0  0  0  0
  -26.3632    4.3398   26.9761 C   0  0  0  0  0  0  0  0  0  0  0  0
  -27.6320    3.6839   26.8584 C   0  0  0  0  0  0  0  0  0  0  0  0
  1  2  1  0
  2  3  1  0
  2  4  1  0
  2  5  1  0
  5  6  1  0
  5  7  2  0
  9 10  1  0
  6  8  2  0
  8 18  1  0
 18 17  2  0
 17 16  1  0
 16  9  2  0
  9  6  1  0
 10 11  2  0
 11 12  1  0
 12 13  2  0
 13 14  1  0
 14 15  2  0
 15 10  1  0
M  END

$$$$
