No_1702-gen_results/8p0m/2024-11-27-11-27-31/
     RDKit          3D

 14 15  0  0  0  0  0  0  0  0999 V2000
  -28.0162   -0.8135   28.8779 C   0  0  0  0  0  0  0  0  0  0  0  0
  -27.0636   -0.1190   28.6079 C   0  0  0  0  0  0  0  0  0  0  0  0
  -26.9716    0.7139   27.5060 C   0  0  0  0  0  0  0  0  0  0  0  0
  -28.1053    0.7744   26.6421 C   0  0  0  0  0  0  0  0  0  0  0  0
  -29.2008    0.1044   27.0527 C   0  0  0  0  0  0  0  0  0  0  0  0
  -29.2096   -0.6029   28.1853 C   0  0  0  0  0  0  0  0  0  0  0  0
  -30.2807    0.2156   26.2913 F   0  0  0  0  0  0  0  0  0  0  0  0
  -25.6150   -0.1122   29.2263 C   0  0  0  0  0  0  0  0  0  0  0  0
  -25.3058   -1.0481   30.0997 C   0  0  0  0  0  0  0  0  0  0  0  0
  -24.6601    0.8905   28.9212 C   0  0  0  0  0  0  0  0  0  0  0  0
  -23.9545    1.3838   29.6918 C   0  0  0  0  0  0  0  0  0  0  0  0
  -23.4696    0.5139   30.8008 C   0  0  0  0  0  0  0  0  0  0  0  0
  -24.2319   -0.6614   31.0610 C   0  0  0  0  0  0  0  0  0  0  0  0
  -28.0666    1.5719   25.5518 O   0  0  0  0  0  0  0  0  0  0  0  0
  5  7  1  0
  2  8  1  0
  4 14  1  0
  1  2  2  0
  2  3  1  0
  3  4  2  0
  4  5  1  0
  5  6  2  0
  6  1  1  0
  8  9  2  0
  9 13  1  0
 13 12  2  0
 12 11  1  0
 11 10  2  0
 10  8  1  0
M  END

$$$$
