No_1872-gen_results/8p0m/2024-11-27-11-27-31/
     RDKit          3D

 13 14  0  0  0  0  0  0  0  0999 V2000
  -28.0162   -0.8135   28.8779 C   0  0  0  0  0  0  0  0  0  0  0  0
  -27.0636   -0.1189   28.6079 C   0  0  0  0  0  0  0  0  0  0  0  0
  -25.7923   -0.4302   29.0761 C   0  0  0  0  0  0  0  0  0  0  0  0
  -25.5756   -1.5654   29.9363 C   0  0  0  0  0  0  0  0  0  0  0  0
  -26.7354   -2.3004   30.2173 C   0  0  0  0  0  0  0  0  0  0  0  0
  -27.9184   -1.9537   29.7629 C   0  0  0  0  0  0  0  0  0  0  0  0
  -26.8968    1.1016   27.7052 C   0  0  0  0  0  0  0  0  0  0  0  0
  -27.7061    1.4295   26.9663 C   0  0  0  0  0  0  0  0  0  0  0  0
  -27.5820    2.5717   26.0387 C   0  0  0  0  0  0  0  0  0  0  0  0
  -26.3987    3.3244   26.0310 C   0  0  0  0  0  0  0  0  0  0  0  0
  -25.3763    2.9196   26.9012 C   0  0  0  0  0  0  0  0  0  0  0  0
  -25.5773    1.8525   27.7303 C   0  0  0  0  0  0  0  0  0  0  0  0
  -24.2546    3.6618   26.9183 O   0  0  0  0  0  0  0  0  0  0  0  0
  2  7  1  0
 11 13  1  0
  1  2  2  0
  2  3  1  0
  3  4  2  0
  4  5  1  0
  5  6  2  0
  6  1  1  0
  7  8  2  0
  8  9  1  0
  9 10  2  0
 10 11  1  0
 11 12  2  0
 12  7  1  0
M  END

$$$$
