No_1109-gen_results/8p0m/2024-11-27-11-27-31/
     RDKit          3D

 13 13  0  0  0  0  0  0  0  0999 V2000
  -28.0727   -1.2542   28.5316 F   0  0  0  0  0  0  0  0  0  0  0  0
  -27.0607   -0.6291   28.8721 C   0  0  0  0  0  0  0  0  0  0  0  0
  -27.1759    0.6153   29.3693 C   0  0  0  0  0  0  0  0  0  0  0  0
  -25.7305   -1.2692   28.7241 C   0  0  0  0  0  0  0  0  0  0  0  0
  -24.5526   -0.5078   29.0132 C   0  0  0  0  0  0  0  0  0  0  0  0
  -25.9465    1.3753   29.6814 C   0  0  0  0  0  0  0  0  0  0  0  0
  -24.6746    0.8198   29.5066 C   0  0  0  0  0  0  0  0  0  0  0  0
  -23.2634    1.6976   29.8437 Cl  0  0  0  0  0  0  0  0  0  0  0  0
  -23.1969   -1.0284   28.8963 C   0  0  0  0  0  0  0  0  0  0  0  0
  -22.7291   -1.9955   29.7118 C   0  0  0  0  0  0  0  0  0  0  0  0
  -22.1879    0.1877   28.9266 C   0  0  0  0  0  0  0  0  0  0  0  0
  -22.0636    0.4625   27.8372 O   0  0  0  0  0  0  0  0  0  0  0  0
  -20.9729   -0.1402   29.4735 O   0  0  0  0  0  0  0  0  0  0  0  0
  1  2  1  0
  7  8  1  0
  5  9  1  0
  9 10  1  0
  9 11  1  0
 11 12  2  0
 11 13  1  0
  2  3  2  0
  3  6  1  0
  6  7  2  0
  7  5  1  0
  5  4  2  0
  4  2  1  0
M  END

$$$$
