No_186-gen_results/8p0m/2024-11-27-11-27-31/
     RDKit          3D

 22 24  0  0  0  0  0  0  0  0999 V2000
  -28.0162   -0.8135   28.8779 C   0  0  0  0  0  0  0  0  0  0  0  0
  -27.0636   -0.1189   28.6079 C   0  0  0  0  0  0  0  0  0  0  0  0
  -25.7923   -0.4302   29.0761 C   0  0  0  0  0  0  0  0  0  0  0  0
  -25.5756   -1.5654   29.9363 C   0  0  0  0  0  0  0  0  0  0  0  0
  -26.7354   -2.3004   30.2173 C   0  0  0  0  0  0  0  0  0  0  0  0
  -27.9184   -1.9537   29.7629 C   0  0  0  0  0  0  0  0  0  0  0  0
  -29.0001   -2.7012   30.1151 O   0  0  0  0  0  0  0  0  0  0  0  0
  -24.5290    0.3490   28.7998 C   0  0  0  0  0  0  0  0  0  0  0  0
  -24.1172    1.3368   29.6649 C   0  0  0  0  0  0  0  0  0  0  0  0
  -22.9715    2.1021   29.3757 C   0  0  0  0  0  0  0  0  0  0  0  0
  -22.4163    1.8729   28.1017 C   0  0  0  0  0  0  0  0  0  0  0  0
  -23.7709    0.3487   27.6020 C   0  0  0  0  0  0  0  0  0  0  0  0
  -22.7779    1.0363   27.2675 C   0  0  0  0  0  0  0  0  0  0  0  0
  -28.8711   -3.9615   30.6079 C   0  0  0  0  0  0  0  0  0  0  0  0
  -30.0868   -4.6415   30.8319 C   0  0  0  0  0  0  0  0  0  0  0  0
  -30.9635   -3.9879   31.4912 C   0  0  0  0  0  0  0  0  0  0  0  0
  -30.8143   -2.9468   32.0170 C   0  0  0  0  0  0  0  0  0  0  0  0
  -31.9692   -2.0718   32.2898 C   0  0  0  0  0  0  0  0  0  0  0  0
  -31.7525   -0.8555   33.0037 C   0  0  0  0  0  0  0  0  0  0  0  0
  -30.4683   -0.3824   33.3478 C   0  0  0  0  0  0  0  0  0  0  0  0
  -29.3737   -1.2328   33.1009 C   0  0  0  0  0  0  0  0  0  0  0  0
  -29.5660   -2.4310   32.4844 C   0  0  0  0  0  0  0  0  0  0  0  0
  6  7  1  0
  3  8  1  0
  7 14  1  0
 14 15  1  0
 15 16  1  0
 16 17  1  0
 17 18  2  0
 18 19  1  0
 19 20  2  0
 20 21  1  0
 21 22  2  0
 22 17  1  0
  1  2  2  0
  2  3  1  0
  3  4  2  0
  4  5  1  0
  5  6  2  0
  6  1  1  0
  8  9  2  0
  9 10  1  0
 10 11  2  0
 11 13  1  0
 13 12  2  0
 12  8  1  0
M  END

$$$$
