No_1285-gen_results/8p0m/2024-11-27-11-27-31/
     RDKit          3D

 18 20  0  0  0  0  0  0  0  0999 V2000
  -28.0544   -1.0498   28.7246 N   0  0  0  0  0  0  0  0  0  0  0  0
  -26.9659   -0.4722   28.7709 C   0  0  0  0  0  0  0  0  0  0  0  0
  -26.5486    0.3876   27.8310 C   0  0  0  0  0  0  0  0  0  0  0  0
  -25.2662    1.0684   27.8062 C   0  0  0  0  0  0  0  0  0  0  0  0
  -24.8554    1.9913   26.8317 C   0  0  0  0  0  0  0  0  0  0  0  0
  -25.8693   -0.7917   29.8021 C   0  0  0  0  0  0  0  0  0  0  0  0
  -26.2214   -1.7424   30.8222 C   0  0  0  0  0  0  0  0  0  0  0  0
  -27.4038   -2.2866   30.7177 C   0  0  0  0  0  0  0  0  0  0  0  0
  -28.3316   -2.0045   29.7244 C   0  0  0  0  0  0  0  0  0  0  0  0
  -23.5631    2.6432   26.8734 C   0  0  0  0  0  0  0  0  0  0  0  0
  -22.6443    2.2005   27.7975 C   0  0  0  0  0  0  0  0  0  0  0  0
  -23.0112    1.1914   28.7327 C   0  0  0  0  0  0  0  0  0  0  0  0
  -24.2418    0.6387   28.7246 C   0  0  0  0  0  0  0  0  0  0  0  0
  -24.5976   -0.1946   29.7335 C   0  0  0  0  0  0  0  0  0  0  0  0
  -27.4466    0.7741   26.7350 C   0  0  0  0  0  0  0  0  0  0  0  0
  -28.6102    0.1703   26.7401 F   0  0  0  0  0  0  0  0  0  0  0  0
  -27.6491    2.1234   26.8522 F   0  0  0  0  0  0  0  0  0  0  0  0
  -26.8716    0.5338   25.5424 F   0  0  0  0  0  0  0  0  0  0  0  0
  3 15  1  0
 15 16  1  0
 15 17  1  0
 15 18  1  0
  4  5  1  0
  5 10  2  0
 10 11  1  0
 11 12  2  0
 12 13  1  0
  2  3  1  0
  3  4  2  0
  4 13  1  0
 13 14  2  0
 14  6  1  0
  1  2  2  0
  2  6  1  0
  6  7  2  0
  7  8  1  0
  8  9  2  0
  9  1  1  0
M  END

$$$$
