No_1489-gen_results/8p0m/2024-11-27-11-27-31/
     RDKit          3D

 35 38  0  0  0  0  0  0  0  0999 V2000
  -28.0162   -0.8135   28.8779 C   0  0  0  0  0  0  0  0  0  0  0  0
  -27.0636   -0.1189   28.6079 C   0  0  0  0  0  0  0  0  0  0  0  0
  -27.0010    0.6913   27.4910 C   0  0  0  0  0  0  0  0  0  0  0  0
  -25.8548    1.4825   27.0830 C   0  0  0  0  0  0  0  0  0  0  0  0
  -24.6901    1.4526   27.8807 C   0  0  0  0  0  0  0  0  0  0  0  0
  -24.7379    0.6010   29.0416 C   0  0  0  0  0  0  0  0  0  0  0  0
  -25.8234   -0.1688   29.3887 C   0  0  0  0  0  0  0  0  0  0  0  0
  -28.7568   -0.5479   30.0191 N   0  0  0  0  0  0  0  0  0  0  0  0
  -28.9317    0.3890   30.5031 C   0  0  0  0  0  0  0  0  0  0  0  0
  -29.0495    1.5382   29.9451 C   0  0  0  0  0  0  0  0  0  0  0  0
  -29.3524    2.7841   30.6720 C   0  0  0  0  0  0  0  0  0  0  0  0
  -29.5524    2.6368   32.0409 C   0  0  0  0  0  0  0  0  0  0  0  0
  -29.1418    0.3386   32.0476 C   0  0  0  0  0  0  0  0  0  0  0  0
  -29.4363    1.5042   32.7278 C   0  0  0  0  0  0  0  0  0  0  0  0
  -29.2107   -1.9211   30.6778 C   0  0  0  0  0  0  0  0  0  0  0  0
  -30.1829   -2.5055   30.0688 C   0  0  0  0  0  0  0  0  0  0  0  0
  -31.0425   -2.6907   30.8696 O   0  0  0  0  0  0  0  0  0  0  0  0
  -23.1444    2.3505   27.4287 Br  0  0  0  0  0  0  0  0  0  0  0  0
  -30.3870   -2.5435   28.9291 O   0  0  0  0  0  0  0  0  0  0  0  0
  -28.3174    0.8740   26.4375 Cl  0  0  0  0  0  0  0  0  0  0  0  0
  -23.4389    0.5062   29.8561 C   0  0  0  0  0  0  0  0  0  0  0  0
  -22.7672   -0.3092   29.6385 O   0  0  0  0  0  0  0  0  0  0  0  0
  -23.5757    1.0985   31.0411 O   0  0  0  0  0  0  0  0  0  0  0  0
  -29.4617    4.0557   29.9394 C   0  0  0  0  0  0  0  0  0  0  0  0
  -28.4636    4.7399   29.8369 N   0  0  0  0  0  0  0  0  0  0  0  0
  -27.4405    4.6791   30.4764 C   0  0  0  0  0  0  0  0  0  0  0  0
  -26.2255    5.5893   30.1759 C   0  0  0  0  0  0  0  0  0  0  0  0
  -26.5845    6.7096   29.5768 C   0  0  0  0  0  0  0  0  0  0  0  0
  -28.4883    5.9357   28.9239 C   0  0  0  0  0  0  0  0  0  0  0  0
  -27.5456    6.7828   28.6927 N   0  0  0  0  0  0  0  0  0  0  0  0
  -30.6772    4.6762   30.5260 C   0  0  0  0  0  0  0  0  0  0  0  0
  -29.8612    3.5687   28.4326 C   0  0  0  0  0  0  0  0  0  0  0  0
  -29.5194    4.1423   27.5269 C   0  0  0  0  0  0  0  0  0  0  0  0
  -29.8870    3.8300   26.1403 C   0  0  0  0  0  0  0  0  0  0  0  0
  -28.6730    5.3800   27.6328 C   0  0  0  0  0  0  0  0  0  0  0  0
  1  2  1  0
  1  8  1  0
  8  9  1  0
  8 15  1  0
 15 16  1  0
 16 17  2  0
  5 18  1  0
 16 19  1  0
  3 20  1  0
  6 21  1  0
 21 22  1  0
 21 23  2  0
 11 24  1  0
 24 25  1  0
 25 26  1  0
 27 28  1  0
 25 29  1  0
 28 30  1  0
 24 31  1  0
 24 32  1  0
 33 34  1  0
 29 35  1  0
 33 35  1  0
 26 27  1  0
 30 29  1  0
 32 33  1  0
  2  3  2  0
  3  4  1  0
  4  5  2  0
  5  6  1  0
  6  7  2  0
  7  2  1  0
  9 10  2  0
 10 11  1  0
 11 12  2  0
 12 14  1  0
 14 13  2  0
 13  9  1  0
M  END

$$$$
