No_1019-gen_results/8p0m/2024-11-27-11-27-31/
     RDKit          3D

 27 27  0  0  0  0  0  0  0  0999 V2000
  -28.0162   -0.8135   28.8779 C   0  0  0  0  0  0  0  0  0  0  0  0
  -27.0636   -0.1189   28.6079 C   0  0  0  0  0  0  0  0  0  0  0  0
  -25.7923   -0.4302   29.0761 C   0  0  0  0  0  0  0  0  0  0  0  0
  -25.5756   -1.5654   29.9363 C   0  0  0  0  0  0  0  0  0  0  0  0
  -26.7354   -2.3004   30.2173 C   0  0  0  0  0  0  0  0  0  0  0  0
  -27.9184   -1.9537   29.7629 C   0  0  0  0  0  0  0  0  0  0  0  0
  -29.4034   -2.9791   30.2597 Br  0  0  0  0  0  0  0  0  0  0  0  0
  -27.3191    1.0984   27.8331 C   0  0  0  0  0  0  0  0  0  0  0  0
  -26.5167    2.0453   27.6072 N   0  0  0  0  0  0  0  0  0  0  0  0
  -28.1748    1.0039   26.8599 O   0  0  0  0  0  0  0  0  0  0  0  0
  -26.6191    3.1631   26.7127 C   0  0  0  0  0  0  0  0  0  0  0  0
  -25.3833    3.5724   26.3057 C   0  0  0  0  0  0  0  0  0  0  0  0
  -24.3804    3.0003   26.2289 C   0  0  0  0  0  0  0  0  0  0  0  0
  -23.4088    2.5400   26.5861 C   0  0  0  0  0  0  0  0  0  0  0  0
  -22.0523    1.9067   26.9478 C   0  0  0  0  0  0  0  0  0  0  0  0
  -21.6923    1.0868   28.0934 C   0  0  0  0  0  0  0  0  0  0  0  0
  -20.6918    0.4576   28.0210 N   0  0  0  0  0  0  0  0  0  0  0  0
  -22.5474    1.0006   29.0706 O   0  0  0  0  0  0  0  0  0  0  0  0
  -24.3485   -1.8422   30.3451 N   0  0  0  0  0  0  0  0  0  0  0  0
  -23.6441   -1.1158   31.3171 C   0  0  0  0  0  0  0  0  0  0  0  0
  -23.5700   -2.7363   29.5577 C   0  0  0  0  0  0  0  0  0  0  0  0
  -22.6307   -0.4459   31.2109 C   0  0  0  0  0  0  0  0  0  0  0  0
  -24.4804   -1.0509   32.5937 C   0  0  0  0  0  0  0  0  0  0  0  0
  -28.2706    3.8227   26.5074 Br  0  0  0  0  0  0  0  0  0  0  0  0
  -23.9062   -3.7786   29.2498 O   0  0  0  0  0  0  0  0  0  0  0  0
  -22.4747   -2.1428   29.0142 O   0  0  0  0  0  0  0  0  0  0  0  0
  -25.1059   -0.6059   33.4283 N   0  0  0  0  0  0  0  0  0  0  0  0
  6  7  1  0
  2  8  1  0
  8  9  1  0
  8 10  2  0
  9 11  1  0
 11 12  2  3
 12 13  1  0
 13 14  3  0
 14 15  1  0
 15 16  1  0
 16 17  2  0
 16 18  1  0
  4 19  1  0
 19 20  1  0
 19 21  1  0
 20 22  2  0
 20 23  1  0
 11 24  1  0
 21 25  1  0
 21 26  2  0
 23 27  3  0
  1  2  2  0
  2  3  1  0
  3  4  2  0
  4  5  1  0
  5  6  2  0
  6  1  1  0
M  END

$$$$
