No_1969-gen_results/8p0m/2024-11-27-11-27-31/
     RDKit          3D

 19 22  0  0  0  0  0  0  0  0999 V2000
  -28.0162   -0.8135   28.8779 C   0  0  0  0  0  0  0  0  0  0  0  0
  -28.4690   -0.7850   29.8287 C   0  0  0  0  0  0  0  0  0  0  0  0
  -28.1960    0.3478   28.0550 C   0  0  0  0  0  0  0  0  0  0  0  0
  -29.0191    1.3501   28.3782 C   0  0  0  0  0  0  0  0  0  0  0  0
  -29.6249    1.2683   29.6012 C   0  0  0  0  0  0  0  0  0  0  0  0
  -29.3821    0.1816   30.4004 C   0  0  0  0  0  0  0  0  0  0  0  0
  -27.5492    0.5027   26.6783 C   0  0  0  0  0  0  0  0  0  0  0  0
  -26.1284    0.4975   26.6948 C   0  0  0  0  0  0  0  0  0  0  0  0
  -25.2926    0.4144   27.8439 C   0  0  0  0  0  0  0  0  0  0  0  0
  -24.2011    0.7875   28.0091 C   0  0  0  0  0  0  0  0  0  0  0  0
  -23.3745    0.5658   29.2130 C   0  0  0  0  0  0  0  0  0  0  0  0
  -23.8579   -0.3399   30.1137 C   0  0  0  0  0  0  0  0  0  0  0  0
  -25.0776   -0.8200   29.9509 C   0  0  0  0  0  0  0  0  0  0  0  0
  -25.8587   -0.4357   28.8832 C   0  0  0  0  0  0  0  0  0  0  0  0
  -27.0214   -0.9717   28.7165 C   0  0  0  0  0  0  0  0  0  0  0  0
  -26.6609   -2.2448   28.5969 N   0  0  0  0  0  0  0  0  0  0  0  0
  -25.5405   -2.0059   30.6075 C   0  0  0  0  0  0  0  0  0  0  0  0
  -25.9975   -2.7728   29.6606 C   0  0  0  0  0  0  0  0  0  0  0  0
  -29.3242    2.4990   27.5315 C   0  0  0  0  0  0  0  0  0  0  0  0
  3  7  1  0
  7  8  2  0
  8  9  1  0
  1 15  1  0
  4 19  1  0
  1  2  2  0
  2  6  1  0
  6  5  2  0
  5  4  1  0
  4  3  2  0
  3  1  1  0
 14 15  2  0
 15 16  1  0
 16 18  2  0
 18 17  1  0
 17 13  2  0
  9 10  2  0
 10 11  1  0
 11 12  2  0
 12 13  1  0
 13 14  1  0
 14  9  1  0
M  END

$$$$
