No_1466-gen_results/8p0m/2024-11-27-11-27-31/
     RDKit          3D

 15 16  0  0  0  0  0  0  0  0999 V2000
  -28.1229   -1.3353   28.4874 O   0  0  0  0  0  0  0  0  0  0  0  0
  -27.4806   -0.4044   28.7094 C   0  0  0  0  0  0  0  0  0  0  0  0
  -27.1904    0.2460   29.5268 C   0  0  0  0  0  0  0  0  0  0  0  0
  -26.6021   -0.1576   27.5515 N   0  0  0  0  0  0  0  0  0  0  0  0
  -25.6421    0.9031   27.5822 C   0  0  0  0  0  0  0  0  0  0  0  0
  -25.5004    1.6142   28.7368 C   0  0  0  0  0  0  0  0  0  0  0  0
  -26.2553    1.3158   29.8133 C   0  0  0  0  0  0  0  0  0  0  0  0
  -28.0127   -0.0325   30.9269 C   0  0  0  0  0  0  0  0  0  0  0  0
  -24.9029    1.1258   26.4550 N   0  0  0  0  0  0  0  0  0  0  0  0
  -23.8560    2.0813   26.5915 C   0  0  0  0  0  0  0  0  0  0  0  0
  -23.6530    2.7756   27.6437 N   0  0  0  0  0  0  0  0  0  0  0  0
  -24.3951    2.6163   28.6575 C   0  0  0  0  0  0  0  0  0  0  0  0
  -23.1310    2.1174   25.4083 N   0  0  0  0  0  0  0  0  0  0  0  0
  -28.4694    0.7957   31.4109 O   0  0  0  0  0  0  0  0  0  0  0  0
  -28.3007   -1.3311   31.0311 O   0  0  0  0  0  0  0  0  0  0  0  0
  1  2  2  0
  2  3  1  0
  2  4  1  0
  4  5  1  0
  3  7  1  0
  3  8  1  0
 10 13  1  0
  8 14  1  0
  8 15  2  0
  7  6  1  0
  5  6  2  0
  6 12  1  0
 12 11  2  0
 11 10  1  0
 10  9  2  0
  9  5  1  0
M  END

$$$$
