No_1625-gen_results/8p0m/2024-11-27-11-27-31/
     RDKit          3D

 17 17  0  0  0  0  0  0  0  0999 V2000
  -28.0162   -0.8135   28.8779 C   0  0  0  0  0  0  0  0  0  0  0  0
  -27.0636   -0.1189   28.6079 C   0  0  0  0  0  0  0  0  0  0  0  0
  -27.0010    0.6913   27.4910 C   0  0  0  0  0  0  0  0  0  0  0  0
  -28.1373    0.7363   26.6350 C   0  0  0  0  0  0  0  0  0  0  0  0
  -29.2360    0.0765   27.0690 C   0  0  0  0  0  0  0  0  0  0  0  0
  -29.2177   -0.6429   28.1747 C   0  0  0  0  0  0  0  0  0  0  0  0
  -28.0030   -1.6604   30.1266 C   0  0  0  0  0  0  0  0  0  0  0  0
  -27.0889   -2.4896   30.1569 F   0  0  0  0  0  0  0  0  0  0  0  0
  -29.0886   -2.0959   30.6029 F   0  0  0  0  0  0  0  0  0  0  0  0
  -27.5481   -0.8354   31.1912 F   0  0  0  0  0  0  0  0  0  0  0  0
  -30.6242    0.1809   26.0731 Cl  0  0  0  0  0  0  0  0  0  0  0  0
  -25.7235    1.3868   27.0777 C   0  0  0  0  0  0  0  0  0  0  0  0
  -24.5766    0.9458   27.6649 C   0  0  0  0  0  0  0  0  0  0  0  0
  -23.3291    1.6428   27.4234 C   0  0  0  0  0  0  0  0  0  0  0  0
  -22.1902    1.3676   28.2114 C   0  0  0  0  0  0  0  0  0  0  0  0
  -22.1585    0.3111   29.0573 C   0  0  0  0  0  0  0  0  0  0  0  0
  -23.3144   -0.4822   29.2504 C   0  0  0  0  0  0  0  0  0  0  0  0
  1  7  1  0
  7  8  1  0
  7  9  1  0
  7 10  1  0
  5 11  1  0
  3 12  1  0
 12 13  2  3
 13 14  1  0
 14 15  2  3
 15 16  1  0
 16 17  2  0
  1  2  2  0
  2  3  1  0
  3  4  2  0
  4  5  1  0
  5  6  2  0
  6  1  1  0
M  END

$$$$
