No_1686-gen_results/8p0m/2024-11-27-11-27-31/
     RDKit          3D

 18 18  0  0  0  0  0  0  0  0999 V2000
  -28.0162   -0.8135   28.8779 C   0  0  0  0  0  0  0  0  0  0  0  0
  -27.0636   -0.1190   28.6079 C   0  0  0  0  0  0  0  0  0  0  0  0
  -27.0010    0.6913   27.4910 C   0  0  0  0  0  0  0  0  0  0  0  0
  -25.7770    1.0214   26.9135 C   0  0  0  0  0  0  0  0  0  0  0  0
  -24.5088    0.7364   27.5686 C   0  0  0  0  0  0  0  0  0  0  0  0
  -24.5930   -0.0361   28.7390 C   0  0  0  0  0  0  0  0  0  0  0  0
  -25.8114   -0.4771   29.1584 C   0  0  0  0  0  0  0  0  0  0  0  0
  -29.2371   -0.0330   29.2429 C   0  0  0  0  0  0  0  0  0  0  0  0
  -29.5727    0.7312   28.4567 F   0  0  0  0  0  0  0  0  0  0  0  0
  -29.0767    0.5689   30.4518 F   0  0  0  0  0  0  0  0  0  0  0  0
  -30.2540   -1.0681   29.4253 F   0  0  0  0  0  0  0  0  0  0  0  0
  -23.0755    1.4479   27.0396 Cl  0  0  0  0  0  0  0  0  0  0  0  0
  -23.2842   -0.2763   29.4252 C   0  0  0  0  0  0  0  0  0  0  0  0
  -23.1938   -0.4374   30.7145 C   0  0  0  0  0  0  0  0  0  0  0  0
  -22.1570   -0.6927   28.6033 C   0  0  0  0  0  0  0  0  0  0  0  0
  -23.5395    0.5739   31.4346 F   0  0  0  0  0  0  0  0  0  0  0  0
  -22.7485   -1.2599   31.2485 F   0  0  0  0  0  0  0  0  0  0  0  0
  -27.9202   -1.9784   29.4346 O   0  0  0  0  0  0  0  0  0  0  0  0
  1  2  1  0
  1  8  1  0
  8  9  1  0
  8 10  1  0
  8 11  1  0
  5 12  1  0
  6 13  1  0
 13 14  1  0
 13 15  1  0
 14 16  1  0
 14 17  1  0
  1 18  2  0
  2  3  2  0
  3  4  1  0
  4  5  2  0
  5  6  1  0
  6  7  2  0
  7  2  1  0
M  END

$$$$
