No_1088-gen_results/8p0m/2024-11-27-11-27-31/
     RDKit          3D

 11 10  0  0  0  0  0  0  0  0999 V2000
  -28.0162   -0.8135   28.8779 C   0  0  0  0  0  0  0  0  0  0  0  0
  -26.9857   -0.3274   28.4842 Cl  0  0  0  0  0  0  0  0  0  0  0  0
  -27.9393   -1.6085   30.1403 C   0  0  0  0  0  0  0  0  0  0  0  0
  -28.9644   -1.9970   30.6410 O   0  0  0  0  0  0  0  0  0  0  0  0
  -26.8132   -1.9923   30.5976 O   0  0  0  0  0  0  0  0  0  0  0  0
  -29.3663   -0.3417   28.5256 C   0  0  0  0  0  0  0  0  0  0  0  0
  -29.3785    0.2326   27.4736 O   0  0  0  0  0  0  0  0  0  0  0  0
  -30.4538    0.1043   26.5112 C   0  0  0  0  0  0  0  0  0  0  0  0
  -30.0310    0.0477   25.2043 C   0  0  0  0  0  0  0  0  0  0  0  0
  -28.8733    0.1071   25.0533 O   0  0  0  0  0  0  0  0  0  0  0  0
  -28.1182    0.6749   25.9492 C   0  0  0  0  0  0  0  0  0  0  0  0
  1  2  1  0
  1  3  1  0
  3  4  1  0
  3  5  2  0
  1  6  1  0
  6  7  1  0
  7  8  1  0
  8  9  1  0
  9 10  1  0
 10 11  1  0
M  END

$$$$
