No_1073-gen_results/8p0m/2024-11-27-11-27-31/
     RDKit          3D

 28 30  0  0  0  0  0  0  0  0999 V2000
  -28.0162   -0.8135   28.8779 C   0  0  0  0  0  0  0  0  0  0  0  0
  -28.4690   -0.7850   29.8287 C   0  0  0  0  0  0  0  0  0  0  0  0
  -27.0871    0.2903   28.6377 C   0  0  0  0  0  0  0  0  0  0  0  0
  -26.8317    1.2487   29.5869 C   0  0  0  0  0  0  0  0  0  0  0  0
  -28.3914    0.0801   31.0065 C   0  0  0  0  0  0  0  0  0  0  0  0
  -27.4940    1.1521   30.7841 C   0  0  0  0  0  0  0  0  0  0  0  0
  -26.3172    0.3994   27.3653 C   0  0  0  0  0  0  0  0  0  0  0  0
  -26.9484    0.3460   26.3604 F   0  0  0  0  0  0  0  0  0  0  0  0
  -25.6329    1.6514   27.3249 F   0  0  0  0  0  0  0  0  0  0  0  0
  -25.2326   -0.4943   27.4191 F   0  0  0  0  0  0  0  0  0  0  0  0
  -29.4564   -2.0182   30.2398 C   0  0  0  0  0  0  0  0  0  0  0  0
  -29.0459   -3.1787   30.3813 O   0  0  0  0  0  0  0  0  0  0  0  0
  -30.6738   -1.8051   30.4847 O   0  0  0  0  0  0  0  0  0  0  0  0
  -27.2851    2.1742   31.8456 C   0  0  0  0  0  0  0  0  0  0  0  0
  -26.5106    3.0067   31.7556 C   0  0  0  0  0  0  0  0  0  0  0  0
  -26.2168    4.1005   32.7809 C   0  0  0  0  0  0  0  0  0  0  0  0
  -26.9050    3.9869   33.9637 C   0  0  0  0  0  0  0  0  0  0  0  0
  -27.7866    2.9431   34.1084 C   0  0  0  0  0  0  0  0  0  0  0  0
  -28.0101    2.0187   33.1092 C   0  0  0  0  0  0  0  0  0  0  0  0
  -25.1993    5.1364   32.5387 C   0  0  0  0  0  0  0  0  0  0  0  0
  -24.1228    4.9921   32.9415 O   0  0  0  0  0  0  0  0  0  0  0  0
  -25.5777    6.1162   31.8379 O   0  0  0  0  0  0  0  0  0  0  0  0
  -28.5163    2.8075   35.4292 C   0  0  0  0  0  0  0  0  0  0  0  0
  -29.0508    1.8711   35.7447 C   0  0  0  0  0  0  0  0  0  0  0  0
  -29.8453    1.7079   36.9802 C   0  0  0  0  0  0  0  0  0  0  0  0
  -29.8877    2.8305   37.8219 C   0  0  0  0  0  0  0  0  0  0  0  0
  -29.2174    3.9693   37.4747 C   0  0  0  0  0  0  0  0  0  0  0  0
  -28.5165    4.0484   36.2925 C   0  0  0  0  0  0  0  0  0  0  0  0
  3  7  1  0
  7  8  1  0
  7  9  1  0
  7 10  1  0
  2 11  1  0
 11 12  1  0
 11 13  2  0
  6 14  1  0
 16 20  1  0
 20 21  1  0
 20 22  2  0
 18 23  1  0
 14 15  2  0
 15 16  1  0
 16 17  2  0
 17 18  1  0
 18 19  2  0
 19 14  1  0
 23 24  2  0
 24 25  1  0
 25 26  2  0
 26 27  1  0
 27 28  2  0
 28 23  1  0
  1  2  2  0
  2  5  1  0
  5  6  2  0
  6  4  1  0
  4  3  2  0
  3  1  1  0
M  END

$$$$
