No_1346-gen_results/8p0m/2024-11-27-11-27-31/
     RDKit          3D

  8  7  0  0  0  0  0  0  0  0999 V2000
  -28.0727   -1.2542   28.5316 F   0  0  0  0  0  0  0  0  0  0  0  0
  -27.3591   -0.3792   28.7224 C   0  0  0  0  0  0  0  0  0  0  0  0
  -27.7576    0.4972   29.4008 F   0  0  0  0  0  0  0  0  0  0  0  0
  -26.0810   -0.3916   28.0774 C   0  0  0  0  0  0  0  0  0  0  0  0
  -25.7306    0.7169   27.3094 C   0  0  0  0  0  0  0  0  0  0  0  0
  -24.3608    0.8917   26.8520 C   0  0  0  0  0  0  0  0  0  0  0  0
  -23.3239    0.3408   27.5982 C   0  0  0  0  0  0  0  0  0  0  0  0
  -23.7096   -0.6038   28.6393 C   0  0  0  0  0  0  0  0  0  0  0  0
  1  2  1  0
  2  3  1  0
  2  4  1  0
  4  5  2  3
  5  6  1  0
  6  7  2  3
  7  8  1  0
M  END

$$$$
