No_1055-gen_results/8p0m/2024-11-27-11-27-31/
     RDKit          3D

 16 16  0  0  0  0  0  0  0  0999 V2000
  -28.0162   -0.8135   28.8779 C   0  0  0  0  0  0  0  0  0  0  0  0
  -28.4690   -0.7850   29.8287 C   0  0  0  0  0  0  0  0  0  0  0  0
  -26.5042   -0.7777   28.8766 C   0  0  0  0  0  0  0  0  0  0  0  0
  -25.9150   -0.6580   29.9230 C   0  0  0  0  0  0  0  0  0  0  0  0
  -27.9691   -0.7243   31.2047 C   0  0  0  0  0  0  0  0  0  0  0  0
  -26.5847   -0.6393   31.2062 C   0  0  0  0  0  0  0  0  0  0  0  0
  -24.4026   -0.5847   30.0419 C   0  0  0  0  0  0  0  0  0  0  0  0
  -23.8672    0.8008   29.9560 C   0  0  0  0  0  0  0  0  0  0  0  0
  -23.4692    1.3156   28.7357 C   0  0  0  0  0  0  0  0  0  0  0  0
  -22.2072    1.1188   28.2891 C   0  0  0  0  0  0  0  0  0  0  0  0
  -24.1470    2.5157   28.2884 C   0  0  0  0  0  0  0  0  0  0  0  0
  -25.2645    2.9410   28.7960 N   0  0  0  0  0  0  0  0  0  0  0  0
  -21.7865    1.7634   27.1312 N   0  0  0  0  0  0  0  0  0  0  0  0
  -21.3627    0.3012   28.9142 N   0  0  0  0  0  0  0  0  0  0  0  0
  -23.9012    3.1378   27.1959 O   0  0  0  0  0  0  0  0  0  0  0  0
  -26.1510    3.9259   28.3736 C   0  0  0  0  0  0  0  0  0  0  0  0
  4  7  1  0
  7  8  1  0
  8  9  1  0
  9 10  2  3
  9 11  1  0
 11 12  1  0
 10 13  1  0
 10 14  1  0
 11 15  2  0
 12 16  1  0
  1  2  2  0
  2  5  1  0
  5  6  2  0
  6  4  1  0
  4  3  2  0
  3  1  1  0
M  END

$$$$
