No_144-gen_results/8p0m/2024-11-27-11-27-31/
     RDKit          3D

 10 11  0  0  0  0  0  0  0  0999 V2000
  -28.0162   -0.8135   28.8779 C   0  0  0  0  0  0  0  0  0  0  0  0
  -28.4690   -0.7850   29.8287 C   0  0  0  0  0  0  0  0  0  0  0  0
  -26.5455   -0.8762   28.8500 C   0  0  0  0  0  0  0  0  0  0  0  0
  -25.8041   -1.0324   30.0571 C   0  0  0  0  0  0  0  0  0  0  0  0
  -26.5373   -1.0386   31.2171 C   0  0  0  0  0  0  0  0  0  0  0  0
  -27.8843   -0.9532   31.1862 C   0  0  0  0  0  0  0  0  0  0  0  0
  -24.3555   -1.1121   30.0346 C   0  0  0  0  0  0  0  0  0  0  0  0
  -23.6129   -1.1081   29.0414 C   0  0  0  0  0  0  0  0  0  0  0  0
  -24.0230   -0.6094   27.8564 C   0  0  0  0  0  0  0  0  0  0  0  0
  -25.5207   -0.6259   27.8046 N   0  0  0  0  0  0  0  0  0  0  0  0
  4  7  2  0
  7  8  1  0
  8  9  2  0
  9 10  1  0
 10  3  2  0
  1  2  2  0
  2  6  1  0
  6  5  2  0
  5  4  1  0
  4  3  1  0
  3  1  1  0
M  END

$$$$
