No_1178-gen_results/8p0m/2024-11-27-11-27-31/
     RDKit          3D

 11 11  0  0  0  0  0  0  0  0999 V2000
  -28.0162   -0.8135   28.8779 C   0  0  0  0  0  0  0  0  0  0  0  0
  -27.0636   -0.1190   28.6079 C   0  0  0  0  0  0  0  0  0  0  0  0
  -25.7923   -0.4302   29.0761 C   0  0  0  0  0  0  0  0  0  0  0  0
  -25.5756   -1.5654   29.9363 C   0  0  0  0  0  0  0  0  0  0  0  0
  -26.7354   -2.3004   30.2173 C   0  0  0  0  0  0  0  0  0  0  0  0
  -27.9184   -1.9537   29.7629 C   0  0  0  0  0  0  0  0  0  0  0  0
  -29.3585   -2.7341   30.1521 Cl  0  0  0  0  0  0  0  0  0  0  0  0
  -24.6534    0.5009   28.7373 C   0  0  0  0  0  0  0  0  0  0  0  0
  -24.4607    0.9539   27.5794 N   0  0  0  0  0  0  0  0  0  0  0  0
  -24.1746    2.0753   27.2551 C   0  0  0  0  0  0  0  0  0  0  0  0
  -24.3888    2.5820   25.9325 C   0  0  0  0  0  0  0  0  0  0  0  0
  6  7  1  0
  3  8  1  0
  8  9  1  0
  9 10  1  0
 10 11  2  0
  1  2  2  0
  2  3  1  0
  3  4  2  0
  4  5  1  0
  5  6  2  0
  6  1  1  0
M  END

$$$$
