No_172-gen_results/8p0m/2024-11-27-11-27-31/
     RDKit          3D

 13 13  0  0  0  0  0  0  0  0999 V2000
  -28.0162   -0.8135   28.8779 C   0  0  0  0  0  0  0  0  0  0  0  0
  -28.4690   -0.7850   29.8287 C   0  0  0  0  0  0  0  0  0  0  0  0
  -27.0871    0.2903   28.6377 C   0  0  0  0  0  0  0  0  0  0  0  0
  -26.7676    1.0274   29.4716 C   0  0  0  0  0  0  0  0  0  0  0  0
  -28.2764    0.0268   31.0145 C   0  0  0  0  0  0  0  0  0  0  0  0
  -27.3287    1.0538   30.7535 C   0  0  0  0  0  0  0  0  0  0  0  0
  -26.3859    0.3011   27.2661 C   0  0  0  0  0  0  0  0  0  0  0  0
  -26.3271    1.4508   26.9047 F   0  0  0  0  0  0  0  0  0  0  0  0
  -25.1602   -0.2825   27.3567 F   0  0  0  0  0  0  0  0  0  0  0  0
  -27.1046   -0.3265   26.2645 F   0  0  0  0  0  0  0  0  0  0  0  0
  -29.4922   -1.9883   30.2702 C   0  0  0  0  0  0  0  0  0  0  0  0
  -29.1338   -3.1569   30.3994 O   0  0  0  0  0  0  0  0  0  0  0  0
  -30.7008   -1.7029   30.4802 O   0  0  0  0  0  0  0  0  0  0  0  0
  3  7  1  0
  7  8  1  0
  7  9  1  0
  7 10  1  0
  2 11  1  0
 11 12  2  0
 11 13  1  0
  1  2  2  0
  2  5  1  0
  5  6  2  0
  6  4  1  0
  4  3  2  0
  3  1  1  0
M  END

$$$$
