No_1052-gen_results/8p0m/2024-11-27-11-27-31/
     RDKit          3D

 12 13  0  0  0  0  0  0  0  0999 V2000
  -28.1229   -1.3353   28.4874 O   0  0  0  0  0  0  0  0  0  0  0  0
  -27.4806   -0.4044   28.7094 C   0  0  0  0  0  0  0  0  0  0  0  0
  -27.1904    0.2460   29.5268 C   0  0  0  0  0  0  0  0  0  0  0  0
  -26.6021   -0.1576   27.5515 N   0  0  0  0  0  0  0  0  0  0  0  0
  -25.6421    0.9031   27.5822 C   0  0  0  0  0  0  0  0  0  0  0  0
  -25.5004    1.6142   28.7368 C   0  0  0  0  0  0  0  0  0  0  0  0
  -26.2553    1.3158   29.8133 C   0  0  0  0  0  0  0  0  0  0  0  0
  -24.8953    1.1477   26.4948 N   0  0  0  0  0  0  0  0  0  0  0  0
  -23.9055    2.1467   26.6565 C   0  0  0  0  0  0  0  0  0  0  0  0
  -23.6742    2.8043   27.7012 N   0  0  0  0  0  0  0  0  0  0  0  0
  -24.4111    2.5928   28.7266 C   0  0  0  0  0  0  0  0  0  0  0  0
  -23.1247    2.3992   25.5494 N   0  0  0  0  0  0  0  0  0  0  0  0
  1  2  2  0
  2  3  1  0
  2  4  1  0
  4  5  1  0
  5  6  1  0
  5  8  1  0
  8  9  1  0
  9 10  1  0
  6 11  1  0
 10 11  1  0
  9 12  1  0
  3  7  1  0
  7  6  1  0
M  END

$$$$
