No_1783-gen_results/8p0m/2024-11-27-11-27-31/
     RDKit          3D

 35 38  0  0  0  0  0  0  0  0999 V2000
  -28.1229   -1.3353   28.4874 O   0  0  0  0  0  0  0  0  0  0  0  0
  -27.4806   -0.4044   28.7094 C   0  0  0  0  0  0  0  0  0  0  0  0
  -26.3804   -0.0867   27.9394 C   0  0  0  0  0  0  0  0  0  0  0  0
  -27.6664    0.4468   29.8988 N   0  0  0  0  0  0  0  0  0  0  0  0
  -26.4086    0.8567   26.8802 C   0  0  0  0  0  0  0  0  0  0  0  0
  -25.2466    1.1198   26.1102 C   0  0  0  0  0  0  0  0  0  0  0  0
  -23.9991    0.7500   26.5964 C   0  0  0  0  0  0  0  0  0  0  0  0
  -23.9411    0.0388   27.7865 C   0  0  0  0  0  0  0  0  0  0  0  0
  -25.0420   -0.3844   28.4675 C   0  0  0  0  0  0  0  0  0  0  0  0
  -28.7555    0.1052   30.7791 C   0  0  0  0  0  0  0  0  0  0  0  0
  -22.5984   -0.2318   28.3970 C   0  0  0  0  0  0  0  0  0  0  0  0
  -22.5003   -1.1183   29.3646 C   0  0  0  0  0  0  0  0  0  0  0  0
  -21.5088    0.6730   28.0786 C   0  0  0  0  0  0  0  0  0  0  0  0
  -20.3238    0.3458   28.6908 N   0  0  0  0  0  0  0  0  0  0  0  0
  -21.6406    1.8758   27.5914 N   0  0  0  0  0  0  0  0  0  0  0  0
  -29.4800    0.8156   31.0636 C   0  0  0  0  0  0  0  0  0  0  0  0
  -30.5709    0.5331   32.0810 C   0  0  0  0  0  0  0  0  0  0  0  0
  -30.6015   -0.7672   32.6065 C   0  0  0  0  0  0  0  0  0  0  0  0
  -29.6290   -1.6887   32.1682 C   0  0  0  0  0  0  0  0  0  0  0  0
  -28.6351   -1.2946   31.3081 C   0  0  0  0  0  0  0  0  0  0  0  0
  -26.9908    1.6521   30.1626 C   0  0  0  0  0  0  0  0  0  0  0  0
  -26.1860    1.7230   31.3001 C   0  0  0  0  0  0  0  0  0  0  0  0
  -25.8628    1.1604   32.1430 C   0  0  0  0  0  0  0  0  0  0  0  0
  -26.2730   -0.2068   32.4399 C   0  0  0  0  0  0  0  0  0  0  0  0
  -25.4989   -0.9556   33.1909 C   0  0  0  0  0  0  0  0  0  0  0  0
  -24.3921   -0.6373   33.3213 C   0  0  0  0  0  0  0  0  0  0  0  0
  -23.7071    0.5296   32.8975 C   0  0  0  0  0  0  0  0  0  0  0  0
  -24.4240    1.3420   32.4223 C   0  0  0  0  0  0  0  0  0  0  0  0
  -27.3617    2.8082   29.3786 C   0  0  0  0  0  0  0  0  0  0  0  0
  -28.4009    3.2435   28.8696 C   0  0  0  0  0  0  0  0  0  0  0  0
  -28.5781    4.2574   28.0388 C   0  0  0  0  0  0  0  0  0  0  0  0
  -26.1483    3.6769   29.1161 C   0  0  0  0  0  0  0  0  0  0  0  0
  -26.2014    4.8160   28.3013 C   0  0  0  0  0  0  0  0  0  0  0  0
  -27.4312    5.1306   27.7479 C   0  0  0  0  0  0  0  0  0  0  0  0
  -28.0707    1.2146   26.1143 Br  0  0  0  0  0  0  0  0  0  0  0  0
  1  2  2  0
  2  3  1  0
  2  4  1  0
  4 10  1  0
  8 11  1  0
 11 12  2  0
 11 13  1  0
 13 14  1  0
 13 15  1  0
  4 21  1  0
 21 22  1  0
 21 29  1  0
  5 35  1  0
 22 23  1  0
 10 16  2  0
 16 17  1  0
 17 18  2  0
 18 19  1  0
 19 20  2  0
 20 10  1  0
  3  5  2  0
  5  6  1  0
  6  7  2  0
  7  8  1  0
  8  9  2  0
  9  3  1  0
 23 24  2  0
 24 25  1  0
 25 26  2  0
 26 27  1  0
 27 28  2  0
 28 23  1  0
 29 30  2  0
 30 31  1  0
 31 34  2  0
 34 33  1  0
 33 32  2  0
 32 29  1  0
M  END

$$$$
