No_1456-gen_results/8p0m/2024-11-27-11-27-31/
     RDKit          3D

 19 20  0  0  0  0  0  0  0  0999 V2000
  -28.0162   -0.8135   28.8779 C   0  0  0  0  0  0  0  0  0  0  0  0
  -27.0636   -0.1189   28.6079 C   0  0  0  0  0  0  0  0  0  0  0  0
  -25.7923   -0.4302   29.0761 C   0  0  0  0  0  0  0  0  0  0  0  0
  -24.5456    0.3494   28.8225 C   0  0  0  0  0  0  0  0  0  0  0  0
  -24.6586    1.4196   27.8878 C   0  0  0  0  0  0  0  0  0  0  0  0
  -25.9471    1.6811   27.3792 C   0  0  0  0  0  0  0  0  0  0  0  0
  -27.0439    0.9739   27.6871 C   0  0  0  0  0  0  0  0  0  0  0  0
  -29.1797   -0.1202   29.1288 N   0  0  0  0  0  0  0  0  0  0  0  0
  -30.2095   -0.7652   29.7428 C   0  0  0  0  0  0  0  0  0  0  0  0
  -23.4456    2.1545   27.6087 C   0  0  0  0  0  0  0  0  0  0  0  0
  -23.4813    3.1347   26.8867 O   0  0  0  0  0  0  0  0  0  0  0  0
  -22.2605    1.6971   27.9565 O   0  0  0  0  0  0  0  0  0  0  0  0
  -30.4360   -0.7442   31.0008 C   0  0  0  0  0  0  0  0  0  0  0  0
  -29.8216    0.3129   31.6965 C   0  0  0  0  0  0  0  0  0  0  0  0
  -29.4737    1.4408   31.1106 C   0  0  0  0  0  0  0  0  0  0  0  0
  -28.7620    1.0693   30.1810 C   0  0  0  0  0  0  0  0  0  0  0  0
  -25.5156   -1.5522   30.0419 C   0  0  0  0  0  0  0  0  0  0  0  0
  -24.6033   -2.4453   29.6309 C   0  0  0  0  0  0  0  0  0  0  0  0
  -26.3961   -1.7403   31.0887 C   0  0  0  0  0  0  0  0  0  0  0  0
  1  2  1  0
  1  8  1  0
  8  9  1  0
  5 10  1  0
 10 11  2  0
 10 12  1  0
 13 14  1  0
  8 16  1  0
 15 16  1  0
  3 17  1  0
 17 18  1  0
 17 19  1  0
  9 13  1  0
 14 15  1  0
  2  3  2  0
  3  4  1  0
  4  5  2  0
  5  6  1  0
  6  7  2  0
  7  2  1  0
M  END

$$$$
