No_194-gen_results/8p0m/2024-11-27-11-27-31/
     RDKit          3D

 16 16  0  0  0  0  0  0  0  0999 V2000
  -28.0162   -0.8135   28.8779 C   0  0  0  0  0  0  0  0  0  0  0  0
  -28.4690   -0.7850   29.8287 C   0  0  0  0  0  0  0  0  0  0  0  0
  -26.5455   -0.8762   28.8500 C   0  0  0  0  0  0  0  0  0  0  0  0
  -25.8041   -1.0324   30.0571 C   0  0  0  0  0  0  0  0  0  0  0  0
  -27.9437   -0.9869   31.2075 C   0  0  0  0  0  0  0  0  0  0  0  0
  -26.5825   -1.0386   31.2231 C   0  0  0  0  0  0  0  0  0  0  0  0
  -30.0606   -0.7371   29.9024 C   0  0  0  0  0  0  0  0  0  0  0  0
  -30.7252   -1.5544   30.2697 O   0  0  0  0  0  0  0  0  0  0  0  0
  -30.5245    0.5663   29.6971 N   0  0  0  0  0  0  0  0  0  0  0  0
  -31.9302    0.7636   29.6237 C   0  0  0  0  0  0  0  0  0  0  0  0
  -29.6836    1.6912   29.3393 C   0  0  0  0  0  0  0  0  0  0  0  0
  -29.5347    2.2109   28.2744 C   0  0  0  0  0  0  0  0  0  0  0  0
  -28.5885    3.2634   28.0150 C   0  0  0  0  0  0  0  0  0  0  0  0
  -28.2886    3.7890   26.7633 C   0  0  0  0  0  0  0  0  0  0  0  0
  -29.0642    3.2837   25.6333 C   0  0  0  0  0  0  0  0  0  0  0  0
  -29.9819    2.3059   25.8576 C   0  0  0  0  0  0  0  0  0  0  0  0
  2  7  1  0
  7  8  2  0
  7  9  1  0
  9 10  1  0
  9 11  1  0
 11 12  2  3
 12 13  1  0
 13 14  2  3
 14 15  1  0
 15 16  2  0
  1  2  2  0
  2  5  1  0
  5  6  2  0
  6  4  1  0
  4  3  2  0
  3  1  1  0
M  END

$$$$
