No_1607-gen_results/8p0m/2024-11-27-11-27-31/
     RDKit          3D

 31 33  0  0  0  0  0  0  0  0999 V2000
  -28.0162   -0.8135   28.8779 C   0  0  0  0  0  0  0  0  0  0  0  0
  -27.0636   -0.1189   28.6079 C   0  0  0  0  0  0  0  0  0  0  0  0
  -26.9716    0.7139   27.5060 C   0  0  0  0  0  0  0  0  0  0  0  0
  -28.1053    0.7744   26.6421 C   0  0  0  0  0  0  0  0  0  0  0  0
  -29.2041    0.1179   27.0477 C   0  0  0  0  0  0  0  0  0  0  0  0
  -29.2127   -0.6088   28.1281 C   0  0  0  0  0  0  0  0  0  0  0  0
  -25.7106    1.4518   27.1380 C   0  0  0  0  0  0  0  0  0  0  0  0
  -24.6052    0.9253   27.6902 C   0  0  0  0  0  0  0  0  0  0  0  0
  -24.5938    0.0936   28.8218 C   0  0  0  0  0  0  0  0  0  0  0  0
  -25.7077   -0.4530   29.2468 C   0  0  0  0  0  0  0  0  0  0  0  0
  -23.2701    1.6921   27.4122 C   0  0  0  0  0  0  0  0  0  0  0  0
  -23.3078    2.4207   26.4114 F   0  0  0  0  0  0  0  0  0  0  0  0
  -22.8292    2.4342   28.5125 F   0  0  0  0  0  0  0  0  0  0  0  0
  -22.1968    0.7980   27.3038 F   0  0  0  0  0  0  0  0  0  0  0  0
  -28.0633    1.6706   25.4685 C   0  0  0  0  0  0  0  0  0  0  0  0
  -25.6724   -1.3522   30.3983 C   0  0  0  0  0  0  0  0  0  0  0  0
  -25.5947   -1.0178   31.4461 O   0  0  0  0  0  0  0  0  0  0  0  0
  -25.6484   -2.6321   30.0477 O   0  0  0  0  0  0  0  0  0  0  0  0
  -28.5953    2.8927   25.5560 C   0  0  0  0  0  0  0  0  0  0  0  0
  -27.5769    1.0532   24.2798 C   0  0  0  0  0  0  0  0  0  0  0  0
  -29.6337    3.3136   26.1848 C   0  0  0  0  0  0  0  0  0  0  0  0
  -30.0249    4.6747   26.2192 C   0  0  0  0  0  0  0  0  0  0  0  0
  -30.1080    5.3642   27.0708 C   0  0  0  0  0  0  0  0  0  0  0  0
  -30.1253    6.8755   27.0015 C   0  0  0  0  0  0  0  0  0  0  0  0
  -30.0704    5.0102   28.3874 O   0  0  0  0  0  0  0  0  0  0  0  0
  -30.3000    7.5862   27.9794 N   0  0  0  0  0  0  0  0  0  0  0  0
  -30.2396    8.8805   27.9617 C   0  0  0  0  0  0  0  0  0  0  0  0
  -30.3872    9.6990   29.1600 C   0  0  0  0  0  0  0  0  0  0  0  0
  -30.6734    8.9661   30.3190 C   0  0  0  0  0  0  0  0  0  0  0  0
  -30.7167    7.6066   30.2980 C   0  0  0  0  0  0  0  0  0  0  0  0
  -30.5178    6.9416   29.1678 C   0  0  0  0  0  0  0  0  0  0  0  0
  8 11  1  0
 11 12  1  0
 11 13  1  0
 11 14  1  0
  4 15  1  0
 10 16  1  0
 16 17  2  0
 16 18  1  0
 15 19  1  0
 15 20  1  0
 19 21  1  0
 21 22  2  3
 22 23  1  0
 23 24  1  0
 23 25  2  0
 24 26  1  0
 26 27  1  0
 28 29  1  0
 26 31  1  0
 30 31  1  0
 27 28  1  0
 29 30  1  0
  1  2  2  0
  3  4  2  0
  4  5  1  0
  5  6  2  0
  6  1  1  0
  2  3  1  0
  3  7  1  0
  7  8  2  0
  8  9  1  0
  9 10  2  0
 10  2  1  0
M  END

$$$$
