No_1451-gen_results/8p0m/2024-11-27-11-27-31/
     RDKit          3D

 22 24  0  0  0  0  0  0  0  0999 V2000
  -28.0162   -0.8135   28.8779 C   0  0  0  0  0  0  0  0  0  0  0  0
  -27.0636   -0.1189   28.6079 C   0  0  0  0  0  0  0  0  0  0  0  0
  -26.9287    1.1713   29.0083 C   0  0  0  0  0  0  0  0  0  0  0  0
  -25.7702    2.0341   28.6884 C   0  0  0  0  0  0  0  0  0  0  0  0
  -25.6189    3.3482   29.0918 C   0  0  0  0  0  0  0  0  0  0  0  0
  -29.0712   -0.3338   29.7689 C   0  0  0  0  0  0  0  0  0  0  0  0
  -29.0128    0.9333   30.1718 C   0  0  0  0  0  0  0  0  0  0  0  0
  -27.8993    1.7759   29.8587 C   0  0  0  0  0  0  0  0  0  0  0  0
  -26.6278    3.8479   30.0392 C   0  0  0  0  0  0  0  0  0  0  0  0
  -27.7362    3.1115   30.3491 C   0  0  0  0  0  0  0  0  0  0  0  0
  -24.7008    1.5167   27.7895 C   0  0  0  0  0  0  0  0  0  0  0  0
  -23.4464    1.0967   28.4907 C   0  0  0  0  0  0  0  0  0  0  0  0
  -23.3169   -0.1414   29.0435 C   0  0  0  0  0  0  0  0  0  0  0  0
  -21.9516   -0.4147   29.5403 C   0  0  0  0  0  0  0  0  0  0  0  0
  -20.8755    0.1385   28.8490 C   0  0  0  0  0  0  0  0  0  0  0  0
  -22.2688    1.6910   27.8788 C   0  0  0  0  0  0  0  0  0  0  0  0
  -21.0186    1.2675   28.1354 C   0  0  0  0  0  0  0  0  0  0  0  0
  -24.8062    1.8487   26.6290 O   0  0  0  0  0  0  0  0  0  0  0  0
  -26.3858    5.6233   30.6321 Br  0  0  0  0  0  0  0  0  0  0  0  0
  -30.1812   -1.2186   30.0975 C   0  0  0  0  0  0  0  0  0  0  0  0
  -30.7755   -0.9165   31.1404 O   0  0  0  0  0  0  0  0  0  0  0  0
  -30.6467   -1.9782   29.2204 O   0  0  0  0  0  0  0  0  0  0  0  0
  4 11  1  0
 11 12  1  0
 11 18  2  0
  9 19  1  0
  6 20  1  0
 20 21  2  0
 20 22  1  0
 12 13  2  0
 13 14  1  0
 14 15  2  0
 15 17  1  0
 17 16  2  0
 16 12  1  0
  1  2  2  0
  2  3  1  0
  8  7  1  0
  7  6  2  0
  6  1  1  0
  3  4  2  0
  4  5  1  0
  5  9  2  0
  9 10  1  0
 10  8  2  0
  8  3  1  0
M  END

$$$$
