No_1381-gen_results/8p0m/2024-11-27-11-27-31/
     RDKit          3D

 35 39  0  0  0  0  0  0  0  0999 V2000
  -28.0162   -0.8135   28.8779 C   0  0  0  0  0  0  0  0  0  0  0  0
  -28.4690   -0.7850   29.8287 C   0  0  0  0  0  0  0  0  0  0  0  0
  -27.0871    0.2903   28.6377 C   0  0  0  0  0  0  0  0  0  0  0  0
  -26.8317    1.2487   29.5869 C   0  0  0  0  0  0  0  0  0  0  0  0
  -28.3914    0.0801   31.0065 C   0  0  0  0  0  0  0  0  0  0  0  0
  -27.4940    1.1521   30.7841 C   0  0  0  0  0  0  0  0  0  0  0  0
  -26.3109    0.3918   27.3640 C   0  0  0  0  0  0  0  0  0  0  0  0
  -26.7672    1.0252   26.3723 C   0  0  0  0  0  0  0  0  0  0  0  0
  -26.0109    1.0160   25.1236 C   0  0  0  0  0  0  0  0  0  0  0  0
  -25.0722   -0.2318   27.3154 C   0  0  0  0  0  0  0  0  0  0  0  0
  -24.5434   -0.9182   28.5813 C   0  0  0  0  0  0  0  0  0  0  0  0
  -24.6766    0.4704   25.1098 C   0  0  0  0  0  0  0  0  0  0  0  0
  -24.2773   -0.1545   26.2174 C   0  0  0  0  0  0  0  0  0  0  0  0
  -23.4684   -0.2725   29.2231 C   0  0  0  0  0  0  0  0  0  0  0  0
  -22.8098    0.9308   28.8287 C   0  0  0  0  0  0  0  0  0  0  0  0
  -24.8999   -2.2124   28.8469 C   0  0  0  0  0  0  0  0  0  0  0  0
  -24.6294   -2.7989   29.8195 C   0  0  0  0  0  0  0  0  0  0  0  0
  -23.5948   -2.1812   30.7432 C   0  0  0  0  0  0  0  0  0  0  0  0
  -23.0221   -1.0068   30.4055 C   0  0  0  0  0  0  0  0  0  0  0  0
  -25.9551    2.4077   29.4107 C   0  0  0  0  0  0  0  0  0  0  0  0
  -25.5304    2.7377   28.4816 O   0  0  0  0  0  0  0  0  0  0  0  0
  -25.6205    3.0591   30.6034 N   0  0  0  0  0  0  0  0  0  0  0  0
  -26.0038    2.7055   31.9245 C   0  0  0  0  0  0  0  0  0  0  0  0
  -27.0591    1.8223   32.0779 C   0  0  0  0  0  0  0  0  0  0  0  0
  -21.6530    0.7962   28.5502 O   0  0  0  0  0  0  0  0  0  0  0  0
  -27.5309    1.5235   33.3875 C   0  0  0  0  0  0  0  0  0  0  0  0
  -27.1485    0.3567   33.9307 C   0  0  0  0  0  0  0  0  0  0  0  0
  -25.9846   -0.1061   33.8155 C   0  0  0  0  0  0  0  0  0  0  0  0
  -25.5044   -1.2477   34.6594 C   0  0  0  0  0  0  0  0  0  0  0  0
  -26.3336   -1.6372   35.6740 C   0  0  0  0  0  0  0  0  0  0  0  0
  -27.4197   -1.0262   35.8714 C   0  0  0  0  0  0  0  0  0  0  0  0
  -27.9184    0.0235   35.1191 C   0  0  0  0  0  0  0  0  0  0  0  0
  -28.4553    2.3506   33.7250 O   0  0  0  0  0  0  0  0  0  0  0  0
  -25.4616    3.4300   32.8450 O   0  0  0  0  0  0  0  0  0  0  0  0
  -23.4051    2.0697   28.8026 O   0  0  0  0  0  0  0  0  0  0  0  0
  3  7  1  0
 10 11  1  0
 14 15  1  0
  4 20  1  0
 20 21  2  0
 20 22  1  0
 22 23  1  0
  6 24  1  0
 23 24  1  0
 15 25  2  0
 24 26  1  0
 26 27  1  0
 26 33  2  0
 23 34  2  0
 15 35  1  0
  7  8  2  0
  8  9  1  0
  9 12  2  0
 12 13  1  0
 13 10  2  0
 10  7  1  0
 27 28  2  0
 28 29  1  0
 29 30  2  0
 30 31  1  0
 31 32  2  0
 32 27  1  0
 11 14  2  0
 14 19  1  0
 19 18  2  0
 18 17  1  0
 17 16  2  0
 16 11  1  0
  1  2  2  0
  2  5  1  0
  5  6  2  0
  6  4  1  0
  4  3  2  0
  3  1  1  0
M  END

$$$$
