No_1331-gen_results/8p0m/2024-11-27-11-27-31/
     RDKit          3D

 14 15  0  0  0  0  0  0  0  0999 V2000
  -28.0162   -0.8135   28.8779 C   0  0  0  0  0  0  0  0  0  0  0  0
  -27.0636   -0.1189   28.6079 C   0  0  0  0  0  0  0  0  0  0  0  0
  -25.7647   -0.3897   29.0360 C   0  0  0  0  0  0  0  0  0  0  0  0
  -25.5296   -1.5302   29.9014 C   0  0  0  0  0  0  0  0  0  0  0  0
  -26.6888   -2.2893   30.1810 C   0  0  0  0  0  0  0  0  0  0  0  0
  -27.8727   -1.9508   29.7373 C   0  0  0  0  0  0  0  0  0  0  0  0
  -24.7078    0.5670   28.7015 C   0  0  0  0  0  0  0  0  0  0  0  0
  -24.4742    1.0182   27.4921 C   0  0  0  0  0  0  0  0  0  0  0  0
  -25.0605    1.0476   26.3971 C   0  0  0  0  0  0  0  0  0  0  0  0
  -24.5547    1.6249   25.2323 C   0  0  0  0  0  0  0  0  0  0  0  0
  -23.2902    2.2379   25.3442 C   0  0  0  0  0  0  0  0  0  0  0  0
  -23.0914    1.7715   27.3811 C   0  0  0  0  0  0  0  0  0  0  0  0
  -22.5764    2.3627   26.3890 C   0  0  0  0  0  0  0  0  0  0  0  0
  -23.3379    0.1626   29.4991 C   0  0  0  0  0  0  0  0  0  0  0  0
  3  7  1  0
  7  8  1  0
  7 14  1  0
  1  2  2  0
  2  3  1  0
  3  4  2  0
  4  5  1  0
  5  6  2  0
  6  1  1  0
  8  9  2  0
  9 10  1  0
 10 11  2  0
 11 13  1  0
 13 12  2  0
 12  8  1  0
M  END

$$$$
