No_1804-gen_results/8p0m/2024-11-27-11-27-31/
     RDKit          3D

 20 21  0  0  0  0  0  0  0  0999 V2000
  -28.0162   -0.8135   28.8779 C   0  0  0  0  0  0  0  0  0  0  0  0
  -27.0636   -0.1189   28.6079 C   0  0  0  0  0  0  0  0  0  0  0  0
  -25.7647   -0.3897   29.0360 C   0  0  0  0  0  0  0  0  0  0  0  0
  -25.5296   -1.5302   29.9014 C   0  0  0  0  0  0  0  0  0  0  0  0
  -26.6888   -2.2893   30.1810 C   0  0  0  0  0  0  0  0  0  0  0  0
  -27.8727   -1.9508   29.7373 C   0  0  0  0  0  0  0  0  0  0  0  0
  -29.1941   -2.9228   30.2191 Cl  0  0  0  0  0  0  0  0  0  0  0  0
  -24.5326    0.4193   28.7249 C   0  0  0  0  0  0  0  0  0  0  0  0
  -23.3426    0.1084   29.1746 C   0  0  0  0  0  0  0  0  0  0  0  0
  -22.2236    0.9007   28.8422 C   0  0  0  0  0  0  0  0  0  0  0  0
  -22.3993    1.8935   27.7755 C   0  0  0  0  0  0  0  0  0  0  0  0
  -24.4867    1.4742   27.7228 C   0  0  0  0  0  0  0  0  0  0  0  0
  -23.5060    2.1568   27.3202 C   0  0  0  0  0  0  0  0  0  0  0  0
  -23.6831    3.3851   26.1167 Cl  0  0  0  0  0  0  0  0  0  0  0  0
  -29.2926   -0.5394   28.4959 O   0  0  0  0  0  0  0  0  0  0  0  0
  -29.4701    0.4303   27.5460 C   0  0  0  0  0  0  0  0  0  0  0  0
  -30.6090    0.3659   26.8691 C   0  0  0  0  0  0  0  0  0  0  0  0
  -30.6906    0.5778   25.7295 O   0  0  0  0  0  0  0  0  0  0  0  0
  -31.7050    0.0311   27.4727 O   0  0  0  0  0  0  0  0  0  0  0  0
  -28.6461    1.3569   27.3396 O   0  0  0  0  0  0  0  0  0  0  0  0
  6  7  1  0
  3  8  1  0
 13 14  1  0
  1 15  1  0
 15 16  1  0
 16 17  1  0
 17 18  1  0
 17 19  2  0
 16 20  2  0
  1  2  2  0
  2  3  1  0
  3  4  2  0
  4  5  1  0
  5  6  2  0
  6  1  1  0
  8  9  2  0
  9 10  1  0
 10 11  2  0
 11 13  1  0
 13 12  2  0
 12  8  1  0
M  END

$$$$
