No_1859-gen_results/8p0m/2024-11-27-11-27-31/
     RDKit          3D

 17 18  0  0  0  0  0  0  0  0999 V2000
  -28.0162   -0.8135   28.8779 C   0  0  0  0  0  0  0  0  0  0  0  0
  -27.0636   -0.1189   28.6079 C   0  0  0  0  0  0  0  0  0  0  0  0
  -25.7923   -0.4302   29.0761 C   0  0  0  0  0  0  0  0  0  0  0  0
  -25.5756   -1.5654   29.9363 C   0  0  0  0  0  0  0  0  0  0  0  0
  -26.7354   -2.3004   30.2173 C   0  0  0  0  0  0  0  0  0  0  0  0
  -27.9184   -1.9537   29.7629 C   0  0  0  0  0  0  0  0  0  0  0  0
  -27.1057    1.1023   27.7593 C   0  0  0  0  0  0  0  0  0  0  0  0
  -26.2345    1.4562   27.0152 N   0  0  0  0  0  0  0  0  0  0  0  0
  -28.3322    1.8691   27.6955 C   0  0  0  0  0  0  0  0  0  0  0  0
  -25.3461    1.9251   26.9618 C   0  0  0  0  0  0  0  0  0  0  0  0
  -24.4000    2.0366   25.8864 N   0  0  0  0  0  0  0  0  0  0  0  0
  -23.1678    2.6472   26.1935 C   0  0  0  0  0  0  0  0  0  0  0  0
  -25.0409    2.9022   27.9530 N   0  0  0  0  0  0  0  0  0  0  0  0
  -23.5548    3.2237   27.5545 C   0  0  0  0  0  0  0  0  0  0  0  0
  -28.9717   -2.7211   30.0980 O   0  0  0  0  0  0  0  0  0  0  0  0
  -29.2132    1.7041   26.6350 C   0  0  0  0  0  0  0  0  0  0  0  0
  -30.4523    2.3395   26.6740 C   0  0  0  0  0  0  0  0  0  0  0  0
  2  7  1  0
  7  8  1  0
  7  9  1  0
  8 10  2  3
 10 11  1  0
 11 12  2  0
 10 13  1  0
 12 14  1  0
 13 14  1  0
  6 15  1  0
  9 16  2  3
 16 17  1  0
  1  2  2  0
  2  3  1  0
  3  4  2  0
  4  5  1  0
  5  6  2  0
  6  1  1  0
M  END

$$$$
