No_1567-gen_results/8p0m/2024-11-27-11-27-31/
     RDKit          3D

 16 17  0  0  0  0  0  0  0  0999 V2000
  -28.0162   -0.8135   28.8779 C   0  0  0  0  0  0  0  0  0  0  0  0
  -27.0636   -0.1190   28.6079 C   0  0  0  0  0  0  0  0  0  0  0  0
  -25.7923   -0.4302   29.0761 C   0  0  0  0  0  0  0  0  0  0  0  0
  -25.5756   -1.5654   29.9363 C   0  0  0  0  0  0  0  0  0  0  0  0
  -26.7354   -2.3004   30.2173 C   0  0  0  0  0  0  0  0  0  0  0  0
  -27.9184   -1.9537   29.7629 C   0  0  0  0  0  0  0  0  0  0  0  0
  -27.1463    1.2916   27.6407 Cl  0  0  0  0  0  0  0  0  0  0  0  0
  -29.0683   -2.7883   30.1813 C   0  0  0  0  0  0  0  0  0  0  0  0
  -30.1887   -2.3151   30.1701 N   0  0  0  0  0  0  0  0  0  0  0  0
  -28.8686   -3.9786   30.6030 O   0  0  0  0  0  0  0  0  0  0  0  0
  -31.4204   -3.0585   30.5216 C   0  0  0  0  0  0  0  0  0  0  0  0
  -32.4044   -2.4891   30.7664 C   0  0  0  0  0  0  0  0  0  0  0  0
  -33.3553   -2.9397   31.4881 C   0  0  0  0  0  0  0  0  0  0  0  0
  -33.3351   -4.3744   31.7879 C   0  0  0  0  0  0  0  0  0  0  0  0
  -32.2110   -5.0808   31.4674 C   0  0  0  0  0  0  0  0  0  0  0  0
  -31.1426   -4.4059   30.9265 C   0  0  0  0  0  0  0  0  0  0  0  0
  2  7  1  0
  6  8  1  0
  8  9  1  0
  8 10  2  0
  9 11  1  0
 11 12  2  0
 12 13  1  0
 13 14  2  0
 14 15  1  0
 15 16  2  0
 16 11  1  0
  1  2  2  0
  2  3  1  0
  3  4  2  0
  4  5  1  0
  5  6  2  0
  6  1  1  0
M  END

$$$$
