No_1963-gen_results/8p0m/2024-11-27-11-27-31/
     RDKit          3D

 24 26  0  0  0  0  0  0  0  0999 V2000
  -28.0162   -0.8135   28.8779 C   0  0  0  0  0  0  0  0  0  0  0  0
  -28.4690   -0.7850   29.8287 C   0  0  0  0  0  0  0  0  0  0  0  0
  -26.5455   -0.8762   28.8500 C   0  0  0  0  0  0  0  0  0  0  0  0
  -25.6825   -0.7773   27.6829 C   0  0  0  0  0  0  0  0  0  0  0  0
  -27.9181   -1.0034   31.1877 C   0  0  0  0  0  0  0  0  0  0  0  0
  -26.5308   -1.0794   31.2463 C   0  0  0  0  0  0  0  0  0  0  0  0
  -25.7798   -1.0462   30.0905 C   0  0  0  0  0  0  0  0  0  0  0  0
  -24.3676   -0.2501   27.7917 C   0  0  0  0  0  0  0  0  0  0  0  0
  -23.6808   -0.4762   29.0175 C   0  0  0  0  0  0  0  0  0  0  0  0
  -24.3689   -0.7866   30.1443 C   0  0  0  0  0  0  0  0  0  0  0  0
  -22.2229   -0.1809   29.0568 C   0  0  0  0  0  0  0  0  0  0  0  0
  -21.4661    0.2330   28.3139 N   0  0  0  0  0  0  0  0  0  0  0  0
  -21.6629   -0.9347   30.0777 O   0  0  0  0  0  0  0  0  0  0  0  0
  -30.2915   -0.8589   29.9066 Cl  0  0  0  0  0  0  0  0  0  0  0  0
  -21.9181    1.2940   27.3859 C   0  0  0  0  0  0  0  0  0  0  0  0
  -22.7462    2.2260   27.7997 C   0  0  0  0  0  0  0  0  0  0  0  0
  -23.3734    3.1875   26.9761 C   0  0  0  0  0  0  0  0  0  0  0  0
  -23.2474    2.8673   25.5246 C   0  0  0  0  0  0  0  0  0  0  0  0
  -22.3872    1.9366   25.1619 C   0  0  0  0  0  0  0  0  0  0  0  0
  -21.6873    1.2286   26.0610 C   0  0  0  0  0  0  0  0  0  0  0  0
  -24.2830    4.0683   27.3774 F   0  0  0  0  0  0  0  0  0  0  0  0
  -28.7280   -1.1727   32.4715 C   0  0  0  0  0  0  0  0  0  0  0  0
  -28.8168   -2.2901   32.9796 O   0  0  0  0  0  0  0  0  0  0  0  0
  -29.5392   -0.2395   32.7244 O   0  0  0  0  0  0  0  0  0  0  0  0
  9 11  1  0
 11 12  1  0
 11 13  2  0
  2 14  1  0
 12 15  1  0
 17 21  1  0
  5 22  1  0
 22 23  1  0
 22 24  2  0
 15 16  2  0
 16 17  1  0
 17 18  2  0
 18 19  1  0
 19 20  2  0
 20 15  1  0
  1  2  2  0
  2  5  1  0
  5  6  2  0
  6  7  1  0
  3  1  1  0
  3  4  2  0
  4  8  1  0
  8  9  2  0
  9 10  1  0
 10  7  2  0
  7  3  1  0
M  END

$$$$
