No_1136-gen_results/8p0m/2024-11-27-11-27-31/
     RDKit          3D

 23 24  0  0  0  0  0  0  0  0999 V2000
  -28.0162   -0.8135   28.8779 C   0  0  0  0  0  0  0  0  0  0  0  0
  -28.4690   -0.7850   29.8287 C   0  0  0  0  0  0  0  0  0  0  0  0
  -26.5042   -0.7777   28.8766 C   0  0  0  0  0  0  0  0  0  0  0  0
  -25.8103   -0.8531   30.1028 C   0  0  0  0  0  0  0  0  0  0  0  0
  -27.9906   -0.8916   31.2257 C   0  0  0  0  0  0  0  0  0  0  0  0
  -26.6042   -0.8676   31.2652 C   0  0  0  0  0  0  0  0  0  0  0  0
  -29.9385   -0.8194   29.8358 O   0  0  0  0  0  0  0  0  0  0  0  0
  -30.6978   -1.6543   30.3501 C   0  0  0  0  0  0  0  0  0  0  0  0
  -24.3664   -0.8009   30.1517 C   0  0  0  0  0  0  0  0  0  0  0  0
  -23.6111   -0.5763   29.0793 C   0  0  0  0  0  0  0  0  0  0  0  0
  -22.1571   -0.4105   29.2448 C   0  0  0  0  0  0  0  0  0  0  0  0
  -21.4156   -0.0110   28.1099 C   0  0  0  0  0  0  0  0  0  0  0  0
  -21.8647    1.1906   27.6247 C   0  0  0  0  0  0  0  0  0  0  0  0
  -23.2523    1.4554   27.4225 C   0  0  0  0  0  0  0  0  0  0  0  0
  -24.0601    0.7122   28.3656 C   0  0  0  0  0  0  0  0  0  0  0  0
  -23.7327    2.5241   26.6748 C   0  0  0  0  0  0  0  0  0  0  0  0
  -24.9881    2.5683   26.3010 N   0  0  0  0  0  0  0  0  0  0  0  0
  -25.8349    3.5821   26.5814 C   0  0  0  0  0  0  0  0  0  0  0  0
  -26.8507    3.5121   27.3306 C   0  0  0  0  0  0  0  0  0  0  0  0
  -27.3348    2.5687   27.8155 C   0  0  0  0  0  0  0  0  0  0  0  0
  -28.4793    2.4997   28.7745 C   0  0  0  0  0  0  0  0  0  0  0  0
  -28.9969    3.7175   29.0990 C   0  0  0  0  0  0  0  0  0  0  0  0
  -28.5562    4.8791   28.5664 C   0  0  0  0  0  0  0  0  0  0  0  0
  2  7  1  0
  7  8  1  0
  4  9  1  0
 14 16  1  0
 16 17  1  0
 17 18  1  0
 18 19  2  3
 19 20  1  0
 20 21  2  3
 21 22  1  0
 22 23  2  0
  9 10  1  0
  1  2  2  0
  2  5  1  0
  5  6  2  0
  6  4  1  0
  4  3  2  0
  3  1  1  0
 10 11  2  0
 11 12  1  0
 12 13  2  0
 13 14  1  0
 14 15  2  0
 15 10  1  0
M  END

$$$$
