No_1291-gen_results/8p0m/2024-11-27-11-27-31/
     RDKit          3D

 24 26  0  0  0  0  0  0  0  0999 V2000
  -28.0162   -0.8135   28.8779 C   0  0  0  0  0  0  0  0  0  0  0  0
  -27.0636   -0.1189   28.6079 C   0  0  0  0  0  0  0  0  0  0  0  0
  -26.9287    1.1713   29.0083 C   0  0  0  0  0  0  0  0  0  0  0  0
  -25.7702    2.0341   28.6884 C   0  0  0  0  0  0  0  0  0  0  0  0
  -24.7141    1.4431   27.9188 C   0  0  0  0  0  0  0  0  0  0  0  0
  -24.8590    0.0783   27.5836 C   0  0  0  0  0  0  0  0  0  0  0  0
  -25.9647   -0.6606   27.9164 C   0  0  0  0  0  0  0  0  0  0  0  0
  -29.1778   -0.3051   28.9638 N   0  0  0  0  0  0  0  0  0  0  0  0
  -30.2637   -1.0337   29.3657 C   0  0  0  0  0  0  0  0  0  0  0  0
  -23.5156    2.1604   27.5763 C   0  0  0  0  0  0  0  0  0  0  0  0
  -22.5864    1.5727   27.3661 F   0  0  0  0  0  0  0  0  0  0  0  0
  -23.8554    2.9110   26.3856 F   0  0  0  0  0  0  0  0  0  0  0  0
  -23.2774    3.1848   28.4647 F   0  0  0  0  0  0  0  0  0  0  0  0
  -30.1246   -1.9979   30.3711 C   0  0  0  0  0  0  0  0  0  0  0  0
  -29.3091   -1.9473   30.9742 C   0  0  0  0  0  0  0  0  0  0  0  0
  -27.8843   -1.6203   30.2746 C   0  0  0  0  0  0  0  0  0  0  0  0
  -31.4333   -0.6816   28.8849 O   0  0  0  0  0  0  0  0  0  0  0  0
  -26.7256   -1.9560   30.7312 O   0  0  0  0  0  0  0  0  0  0  0  0
  -31.4615   -1.9859   31.2701 C   0  0  0  0  0  0  0  0  0  0  0  0
  -31.8690   -3.2301   31.7094 C   0  0  0  0  0  0  0  0  0  0  0  0
  -33.0012   -3.3149   32.3552 C   0  0  0  0  0  0  0  0  0  0  0  0
  -33.8187   -2.1457   32.5664 C   0  0  0  0  0  0  0  0  0  0  0  0
  -33.4555   -0.9614   32.0492 C   0  0  0  0  0  0  0  0  0  0  0  0
  -32.2526   -0.8302   31.3486 C   0  0  0  0  0  0  0  0  0  0  0  0
  1  2  1  0
  8  9  1  0
  5 10  1  0
 10 11  1  0
 10 12  1  0
 10 13  1  0
  9 14  1  0
  1 16  1  0
 15 16  1  0
  9 17  2  0
 16 18  2  0
 14 19  1  0
  8  1  1  0
 15 14  1  0
  2  3  2  0
  3  4  1  0
  4  5  2  0
  5  6  1  0
  6  7  2  0
  7  2  1  0
 19 20  2  0
 20 21  1  0
 21 22  2  0
 22 23  1  0
 23 24  2  0
 24 19  1  0
M  END

$$$$
