No_1189-gen_results/8p0m/2024-11-27-11-27-31/
     RDKit          3D

 15 15  0  0  0  0  0  0  0  0999 V2000
  -28.1229   -1.3353   28.4874 O   0  0  0  0  0  0  0  0  0  0  0  0
  -27.4806   -0.4044   28.7094 C   0  0  0  0  0  0  0  0  0  0  0  0
  -26.3804   -0.0867   27.9394 C   0  0  0  0  0  0  0  0  0  0  0  0
  -27.6664    0.4468   29.8988 N   0  0  0  0  0  0  0  0  0  0  0  0
  -26.4087    0.8567   26.8802 C   0  0  0  0  0  0  0  0  0  0  0  0
  -25.0824   -0.6970   28.1699 C   0  0  0  0  0  0  0  0  0  0  0  0
  -25.2843    1.0488   26.0470 C   0  0  0  0  0  0  0  0  0  0  0  0
  -23.9159   -0.3440   27.4444 C   0  0  0  0  0  0  0  0  0  0  0  0
  -24.0618    0.5290   26.3706 C   0  0  0  0  0  0  0  0  0  0  0  0
  -28.7724    0.0990   30.7925 C   0  0  0  0  0  0  0  0  0  0  0  0
  -26.8467    1.5200   30.2210 C   0  0  0  0  0  0  0  0  0  0  0  0
  -27.2017    2.6186   30.1669 C   0  0  0  0  0  0  0  0  0  0  0  0
  -26.2728    3.6840   30.3238 C   0  0  0  0  0  0  0  0  0  0  0  0
  -26.6459    4.9404   30.1112 F   0  0  0  0  0  0  0  0  0  0  0  0
  -25.7008    3.7767   31.6001 F   0  0  0  0  0  0  0  0  0  0  0  0
  1  2  2  0
  2  3  1  0
  2  4  1  0
  4 10  1  0
  4 11  1  0
 11 12  2  3
 12 13  1  0
 13 14  1  0
 13 15  1  0
  3  5  2  0
  5  7  1  0
  7  9  2  0
  9  8  1  0
  8  6  2  0
  6  3  1  0
M  END

$$$$
