No_1197-gen_results/8p0m/2024-11-27-11-27-31/
     RDKit          3D

 10 10  0  0  0  0  0  0  0  0999 V2000
  -28.0162   -0.8135   28.8779 C   0  0  0  0  0  0  0  0  0  0  0  0
  -27.0636   -0.1190   28.6079 C   0  0  0  0  0  0  0  0  0  0  0  0
  -26.8756    1.1325   28.9134 C   0  0  0  0  0  0  0  0  0  0  0  0
  -27.9014    1.8066   29.6436 C   0  0  0  0  0  0  0  0  0  0  0  0
  -28.9449    1.0388   30.0360 C   0  0  0  0  0  0  0  0  0  0  0  0
  -29.0273   -0.2890   29.7051 C   0  0  0  0  0  0  0  0  0  0  0  0
  -25.7756    1.8718   28.5229 O   0  0  0  0  0  0  0  0  0  0  0  0
  -24.9188    1.6551   27.7542 C   0  0  0  0  0  0  0  0  0  0  0  0
  -24.2888    2.5113   26.9817 C   0  0  0  0  0  0  0  0  0  0  0  0
  -23.1881    2.1993   26.0805 C   0  0  0  0  0  0  0  0  0  0  0  0
  3  7  1  0
  7  8  1  0
  8  9  2  3
  9 10  1  0
  1  2  2  0
  2  3  1  0
  3  4  2  0
  4  5  1  0
  5  6  2  0
  6  1  1  0
M  END

$$$$
