No_1683-gen_results/8p0m/2024-11-27-11-27-31/
     RDKit          3D

 13 13  0  0  0  0  0  0  0  0999 V2000
  -28.0162   -0.8135   28.8779 C   0  0  0  0  0  0  0  0  0  0  0  0
  -28.4690   -0.7850   29.8287 C   0  0  0  0  0  0  0  0  0  0  0  0
  -27.0871    0.2903   28.6377 C   0  0  0  0  0  0  0  0  0  0  0  0
  -26.8317    1.2487   29.5869 C   0  0  0  0  0  0  0  0  0  0  0  0
  -28.3914    0.0801   31.0065 C   0  0  0  0  0  0  0  0  0  0  0  0
  -27.4940    1.1521   30.7841 C   0  0  0  0  0  0  0  0  0  0  0  0
  -26.3109    0.3918   27.3640 C   0  0  0  0  0  0  0  0  0  0  0  0
  -25.5530   -0.4068   27.2285 F   0  0  0  0  0  0  0  0  0  0  0  0
  -26.7216    1.1036   26.4282 F   0  0  0  0  0  0  0  0  0  0  0  0
  -27.3101    2.1901   31.8397 C   0  0  0  0  0  0  0  0  0  0  0  0
  -27.4350    1.8522   33.0222 F   0  0  0  0  0  0  0  0  0  0  0  0
  -28.1767    3.2286   31.6008 F   0  0  0  0  0  0  0  0  0  0  0  0
  -26.0510    2.7136   31.6982 F   0  0  0  0  0  0  0  0  0  0  0  0
  3  7  1  0
  7  8  1  0
  7  9  1  0
  6 10  1  0
 10 11  1  0
 10 12  1  0
 10 13  1  0
  1  2  2  0
  2  5  1  0
  5  6  2  0
  6  4  1  0
  4  3  2  0
  3  1  1  0
M  END

$$$$
