No_1318-gen_results/8p0m/2024-11-27-11-27-31/
     RDKit          3D

  9  9  0  0  0  0  0  0  0  0999 V2000
  -28.0544   -1.0498   28.7246 N   0  0  0  0  0  0  0  0  0  0  0  0
  -27.7460   -0.0733   29.0098 C   0  0  0  0  0  0  0  0  0  0  0  0
  -27.1741    0.7325   28.8254 C   0  0  0  0  0  0  0  0  0  0  0  0
  -26.2627    0.6359   27.6462 C   0  0  0  0  0  0  0  0  0  0  0  0
  -25.3895    1.6452   27.1833 C   0  0  0  0  0  0  0  0  0  0  0  0
  -24.3997    1.3753   26.2518 C   0  0  0  0  0  0  0  0  0  0  0  0
  -24.5539    0.2051   25.5457 C   0  0  0  0  0  0  0  0  0  0  0  0
  -25.6209   -0.6028   25.7962 C   0  0  0  0  0  0  0  0  0  0  0  0
  -26.3578   -0.4663   26.8464 C   0  0  0  0  0  0  0  0  0  0  0  0
  1  2  1  0
  2  3  2  3
  3  4  1  0
  4  5  2  0
  5  6  1  0
  6  7  2  0
  7  8  1  0
  8  9  2  0
  9  4  1  0
M  END

$$$$
