No_1208-gen_results/8p0m/2024-11-27-11-27-31/
     RDKit          3D

 35 37  0  0  0  0  0  0  0  0999 V2000
  -28.0162   -0.8135   28.8779 C   0  0  0  0  0  0  0  0  0  0  0  0
  -27.0636   -0.1190   28.6079 C   0  0  0  0  0  0  0  0  0  0  0  0
  -26.9287    1.1713   29.0083 C   0  0  0  0  0  0  0  0  0  0  0  0
  -27.9560    1.7411   29.7840 C   0  0  0  0  0  0  0  0  0  0  0  0
  -29.0569   -0.3271   29.7466 C   0  0  0  0  0  0  0  0  0  0  0  0
  -28.9828    0.9722   30.1516 C   0  0  0  0  0  0  0  0  0  0  0  0
  -25.9911   -0.6119   27.8566 O   0  0  0  0  0  0  0  0  0  0  0  0
  -24.9038   -1.1483   28.5775 C   0  0  0  0  0  0  0  0  0  0  0  0
  -23.7733   -0.9238   28.7488 C   0  0  0  0  0  0  0  0  0  0  0  0
  -25.2670   -2.5528   29.1249 C   0  0  0  0  0  0  0  0  0  0  0  0
  -22.7926   -1.5184   29.4729 C   0  0  0  0  0  0  0  0  0  0  0  0
  -24.3845   -3.2812   29.7863 C   0  0  0  0  0  0  0  0  0  0  0  0
  -23.1235   -2.7642   30.0154 C   0  0  0  0  0  0  0  0  0  0  0  0
  -30.1815   -1.2113   30.1245 C   0  0  0  0  0  0  0  0  0  0  0  0
  -31.0336   -1.4676   29.2929 O   0  0  0  0  0  0  0  0  0  0  0  0
  -29.9750   -2.1269   31.2167 N   0  0  0  0  0  0  0  0  0  0  0  0
  -30.9555   -3.1429   31.5173 C   0  0  0  0  0  0  0  0  0  0  0  0
  -28.9041   -1.9137   32.2046 C   0  0  0  0  0  0  0  0  0  0  0  0
  -23.2299    0.6948   28.0298 Cl  0  0  0  0  0  0  0  0  0  0  0  0
  -30.4125   -4.2320   31.7048 C   0  0  0  0  0  0  0  0  0  0  0  0
  -29.6294   -4.8715   30.8792 C   0  0  0  0  0  0  0  0  0  0  0  0
  -29.2524   -4.3010   29.7268 N   0  0  0  0  0  0  0  0  0  0  0  0
  -29.0471   -6.0303   31.1748 O   0  0  0  0  0  0  0  0  0  0  0  0
  -30.2723    1.6122   31.1204 Cl  0  0  0  0  0  0  0  0  0  0  0  0
  -30.8088   -5.0239   32.9736 C   0  0  0  0  0  0  0  0  0  0  0  0
  -32.1322   -4.8062   33.3999 C   0  0  0  0  0  0  0  0  0  0  0  0
  -32.8541   -4.0385   32.9837 C   0  0  0  0  0  0  0  0  0  0  0  0
  -32.1625   -2.6685   32.0348 C   0  0  0  0  0  0  0  0  0  0  0  0
  -32.9171   -1.5217   31.8030 C   0  0  0  0  0  0  0  0  0  0  0  0
  -32.6811   -0.4900   32.4873 O   0  0  0  0  0  0  0  0  0  0  0  0
  -33.5423   -1.4170   30.5346 N   0  0  0  0  0  0  0  0  0  0  0  0
  -34.3090   -0.2093   30.1751 C   0  0  0  0  0  0  0  0  0  0  0  0
  -34.4725   -0.0657   28.9317 C   0  0  0  0  0  0  0  0  0  0  0  0
  -34.5046   -1.1521   28.1473 C   0  0  0  0  0  0  0  0  0  0  0  0
  -33.9556   -2.4108   28.5291 C   0  0  0  0  0  0  0  0  0  0  0  0
  2  7  1  0
  7  8  1  0
  5 14  1  0
 14 15  2  0
 14 16  1  0
 16 17  1  0
 16 18  1  0
  9 19  1  0
 20 21  1  0
 21 22  1  0
 21 23  2  0
  6 24  1  0
 28 29  1  0
 29 30  2  0
 29 31  1  0
 31 32  1  0
 32 33  2  3
 33 34  1  0
 34 35  2  0
  8  9  2  0
  9 11  1  0
 11 13  2  0
 13 12  1  0
 12 10  2  0
 10  8  1  0
  1  2  2  0
  2  3  1  0
  3  4  2  0
  4  6  1  0
  6  5  2  0
  5  1  1  0
 17 20  2  0
 20 25  1  0
 25 26  2  0
 26 27  1  0
 27 28  2  0
 28 17  1  0
M  END

$$$$
