No_1059-gen_results/8p0m/2024-11-27-11-27-31/
     RDKit          3D

 27 32  0  0  0  0  0  0  0  0999 V2000
  -28.0162   -0.8135   28.8779 C   0  0  0  0  0  0  0  0  0  0  0  0
  -28.4690   -0.7850   29.8287 C   0  0  0  0  0  0  0  0  0  0  0  0
  -27.1356    0.2359   28.5352 C   0  0  0  0  0  0  0  0  0  0  0  0
  -26.8745    1.2825   29.3982 C   0  0  0  0  0  0  0  0  0  0  0  0
  -28.3613    0.1987   30.9244 C   0  0  0  0  0  0  0  0  0  0  0  0
  -27.5277    1.2234   30.6356 C   0  0  0  0  0  0  0  0  0  0  0  0
  -26.3987    0.2949   27.2279 C   0  0  0  0  0  0  0  0  0  0  0  0
  -25.0392    0.2356   27.3538 C   0  0  0  0  0  0  0  0  0  0  0  0
  -26.8420    1.2722   26.2572 C   0  0  0  0  0  0  0  0  0  0  0  0
  -24.3579   -0.4905   28.3752 C   0  0  0  0  0  0  0  0  0  0  0  0
  -22.9461   -0.2520   28.6067 C   0  0  0  0  0  0  0  0  0  0  0  0
  -22.3321    0.7918   27.8693 C   0  0  0  0  0  0  0  0  0  0  0  0
  -23.0554    1.5833   26.9598 C   0  0  0  0  0  0  0  0  0  0  0  0
  -24.3461    1.3935   26.8104 C   0  0  0  0  0  0  0  0  0  0  0  0
  -25.2614    2.1452   25.9951 C   0  0  0  0  0  0  0  0  0  0  0  0
  -27.3860    0.7856   24.9938 C   0  0  0  0  0  0  0  0  0  0  0  0
  -27.6889    2.4579   26.8345 C   0  0  0  0  0  0  0  0  0  0  0  0
  -28.6390    1.0602   24.5699 C   0  0  0  0  0  0  0  0  0  0  0  0
  -28.9830    2.7728   26.3164 C   0  0  0  0  0  0  0  0  0  0  0  0
  -29.3544    2.0522   25.1724 C   0  0  0  0  0  0  0  0  0  0  0  0
  -26.5528   -1.1590   26.4310 C   0  0  0  0  0  0  0  0  0  0  0  0
  -25.9501   -1.0043   25.1167 C   0  0  0  0  0  0  0  0  0  0  0  0
  -26.6567    1.1315   23.9481 F   0  0  0  0  0  0  0  0  0  0  0  0
  -27.1363   -0.6438   24.8322 C   0  0  0  0  0  0  0  0  0  0  0  0
  -26.6560   -2.1444   26.9157 O   0  0  0  0  0  0  0  0  0  0  0  0
  -28.0708   -1.4388   24.2379 C   0  0  0  0  0  0  0  0  0  0  0  0
  -29.4301   -0.1721   24.5038 C   0  0  0  0  0  0  0  0  0  0  0  0
  3  7  1  0
  7  8  1  0
  7  9  1  0
  9 15  1  0
 14 15  1  0
  9 16  1  0
  9 17  1  0
 16 18  1  0
 19 20  1  0
  7 21  1  0
 21 22  1  0
 16 23  1  0
 16 24  1  0
 22 24  1  0
 21 25  1  0
 24 26  1  0
 18 27  1  0
 26 27  1  0
 18 20  1  0
 19 17  1  0
  8 10  2  0
 10 11  1  0
 11 12  2  0
 12 13  1  0
 13 14  2  0
 14  8  1  0
  1  2  2  0
  2  5  1  0
  5  6  2  0
  6  4  1  0
  4  3  2  0
  3  1  1  0
M  END

$$$$
