No_119-gen_results/8p0m/2024-11-27-11-27-31/
     RDKit          3D

 21 22  0  0  0  0  0  0  0  0999 V2000
  -28.0162   -0.8135   28.8779 C   0  0  0  0  0  0  0  0  0  0  0  0
  -28.4690   -0.7850   29.8287 C   0  0  0  0  0  0  0  0  0  0  0  0
  -26.5042   -0.7777   28.8766 C   0  0  0  0  0  0  0  0  0  0  0  0
  -25.6540   -0.6597   27.7191 C   0  0  0  0  0  0  0  0  0  0  0  0
  -27.9180   -0.9374   31.1824 C   0  0  0  0  0  0  0  0  0  0  0  0
  -26.5423   -0.9399   31.2606 C   0  0  0  0  0  0  0  0  0  0  0  0
  -25.7832   -0.8935   30.1201 C   0  0  0  0  0  0  0  0  0  0  0  0
  -25.2204    0.6866   27.3939 C   0  0  0  0  0  0  0  0  0  0  0  0
  -25.3029    1.0787   26.0731 C   0  0  0  0  0  0  0  0  0  0  0  0
  -24.7297    2.3383   25.6867 C   0  0  0  0  0  0  0  0  0  0  0  0
  -24.0919    3.1193   26.6980 C   0  0  0  0  0  0  0  0  0  0  0  0
  -24.4906    1.5258   28.2612 C   0  0  0  0  0  0  0  0  0  0  0  0
  -23.9466    2.6799   27.9003 C   0  0  0  0  0  0  0  0  0  0  0  0
  -30.0189   -0.7199   29.6557 C   0  0  0  0  0  0  0  0  0  0  0  0
  -30.6300    0.3871   30.0697 N   0  0  0  0  0  0  0  0  0  0  0  0
  -30.2569    1.1779   30.6677 C   0  0  0  0  0  0  0  0  0  0  0  0
  -29.4273    1.3898   31.3410 C   0  0  0  0  0  0  0  0  0  0  0  0
  -29.3074    2.6814   32.1452 C   0  0  0  0  0  0  0  0  0  0  0  0
  -28.2168    2.9781   33.0317 C   0  0  0  0  0  0  0  0  0  0  0  0
  -27.1553    2.0429   33.1299 C   0  0  0  0  0  0  0  0  0  0  0  0
  -27.1962    0.9506   32.3412 C   0  0  0  0  0  0  0  0  0  0  0  0
  3  4  1  0
  4  8  1  0
  2 14  1  0
 14 15  1  0
 15 16  1  0
 16 17  2  3
 17 18  1  0
 18 19  1  0
 19 20  2  3
 20 21  1  0
  1  2  2  0
  2  5  1  0
  5  6  2  0
  6  7  1  0
  7  3  2  0
  3  1  1  0
  8  9  2  0
  9 10  1  0
 10 11  2  0
 11 13  1  0
 13 12  2  0
 12  8  1  0
M  END

$$$$
