No_1770-gen_results/8p0m/2024-11-27-11-27-31/
     RDKit          3D

 12 12  0  0  0  0  0  0  0  0999 V2000
  -28.0162   -0.8135   28.8779 C   0  0  0  0  0  0  0  0  0  0  0  0
  -28.4690   -0.7850   29.8287 C   0  0  0  0  0  0  0  0  0  0  0  0
  -28.1816    0.4277   28.1134 C   0  0  0  0  0  0  0  0  0  0  0  0
  -27.0280    0.9338   27.5279 C   0  0  0  0  0  0  0  0  0  0  0  0
  -29.8654   -0.6573   30.0468 C   0  0  0  0  0  0  0  0  0  0  0  0
  -30.4269    0.4083   29.2782 C   0  0  0  0  0  0  0  0  0  0  0  0
  -29.4534    1.0239   28.2030 C   0  0  0  0  0  0  0  0  0  0  0  0
  -25.8552    0.2476   27.3136 C   0  0  0  0  0  0  0  0  0  0  0  0
  -24.7483    0.7880   26.6258 C   0  0  0  0  0  0  0  0  0  0  0  0
  -23.4497    0.3531   26.7308 C   0  0  0  0  0  0  0  0  0  0  0  0
  -22.9595    0.8577   28.0440 C   0  0  0  0  0  0  0  0  0  0  0  0
  -22.6977    0.1101   29.0159 C   0  0  0  0  0  0  0  0  0  0  0  0
  3  4  1  0
  4  8  2  3
  8  9  1  0
  9 10  1  0
 10 11  1  0
 11 12  1  0
  1  2  2  0
  2  5  1  0
  5  6  2  0
  6  7  1  0
  7  3  2  0
  3  1  1  0
M  END

$$$$
