No_1272-gen_results/8p0m/2024-11-27-11-27-31/
     RDKit          3D

 32 36  0  0  0  0  0  0  0  0999 V2000
  -28.0162   -0.8135   28.8779 C   0  0  0  0  0  0  0  0  0  0  0  0
  -27.0636   -0.1189   28.6079 C   0  0  0  0  0  0  0  0  0  0  0  0
  -26.9716    0.7139   27.5060 C   0  0  0  0  0  0  0  0  0  0  0  0
  -25.8206    1.4910   27.1160 C   0  0  0  0  0  0  0  0  0  0  0  0
  -24.6562    1.4242   27.9180 C   0  0  0  0  0  0  0  0  0  0  0  0
  -24.6847    0.5901   29.0659 C   0  0  0  0  0  0  0  0  0  0  0  0
  -25.8099   -0.1265   29.3338 C   0  0  0  0  0  0  0  0  0  0  0  0
  -29.2186   -0.0422   29.3127 C   0  0  0  0  0  0  0  0  0  0  0  0
  -29.6481    0.7353   28.6841 O   0  0  0  0  0  0  0  0  0  0  0  0
  -30.0409   -0.7549   30.2579 N   0  0  0  0  0  0  0  0  0  0  0  0
  -23.4723    2.1994   27.6009 C   0  0  0  0  0  0  0  0  0  0  0  0
  -22.5354    2.2386   28.6735 C   0  0  0  0  0  0  0  0  0  0  0  0
  -22.5751    1.3000   29.6773 C   0  0  0  0  0  0  0  0  0  0  0  0
  -23.6498    0.5350   29.9819 C   0  0  0  0  0  0  0  0  0  0  0  0
  -29.6835   -1.8397   31.0771 C   0  0  0  0  0  0  0  0  0  0  0  0
  -31.2809   -0.1077   30.6682 C   0  0  0  0  0  0  0  0  0  0  0  0
  -25.8447   -0.9070   30.4300 O   0  0  0  0  0  0  0  0  0  0  0  0
  -25.8503    2.3129   25.9318 C   0  0  0  0  0  0  0  0  0  0  0  0
  -32.2847   -0.8713   30.5906 C   0  0  0  0  0  0  0  0  0  0  0  0
  -28.5584   -2.4425   30.9402 C   0  0  0  0  0  0  0  0  0  0  0  0
  -30.6923   -2.3774   31.9180 C   0  0  0  0  0  0  0  0  0  0  0  0
  -30.4525   -3.5488   32.6389 C   0  0  0  0  0  0  0  0  0  0  0  0
  -28.3364   -3.8041   31.5582 C   0  0  0  0  0  0  0  0  0  0  0  0
  -29.2658   -4.2533   32.4147 C   0  0  0  0  0  0  0  0  0  0  0  0
  -32.0523   -1.8934   31.8042 C   0  0  0  0  0  0  0  0  0  0  0  0
  -32.6425   -1.6401   32.9004 O   0  0  0  0  0  0  0  0  0  0  0  0
  -32.5482   -1.7021   29.3841 C   0  0  0  0  0  0  0  0  0  0  0  0
  -32.8589   -2.8597   29.2434 C   0  0  0  0  0  0  0  0  0  0  0  0
  -33.1740   -3.4756   27.9791 C   0  0  0  0  0  0  0  0  0  0  0  0
  -32.9575   -2.6871   26.8301 C   0  0  0  0  0  0  0  0  0  0  0  0
  -32.5250   -1.3668   26.9275 C   0  0  0  0  0  0  0  0  0  0  0  0
  -32.3596   -0.8028   28.1473 C   0  0  0  0  0  0  0  0  0  0  0  0
  1  2  2  3
  2  3  1  0
  3  4  1  0
  4  5  1  0
  2  7  1  0
  6  7  1  0
  1  8  1  0
  8  9  2  0
  8 10  1  0
 10 15  1  0
 10 16  1  0
  7 17  2  0
  4 18  1  0
 19 25  1  0
 21 25  1  0
 25 26  2  0
 19 27  1  0
 19 16  1  0
 27 28  2  0
 28 29  1  0
 29 30  2  0
 30 31  1  0
 31 32  2  0
 32 27  1  0
  5  6  2  0
  6 14  1  0
 14 13  2  0
 13 12  1  0
 12 11  2  0
 11  5  1  0
 15 20  2  0
 20 23  1  0
 23 24  2  0
 24 22  1  0
 22 21  2  0
 21 15  1  0
M  END

$$$$
