No_1860-gen_results/8p0m/2024-11-27-11-27-31/
     RDKit          3D

  9  9  0  0  0  0  0  0  0  0999 V2000
  -28.0162   -0.8135   28.8779 C   0  0  0  0  0  0  0  0  0  0  0  0
  -27.0636   -0.1189   28.6079 C   0  0  0  0  0  0  0  0  0  0  0  0
  -25.7923   -0.4302   29.0761 C   0  0  0  0  0  0  0  0  0  0  0  0
  -24.6321    0.3096   28.7290 C   0  0  0  0  0  0  0  0  0  0  0  0
  -27.8949   -1.8615   29.8946 C   0  0  0  0  0  0  0  0  0  0  0  0
  -29.0727   -2.6684   30.2454 C   0  0  0  0  0  0  0  0  0  0  0  0
  -23.2933    0.0362   29.2634 C   0  0  0  0  0  0  0  0  0  0  0  0
  -26.6341   -2.2130   30.4098 C   0  0  0  0  0  0  0  0  0  0  0  0
  -25.5111   -1.5025   29.9781 C   0  0  0  0  0  0  0  0  0  0  0  0
  1  2  1  0
  2  3  1  0
  3  4  2  3
  1  5  1  0
  5  6  1  0
  4  7  1  0
  5  8  1  0
  3  9  1  0
  8  9  1  0
M  END

$$$$
