No_1184-gen_results/8p0m/2024-11-27-11-27-31/
     RDKit          3D

 16 18  0  0  0  0  0  0  0  0999 V2000
  -28.0162   -0.8135   28.8779 C   0  0  0  0  0  0  0  0  0  0  0  0
  -27.0636   -0.1190   28.6079 C   0  0  0  0  0  0  0  0  0  0  0  0
  -27.0010    0.6913   27.4910 C   0  0  0  0  0  0  0  0  0  0  0  0
  -25.7770    1.0214   26.9135 C   0  0  0  0  0  0  0  0  0  0  0  0
  -24.5088    0.7364   27.5686 C   0  0  0  0  0  0  0  0  0  0  0  0
  -24.5930   -0.0361   28.7390 C   0  0  0  0  0  0  0  0  0  0  0  0
  -25.8114   -0.4771   29.1584 C   0  0  0  0  0  0  0  0  0  0  0  0
  -29.2371   -0.0330   29.2429 C   0  0  0  0  0  0  0  0  0  0  0  0
  -30.4629   -0.7141   29.6052 C   0  0  0  0  0  0  0  0  0  0  0  0
  -30.2942   -1.9787   30.0569 C   0  0  0  0  0  0  0  0  0  0  0  0
  -29.1013   -2.6823   30.1005 C   0  0  0  0  0  0  0  0  0  0  0  0
  -27.9505   -2.0578   29.6137 C   0  0  0  0  0  0  0  0  0  0  0  0
  -23.2649    1.3237   27.0741 C   0  0  0  0  0  0  0  0  0  0  0  0
  -22.1376    1.3276   27.9395 C   0  0  0  0  0  0  0  0  0  0  0  0
  -22.1282    0.4540   29.0248 C   0  0  0  0  0  0  0  0  0  0  0  0
  -23.3606   -0.1766   29.4897 C   0  0  0  0  0  0  0  0  0  0  0  0
  1  2  1  0
  2  3  2  0
  3  4  1  0
  4  5  2  0
  6  7  2  0
  7  2  1  0
  1  8  2  0
  8  9  1  0
  9 10  2  0
 10 11  1  0
 11 12  2  0
 12  1  1  0
  5  6  1  0
  6 16  1  0
 16 15  2  0
 15 14  1  0
 14 13  2  0
 13  5  1  0
M  END

$$$$
