No_1668-gen_results/8p0m/2024-11-27-11-27-31/
     RDKit          3D

 35 38  0  0  0  0  0  0  0  0999 V2000
  -28.0162   -0.8135   28.8779 C   0  0  0  0  0  0  0  0  0  0  0  0
  -28.4690   -0.7850   29.8287 C   0  0  0  0  0  0  0  0  0  0  0  0
  -28.1816    0.4277   28.1134 C   0  0  0  0  0  0  0  0  0  0  0  0
  -28.9841    1.4155   28.5154 C   0  0  0  0  0  0  0  0  0  0  0  0
  -29.3802    0.1384   30.4612 C   0  0  0  0  0  0  0  0  0  0  0  0
  -29.5415    1.2736   29.7242 C   0  0  0  0  0  0  0  0  0  0  0  0
  -27.4586    0.4934   26.7701 C   0  0  0  0  0  0  0  0  0  0  0  0
  -27.9200    0.7178   25.7507 C   0  0  0  0  0  0  0  0  0  0  0  0
  -25.9868    0.2424   26.8417 C   0  0  0  0  0  0  0  0  0  0  0  0
  -25.2806   -0.0834   27.9708 C   0  0  0  0  0  0  0  0  0  0  0  0
  -23.9299    0.0145   28.0664 C   0  0  0  0  0  0  0  0  0  0  0  0
  -23.1763   -0.4153   29.2295 C   0  0  0  0  0  0  0  0  0  0  0  0
  -23.8303   -1.1907   30.1729 C   0  0  0  0  0  0  0  0  0  0  0  0
  -23.1406   -1.5764   31.2844 C   0  0  0  0  0  0  0  0  0  0  0  0
  -29.3091    0.8519   25.5659 C   0  0  0  0  0  0  0  0  0  0  0  0
  -25.3971    0.4997   25.6035 C   0  0  0  0  0  0  0  0  0  0  0  0
  -27.2230    0.8232   24.5022 C   0  0  0  0  0  0  0  0  0  0  0  0
  -25.9449    0.6567   24.5037 N   0  0  0  0  0  0  0  0  0  0  0  0
  -25.6397    0.1941   29.3035 C   0  0  0  0  0  0  0  0  0  0  0  0
  -24.9291   -0.6117   30.3723 C   0  0  0  0  0  0  0  0  0  0  0  0
  -29.8257    1.9226   25.8111 O   0  0  0  0  0  0  0  0  0  0  0  0
  -30.0102   -0.2346   25.3141 O   0  0  0  0  0  0  0  0  0  0  0  0
  -25.7584   -0.8708   31.6105 C   0  0  0  0  0  0  0  0  0  0  0  0
  -30.2180    2.3411   30.4345 C   0  0  0  0  0  0  0  0  0  0  0  0
  -31.3507    2.4661   30.5797 O   0  0  0  0  0  0  0  0  0  0  0  0
  -29.3487    3.2006   31.0977 O   0  0  0  0  0  0  0  0  0  0  0  0
  -25.2464   -0.1555   32.7865 C   0  0  0  0  0  0  0  0  0  0  0  0
  -25.9252    0.7887   33.2928 C   0  0  0  0  0  0  0  0  0  0  0  0
  -26.5171    1.1747   34.0977 C   0  0  0  0  0  0  0  0  0  0  0  0
  -27.1283    2.5218   34.3917 C   0  0  0  0  0  0  0  0  0  0  0  0
  -26.8853    3.4654   33.3804 C   0  0  0  0  0  0  0  0  0  0  0  0
  -25.7622    2.1007   32.2739 C   0  0  0  0  0  0  0  0  0  0  0  0
  -26.1805    3.2635   32.4593 C   0  0  0  0  0  0  0  0  0  0  0  0
  -24.9572   -1.2445   33.8596 C   0  0  0  0  0  0  0  0  0  0  0  0
  -23.7279    0.2492   32.7005 C   0  0  0  0  0  0  0  0  0  0  0  0
  3  7  1  0
  7  8  1  0
  7  9  1  0
  9 10  1  0
 13 14  1  0
  8 15  1  0
  9 16  1  0
  8 17  1  0
 16 18  1  0
 17 18  1  0
 15 21  2  0
 15 22  1  0
 20 23  1  0
  6 24  1  0
 24 25  2  0
 24 26  1  0
 23 27  1  0
 27 28  1  0
 27 34  1  0
 27 35  1  0
 28 29  2  0
 29 30  1  0
 30 31  2  0
 31 33  1  0
 33 32  2  0
 32 28  1  0
 10 11  2  0
 11 12  1  0
 12 13  2  0
 13 20  1  0
 20 19  2  0
 19 10  1  0
  1  2  2  0
  2  5  1  0
  5  6  2  0
  6  4  1  0
  4  3  2  0
  3  1  1  0
M  END

$$$$
