No_1610-gen_results/8p0m/2024-11-27-11-27-31/
     RDKit          3D

 16 17  0  0  0  0  0  0  0  0999 V2000
  -28.0162   -0.8135   28.8779 C   0  0  0  0  0  0  0  0  0  0  0  0
  -28.4690   -0.7850   29.8287 C   0  0  0  0  0  0  0  0  0  0  0  0
  -26.5455   -0.8762   28.8500 C   0  0  0  0  0  0  0  0  0  0  0  0
  -25.8041   -1.0324   30.0571 C   0  0  0  0  0  0  0  0  0  0  0  0
  -27.9437   -0.9869   31.2075 C   0  0  0  0  0  0  0  0  0  0  0  0
  -26.5825   -1.0386   31.2231 C   0  0  0  0  0  0  0  0  0  0  0  0
  -30.2809   -0.7232   29.8834 Cl  0  0  0  0  0  0  0  0  0  0  0  0
  -24.3690   -1.1186   30.0640 C   0  0  0  0  0  0  0  0  0  0  0  0
  -23.5954   -0.5553   29.0940 C   0  0  0  0  0  0  0  0  0  0  0  0
  -23.7654    0.5758   28.4148 C   0  0  0  0  0  0  0  0  0  0  0  0
  -22.7705    1.1516   27.6189 C   0  0  0  0  0  0  0  0  0  0  0  0
  -21.9071    1.7210   27.8943 C   0  0  0  0  0  0  0  0  0  0  0  0
  -20.8799    2.3170   27.0221 C   0  0  0  0  0  0  0  0  0  0  0  0
  -21.3795    2.2138   25.7227 C   0  0  0  0  0  0  0  0  0  0  0  0
  -23.0889    1.3900   26.1455 C   0  0  0  0  0  0  0  0  0  0  0  0
  -22.3696    2.0250   25.3965 N   0  0  0  0  0  0  0  0  0  0  0  0
  2  7  1  0
  4  8  1  0
  8  9  1  0
  9 10  2  3
 10 11  1  0
 11 12  2  0
 12 13  1  0
 13 14  2  0
 11 15  1  0
 14 15  1  0
 14 16  1  0
  1  2  2  0
  2  5  1  0
  5  6  2  0
  6  4  1  0
  4  3  2  0
  3  1  1  0
M  END

$$$$
