No_1577-gen_results/8p0m/2024-11-27-11-27-31/
     RDKit          3D

 20 21  0  0  0  0  0  0  0  0999 V2000
  -28.1229   -1.3353   28.4874 O   0  0  0  0  0  0  0  0  0  0  0  0
  -27.0637   -0.8242   28.8687 C   0  0  0  0  0  0  0  0  0  0  0  0
  -25.9464   -1.0396   28.8492 C   0  0  0  0  0  0  0  0  0  0  0  0
  -24.7602   -0.1562   29.1644 C   0  0  0  0  0  0  0  0  0  0  0  0
  -25.0917    1.0791   29.6491 C   0  0  0  0  0  0  0  0  0  0  0  0
  -26.4090    1.4383   29.7067 C   0  0  0  0  0  0  0  0  0  0  0  0
  -27.3694    0.6586   29.4148 C   0  0  0  0  0  0  0  0  0  0  0  0
  -23.3561   -0.5639   29.1206 C   0  0  0  0  0  0  0  0  0  0  0  0
  -22.4322    0.2418   28.4552 C   0  0  0  0  0  0  0  0  0  0  0  0
  -22.8544    1.3978   27.7886 C   0  0  0  0  0  0  0  0  0  0  0  0
  -23.3883    1.3171   26.5913 C   0  0  0  0  0  0  0  0  0  0  0  0
  -24.0653    2.5189   26.0782 C   0  0  0  0  0  0  0  0  0  0  0  0
  -24.1432    3.7123   26.8816 C   0  0  0  0  0  0  0  0  0  0  0  0
  -23.6996    3.6920   28.1900 C   0  0  0  0  0  0  0  0  0  0  0  0
  -23.0801    2.5818   28.6906 C   0  0  0  0  0  0  0  0  0  0  0  0
  -26.7680    2.8419   30.2550 C   0  0  0  0  0  0  0  0  0  0  0  0
  -27.3601    3.5768   29.5537 O   0  0  0  0  0  0  0  0  0  0  0  0
  -26.2105    3.1741   31.4023 O   0  0  0  0  0  0  0  0  0  0  0  0
  -21.0062    0.0358   28.5949 C   0  0  0  0  0  0  0  0  0  0  0  0
  -22.9923   -1.8494   29.6785 C   0  0  0  0  0  0  0  0  0  0  0  0
  1  2  2  0
  2  3  1  0
  3  4  1  0
  4  5  1  0
  5  6  1  0
  2  7  1  0
  6  7  1  0
  4  8  1  0
  8  9  1  0
  9 10  1  0
  6 16  1  0
 16 17  2  0
 16 18  1  0
  9 19  1  0
  8 20  1  0
 10 11  2  0
 11 12  1  0
 12 13  2  0
 13 14  1  0
 14 15  2  0
 15 10  1  0
M  END

$$$$
