No_1450-gen_results/8p0m/2024-11-27-11-27-31/
     RDKit          3D

 17 18  0  0  0  0  0  0  0  0999 V2000
  -28.0162   -0.8135   28.8779 C   0  0  0  0  0  0  0  0  0  0  0  0
  -28.4690   -0.7850   29.8287 C   0  0  0  0  0  0  0  0  0  0  0  0
  -26.5042   -0.7777   28.8766 C   0  0  0  0  0  0  0  0  0  0  0  0
  -25.8103   -0.8531   30.1028 C   0  0  0  0  0  0  0  0  0  0  0  0
  -27.9906   -0.8916   31.2257 C   0  0  0  0  0  0  0  0  0  0  0  0
  -26.6042   -0.8676   31.2652 C   0  0  0  0  0  0  0  0  0  0  0  0
  -24.5004   -0.7818   30.1446 O   0  0  0  0  0  0  0  0  0  0  0  0
  -23.8455    0.2950   29.6103 C   0  0  0  0  0  0  0  0  0  0  0  0
  -23.6132    1.3411   30.3332 C   0  0  0  0  0  0  0  0  0  0  0  0
  -23.1547    2.5375   29.7274 C   0  0  0  0  0  0  0  0  0  0  0  0
  -22.7770    2.4691   28.3651 C   0  0  0  0  0  0  0  0  0  0  0  0
  -23.4631    0.3964   28.2436 C   0  0  0  0  0  0  0  0  0  0  0  0
  -22.9652    1.3489   27.6688 C   0  0  0  0  0  0  0  0  0  0  0  0
  -30.0909   -0.7972   29.8267 C   0  0  0  0  0  0  0  0  0  0  0  0
  -30.7584   -1.6054   30.3061 O   0  0  0  0  0  0  0  0  0  0  0  0
  -30.6012    0.1715   29.1596 O   0  0  0  0  0  0  0  0  0  0  0  0
  -25.8539   -0.7645   27.7247 F   0  0  0  0  0  0  0  0  0  0  0  0
  4  7  1  0
  7  8  1  0
  2 14  1  0
 14 15  1  0
 14 16  2  0
  3 17  1  0
  1  2  2  0
  2  5  1  0
  5  6  2  0
  6  4  1  0
  4  3  2  0
  3  1  1  0
  8  9  2  0
  9 10  1  0
 10 11  2  0
 11 13  1  0
 13 12  2  0
 12  8  1  0
M  END

$$$$
