No_1265-gen_results/8p0m/2024-11-27-11-27-31/
     RDKit          3D

 20 21  0  0  0  0  0  0  0  0999 V2000
  -28.0162   -0.8135   28.8779 C   0  0  0  0  0  0  0  0  0  0  0  0
  -27.0636   -0.1190   28.6079 C   0  0  0  0  0  0  0  0  0  0  0  0
  -26.9849    0.5972   27.5218 N   0  0  0  0  0  0  0  0  0  0  0  0
  -28.6850   -0.3903   30.0601 C   0  0  0  0  0  0  0  0  0  0  0  0
  -30.0052   -0.6713   30.2249 C   0  0  0  0  0  0  0  0  0  0  0  0
  -25.8350    1.0536   26.9322 C   0  0  0  0  0  0  0  0  0  0  0  0
  -25.7802    1.6135   25.7320 C   0  0  0  0  0  0  0  0  0  0  0  0
  -24.5653    0.8395   27.6874 C   0  0  0  0  0  0  0  0  0  0  0  0
  -24.6031    0.0077   28.7842 C   0  0  0  0  0  0  0  0  0  0  0  0
  -25.7466   -0.5043   29.2473 C   0  0  0  0  0  0  0  0  0  0  0  0
  -28.1498    0.8092   26.7630 C   0  0  0  0  0  0  0  0  0  0  0  0
  -28.1092    1.2924   25.4209 C   0  0  0  0  0  0  0  0  0  0  0  0
  -29.3456    1.5569   24.7927 C   0  0  0  0  0  0  0  0  0  0  0  0
  -26.8722    1.7364   24.9546 C   0  0  0  0  0  0  0  0  0  0  0  0
  -30.6996    0.1764   30.8815 F   0  0  0  0  0  0  0  0  0  0  0  0
  -30.1050   -1.8726   30.9176 F   0  0  0  0  0  0  0  0  0  0  0  0
  -30.7261   -0.9168   29.1006 F   0  0  0  0  0  0  0  0  0  0  0  0
  -23.5685    0.2938   29.7410 C   0  0  0  0  0  0  0  0  0  0  0  0
  -22.3844   -0.0298   29.8056 C   0  0  0  0  0  0  0  0  0  0  0  0
  -24.0271    1.0325   30.9956 C   0  0  0  0  0  0  0  0  0  0  0  0
  1  2  1  0
  2  3  1  0
  1  4  1  0
  4  5  1  0
  3  6  1  0
  6  8  1  0
  8  9  1  0
  2 10  1  0
  9 10  1  0
  3 11  1  0
 12 13  1  0
  7 14  1  0
 12 14  1  0
  5 15  1  0
  5 16  1  0
  5 17  1  0
  9 18  1  0
 18 19  2  0
 18 20  1  0
  6  7  1  0
 12 11  1  0
M  END

$$$$
