No_17-gen_results/8p0m/2024-11-27-11-27-31/
     RDKit          3D

 22 24  0  0  0  0  0  0  0  0999 V2000
  -28.0162   -0.8135   28.8779 C   0  0  0  0  0  0  0  0  0  0  0  0
  -27.0636   -0.1189   28.6079 C   0  0  0  0  0  0  0  0  0  0  0  0
  -27.0010    0.6913   27.4910 C   0  0  0  0  0  0  0  0  0  0  0  0
  -27.1778    1.9037   27.5632 C   0  0  0  0  0  0  0  0  0  0  0  0
  -28.0594   -1.3960   30.2136 C   0  0  0  0  0  0  0  0  0  0  0  0
  -26.8947   -1.6080   30.9179 C   0  0  0  0  0  0  0  0  0  0  0  0
  -25.7839   -0.2253   29.3757 C   0  0  0  0  0  0  0  0  0  0  0  0
  -25.7520   -0.9581   30.5315 C   0  0  0  0  0  0  0  0  0  0  0  0
  -27.1106    2.7938   26.3675 C   0  0  0  0  0  0  0  0  0  0  0  0
  -26.8464    2.2343   25.1274 C   0  0  0  0  0  0  0  0  0  0  0  0
  -26.5638    0.1298   26.1961 C   0  0  0  0  0  0  0  0  0  0  0  0
  -26.5290    0.9319   25.0465 C   0  0  0  0  0  0  0  0  0  0  0  0
  -29.4786   -2.2928   30.6856 Cl  0  0  0  0  0  0  0  0  0  0  0  0
  -24.5430    0.4379   28.9471 C   0  0  0  0  0  0  0  0  0  0  0  0
  -24.0685    1.6034   29.2144 C   0  0  0  0  0  0  0  0  0  0  0  0
  -22.8452    2.1467   28.8047 C   0  0  0  0  0  0  0  0  0  0  0  0
  -22.1676    1.4462   27.7452 C   0  0  0  0  0  0  0  0  0  0  0  0
  -23.7372   -0.3127   27.9569 C   0  0  0  0  0  0  0  0  0  0  0  0
  -22.5119    0.2456   27.4681 C   0  0  0  0  0  0  0  0  0  0  0  0
  -24.8797    2.4824   30.2475 C   0  0  0  0  0  0  0  0  0  0  0  0
  -25.5456    3.4440   29.7838 O   0  0  0  0  0  0  0  0  0  0  0  0
  -24.8122    2.1967   31.4824 O   0  0  0  0  0  0  0  0  0  0  0  0
  2  3  1  0
  5 13  1  0
  7 14  1  0
 15 20  1  0
 20 21  2  0
 20 22  1  0
  1  2  2  0
  2  7  1  0
  7  8  2  0
  8  6  1  0
  6  5  2  0
  5  1  1  0
 14 15  2  0
 15 16  1  0
 16 17  2  0
 17 19  1  0
 19 18  2  0
 18 14  1  0
  3  4  2  0
  4  9  1  0
  9 10  2  0
 10 12  1  0
 12 11  2  0
 11  3  1  0
M  END

$$$$
