No_140-gen_results/8p0m/2024-11-27-11-27-31/
     RDKit          3D

 23 24  0  0  0  0  0  0  0  0999 V2000
  -28.0162   -0.8135   28.8779 C   0  0  0  0  0  0  0  0  0  0  0  0
  -28.4690   -0.7850   29.8287 C   0  0  0  0  0  0  0  0  0  0  0  0
  -27.0871    0.2903   28.6377 C   0  0  0  0  0  0  0  0  0  0  0  0
  -26.9102    0.8486   27.4199 C   0  0  0  0  0  0  0  0  0  0  0  0
  -27.8863   -0.5049   31.0944 C   0  0  0  0  0  0  0  0  0  0  0  0
  -26.8583    0.4896   31.0361 C   0  0  0  0  0  0  0  0  0  0  0  0
  -26.4721    0.9027   29.7780 C   0  0  0  0  0  0  0  0  0  0  0  0
  -25.6318    0.7700   27.0485 C   0  0  0  0  0  0  0  0  0  0  0  0
  -24.6815    1.5067   27.3977 C   0  0  0  0  0  0  0  0  0  0  0  0
  -23.6565    1.6816   27.8064 C   0  0  0  0  0  0  0  0  0  0  0  0
  -22.9099    1.7814   29.0578 C   0  0  0  0  0  0  0  0  0  0  0  0
  -22.4823    2.1226   26.7398 C   0  0  0  0  0  0  0  0  0  0  0  0
  -25.4356    0.2529   25.6234 C   0  0  0  0  0  0  0  0  0  0  0  0
  -27.9361    1.1780   26.6117 C   0  0  0  0  0  0  0  0  0  0  0  0
  -29.1962    1.4545   27.0959 C   0  0  0  0  0  0  0  0  0  0  0  0
  -27.6956    1.5166   25.2219 C   0  0  0  0  0  0  0  0  0  0  0  0
  -26.8840    1.0157   24.6692 C   0  0  0  0  0  0  0  0  0  0  0  0
  -30.2558    1.0129   26.7654 O   0  0  0  0  0  0  0  0  0  0  0  0
  -29.2914    2.5573   27.9426 O   0  0  0  0  0  0  0  0  0  0  0  0
  -26.2586    1.0264   32.2513 C   0  0  0  0  0  0  0  0  0  0  0  0
  -25.1182    0.6438   32.3695 F   0  0  0  0  0  0  0  0  0  0  0  0
  -26.2500    2.3777   32.1823 F   0  0  0  0  0  0  0  0  0  0  0  0
  -26.9957    0.7124   33.3123 F   0  0  0  0  0  0  0  0  0  0  0  0
  3  4  1  0
  4  8  1  0
  8  9  2  3
  9 10  1  0
 10 11  2  0
 10 12  1  0
  8 13  1  0
  4 14  1  0
 14 15  1  0
 14 16  1  0
 13 17  1  0
 16 17  1  0
 15 18  2  0
 15 19  1  0
  6 20  1  0
 20 21  1  0
 20 22  1  0
 20 23  1  0
  1  2  2  0
  2  5  1  0
  5  6  2  0
  6  7  1  0
  7  3  2  0
  3  1  1  0
M  END

$$$$
