No_1744-gen_results/8p0m/2024-11-27-11-27-31/
     RDKit          3D

 15 15  0  0  0  0  0  0  0  0999 V2000
  -28.0162   -0.8135   28.8779 C   0  0  0  0  0  0  0  0  0  0  0  0
  -27.0636   -0.1190   28.6079 C   0  0  0  0  0  0  0  0  0  0  0  0
  -27.0010    0.6913   27.4910 C   0  0  0  0  0  0  0  0  0  0  0  0
  -25.8548    1.4825   27.0830 C   0  0  0  0  0  0  0  0  0  0  0  0
  -24.6901    1.4526   27.8807 C   0  0  0  0  0  0  0  0  0  0  0  0
  -24.7379    0.6010   29.0416 C   0  0  0  0  0  0  0  0  0  0  0  0
  -25.8234   -0.1688   29.3887 C   0  0  0  0  0  0  0  0  0  0  0  0
  -28.7300   -0.5298   30.0429 N   0  0  0  0  0  0  0  0  0  0  0  0
  -28.9322    0.3227   30.5381 C   0  0  0  0  0  0  0  0  0  0  0  0
  -29.0562    1.5198   29.9798 C   0  0  0  0  0  0  0  0  0  0  0  0
  -29.4991    1.6637   28.7481 C   0  0  0  0  0  0  0  0  0  0  0  0
  -30.4133    2.4195   28.5601 C   0  0  0  0  0  0  0  0  0  0  0  0
  -31.0334    2.5135   27.2021 C   0  0  0  0  0  0  0  0  0  0  0  0
  -30.4885    1.7369   26.1925 C   0  0  0  0  0  0  0  0  0  0  0  0
  -29.4929    0.8956   26.4386 C   0  0  0  0  0  0  0  0  0  0  0  0
  1  2  1  0
  1  8  1  0
  8  9  1  0
  9 10  2  3
 10 11  1  0
 11 12  2  3
 12 13  1  0
 13 14  2  3
 14 15  1  0
  2  3  2  0
  3  4  1  0
  4  5  2  0
  5  6  1  0
  6  7  2  0
  7  2  1  0
M  END

$$$$
