No_1477-gen_results/8p0m/2024-11-27-11-27-31/
     RDKit          3D

 35 36  0  0  0  0  0  0  0  0999 V2000
  -28.0162   -0.8135   28.8779 C   0  0  0  0  0  0  0  0  0  0  0  0
  -27.0636   -0.1189   28.6079 C   0  0  0  0  0  0  0  0  0  0  0  0
  -26.9287    1.1713   29.0083 C   0  0  0  0  0  0  0  0  0  0  0  0
  -25.7702    2.0341   28.6884 C   0  0  0  0  0  0  0  0  0  0  0  0
  -24.7141    1.4431   27.9188 C   0  0  0  0  0  0  0  0  0  0  0  0
  -24.8590    0.0783   27.5836 C   0  0  0  0  0  0  0  0  0  0  0  0
  -25.9647   -0.6606   27.9164 C   0  0  0  0  0  0  0  0  0  0  0  0
  -27.9820   -1.6112   30.1028 N   0  0  0  0  0  0  0  0  0  0  0  0
  -23.5351    2.1704   27.5550 C   0  0  0  0  0  0  0  0  0  0  0  0
  -23.4709    2.9034   26.7728 F   0  0  0  0  0  0  0  0  0  0  0  0
  -22.8493    2.6451   28.7015 F   0  0  0  0  0  0  0  0  0  0  0  0
  -22.4870    1.1564   27.2723 F   0  0  0  0  0  0  0  0  0  0  0  0
  -29.1027   -0.6958   28.4477 O   0  0  0  0  0  0  0  0  0  0  0  0
  -26.7614   -1.9014   30.8752 C   0  0  0  0  0  0  0  0  0  0  0  0
  -29.1083   -2.4297   30.5239 C   0  0  0  0  0  0  0  0  0  0  0  0
  -28.9041   -3.7878   30.4679 C   0  0  0  0  0  0  0  0  0  0  0  0
  -27.7459   -4.2560   30.9898 O   0  0  0  0  0  0  0  0  0  0  0  0
  -29.7989   -4.6153   29.9917 N   0  0  0  0  0  0  0  0  0  0  0  0
  -30.9645   -4.7233   30.2458 C   0  0  0  0  0  0  0  0  0  0  0  0
  -31.9027   -4.9637   29.7374 C   0  0  0  0  0  0  0  0  0  0  0  0
  -33.3214   -4.9753   30.1076 C   0  0  0  0  0  0  0  0  0  0  0  0
  -33.5141   -4.5894   31.4351 C   0  0  0  0  0  0  0  0  0  0  0  0
  -32.4893   -4.2251   32.2159 C   0  0  0  0  0  0  0  0  0  0  0  0
  -31.2133   -4.2096   31.7475 C   0  0  0  0  0  0  0  0  0  0  0  0
  -31.8016   -5.4126   28.2369 C   0  0  0  0  0  0  0  0  0  0  0  0
  -31.9271   -4.9310   27.2762 O   0  0  0  0  0  0  0  0  0  0  0  0
  -31.4086   -6.8286   28.1993 O   0  0  0  0  0  0  0  0  0  0  0  0
  -34.9463   -4.5926   31.9189 C   0  0  0  0  0  0  0  0  0  0  0  0
  -35.5981   -5.3471   31.4692 F   0  0  0  0  0  0  0  0  0  0  0  0
  -34.7947   -4.7678   33.3053 F   0  0  0  0  0  0  0  0  0  0  0  0
  -35.3911   -3.3289   31.7973 F   0  0  0  0  0  0  0  0  0  0  0  0
  -25.6867    3.4092   29.1082 C   0  0  0  0  0  0  0  0  0  0  0  0
  -25.8846    4.4148   28.2688 O   0  0  0  0  0  0  0  0  0  0  0  0
  -25.5280    3.7219   30.4215 N   0  0  0  0  0  0  0  0  0  0  0  0
  -25.5231    5.0468   30.9615 C   0  0  0  0  0  0  0  0  0  0  0  0
  1  2  1  0
  1  8  1  0
  5  9  1  0
  9 10  1  0
  9 11  1  0
  9 12  1  0
  1 13  2  0
  8 14  1  0
  8 15  1  0
 15 16  1  0
 16 17  2  0
 16 18  1  0
 18 19  1  0
 20 25  1  0
 25 26  2  0
 25 27  1  0
 22 28  1  0
 28 29  1  0
 28 30  1  0
 28 31  1  0
  4 32  1  0
 32 33  2  0
 32 34  1  0
 34 35  1  0
  2  3  2  0
  3  4  1  0
  4  5  2  0
  5  6  1  0
  6  7  2  0
  7  2  1  0
 19 20  2  0
 20 21  1  0
 21 22  2  0
 22 23  1  0
 23 24  2  0
 24 19  1  0
M  END

$$$$
