No_1157-gen_results/8p0m/2024-11-27-11-27-31/
     RDKit          3D

 13 13  0  0  0  0  0  0  0  0999 V2000
  -28.0162   -0.8135   28.8779 C   0  0  0  0  0  0  0  0  0  0  0  0
  -27.0636   -0.1189   28.6079 C   0  0  0  0  0  0  0  0  0  0  0  0
  -26.8756    1.1325   28.9134 C   0  0  0  0  0  0  0  0  0  0  0  0
  -27.9014    1.8066   29.6436 C   0  0  0  0  0  0  0  0  0  0  0  0
  -28.9449    1.0388   30.0360 C   0  0  0  0  0  0  0  0  0  0  0  0
  -29.0273   -0.2890   29.7051 C   0  0  0  0  0  0  0  0  0  0  0  0
  -25.6959    1.9505   28.4764 C   0  0  0  0  0  0  0  0  0  0  0  0
  -25.0435    2.6925   28.9592 N   0  0  0  0  0  0  0  0  0  0  0  0
  -25.3132    1.7737   27.0173 C   0  0  0  0  0  0  0  0  0  0  0  0
  -25.7786    0.9755   26.0806 C   0  0  0  0  0  0  0  0  0  0  0  0
  -24.0934    2.5940   26.7241 C   0  0  0  0  0  0  0  0  0  0  0  0
  -23.5601    3.3913   27.5382 N   0  0  0  0  0  0  0  0  0  0  0  0
  -25.4466    2.8879   30.4350 C   0  0  0  0  0  0  0  0  0  0  0  0
  3  7  1  0
  7  8  2  3
  7  9  1  0
  9 10  1  0
  9 11  1  0
 11 12  2  0
  8 13  1  0
  1  2  2  0
  2  3  1  0
  3  4  2  0
  4  5  1  0
  5  6  2  0
  6  1  1  0
M  END

$$$$
