No_183-gen_results/8p0m/2024-11-27-11-27-31/
     RDKit          3D

 35 39  0  0  0  0  0  0  0  0999 V2000
  -28.0162   -0.8135   28.8779 C   0  0  0  0  0  0  0  0  0  0  0  0
  -28.4690   -0.7850   29.8287 C   0  0  0  0  0  0  0  0  0  0  0  0
  -27.0871    0.2903   28.6377 C   0  0  0  0  0  0  0  0  0  0  0  0
  -26.2516    0.4114   27.4223 C   0  0  0  0  0  0  0  0  0  0  0  0
  -28.3913    0.1041   30.9805 C   0  0  0  0  0  0  0  0  0  0  0  0
  -27.5332    1.1666   30.7866 C   0  0  0  0  0  0  0  0  0  0  0  0
  -26.8281    1.2557   29.6454 C   0  0  0  0  0  0  0  0  0  0  0  0
  -25.6444    1.6653   27.2216 C   0  0  0  0  0  0  0  0  0  0  0  0
  -25.3909    2.5603   28.2290 C   0  0  0  0  0  0  0  0  0  0  0  0
  -26.0983    2.4436   29.4094 C   0  0  0  0  0  0  0  0  0  0  0  0
  -25.8602    3.5115   30.4219 C   0  0  0  0  0  0  0  0  0  0  0  0
  -26.1611    4.7837   30.1558 N   0  0  0  0  0  0  0  0  0  0  0  0
  -25.8600    5.7605   30.9239 C   0  0  0  0  0  0  0  0  0  0  0  0
  -25.3676    5.4605   32.2629 C   0  0  0  0  0  0  0  0  0  0  0  0
  -25.3013    3.1763   31.7368 C   0  0  0  0  0  0  0  0  0  0  0  0
  -25.0469    4.1899   32.6609 C   0  0  0  0  0  0  0  0  0  0  0  0
  -25.0661    6.6363   33.1995 C   0  0  0  0  0  0  0  0  0  0  0  0
  -25.6351    6.5491   34.3419 C   0  0  0  0  0  0  0  0  0  0  0  0
  -25.4159    7.6362   35.3251 C   0  0  0  0  0  0  0  0  0  0  0  0
  -24.6382    8.7265   34.9087 C   0  0  0  0  0  0  0  0  0  0  0  0
  -24.2827    7.7047   32.8258 C   0  0  0  0  0  0  0  0  0  0  0  0
  -24.0328    8.7387   33.6796 C   0  0  0  0  0  0  0  0  0  0  0  0
  -26.1177    7.0340   30.6095 N   0  0  0  0  0  0  0  0  0  0  0  0
  -26.4581    7.4933   29.4412 C   0  0  0  0  0  0  0  0  0  0  0  0
  -26.5613    8.8389   29.2287 C   0  0  0  0  0  0  0  0  0  0  0  0
  -25.5073    7.0920   28.3867 C   0  0  0  0  0  0  0  0  0  0  0  0
  -26.8770    9.4086   28.0442 C   0  0  0  0  0  0  0  0  0  0  0  0
  -25.6895    7.4668   27.0311 C   0  0  0  0  0  0  0  0  0  0  0  0
  -24.8371    6.8402   26.0723 C   0  0  0  0  0  0  0  0  0  0  0  0
  -26.1433    8.7778   26.8748 C   0  0  0  0  0  0  0  0  0  0  0  0
  -27.8019    6.8552   29.0056 C   0  0  0  0  0  0  0  0  0  0  0  0
  -28.9425    7.6571   29.0230 C   0  0  0  0  0  0  0  0  0  0  0  0
  -30.1869    6.9529   28.8595 C   0  0  0  0  0  0  0  0  0  0  0  0
  -30.1550    5.7502   28.2865 C   0  0  0  0  0  0  0  0  0  0  0  0
  -28.9921    4.9660   28.1695 C   0  0  0  0  0  0  0  0  0  0  0  0
 10 11  1  0
 14 17  1  0
 13 23  1  0
 23 24  1  0
 24 25  1  0
 24 26  1  0
 26 28  1  0
 28 29  1  0
 27 30  1  0
 28 30  1  0
 24 31  1  0
 31 32  2  3
 32 33  1  0
 33 34  2  3
 34 35  1  0
 25 27  1  0
 17 18  2  0
 18 19  1  0
 19 20  2  0
 20 22  1  0
 22 21  2  0
 21 17  1  0
  1  2  2  0
  2  5  1  0
  5  6  2  0
  6  7  1  0
  3  1  1  0
 11 12  2  0
 12 13  1  0
 13 14  2  0
 14 16  1  0
 16 15  2  0
 15 11  1  0
  3  4  2  0
  4  8  1  0
  8  9  2  0
  9 10  1  0
 10  7  2  0
  7  3  1  0
M  END

$$$$
