No_1047-gen_results/8p0m/2024-11-27-11-27-31/
     RDKit          3D

 26 28  0  0  0  0  0  0  0  0999 V2000
  -28.0162   -0.8135   28.8779 C   0  0  0  0  0  0  0  0  0  0  0  0
  -27.0636   -0.1190   28.6079 C   0  0  0  0  0  0  0  0  0  0  0  0
  -27.0010    0.6913   27.4910 C   0  0  0  0  0  0  0  0  0  0  0  0
  -28.1373    0.7363   26.6350 C   0  0  0  0  0  0  0  0  0  0  0  0
  -29.2360    0.0765   27.0690 C   0  0  0  0  0  0  0  0  0  0  0  0
  -29.2177   -0.6429   28.1747 C   0  0  0  0  0  0  0  0  0  0  0  0
  -28.0030   -1.6604   30.1266 C   0  0  0  0  0  0  0  0  0  0  0  0
  -27.1218   -2.5017   30.2445 O   0  0  0  0  0  0  0  0  0  0  0  0
  -28.9642   -1.6139   30.9865 O   0  0  0  0  0  0  0  0  0  0  0  0
  -30.4224    0.1621   26.1854 C   0  0  0  0  0  0  0  0  0  0  0  0
  -30.4759    0.2574   24.9954 O   0  0  0  0  0  0  0  0  0  0  0  0
  -31.6024   -0.4352   26.7766 N   0  0  0  0  0  0  0  0  0  0  0  0
  -32.7899   -0.5821   26.0196 C   0  0  0  0  0  0  0  0  0  0  0  0
  -25.7381    1.4074   27.0497 C   0  0  0  0  0  0  0  0  0  0  0  0
  -24.5828    0.9278   27.5724 C   0  0  0  0  0  0  0  0  0  0  0  0
  -23.7747    1.7024   28.4320 C   0  0  0  0  0  0  0  0  0  0  0  0
  -22.6639    1.1906   29.1205 C   0  0  0  0  0  0  0  0  0  0  0  0
  -22.3407   -0.1637   29.0336 C   0  0  0  0  0  0  0  0  0  0  0  0
  -23.2942   -1.0127   28.4661 C   0  0  0  0  0  0  0  0  0  0  0  0
  -24.4165   -0.4777   27.7922 C   0  0  0  0  0  0  0  0  0  0  0  0
  -25.7086    2.4581   26.1566 C   0  0  0  0  0  0  0  0  0  0  0  0
  -33.2468   -1.8609   26.0194 C   0  0  0  0  0  0  0  0  0  0  0  0
  -34.1470   -2.2001   26.4633 C   0  0  0  0  0  0  0  0  0  0  0  0
  -34.6912   -1.4430   27.5386 C   0  0  0  0  0  0  0  0  0  0  0  0
  -34.8227   -0.1084   27.3272 C   0  0  0  0  0  0  0  0  0  0  0  0
  -33.8822    0.4084   26.2961 C   0  0  0  0  0  0  0  0  0  0  0  0
  1  7  1  0
  7  8  2  0
  7  9  1  0
  5 10  1  0
 10 11  2  0
 10 12  1  0
 12 13  1  0
  3 14  1  0
 14 15  1  0
 14 21  1  0
 15 16  2  0
 16 17  1  0
 17 18  2  0
 18 19  1  0
 19 20  2  0
 20 15  1  0
  1  2  2  0
  2  3  1  0
  3  4  2  0
  4  5  1  0
  5  6  2  0
  6  1  1  0
 13 22  2  0
 22 23  1  0
 23 24  2  0
 24 25  1  0
 25 26  2  0
 26 13  1  0
M  END

$$$$
