No_1941-gen_results/8p0m/2024-11-27-11-27-31/
     RDKit          3D

 35 37  0  0  0  0  0  0  0  0999 V2000
  -28.0162   -0.8135   28.8779 C   0  0  0  0  0  0  0  0  0  0  0  0
  -27.0636   -0.1189   28.6079 C   0  0  0  0  0  0  0  0  0  0  0  0
  -27.0010    0.6913   27.4910 C   0  0  0  0  0  0  0  0  0  0  0  0
  -27.1778    1.9037   27.5632 C   0  0  0  0  0  0  0  0  0  0  0  0
  -28.0594   -1.3960   30.2136 C   0  0  0  0  0  0  0  0  0  0  0  0
  -29.1724   -2.2387   30.6532 C   0  0  0  0  0  0  0  0  0  0  0  0
  -26.8829   -1.3391   31.0806 C   0  0  0  0  0  0  0  0  0  0  0  0
  -25.7799   -0.6702   30.6617 C   0  0  0  0  0  0  0  0  0  0  0  0
  -25.7889    0.0256   29.4631 C   0  0  0  0  0  0  0  0  0  0  0  0
  -26.7019    0.0450   26.1854 C   0  0  0  0  0  0  0  0  0  0  0  0
  -27.1896    2.7861   26.3632 C   0  0  0  0  0  0  0  0  0  0  0  0
  -26.7293    0.7718   24.9736 C   0  0  0  0  0  0  0  0  0  0  0  0
  -26.9269    2.1809   25.0417 C   0  0  0  0  0  0  0  0  0  0  0  0
  -29.0564   -3.4376   30.8165 O   0  0  0  0  0  0  0  0  0  0  0  0
  -30.3669   -1.7786   30.3401 O   0  0  0  0  0  0  0  0  0  0  0  0
  -24.8346    0.7199   29.1032 F   0  0  0  0  0  0  0  0  0  0  0  0
  -24.7498   -0.5910   31.3832 F   0  0  0  0  0  0  0  0  0  0  0  0
  -31.4174   -2.0617   31.0000 C   0  0  0  0  0  0  0  0  0  0  0  0
  -32.3922   -2.1636   30.3120 C   0  0  0  0  0  0  0  0  0  0  0  0
  -32.6053   -1.4594   29.3304 O   0  0  0  0  0  0  0  0  0  0  0  0
  -32.6907   -3.6791   29.7525 C   0  0  0  0  0  0  0  0  0  0  0  0
  -33.5616   -3.7355   28.8597 C   0  0  0  0  0  0  0  0  0  0  0  0
  -33.9913   -4.7729   28.4413 F   0  0  0  0  0  0  0  0  0  0  0  0
  -32.9654   -3.1432   27.6099 F   0  0  0  0  0  0  0  0  0  0  0  0
  -34.7373   -2.9547   28.8519 F   0  0  0  0  0  0  0  0  0  0  0  0
  -33.0520   -4.5123   30.8948 N   0  0  0  0  0  0  0  0  0  0  0  0
  -33.5979   -4.2708   31.9527 C   0  0  0  0  0  0  0  0  0  0  0  0
  -33.7908   -5.3409   32.8519 C   0  0  0  0  0  0  0  0  0  0  0  0
  -32.4517   -5.8991   30.8030 C   0  0  0  0  0  0  0  0  0  0  0  0
  -32.6365   -6.8602   31.6590 C   0  0  0  0  0  0  0  0  0  0  0  0
  -33.3253   -6.5405   32.7856 C   0  0  0  0  0  0  0  0  0  0  0  0
  -33.5613   -7.5824   33.7886 C   0  0  0  0  0  0  0  0  0  0  0  0
  -33.6636   -7.3765   34.9071 O   0  0  0  0  0  0  0  0  0  0  0  0
  -33.8960   -8.7451   33.2362 O   0  0  0  0  0  0  0  0  0  0  0  0
  -33.2338   -0.2574   29.5321 C   0  0  0  0  0  0  0  0  0  0  0  0
  2  3  1  0
  5  6  1  0
  6 14  2  0
  6 15  1  0
  9 16  1  0
  8 17  1  0
 15 18  1  0
 18 19  1  0
 19 20  1  0
 19 21  1  0
 21 22  1  0
 22 23  1  0
 22 24  1  0
 22 25  1  0
 21 26  1  0
 26 27  1  0
 26 29  1  0
 28 31  1  0
 30 31  1  0
 31 32  1  0
 32 33  2  0
 32 34  1  0
 20 35  1  0
 27 28  1  0
 30 29  1  0
  1  2  2  0
  2  9  1  0
  9  8  2  0
  8  7  1  0
  7  5  2  0
  5  1  1  0
  3  4  2  0
  4 11  1  0
 11 13  2  0
 13 12  1  0
 12 10  2  0
 10  3  1  0
M  END

$$$$
