No_1392-gen_results/8p0m/2024-11-27-11-27-31/
     RDKit          3D

 35 36  0  0  0  0  0  0  0  0999 V2000
  -28.0162   -0.8135   28.8779 C   0  0  0  0  0  0  0  0  0  0  0  0
  -28.4690   -0.7850   29.8287 C   0  0  0  0  0  0  0  0  0  0  0  0
  -26.5042   -0.7777   28.8766 C   0  0  0  0  0  0  0  0  0  0  0  0
  -25.6540   -0.6597   27.7191 C   0  0  0  0  0  0  0  0  0  0  0  0
  -27.9180   -0.9374   31.1824 C   0  0  0  0  0  0  0  0  0  0  0  0
  -26.5424   -0.9399   31.2606 C   0  0  0  0  0  0  0  0  0  0  0  0
  -25.7832   -0.8935   30.1201 C   0  0  0  0  0  0  0  0  0  0  0  0
  -26.1510   -0.9708   26.7104 F   0  0  0  0  0  0  0  0  0  0  0  0
  -24.4481   -1.3951   27.8914 F   0  0  0  0  0  0  0  0  0  0  0  0
  -25.1286    0.6726   27.6221 F   0  0  0  0  0  0  0  0  0  0  0  0
  -30.0508   -0.8080   29.8830 C   0  0  0  0  0  0  0  0  0  0  0  0
  -30.6657   -0.0476   30.7446 O   0  0  0  0  0  0  0  0  0  0  0  0
  -30.6652   -1.6863   29.2870 O   0  0  0  0  0  0  0  0  0  0  0  0
  -31.9106    0.2884   30.6359 C   0  0  0  0  0  0  0  0  0  0  0  0
  -32.2753    1.2794   29.7854 C   0  0  0  0  0  0  0  0  0  0  0  0
  -33.3379    1.3561   29.2635 C   0  0  0  0  0  0  0  0  0  0  0  0
  -33.6391    2.3376   28.2271 C   0  0  0  0  0  0  0  0  0  0  0  0
  -32.6040    3.2407   27.8468 C   0  0  0  0  0  0  0  0  0  0  0  0
  -31.3391    3.1090   28.4019 C   0  0  0  0  0  0  0  0  0  0  0  0
  -31.1355    2.1458   29.3340 C   0  0  0  0  0  0  0  0  0  0  0  0
  -32.2643    0.7117   32.1406 C   0  0  0  0  0  0  0  0  0  0  0  0
  -32.7888   -0.9567   30.4313 C   0  0  0  0  0  0  0  0  0  0  0  0
  -32.1484    1.6781   32.6049 C   0  0  0  0  0  0  0  0  0  0  0  0
  -32.1532    2.5318   33.4718 C   0  0  0  0  0  0  0  0  0  0  0  0
  -32.3010    3.4836   34.3257 C   0  0  0  0  0  0  0  0  0  0  0  0
  -31.2974    4.4306   34.2718 C   0  0  0  0  0  0  0  0  0  0  0  0
  -30.1561    4.4263   33.5785 C   0  0  0  0  0  0  0  0  0  0  0  0
  -29.6270    3.4766   33.0794 N   0  0  0  0  0  0  0  0  0  0  0  0
  -30.9946    2.2813   33.4389 F   0  0  0  0  0  0  0  0  0  0  0  0
  -28.7942    2.9192   32.3714 C   0  0  0  0  0  0  0  0  0  0  0  0
  -29.1347    2.6020   33.6092 C   0  0  0  0  0  0  0  0  0  0  0  0
  -28.1738    3.0537   34.6368 C   0  0  0  0  0  0  0  0  0  0  0  0
  -28.8988    1.0413   33.8384 C   0  0  0  0  0  0  0  0  0  0  0  0
  -28.1231    3.0913   31.4567 C   0  0  0  0  0  0  0  0  0  0  0  0
  -29.3662    2.2740   31.4040 O   0  0  0  0  0  0  0  0  0  0  0  0
  3  4  1  0
  4  8  1  0
  4  9  1  0
  4 10  1  0
  2 11  1  0
 11 12  1  0
 11 13  2  0
 12 14  1  0
 14 15  1  0
 14 21  1  0
 14 22  1  0
 21 23  3  0
 23 24  1  0
 24 25  1  0
 25 26  2  3
 26 27  1  0
 27 28  1  0
 24 29  1  0
 28 30  1  0
 28 31  1  0
 31 32  1  0
 31 33  1  0
 30 34  2  3
 34 35  1  0
 15 16  2  0
 16 17  1  0
 17 18  2  0
 18 19  1  0
 19 20  2  0
 20 15  1  0
  1  2  2  0
  2  5  1  0
  5  6  2  0
  6  7  1  0
  7  3  2  0
  3  1  1  0
M  END

$$$$
