No_107-gen_results/8p0m/2024-11-27-11-27-31/
     RDKit          3D

 15 16  0  0  0  0  0  0  0  0999 V2000
  -28.0162   -0.8135   28.8779 C   0  0  0  0  0  0  0  0  0  0  0  0
  -27.0636   -0.1189   28.6079 C   0  0  0  0  0  0  0  0  0  0  0  0
  -26.9716    0.7139   27.5060 C   0  0  0  0  0  0  0  0  0  0  0  0
  -28.1053    0.7744   26.6421 C   0  0  0  0  0  0  0  0  0  0  0  0
  -29.2041    0.1179   27.0477 C   0  0  0  0  0  0  0  0  0  0  0  0
  -29.2127   -0.6088   28.1281 C   0  0  0  0  0  0  0  0  0  0  0  0
  -25.6064    1.2973   27.2607 C   0  0  0  0  0  0  0  0  0  0  0  0
  -24.5747    0.9523   27.8916 C   0  0  0  0  0  0  0  0  0  0  0  0
  -23.2508    1.5806   27.7141 C   0  0  0  0  0  0  0  0  0  0  0  0
  -23.1204    2.3465   26.5712 C   0  0  0  0  0  0  0  0  0  0  0  0
  -25.3405    2.2063   26.1432 C   0  0  0  0  0  0  0  0  0  0  0  0
  -24.1505    2.7826   25.8889 C   0  0  0  0  0  0  0  0  0  0  0  0
  -22.0384    1.1965   28.4872 C   0  0  0  0  0  0  0  0  0  0  0  0
  -22.1609    0.3755   29.4311 O   0  0  0  0  0  0  0  0  0  0  0  0
  -20.8747    1.5714   28.0511 O   0  0  0  0  0  0  0  0  0  0  0  0
  3  7  1  0
  9 13  1  0
 13 14  2  0
 13 15  1  0
  7  8  2  0
  8  9  1  0
  9 10  2  0
 10 12  1  0
 12 11  2  0
 11  7  1  0
  1  2  2  0
  2  3  1  0
  3  4  2  0
  4  5  1  0
  5  6  2  0
  6  1  1  0
M  END

$$$$
