No_1826-gen_results/8p0m/2024-11-27-11-27-31/
     RDKit          3D

 16 16  0  0  0  0  0  0  0  0999 V2000
  -28.0162   -0.8135   28.8779 C   0  0  0  0  0  0  0  0  0  0  0  0
  -28.4690   -0.7850   29.8287 C   0  0  0  0  0  0  0  0  0  0  0  0
  -27.0871    0.2903   28.6377 C   0  0  0  0  0  0  0  0  0  0  0  0
  -26.9102    0.8486   27.4199 C   0  0  0  0  0  0  0  0  0  0  0  0
  -29.6069   -1.6266   30.1338 C   0  0  0  0  0  0  0  0  0  0  0  0
  -25.7234    1.3208   27.0407 C   0  0  0  0  0  0  0  0  0  0  0  0
  -24.6229    1.5356   27.9411 C   0  0  0  0  0  0  0  0  0  0  0  0
  -24.7675    0.9407   29.1932 C   0  0  0  0  0  0  0  0  0  0  0  0
  -23.6777    1.0200   30.1221 C   0  0  0  0  0  0  0  0  0  0  0  0
  -25.9244    0.2606   29.4988 C   0  0  0  0  0  0  0  0  0  0  0  0
  -22.9437   -0.1302   30.1580 N   0  0  0  0  0  0  0  0  0  0  0  0
  -29.3737   -2.6889   30.4353 O   0  0  0  0  0  0  0  0  0  0  0  0
  -30.7955   -1.1951   30.1063 O   0  0  0  0  0  0  0  0  0  0  0  0
  -22.0179   -0.5015   29.6736 C   0  0  0  0  0  0  0  0  0  0  0  0
  -23.4424   -1.0540   31.2966 C   0  0  0  0  0  0  0  0  0  0  0  0
  -21.3428    0.2444   28.8494 N   0  0  0  0  0  0  0  0  0  0  0  0
  1  2  1  0
  1  3  1  0
  2  5  1  0
  8  9  1  0
  9 11  1  0
  5 12  2  0
  5 13  1  0
 11 14  1  0
 11 15  1  0
 14 16  1  0
  3  4  2  0
  4  6  1  0
  6  7  2  0
  7  8  1  0
  8 10  2  0
 10  3  1  0
M  END

$$$$
