No_1391-gen_results/8p0m/2024-11-27-11-27-31/
     RDKit          3D

 23 24  0  0  0  0  0  0  0  0999 V2000
  -28.1493   -0.8198   28.9079 Cl  0  0  0  0  0  0  0  0  0  0  0  0
  -26.9116   -0.0797   28.9452 C   0  0  0  0  0  0  0  0  0  0  0  0
  -25.9665   -0.2123   29.6235 C   0  0  0  0  0  0  0  0  0  0  0  0
  -24.7040    0.5534   29.6218 C   0  0  0  0  0  0  0  0  0  0  0  0
  -24.6011    1.5437   28.6212 C   0  0  0  0  0  0  0  0  0  0  0  0
  -25.6671    1.7162   27.8026 C   0  0  0  0  0  0  0  0  0  0  0  0
  -26.7607    0.9618   27.8836 C   0  0  0  0  0  0  0  0  0  0  0  0
  -23.3668    2.3130   28.5678 C   0  0  0  0  0  0  0  0  0  0  0  0
  -22.3950    1.7771   27.6913 N   0  0  0  0  0  0  0  0  0  0  0  0
  -21.8098    0.6461   28.0009 C   0  0  0  0  0  0  0  0  0  0  0  0
  -22.2617    2.2265   26.3882 C   0  0  0  0  0  0  0  0  0  0  0  0
  -21.1142    0.4592   29.1989 C   0  0  0  0  0  0  0  0  0  0  0  0
  -25.5770    2.7632   26.6984 C   0  0  0  0  0  0  0  0  0  0  0  0
  -26.6157    3.7120   26.8330 C   0  0  0  0  0  0  0  0  0  0  0  0
  -25.3829    2.2801   25.3321 C   0  0  0  0  0  0  0  0  0  0  0  0
  -24.4330    3.8954   26.9725 C   0  0  0  0  0  0  0  0  0  0  0  0
  -27.8501    3.3708   26.4307 C   0  0  0  0  0  0  0  0  0  0  0  0
  -26.3574    5.1724   26.9880 C   0  0  0  0  0  0  0  0  0  0  0  0
  -24.9642    5.2010   27.1371 C   0  0  0  0  0  0  0  0  0  0  0  0
  -28.8322    3.9714   26.3823 C   0  0  0  0  0  0  0  0  0  0  0  0
  -30.1908    3.5237   26.0052 C   0  0  0  0  0  0  0  0  0  0  0  0
  -30.2300    2.2077   25.6352 C   0  0  0  0  0  0  0  0  0  0  0  0
  -29.1757    1.3895   25.6593 C   0  0  0  0  0  0  0  0  0  0  0  0
  1  2  1  0
  5  8  1  0
  8  9  1  0
  9 10  1  0
  9 11  1  0
 10 12  1  0
  6 13  1  0
 13 14  1  0
 13 15  1  0
 13 16  1  0
 14 17  2  3
 14 18  1  0
 16 19  1  0
 18 19  2  0
 17 20  1  0
 20 21  2  3
 21 22  1  0
 22 23  2  0
  2  3  2  0
  3  4  1  0
  4  5  2  0
  5  6  1  0
  6  7  2  0
  7  2  1  0
M  END

$$$$
