No_1591-gen_results/8p0m/2024-11-27-11-27-31/
     RDKit          3D

 14 15  0  0  0  0  0  0  0  0999 V2000
  -28.1229   -1.3353   28.4874 O   0  0  0  0  0  0  0  0  0  0  0  0
  -27.4806   -0.4044   28.7094 C   0  0  0  0  0  0  0  0  0  0  0  0
  -27.1904    0.2460   29.5268 C   0  0  0  0  0  0  0  0  0  0  0  0
  -26.6871   -0.0001   27.4423 N   0  0  0  0  0  0  0  0  0  0  0  0
  -27.6511    0.1259   30.8799 C   0  0  0  0  0  0  0  0  0  0  0  0
  -25.7508    1.0047   27.4342 C   0  0  0  0  0  0  0  0  0  0  0  0
  -25.5610    1.6907   28.6120 C   0  0  0  0  0  0  0  0  0  0  0  0
  -26.1559    1.3682   29.6808 C   0  0  0  0  0  0  0  0  0  0  0  0
  -28.3688   -0.8446   31.1197 C   0  0  0  0  0  0  0  0  0  0  0  0
  -29.2051   -1.2889   31.9330 C   0  0  0  0  0  0  0  0  0  0  0  0
  -29.8644   -2.5933   32.0372 C   0  0  0  0  0  0  0  0  0  0  0  0
  -29.5203   -3.5246   31.0504 C   0  0  0  0  0  0  0  0  0  0  0  0
  -28.5193   -3.2582   30.1243 C   0  0  0  0  0  0  0  0  0  0  0  0
  -28.0238   -2.2904   30.1490 C   0  0  0  0  0  0  0  0  0  0  0  0
  1  2  2  0
  2  3  1  0
  2  4  1  0
  3  5  1  0
  6  7  1  0
  3  8  1  0
  7  8  1  0
  5  9  1  0
  6  4  1  0
  9 10  2  0
 10 11  1  0
 11 12  2  0
 12 13  1  0
 13 14  2  0
 14  9  1  0
M  END

$$$$
