No_1349-gen_results/8p0m/2024-11-27-11-27-31/
     RDKit          3D

 35 38  0  0  0  0  0  0  0  0999 V2000
  -28.0162   -0.8135   28.8779 C   0  0  0  0  0  0  0  0  0  0  0  0
  -28.4690   -0.7850   29.8287 C   0  0  0  0  0  0  0  0  0  0  0  0
  -26.5042   -0.7777   28.8766 C   0  0  0  0  0  0  0  0  0  0  0  0
  -25.8103   -0.8531   30.1028 C   0  0  0  0  0  0  0  0  0  0  0  0
  -27.9864   -0.8420   31.0657 C   0  0  0  0  0  0  0  0  0  0  0  0
  -26.6147   -0.8427   31.2304 C   0  0  0  0  0  0  0  0  0  0  0  0
  -30.0705   -0.8392   29.7973 C   0  0  0  0  0  0  0  0  0  0  0  0
  -30.7049   -0.0607   30.6957 O   0  0  0  0  0  0  0  0  0  0  0  0
  -30.6371   -1.4798   28.9536 O   0  0  0  0  0  0  0  0  0  0  0  0
  -24.3709   -0.7988   30.1434 C   0  0  0  0  0  0  0  0  0  0  0  0
  -23.6710   -1.3166   30.7923 C   0  0  0  0  0  0  0  0  0  0  0  0
  -23.7432    0.1374   29.1498 C   0  0  0  0  0  0  0  0  0  0  0  0
  -22.3380    0.2205   29.0985 C   0  0  0  0  0  0  0  0  0  0  0  0
  -22.2301   -1.2802   30.9608 C   0  0  0  0  0  0  0  0  0  0  0  0
  -21.6097   -0.4869   29.9399 C   0  0  0  0  0  0  0  0  0  0  0  0
  -21.7348    1.0938   28.0747 C   0  0  0  0  0  0  0  0  0  0  0  0
  -22.4545    1.6194   27.0593 N   0  0  0  0  0  0  0  0  0  0  0  0
  -23.6495    1.8920   26.9620 C   0  0  0  0  0  0  0  0  0  0  0  0
  -24.1367    3.0305   26.5424 C   0  0  0  0  0  0  0  0  0  0  0  0
  -25.5215    3.3524   26.3174 C   0  0  0  0  0  0  0  0  0  0  0  0
  -26.3877    2.2716   26.3229 C   0  0  0  0  0  0  0  0  0  0  0  0
  -25.9012    1.0188   26.5290 C   0  0  0  0  0  0  0  0  0  0  0  0
  -24.5461    0.7463   26.8516 C   0  0  0  0  0  0  0  0  0  0  0  0
  -20.4431    1.1873   28.1071 O   0  0  0  0  0  0  0  0  0  0  0  0
  -28.0286    2.5437   25.9672 Cl  0  0  0  0  0  0  0  0  0  0  0  0
  -31.6817    0.7053   30.3296 C   0  0  0  0  0  0  0  0  0  0  0  0
  -32.8734    0.3499   30.6296 C   0  0  0  0  0  0  0  0  0  0  0  0
  -33.1034   -0.3684   31.4972 O   0  0  0  0  0  0  0  0  0  0  0  0
  -33.9543    1.0386   30.0726 N   0  0  0  0  0  0  0  0  0  0  0  0
  -35.3379    0.6948   30.3118 C   0  0  0  0  0  0  0  0  0  0  0  0
  -36.1427    1.1763   29.5398 C   0  0  0  0  0  0  0  0  0  0  0  0
  -35.8044    1.9763   28.4398 C   0  0  0  0  0  0  0  0  0  0  0  0
  -34.4547    2.2819   28.2008 C   0  0  0  0  0  0  0  0  0  0  0  0
  -33.5297    1.7415   28.9352 C   0  0  0  0  0  0  0  0  0  0  0  0
  -31.2771    2.1847   30.8423 C   0  0  0  0  0  0  0  0  0  0  0  0
  2  7  1  0
  7  8  1  0
  7  9  2  0
  4 10  1  0
 13 16  1  0
 16 17  1  0
 16 24  2  0
 21 25  1  0
  8 26  1  0
 26 27  1  0
 27 28  2  0
 27 29  1  0
 29 30  1  0
 31 32  1  0
 29 34  1  0
 33 34  1  0
 26 35  1  0
 17 18  1  0
 30 31  1  0
 32 33  1  0
 18 19  2  0
 19 20  1  0
 20 21  2  0
 21 22  1  0
 22 23  2  0
 23 18  1  0
 10 11  2  0
 11 14  1  0
 14 15  2  0
 15 13  1  0
 13 12  2  0
 12 10  1  0
  1  2  2  0
  2  5  1  0
  5  6  2  0
  6  4  1  0
  4  3  2  0
  3  1  1  0
M  END

$$$$
