No_1747-gen_results/8p0m/2024-11-27-11-27-31/
     RDKit          3D

 14 14  0  0  0  0  0  0  0  0999 V2000
  -28.1493   -0.8198   28.9079 Cl  0  0  0  0  0  0  0  0  0  0  0  0
  -26.9116   -0.0797   28.9452 C   0  0  0  0  0  0  0  0  0  0  0  0
  -26.0490   -0.0718   27.8591 C   0  0  0  0  0  0  0  0  0  0  0  0
  -24.7194    0.4034   27.9174 C   0  0  0  0  0  0  0  0  0  0  0  0
  -24.2099    0.9302   29.0839 C   0  0  0  0  0  0  0  0  0  0  0  0
  -25.0231    0.9078   30.1875 C   0  0  0  0  0  0  0  0  0  0  0  0
  -26.2532    0.3904   30.1401 C   0  0  0  0  0  0  0  0  0  0  0  0
  -22.8500    1.4479   29.0593 C   0  0  0  0  0  0  0  0  0  0  0  0
  -21.8139    1.1862   28.1596 Cl  0  0  0  0  0  0  0  0  0  0  0  0
  -27.2150    0.3770   31.6132 Cl  0  0  0  0  0  0  0  0  0  0  0  0
  -22.4203    1.3094   30.2554 F   0  0  0  0  0  0  0  0  0  0  0  0
  -23.0980    2.8565   29.1573 F   0  0  0  0  0  0  0  0  0  0  0  0
  -26.4349   -0.5306   26.6664 O   0  0  0  0  0  0  0  0  0  0  0  0
  -25.8879    0.0572   25.5747 C   0  0  0  0  0  0  0  0  0  0  0  0
  1  2  1  0
  5  8  1  0
  8  9  1  0
  7 10  1  0
  8 11  1  0
  8 12  1  0
  3 13  1  0
 13 14  1  0
  2  3  2  0
  3  4  1  0
  4  5  2  0
  5  6  1  0
  6  7  2  0
  7  2  1  0
M  END

$$$$
