No_154-gen_results/8p0m/2024-11-27-11-27-31/
     RDKit          3D

 23 24  0  0  0  0  0  0  0  0999 V2000
  -28.0162   -0.8135   28.8779 C   0  0  0  0  0  0  0  0  0  0  0  0
  -28.4690   -0.7850   29.8287 C   0  0  0  0  0  0  0  0  0  0  0  0
  -27.1356    0.2359   28.5352 C   0  0  0  0  0  0  0  0  0  0  0  0
  -26.8745    1.2825   29.3982 C   0  0  0  0  0  0  0  0  0  0  0  0
  -28.3613    0.1987   30.9244 C   0  0  0  0  0  0  0  0  0  0  0  0
  -27.5277    1.2234   30.6356 C   0  0  0  0  0  0  0  0  0  0  0  0
  -26.3987    0.2949   27.2279 C   0  0  0  0  0  0  0  0  0  0  0  0
  -26.9022    0.7280   26.2134 C   0  0  0  0  0  0  0  0  0  0  0  0
  -28.1750    1.2651   26.1756 C   0  0  0  0  0  0  0  0  0  0  0  0
  -28.7488    1.7924   27.0952 C   0  0  0  0  0  0  0  0  0  0  0  0
  -30.0627    2.5396   26.8295 C   0  0  0  0  0  0  0  0  0  0  0  0
  -30.5576    2.4697   25.5564 C   0  0  0  0  0  0  0  0  0  0  0  0
  -28.6358    1.4590   24.7653 C   0  0  0  0  0  0  0  0  0  0  0  0
  -29.8259    2.0407   24.5187 C   0  0  0  0  0  0  0  0  0  0  0  0
  -26.1272    0.4285   24.9449 C   0  0  0  0  0  0  0  0  0  0  0  0
  -25.0514   -0.2898   27.4017 C   0  0  0  0  0  0  0  0  0  0  0  0
  -24.1902    0.3105   28.4291 C   0  0  0  0  0  0  0  0  0  0  0  0
  -23.5577   -0.0159   29.2653 C   0  0  0  0  0  0  0  0  0  0  0  0
  -22.6100    0.7045   30.0780 C   0  0  0  0  0  0  0  0  0  0  0  0
  -23.7256    1.7992   28.1559 C   0  0  0  0  0  0  0  0  0  0  0  0
  -24.2563    2.5643   27.0614 N   0  0  0  0  0  0  0  0  0  0  0  0
  -23.7926   -1.5099   29.7429 C   0  0  0  0  0  0  0  0  0  0  0  0
  -22.9908    2.4339   28.8262 O   0  0  0  0  0  0  0  0  0  0  0  0
  3  7  1  0
  7  8  1  0
  8  9  1  0
  8 15  1  0
  7 16  1  0
 16 17  1  0
 17 18  2  3
 18 19  1  0
 17 20  1  0
 20 21  1  0
 18 22  1  0
 20 23  2  0
  1  2  2  0
  2  5  1  0
  5  6  2  0
  6  4  1  0
  4  3  2  0
  3  1  1  0
  9 10  2  0
 10 11  1  0
 11 12  2  0
 12 14  1  0
 14 13  2  0
 13  9  1  0
M  END

$$$$
