No_1043-gen_results/8p0m/2024-11-27-11-27-31/
     RDKit          3D

 23 26  0  0  0  0  0  0  0  0999 V2000
  -28.0162   -0.8135   28.8779 C   0  0  0  0  0  0  0  0  0  0  0  0
  -28.4690   -0.7850   29.8287 C   0  0  0  0  0  0  0  0  0  0  0  0
  -27.1356    0.2359   28.5352 C   0  0  0  0  0  0  0  0  0  0  0  0
  -26.8745    1.2825   29.3982 C   0  0  0  0  0  0  0  0  0  0  0  0
  -25.9742    2.3797   29.0831 C   0  0  0  0  0  0  0  0  0  0  0  0
  -28.3915    0.1302   30.9603 C   0  0  0  0  0  0  0  0  0  0  0  0
  -27.5035    1.2424   30.6700 C   0  0  0  0  0  0  0  0  0  0  0  0
  -25.3582    2.9659   29.8272 C   0  0  0  0  0  0  0  0  0  0  0  0
  -25.9352    2.7203   27.6542 C   0  0  0  0  0  0  0  0  0  0  0  0
  -24.9441    3.5801   27.1741 C   0  0  0  0  0  0  0  0  0  0  0  0
  -25.2702    2.6316   31.1773 N   0  0  0  0  0  0  0  0  0  0  0  0
  -24.7278    3.7099   25.9310 C   0  0  0  0  0  0  0  0  0  0  0  0
  -26.8785    2.4001   26.7070 C   0  0  0  0  0  0  0  0  0  0  0  0
  -28.0636    1.9167   26.9454 C   0  0  0  0  0  0  0  0  0  0  0  0
  -29.0923    1.9241   26.3785 C   0  0  0  0  0  0  0  0  0  0  0  0
  -27.7208    0.8633   27.2284 O   0  0  0  0  0  0  0  0  0  0  0  0
  -30.3438    2.2111   27.0753 C   0  0  0  0  0  0  0  0  0  0  0  0
  -31.5512    2.2012   26.4594 C   0  0  0  0  0  0  0  0  0  0  0  0
  -29.3412    1.6370   25.0226 C   0  0  0  0  0  0  0  0  0  0  0  0
  -30.5198    1.6133   24.3269 C   0  0  0  0  0  0  0  0  0  0  0  0
  -31.6792    1.9444   25.0732 C   0  0  0  0  0  0  0  0  0  0  0  0
  -26.5289    2.8230   25.4069 C   0  0  0  0  0  0  0  0  0  0  0  0
  -25.6054    3.5221   24.9754 C   0  0  0  0  0  0  0  0  0  0  0  0
  4  5  1  0
  5  8  1  0
  5  9  1  0
  8 11  1  0
 13 14  1  0
 14 15  1  0
  3 16  1  0
 14 16  1  0
  1  2  2  0
  2  6  1  0
  6  7  2  0
  7  4  1  0
  4  3  2  0
  3  1  1  0
  9 10  2  0
 10 12  1  0
 12 23  2  0
 23 22  1  0
 22 13  2  0
 13  9  1  0
 15 17  2  0
 17 18  1  0
 18 21  2  0
 21 20  1  0
 20 19  2  0
 19 15  1  0
M  END

$$$$
