No_1571-gen_results/8p0m/2024-11-27-11-27-31/
     RDKit          3D

 30 34  0  0  0  0  0  0  0  0999 V2000
  -28.0162   -0.8135   28.8779 C   0  0  0  0  0  0  0  0  0  0  0  0
  -28.4690   -0.7850   29.8287 C   0  0  0  0  0  0  0  0  0  0  0  0
  -28.1960    0.3478   28.0550 C   0  0  0  0  0  0  0  0  0  0  0  0
  -29.0191    1.3501   28.3782 C   0  0  0  0  0  0  0  0  0  0  0  0
  -29.4107    0.1803   30.3782 C   0  0  0  0  0  0  0  0  0  0  0  0
  -29.6059    1.2495   29.6193 C   0  0  0  0  0  0  0  0  0  0  0  0
  -27.4597    0.3802   26.7091 C   0  0  0  0  0  0  0  0  0  0  0  0
  -26.0094    0.3317   26.7236 C   0  0  0  0  0  0  0  0  0  0  0  0
  -25.3055    0.0239   27.8527 C   0  0  0  0  0  0  0  0  0  0  0  0
  -23.9153    0.1563   27.8949 C   0  0  0  0  0  0  0  0  0  0  0  0
  -23.1483   -0.2523   29.0524 C   0  0  0  0  0  0  0  0  0  0  0  0
  -23.7810   -0.9943   30.0185 C   0  0  0  0  0  0  0  0  0  0  0  0
  -25.1019   -1.2679   29.9479 C   0  0  0  0  0  0  0  0  0  0  0  0
  -25.8418   -0.8004   28.9158 C   0  0  0  0  0  0  0  0  0  0  0  0
  -27.0504   -1.1434   29.2447 N   0  0  0  0  0  0  0  0  0  0  0  0
  -27.0087   -2.6759   29.5586 C   0  0  0  0  0  0  0  0  0  0  0  0
  -28.6601   -2.0957   30.6988 C   0  0  0  0  0  0  0  0  0  0  0  0
  -29.6334   -2.2190   31.6800 N   0  0  0  0  0  0  0  0  0  0  0  0
  -27.7110   -3.0878   30.5019 C   0  0  0  0  0  0  0  0  0  0  0  0
  -29.8392   -3.2696   32.3504 C   0  0  0  0  0  0  0  0  0  0  0  0
  -29.8388   -4.3296   31.9620 C   0  0  0  0  0  0  0  0  0  0  0  0
  -30.4367   -4.8097   31.0165 C   0  0  0  0  0  0  0  0  0  0  0  0
  -31.4076   -4.0935   30.4454 C   0  0  0  0  0  0  0  0  0  0  0  0
  -32.1774   -4.6341   29.2394 C   0  0  0  0  0  0  0  0  0  0  0  0
  -31.7148   -5.8529   28.7789 C   0  0  0  0  0  0  0  0  0  0  0  0
  -30.7712   -6.6271   29.3964 C   0  0  0  0  0  0  0  0  0  0  0  0
  -30.1290   -6.1295   30.4880 C   0  0  0  0  0  0  0  0  0  0  0  0
  -28.2131    0.4410   25.5501 C   0  0  0  0  0  0  0  0  0  0  0  0
  -29.2463   -0.0008   25.2998 C   0  0  0  0  0  0  0  0  0  0  0  0
  -29.9443    0.0877   24.0563 C   0  0  0  0  0  0  0  0  0  0  0  0
  3  7  1  0
  7  8  1  0
  8  9  1  0
  1 15  1  0
 14 15  1  0
 15 16  1  0
  2 17  1  0
 17 18  1  0
 16 19  1  0
 17 19  1  0
 18 20  1  0
 20 21  2  3
 21 22  1  0
  7 28  1  0
 28 29  2  3
 29 30  1  0
 22 23  2  0
 23 24  1  0
 24 25  2  0
 25 26  1  0
 26 27  2  0
 27 22  1  0
  1  3  1  0
  3  4  2  0
  4  6  1  0
  6  5  2  0
  5  2  1  0
  2  1  2  0
  9 10  2  0
 10 11  1  0
 11 12  2  0
 12 13  1  0
 13 14  2  0
 14  9  1  0
M  END

$$$$
