No_1169-gen_results/8p0m/2024-11-27-11-27-31/
     RDKit          3D

 32 35  0  0  0  0  0  0  0  0999 V2000
  -27.9463   -0.6272   28.9934 S   0  0  0  0  0  0  0  0  0  0  0  0
  -27.6373    0.7381   29.4620 C   0  0  0  0  0  0  0  0  0  0  0  0
  -27.9156    1.1709   30.7497 C   0  0  0  0  0  0  0  0  0  0  0  0
  -28.6112   -1.1314   30.5224 C   0  0  0  0  0  0  0  0  0  0  0  0
  -28.5455   -0.0937   31.4250 C   0  0  0  0  0  0  0  0  0  0  0  0
  -26.9556    1.7491   28.5636 C   0  0  0  0  0  0  0  0  0  0  0  0
  -26.1367    1.3855   27.6599 C   0  0  0  0  0  0  0  0  0  0  0  0
  -25.1330    1.2374   27.4721 C   0  0  0  0  0  0  0  0  0  0  0  0
  -24.1957    1.5992   28.6107 C   0  0  0  0  0  0  0  0  0  0  0  0
  -23.2607    0.6954   29.1735 C   0  0  0  0  0  0  0  0  0  0  0  0
  -22.2840    1.0250   30.0582 C   0  0  0  0  0  0  0  0  0  0  0  0
  -23.5244   -0.6784   28.7962 C   0  0  0  0  0  0  0  0  0  0  0  0
  -27.0484    1.0442   26.3493 C   0  0  0  0  0  0  0  0  0  0  0  0
  -26.4885    0.3709   25.3089 C   0  0  0  0  0  0  0  0  0  0  0  0
  -25.0381    0.2732   25.2754 C   0  0  0  0  0  0  0  0  0  0  0  0
  -24.2779    0.7628   26.3204 C   0  0  0  0  0  0  0  0  0  0  0  0
  -29.1098   -2.4281   30.7767 C   0  0  0  0  0  0  0  0  0  0  0  0
  -29.5143   -2.7425   31.7891 O   0  0  0  0  0  0  0  0  0  0  0  0
  -28.8443   -3.3163   29.8336 O   0  0  0  0  0  0  0  0  0  0  0  0
  -27.1387    3.1665   28.9193 C   0  0  0  0  0  0  0  0  0  0  0  0
  -28.3778    3.7860   28.6702 C   0  0  0  0  0  0  0  0  0  0  0  0
  -25.9950    4.0602   28.4768 C   0  0  0  0  0  0  0  0  0  0  0  0
  -25.6868    5.2057   29.1629 C   0  0  0  0  0  0  0  0  0  0  0  0
  -26.6160    6.2836   28.6628 C   0  0  0  0  0  0  0  0  0  0  0  0
  -28.0588    6.1571   28.9723 C   0  0  0  0  0  0  0  0  0  0  0  0
  -29.4344    3.1113   28.7140 C   0  0  0  0  0  0  0  0  0  0  0  0
  -28.3017    5.1438   29.2078 C   0  0  0  0  0  0  0  0  0  0  0  0
  -30.2377    3.2775   27.5734 C   0  0  0  0  0  0  0  0  0  0  0  0
  -31.2185    2.3481   27.2602 C   0  0  0  0  0  0  0  0  0  0  0  0
  -31.5117    1.3986   28.2146 C   0  0  0  0  0  0  0  0  0  0  0  0
  -30.8364    1.2755   29.4357 C   0  0  0  0  0  0  0  0  0  0  0  0
  -29.8036    2.2150   29.6799 C   0  0  0  0  0  0  0  0  0  0  0  0
  1  2  1  0
  2  3  2  0
  1  4  1  0
  3  5  1  0
  4  5  2  0
  2  6  1  0
  6  7  1  0
  8  9  1  0
  9 10  2  3
 10 11  1  0
 10 12  1  0
  4 17  1  0
 17 18  2  0
 17 19  1  0
  6 20  1  0
 20 21  1  0
 20 22  1  0
 22 23  1  0
 23 24  1  0
 24 25  1  0
 21 26  1  0
 21 27  1  0
 25 27  1  0
 26 28  2  0
 28 29  1  0
 29 30  2  0
 30 31  1  0
 31 32  2  0
 32 26  1  0
  7  8  2  0
  8 16  1  0
 16 15  2  0
 15 14  1  0
 14 13  2  0
 13  7  1  0
M  END

$$$$
