No_1696-gen_results/8p0m/2024-11-27-11-27-31/
     RDKit          3D

 16 16  0  0  0  0  0  0  0  0999 V2000
  -28.0162   -0.8135   28.8779 C   0  0  0  0  0  0  0  0  0  0  0  0
  -27.0636   -0.1189   28.6079 C   0  0  0  0  0  0  0  0  0  0  0  0
  -27.0010    0.6913   27.4910 C   0  0  0  0  0  0  0  0  0  0  0  0
  -25.8548    1.4825   27.0830 C   0  0  0  0  0  0  0  0  0  0  0  0
  -24.6901    1.4526   27.8807 C   0  0  0  0  0  0  0  0  0  0  0  0
  -24.7379    0.6010   29.0416 C   0  0  0  0  0  0  0  0  0  0  0  0
  -25.8234   -0.1688   29.3887 C   0  0  0  0  0  0  0  0  0  0  0  0
  -29.5294   -0.3027   28.6098 Cl  0  0  0  0  0  0  0  0  0  0  0  0
  -27.8868   -1.9414   29.6334 O   0  0  0  0  0  0  0  0  0  0  0  0
  -23.5129    2.1981   27.5783 C   0  0  0  0  0  0  0  0  0  0  0  0
  -22.9856    2.7716   28.4666 O   0  0  0  0  0  0  0  0  0  0  0  0
  -23.2783    2.5246   26.2932 O   0  0  0  0  0  0  0  0  0  0  0  0
  -26.9172   -2.5147   30.0544 C   0  0  0  0  0  0  0  0  0  0  0  0
  -26.1207   -3.0661   29.3793 C   0  0  0  0  0  0  0  0  0  0  0  0
  -25.0087   -3.9000   29.8213 C   0  0  0  0  0  0  0  0  0  0  0  0
  -24.1838   -4.5252   28.8095 C   0  0  0  0  0  0  0  0  0  0  0  0
  1  2  1  0
  1  8  1  0
  1  9  1  0
  5 10  1  0
 10 11  2  0
 10 12  1  0
  9 13  1  0
 13 14  2  3
 14 15  1  0
 15 16  2  0
  2  3  2  0
  3  4  1  0
  4  5  2  0
  5  6  1  0
  6  7  2  0
  7  2  1  0
M  END

$$$$
