No_1782-gen_results/8p0m/2024-11-27-11-27-31/
     RDKit          3D

 28 30  0  0  0  0  0  0  0  0999 V2000
  -28.0544   -1.0498   28.7246 N   0  0  0  0  0  0  0  0  0  0  0  0
  -26.9659   -0.4722   28.7709 C   0  0  0  0  0  0  0  0  0  0  0  0
  -26.5486    0.3876   27.8310 C   0  0  0  0  0  0  0  0  0  0  0  0
  -25.2662    1.0684   27.8062 C   0  0  0  0  0  0  0  0  0  0  0  0
  -24.3565    0.7761   28.8458 C   0  0  0  0  0  0  0  0  0  0  0  0
  -23.0593    1.3379   28.9493 C   0  0  0  0  0  0  0  0  0  0  0  0
  -25.9871   -0.8200   29.8602 C   0  0  0  0  0  0  0  0  0  0  0  0
  -24.7019   -0.1930   29.8977 C   0  0  0  0  0  0  0  0  0  0  0  0
  -22.5927    2.0312   27.8367 N   0  0  0  0  0  0  0  0  0  0  0  0
  -28.9850   -0.6133   29.6975 C   0  0  0  0  0  0  0  0  0  0  0  0
  -30.1840   -1.4235   29.7932 C   0  0  0  0  0  0  0  0  0  0  0  0
  -31.3021   -0.9110   28.9819 C   0  0  0  0  0  0  0  0  0  0  0  0
  -31.0800   -0.2308   28.1646 O   0  0  0  0  0  0  0  0  0  0  0  0
  -30.4622   -1.5746   31.2487 N   0  0  0  0  0  0  0  0  0  0  0  0
  -32.4789   -1.3866   29.2222 O   0  0  0  0  0  0  0  0  0  0  0  0
  -22.1356    0.8857   29.6715 O   0  0  0  0  0  0  0  0  0  0  0  0
  -30.1144   -0.8645   32.1196 C   0  0  0  0  0  0  0  0  0  0  0  0
  -28.7597   -0.3223   31.9852 C   0  0  0  0  0  0  0  0  0  0  0  0
  -28.1094   -0.5059   31.0379 C   0  0  0  0  0  0  0  0  0  0  0  0
  -26.8228   -0.3272   31.2350 C   0  0  0  0  0  0  0  0  0  0  0  0
  -25.7624   -2.3445   29.8231 C   0  0  0  0  0  0  0  0  0  0  0  0
  -27.3885    0.7727   26.6787 C   0  0  0  0  0  0  0  0  0  0  0  0
  -26.9940    1.0693   25.6036 N   0  0  0  0  0  0  0  0  0  0  0  0
  -28.6147    0.9891   26.9352 O   0  0  0  0  0  0  0  0  0  0  0  0
  -27.7895    1.3049   24.4210 C   0  0  0  0  0  0  0  0  0  0  0  0
  -26.4696   -2.8841   30.6069 F   0  0  0  0  0  0  0  0  0  0  0  0
  -24.8543   -2.9012   29.0184 C   0  0  0  0  0  0  0  0  0  0  0  0
  -23.9529   -3.6009   29.0956 N   0  0  0  0  0  0  0  0  0  0  0  0
  1  2  1  0
  3  4  1  0
  5  6  1  0
  2  7  1  0
  5  8  1  0
  7  8  1  0
  6  9  2  0
  1 10  1  0
 11 12  1  0
 12 13  1  0
 12 15  2  0
  6 16  1  0
  7 20  1  0
 19 20  1  0
  7 21  1  0
  3 22  1  0
 22 23  1  0
 22 24  2  0
 23 25  1  0
 21 26  1  0
 21 27  1  0
 27 28  2  0
  2  3  1  0
  4  5  1  0
 10 11  2  0
 11 14  1  0
 14 17  2  0
 17 18  1  0
 18 19  2  0
 19 10  1  0
M  END

$$$$
