No_1135-gen_results/8p0m/2024-11-27-11-27-31/
     RDKit          3D

 27 29  0  0  0  0  0  0  0  0999 V2000
  -28.1229   -1.3353   28.4874 O   0  0  0  0  0  0  0  0  0  0  0  0
  -27.0637   -0.8242   28.8687 C   0  0  0  0  0  0  0  0  0  0  0  0
  -25.9464   -1.0396   28.8492 C   0  0  0  0  0  0  0  0  0  0  0  0
  -24.7602   -0.1562   29.1644 C   0  0  0  0  0  0  0  0  0  0  0  0
  -23.3890   -0.4551   29.0162 C   0  0  0  0  0  0  0  0  0  0  0  0
  -27.3395    0.3833   29.7633 N   0  0  0  0  0  0  0  0  0  0  0  0
  -26.4205    1.2770   30.1889 C   0  0  0  0  0  0  0  0  0  0  0  0
  -25.0644    1.0553   29.9319 C   0  0  0  0  0  0  0  0  0  0  0  0
  -22.5949    0.4951   28.4165 N   0  0  0  0  0  0  0  0  0  0  0  0
  -21.2328    0.3580   28.4214 C   0  0  0  0  0  0  0  0  0  0  0  0
  -22.8155   -1.6749   29.3123 C   0  0  0  0  0  0  0  0  0  0  0  0
  -23.5833   -2.6182   29.7818 F   0  0  0  0  0  0  0  0  0  0  0  0
  -23.0782    1.7132   27.8891 C   0  0  0  0  0  0  0  0  0  0  0  0
  -23.9256    2.7371   28.4932 Cl  0  0  0  0  0  0  0  0  0  0  0  0
  -23.0832    1.6512   25.9853 Br  0  0  0  0  0  0  0  0  0  0  0  0
  -21.7971   -1.5302   30.1641 F   0  0  0  0  0  0  0  0  0  0  0  0
  -26.8083    2.4799   30.9098 C   0  0  0  0  0  0  0  0  0  0  0  0
  -27.3212    3.5545   30.2541 C   0  0  0  0  0  0  0  0  0  0  0  0
  -27.9502    3.6190   29.2937 C   0  0  0  0  0  0  0  0  0  0  0  0
  -28.4131    4.8191   28.5773 C   0  0  0  0  0  0  0  0  0  0  0  0
  -28.0785    6.0424   29.1476 C   0  0  0  0  0  0  0  0  0  0  0  0
  -27.3028    6.0779   30.2948 C   0  0  0  0  0  0  0  0  0  0  0  0
  -26.8821    4.8882   30.8896 C   0  0  0  0  0  0  0  0  0  0  0  0
  -26.7169    2.3474   32.3845 C   0  0  0  0  0  0  0  0  0  0  0  0
  -27.0037    3.2334   33.1766 C   0  0  0  0  0  0  0  0  0  0  0  0
  -26.5085    4.4073   33.1874 C   0  0  0  0  0  0  0  0  0  0  0  0
  -26.4909    5.2077   32.2851 C   0  0  0  0  0  0  0  0  0  0  0  0
  1  2  2  0
  2  3  1  0
  3  4  1  0
  4  5  1  0
  2  6  1  0
  4  8  1  0
  7  8  1  0
  5  9  1  0
  9 10  1  0
  5 11  1  0
 11 12  1  0
  9 13  1  0
 13 14  1  0
 13 15  1  0
 11 16  1  0
  7 17  1  0
 17 18  1  0
 17 24  1  0
 24 25  2  0
 25 26  1  0
 23 27  1  0
 26 27  2  0
  7  6  1  0
 18 19  2  0
 19 20  1  0
 20 21  2  0
 21 22  1  0
 22 23  2  0
 23 18  1  0
M  END

$$$$
