No_1581-gen_results/8p0m/2024-11-27-11-27-31/
     RDKit          3D

 35 40  0  0  0  0  0  0  0  0999 V2000
  -28.0162   -0.8135   28.8779 C   0  0  0  0  0  0  0  0  0  0  0  0
  -28.4690   -0.7850   29.8287 C   0  0  0  0  0  0  0  0  0  0  0  0
  -26.5455   -0.8762   28.8500 C   0  0  0  0  0  0  0  0  0  0  0  0
  -25.8041   -1.0324   30.0571 C   0  0  0  0  0  0  0  0  0  0  0  0
  -27.9437   -0.9869   31.2075 C   0  0  0  0  0  0  0  0  0  0  0  0
  -26.5825   -1.0386   31.2231 C   0  0  0  0  0  0  0  0  0  0  0  0
  -24.3810   -1.1082   30.0855 C   0  0  0  0  0  0  0  0  0  0  0  0
  -23.7590   -1.1322   30.8961 C   0  0  0  0  0  0  0  0  0  0  0  0
  -22.2395   -1.0663   30.9853 C   0  0  0  0  0  0  0  0  0  0  0  0
  -21.6850   -0.8653   29.7652 C   0  0  0  0  0  0  0  0  0  0  0  0
  -22.4213   -0.7284   28.5819 C   0  0  0  0  0  0  0  0  0  0  0  0
  -23.8520   -0.8586   28.7157 C   0  0  0  0  0  0  0  0  0  0  0  0
  -30.0827   -0.6759   29.8751 C   0  0  0  0  0  0  0  0  0  0  0  0
  -30.5102   -0.1729   28.9395 O   0  0  0  0  0  0  0  0  0  0  0  0
  -30.7956   -1.1341   30.9310 N   0  0  0  0  0  0  0  0  0  0  0  0
  -30.3967   -1.7411   32.0909 C   0  0  0  0  0  0  0  0  0  0  0  0
  -28.9366   -1.5290   32.3595 C   0  0  0  0  0  0  0  0  0  0  0  0
  -32.2792   -1.1012   30.7336 C   0  0  0  0  0  0  0  0  0  0  0  0
  -33.0061   -1.6991   31.6747 C   0  0  0  0  0  0  0  0  0  0  0  0
  -34.0485   -2.4269   31.2371 C   0  0  0  0  0  0  0  0  0  0  0  0
  -34.4375   -2.2673   29.9886 C   0  0  0  0  0  0  0  0  0  0  0  0
  -33.6527   -1.7148   28.9677 C   0  0  0  0  0  0  0  0  0  0  0  0
  -32.7906   -0.1136   29.8946 C   0  0  0  0  0  0  0  0  0  0  0  0
  -33.1362   -0.6022   28.8287 C   0  0  0  0  0  0  0  0  0  0  0  0
  -31.1197   -1.1679   33.3446 C   0  0  0  0  0  0  0  0  0  0  0  0
  -32.7849   -1.2718   32.9012 C   0  0  0  0  0  0  0  0  0  0  0  0
  -30.4250   -3.2562   31.9670 C   0  0  0  0  0  0  0  0  0  0  0  0
  -30.8357   -4.1050   32.6127 C   0  0  0  0  0  0  0  0  0  0  0  0
  -30.6954   -5.4967   32.3805 C   0  0  0  0  0  0  0  0  0  0  0  0
  -30.0497   -5.8604   31.1787 C   0  0  0  0  0  0  0  0  0  0  0  0
  -29.5159   -4.9005   30.3408 C   0  0  0  0  0  0  0  0  0  0  0  0
  -29.6360   -3.5962   30.7537 C   0  0  0  0  0  0  0  0  0  0  0  0
  -33.6816   -1.0311   34.0132 C   0  0  0  0  0  0  0  0  0  0  0  0
  -34.0382   -0.1903   34.4738 C   0  0  0  0  0  0  0  0  0  0  0  0
  -35.0521   -0.0857   35.5450 C   0  0  0  0  0  0  0  0  0  0  0  0
  4  7  1  0
  2 13  1  0
 13 14  2  0
 13 15  1  0
 15 16  1  0
  5 17  1  0
 16 17  1  0
 15 18  1  0
 18 19  1  0
 19 20  1  0
 20 21  2  0
 21 22  1  0
 18 23  1  0
 22 24  2  0
 23 24  1  0
 16 25  1  0
 19 26  1  0
 25 26  1  0
 16 27  1  0
 26 33  1  0
 33 34  2  3
 34 35  1  0
  7  8  2  0
  8  9  1  0
  9 10  2  0
 10 11  1  0
 11 12  2  0
 12  7  1  0
 27 28  2  0
 28 29  1  0
 29 30  2  0
 30 31  1  0
 31 32  2  0
 32 27  1  0
  1  2  2  0
  2  5  1  0
  5  6  2  0
  6  4  1  0
  4  3  2  0
  3  1  1  0
M  END

$$$$
