No_1137-gen_results/8p0m/2024-11-27-11-27-31/
     RDKit          3D

 30 32  0  0  0  0  0  0  0  0999 V2000
  -28.0162   -0.8135   28.8779 C   0  0  0  0  0  0  0  0  0  0  0  0
  -28.4690   -0.7850   29.8287 C   0  0  0  0  0  0  0  0  0  0  0  0
  -28.1816    0.4277   28.1134 C   0  0  0  0  0  0  0  0  0  0  0  0
  -27.4498    0.6435   26.8500 C   0  0  0  0  0  0  0  0  0  0  0  0
  -27.8596    1.4573   25.9076 C   0  0  0  0  0  0  0  0  0  0  0  0
  -29.4263    0.1097   30.4178 C   0  0  0  0  0  0  0  0  0  0  0  0
  -30.0593   -0.0863   31.6841 C   0  0  0  0  0  0  0  0  0  0  0  0
  -28.9785    1.4326   28.5693 C   0  0  0  0  0  0  0  0  0  0  0  0
  -29.5762    1.2651   29.7104 C   0  0  0  0  0  0  0  0  0  0  0  0
  -27.1640    1.5688   24.6953 C   0  0  0  0  0  0  0  0  0  0  0  0
  -26.0868    0.7383   24.4411 C   0  0  0  0  0  0  0  0  0  0  0  0
  -25.6430   -0.1290   25.4158 C   0  0  0  0  0  0  0  0  0  0  0  0
  -26.2836   -0.2089   26.5751 C   0  0  0  0  0  0  0  0  0  0  0  0
  -30.2240   -1.0430   32.2450 O   0  0  0  0  0  0  0  0  0  0  0  0
  -30.1223    1.0689   32.4215 O   0  0  0  0  0  0  0  0  0  0  0  0
  -30.3744    1.1535   33.5773 C   0  0  0  0  0  0  0  0  0  0  0  0
  -31.5765    1.4603   34.0084 C   0  0  0  0  0  0  0  0  0  0  0  0
  -32.4764    2.0405   33.1585 C   0  0  0  0  0  0  0  0  0  0  0  0
  -33.8610    2.3251   33.5350 C   0  0  0  0  0  0  0  0  0  0  0  0
  -34.7498    2.9253   32.6514 C   0  0  0  0  0  0  0  0  0  0  0  0
  -34.2983    3.1769   31.3369 C   0  0  0  0  0  0  0  0  0  0  0  0
  -32.9951    2.8822   30.9429 C   0  0  0  0  0  0  0  0  0  0  0  0
  -32.1432    2.3799   31.8146 C   0  0  0  0  0  0  0  0  0  0  0  0
  -32.6214    3.2517   29.5360 C   0  0  0  0  0  0  0  0  0  0  0  0
  -31.6253    4.0748   29.3779 N   0  0  0  0  0  0  0  0  0  0  0  0
  -31.2962    4.6254   28.1588 C   0  0  0  0  0  0  0  0  0  0  0  0
  -33.1188    2.6444   28.6274 O   0  0  0  0  0  0  0  0  0  0  0  0
  -30.0665    5.2245   28.1563 C   0  0  0  0  0  0  0  0  0  0  0  0
  -29.2541    5.4429   29.2372 C   0  0  0  0  0  0  0  0  0  0  0  0
  -29.7691    4.9331   30.4955 C   0  0  0  0  0  0  0  0  0  0  0  0
  3  4  1  0
  6  7  1  0
  7 14  2  0
  7 15  1  0
 15 16  1  0
 16 17  2  3
 17 18  1  0
 22 24  1  0
 24 25  1  0
 25 26  2  3
 24 27  2  0
 26 28  1  0
 28 29  2  3
 29 30  1  0
 18 19  2  0
 19 20  1  0
 20 21  2  0
 21 22  1  0
 22 23  2  0
 23 18  1  0
  1  2  2  0
  2  6  1  0
  6  9  2  0
  9  8  1  0
  8  3  2  0
  3  1  1  0
  4  5  2  0
  5 10  1  0
 10 11  2  0
 11 12  1  0
 12 13  2  0
 13  4  1  0
M  END

$$$$
