No_1841-gen_results/8p0m/2024-11-27-11-27-31/
     RDKit          3D

 35 37  0  0  0  0  0  0  0  0999 V2000
  -28.0162   -0.8135   28.8779 C   0  0  0  0  0  0  0  0  0  0  0  0
  -27.0636   -0.1189   28.6079 C   0  0  0  0  0  0  0  0  0  0  0  0
  -26.9716    0.7139   27.5060 C   0  0  0  0  0  0  0  0  0  0  0  0
  -28.1053    0.7744   26.6421 C   0  0  0  0  0  0  0  0  0  0  0  0
  -29.2008    0.1044   27.0527 C   0  0  0  0  0  0  0  0  0  0  0  0
  -29.2096   -0.6029   28.1853 C   0  0  0  0  0  0  0  0  0  0  0  0
  -30.4199    0.1290   26.3924 N   0  0  0  0  0  0  0  0  0  0  0  0
  -30.4987   -0.0045   25.1627 C   0  0  0  0  0  0  0  0  0  0  0  0
  -31.6609    0.2535   27.0774 C   0  0  0  0  0  0  0  0  0  0  0  0
  -25.6688    1.3698   27.0804 C   0  0  0  0  0  0  0  0  0  0  0  0
  -24.5703    1.0470   27.8135 C   0  0  0  0  0  0  0  0  0  0  0  0
  -23.3501    1.8159   27.6105 C   0  0  0  0  0  0  0  0  0  0  0  0
  -23.2500    2.5935   26.4511 C   0  0  0  0  0  0  0  0  0  0  0  0
  -25.5420    2.2771   26.0602 C   0  0  0  0  0  0  0  0  0  0  0  0
  -24.3582    2.9820   25.7856 C   0  0  0  0  0  0  0  0  0  0  0  0
  -22.0893    1.4722   28.3162 C   0  0  0  0  0  0  0  0  0  0  0  0
  -20.9527    1.5505   27.7130 N   0  0  0  0  0  0  0  0  0  0  0  0
  -22.2618    1.0274   29.5215 O   0  0  0  0  0  0  0  0  0  0  0  0
  -28.0183   -1.6498   30.1370 C   0  0  0  0  0  0  0  0  0  0  0  0
  -28.6934   -1.6110   30.9630 O   0  0  0  0  0  0  0  0  0  0  0  0
  -26.8354   -2.3435   30.2043 O   0  0  0  0  0  0  0  0  0  0  0  0
  -32.7047   -0.0206   26.4767 C   0  0  0  0  0  0  0  0  0  0  0  0
  -31.5793   -0.3293   24.4068 N   0  0  0  0  0  0  0  0  0  0  0  0
  -32.7645   -0.2053   25.0529 C   0  0  0  0  0  0  0  0  0  0  0  0
  -29.3739   -0.0584   24.4367 O   0  0  0  0  0  0  0  0  0  0  0  0
  -26.9104   -3.7329   29.9163 C   0  0  0  0  0  0  0  0  0  0  0  0
  -34.0774    0.0428   27.1263 C   0  0  0  0  0  0  0  0  0  0  0  0
  -34.6141   -0.8494   27.4697 O   0  0  0  0  0  0  0  0  0  0  0  0
  -34.5122    1.2668   27.3900 O   0  0  0  0  0  0  0  0  0  0  0  0
  -25.7119   -4.3442   29.3901 C   0  0  0  0  0  0  0  0  0  0  0  0
  -24.6930   -3.4994   29.0292 C   0  0  0  0  0  0  0  0  0  0  0  0
  -24.6000   -2.0898   29.3133 C   0  0  0  0  0  0  0  0  0  0  0  0
  -28.0420   -4.4662   30.2865 C   0  0  0  0  0  0  0  0  0  0  0  0
  -23.2228   -1.5220   28.9921 C   0  0  0  0  0  0  0  0  0  0  0  0
  -28.9179   -3.9303   30.6362 O   0  0  0  0  0  0  0  0  0  0  0  0
  5  7  1  0
  7  8  1  0
  7  9  1  0
  3 10  1  0
 12 16  1  0
 16 17  1  0
 16 18  2  0
  1 19  1  0
 19 20  2  0
 19 21  1  0
  8 23  1  0
 22 24  1  0
 23 24  1  0
  8 25  2  0
 21 26  1  0
 22 27  1  0
 27 28  2  0
 27 29  1  0
 26 30  1  0
 30 31  2  3
 31 32  1  0
 26 33  1  0
 32 34  2  0
 33 35  2  0
 22  9  1  0
  1  2  2  0
  2  3  1  0
  3  4  2  0
  4  5  1  0
  5  6  2  0
  6  1  1  0
 10 11  2  0
 11 12  1  0
 12 13  2  0
 13 15  1  0
 15 14  2  0
 14 10  1  0
M  END

$$$$
