No_1957-gen_results/8p0m/2024-11-27-11-27-31/
     RDKit          3D

 23 25  0  0  0  0  0  0  0  0999 V2000
  -28.0162   -0.8135   28.8779 C   0  0  0  0  0  0  0  0  0  0  0  0
  -28.4690   -0.7850   29.8287 C   0  0  0  0  0  0  0  0  0  0  0  0
  -26.5455   -0.8762   28.8500 C   0  0  0  0  0  0  0  0  0  0  0  0
  -25.8041   -1.0324   30.0571 C   0  0  0  0  0  0  0  0  0  0  0  0
  -26.5373   -1.0386   31.2171 C   0  0  0  0  0  0  0  0  0  0  0  0
  -27.8843   -0.9532   31.1862 C   0  0  0  0  0  0  0  0  0  0  0  0
  -24.3655   -1.1134   30.0483 C   0  0  0  0  0  0  0  0  0  0  0  0
  -23.6925    0.1188   29.9185 C   0  0  0  0  0  0  0  0  0  0  0  0
  -22.3936    0.1820   29.3480 C   0  0  0  0  0  0  0  0  0  0  0  0
  -21.7660   -1.0836   29.1002 C   0  0  0  0  0  0  0  0  0  0  0  0
  -23.7787   -2.0456   28.9811 C   0  0  0  0  0  0  0  0  0  0  0  0
  -22.4327   -2.0864   28.9056 N   0  0  0  0  0  0  0  0  0  0  0  0
  -23.8552   -1.7414   31.4843 C   0  0  0  0  0  0  0  0  0  0  0  0
  -24.2524    1.3870   30.4986 C   0  0  0  0  0  0  0  0  0  0  0  0
  -25.2058    2.1281   30.4671 N   0  0  0  0  0  0  0  0  0  0  0  0
  -25.4137    3.1798   31.1449 C   0  0  0  0  0  0  0  0  0  0  0  0
  -23.2001    1.9762   31.3246 F   0  0  0  0  0  0  0  0  0  0  0  0
  -26.1756    3.2833   32.1933 C   0  0  0  0  0  0  0  0  0  0  0  0
  -27.2253    2.5138   32.4525 C   0  0  0  0  0  0  0  0  0  0  0  0
  -28.0032    2.5270   33.6470 C   0  0  0  0  0  0  0  0  0  0  0  0
  -27.6895    3.5147   34.5836 C   0  0  0  0  0  0  0  0  0  0  0  0
  -26.6225    4.3879   34.4407 C   0  0  0  0  0  0  0  0  0  0  0  0
  -25.8810    4.3050   33.2960 C   0  0  0  0  0  0  0  0  0  0  0  0
  4  7  1  0
  7  8  1  0
  9 10  1  0
  7 11  1  0
 11 12  1  0
  7 13  1  0
  8 14  1  0
 14 15  1  0
 15 16  1  0
 14 17  1  0
 16 18  1  0
  8  9  1  0
 10 12  1  0
  1  2  2  0
  2  6  1  0
  6  5  2  0
  5  4  1  0
  4  3  2  0
  3  1  1  0
 18 19  2  0
 19 20  1  0
 20 21  2  0
 21 22  1  0
 22 23  2  0
 23 18  1  0
M  END

$$$$
