No_1976-gen_results/8p0m/2024-11-27-11-27-31/
     RDKit          3D

 31 31  0  0  0  0  0  0  0  0999 V2000
  -28.0162   -0.8135   28.8779 C   0  0  0  0  0  0  0  0  0  0  0  0
  -27.0636   -0.1189   28.6079 C   0  0  0  0  0  0  0  0  0  0  0  0
  -27.0010    0.6913   27.4910 C   0  0  0  0  0  0  0  0  0  0  0  0
  -25.8548    1.4825   27.0830 C   0  0  0  0  0  0  0  0  0  0  0  0
  -24.6901    1.4526   27.8807 C   0  0  0  0  0  0  0  0  0  0  0  0
  -24.7379    0.6010   29.0416 C   0  0  0  0  0  0  0  0  0  0  0  0
  -25.8234   -0.1688   29.3887 C   0  0  0  0  0  0  0  0  0  0  0  0
  -29.1483   -0.3188   28.7297 O   0  0  0  0  0  0  0  0  0  0  0  0
  -27.9182   -1.7580   29.8456 O   0  0  0  0  0  0  0  0  0  0  0  0
  -23.5197    2.2065   27.5743 C   0  0  0  0  0  0  0  0  0  0  0  0
  -22.4731    1.7587   27.1961 N   0  0  0  0  0  0  0  0  0  0  0  0
  -23.7224    3.5040   27.4759 O   0  0  0  0  0  0  0  0  0  0  0  0
  -21.8413    0.5646   27.7363 C   0  0  0  0  0  0  0  0  0  0  0  0
  -20.5252    0.8539   28.4307 C   0  0  0  0  0  0  0  0  0  0  0  0
  -20.0795    1.9024   28.3961 F   0  0  0  0  0  0  0  0  0  0  0  0
  -19.6594   -0.0496   27.8909 F   0  0  0  0  0  0  0  0  0  0  0  0
  -20.7735    0.2711   29.6878 F   0  0  0  0  0  0  0  0  0  0  0  0
  -30.3391   -0.7361   29.4621 C   0  0  0  0  0  0  0  0  0  0  0  0
  -31.5114   -0.6968   28.7187 C   0  0  0  0  0  0  0  0  0  0  0  0
  -32.2478   -1.5938   28.7369 O   0  0  0  0  0  0  0  0  0  0  0  0
  -31.5745    0.1458   27.6509 O   0  0  0  0  0  0  0  0  0  0  0  0
  -30.4236    0.2592   30.6292 C   0  0  0  0  0  0  0  0  0  0  0  0
  -29.8774   -0.1561   31.6924 O   0  0  0  0  0  0  0  0  0  0  0  0
  -30.9770    1.3370   30.5103 O   0  0  0  0  0  0  0  0  0  0  0  0
  -32.3184   -0.1156   26.5183 C   0  0  0  0  0  0  0  0  0  0  0  0
  -31.4882    0.0332   25.3234 C   0  0  0  0  0  0  0  0  0  0  0  0
  -31.6856   -0.8489   24.4714 O   0  0  0  0  0  0  0  0  0  0  0  0
  -31.8107   -1.9423   24.3754 C   0  0  0  0  0  0  0  0  0  0  0  0
  -30.6315    1.1594   25.1977 C   0  0  0  0  0  0  0  0  0  0  0  0
  -30.4919    1.9165   26.2026 F   0  0  0  0  0  0  0  0  0  0  0  0
  -30.8098    1.7335   24.0440 F   0  0  0  0  0  0  0  0  0  0  0  0
  1  2  1  0
  1  8  1  0
  1  9  2  0
  5 10  1  0
 10 11  1  0
 10 12  2  0
 11 13  1  0
 13 14  1  0
 14 15  1  0
 14 16  1  0
 14 17  1  0
  8 18  1  0
 18 19  1  0
 19 20  2  0
 19 21  1  0
 18 22  1  0
 22 23  2  0
 22 24  1  0
 21 25  1  0
 25 26  1  0
 26 27  1  0
 27 28  1  0
 26 29  1  0
 29 30  1  0
 29 31  1  0
  2  3  2  0
  3  4  1  0
  4  5  2  0
  5  6  1  0
  6  7  2  0
  7  2  1  0
M  END

$$$$
