No_1682-gen_results/8p0m/2024-11-27-11-27-31/
     RDKit          3D

 17 19  0  0  0  0  0  0  0  0999 V2000
  -28.0162   -0.8135   28.8779 C   0  0  0  0  0  0  0  0  0  0  0  0
  -28.4690   -0.7850   29.8287 C   0  0  0  0  0  0  0  0  0  0  0  0
  -27.1356    0.2359   28.5352 C   0  0  0  0  0  0  0  0  0  0  0  0
  -26.3351    0.2900   27.2835 C   0  0  0  0  0  0  0  0  0  0  0  0
  -28.3692    0.1957   30.9236 C   0  0  0  0  0  0  0  0  0  0  0  0
  -27.5158    1.2655   30.6540 C   0  0  0  0  0  0  0  0  0  0  0  0
  -26.8411    1.2942   29.4761 C   0  0  0  0  0  0  0  0  0  0  0  0
  -25.3615    0.7752   26.9671 C   0  0  0  0  0  0  0  0  0  0  0  0
  -24.6560    0.7452   25.7258 C   0  0  0  0  0  0  0  0  0  0  0  0
  -23.4671    1.4076   25.4763 C   0  0  0  0  0  0  0  0  0  0  0  0
  -22.9384    2.2100   26.4928 C   0  0  0  0  0  0  0  0  0  0  0  0
  -24.5892    1.6362   27.9044 C   0  0  0  0  0  0  0  0  0  0  0  0
  -23.4065    2.2631   27.6827 C   0  0  0  0  0  0  0  0  0  0  0  0
  -25.7110    2.1671   29.2392 C   0  0  0  0  0  0  0  0  0  0  0  0
  -25.1815    3.2778   29.9905 C   0  0  0  0  0  0  0  0  0  0  0  0
  -25.5503    4.3933   29.5082 O   0  0  0  0  0  0  0  0  0  0  0  0
  -24.6876    3.0232   31.1074 O   0  0  0  0  0  0  0  0  0  0  0  0
 14 15  1  0
 15 16  2  0
 15 17  1  0
  3  4  2  0
  4  8  1  0
 12 14  1  0
 14  7  2  0
  1  2  2  0
  2  5  1  0
  5  6  2  0
  6  7  1  0
  7  3  1  0
  3  1  1  0
  8  9  2  0
  9 10  1  0
 10 11  2  0
 11 13  1  0
 13 12  2  0
 12  8  1  0
M  END

$$$$
