No_1578-gen_results/8p0m/2024-11-27-11-27-31/
     RDKit          3D

 22 23  0  0  0  0  0  0  0  0999 V2000
  -28.0162   -0.8135   28.8779 C   0  0  0  0  0  0  0  0  0  0  0  0
  -28.4690   -0.7850   29.8287 C   0  0  0  0  0  0  0  0  0  0  0  0
  -26.5042   -0.7777   28.8766 C   0  0  0  0  0  0  0  0  0  0  0  0
  -25.8103   -0.8531   30.1028 C   0  0  0  0  0  0  0  0  0  0  0  0
  -27.9906   -0.8916   31.2257 C   0  0  0  0  0  0  0  0  0  0  0  0
  -24.3976   -0.8364   30.1775 C   0  0  0  0  0  0  0  0  0  0  0  0
  -26.5754   -0.8899   31.2661 C   0  0  0  0  0  0  0  0  0  0  0  0
  -23.8468    0.4115   29.9113 N   0  0  0  0  0  0  0  0  0  0  0  0
  -24.0414    1.5150   30.5203 C   0  0  0  0  0  0  0  0  0  0  0  0
  -22.5433    0.4096   29.3038 C   0  0  0  0  0  0  0  0  0  0  0  0
  -25.5368    1.8252   31.6218 Br  0  0  0  0  0  0  0  0  0  0  0  0
  -23.4560    2.5330   30.2976 O   0  0  0  0  0  0  0  0  0  0  0  0
  -30.0826   -0.7824   29.8420 C   0  0  0  0  0  0  0  0  0  0  0  0
  -30.6737    0.1142   30.4819 O   0  0  0  0  0  0  0  0  0  0  0  0
  -30.6876   -1.8088   29.4828 O   0  0  0  0  0  0  0  0  0  0  0  0
  -25.7108   -0.8483   27.8572 F   0  0  0  0  0  0  0  0  0  0  0  0
  -22.5459    0.9842   27.9942 C   0  0  0  0  0  0  0  0  0  0  0  0
  -21.4259    1.7907   27.6565 C   0  0  0  0  0  0  0  0  0  0  0  0
  -23.6725    0.9180   27.1953 C   0  0  0  0  0  0  0  0  0  0  0  0
  -23.8056    1.6358   26.0025 C   0  0  0  0  0  0  0  0  0  0  0  0
  -21.5185    2.3287   26.3622 N   0  0  0  0  0  0  0  0  0  0  0  0
  -22.6424    2.2958   25.6024 C   0  0  0  0  0  0  0  0  0  0  0  0
  4  6  1  0
  6  8  1  0
  8  9  1  0
  8 10  1  0
  9 11  1  0
  9 12  2  0
  2 13  1  0
 13 14  1  0
 13 15  2  0
  3 16  1  0
 10 17  1  0
 17 18  2  0
 18 21  1  0
 21 22  2  0
 22 20  1  0
 20 19  2  0
 19 17  1  0
  1  2  2  0
  2  5  1  0
  5  7  2  0
  7  4  1  0
  4  3  2  0
  3  1  1  0
M  END

$$$$
