No_1728-gen_results/8p0m/2024-11-27-11-27-31/
     RDKit          3D

 17 19  0  0  0  0  0  0  0  0999 V2000
  -28.1229   -1.3353   28.4874 O   0  0  0  0  0  0  0  0  0  0  0  0
  -27.4806   -0.4044   28.7094 C   0  0  0  0  0  0  0  0  0  0  0  0
  -27.2412    0.3910   29.5098 N   0  0  0  0  0  0  0  0  0  0  0  0
  -26.2388   -0.3380   27.6778 C   0  0  0  0  0  0  0  0  0  0  0  0
  -25.3093    0.6912   27.7522 C   0  0  0  0  0  0  0  0  0  0  0  0
  -25.3619    1.5421   28.8283 C   0  0  0  0  0  0  0  0  0  0  0  0
  -26.3549    1.4060   29.7468 C   0  0  0  0  0  0  0  0  0  0  0  0
  -24.2489    0.8260   26.7745 C   0  0  0  0  0  0  0  0  0  0  0  0
  -23.2042    1.7576   27.0488 C   0  0  0  0  0  0  0  0  0  0  0  0
  -23.3219    2.6127   28.2176 C   0  0  0  0  0  0  0  0  0  0  0  0
  -24.2868    2.5025   29.0076 C   0  0  0  0  0  0  0  0  0  0  0  0
  -26.4818    2.1972   30.8471 N   0  0  0  0  0  0  0  0  0  0  0  0
  -27.3308    2.7941   31.3443 C   0  0  0  0  0  0  0  0  0  0  0  0
  -27.1628    3.5919   32.4506 C   0  0  0  0  0  0  0  0  0  0  0  0
  -25.8202    3.6466   32.8835 C   0  0  0  0  0  0  0  0  0  0  0  0
  -24.7574    3.0378   32.3592 C   0  0  0  0  0  0  0  0  0  0  0  0
  -25.0468    2.3043   31.3136 C   0  0  0  0  0  0  0  0  0  0  0  0
  1  2  2  0
  2  3  1  0
  2  4  1  0
  6  7  1  0
  7 12  1  0
 12 13  1  0
 14 15  1  0
 12 17  1  0
 16 17  1  0
 13 14  1  0
 15 16  1  0
  3  7  1  0
  5  4  1  0
  5  6  2  0
  6 11  1  0
 11 10  2  0
 10  9  1  0
  9  8  2  0
  8  5  1  0
M  END

$$$$
