No_1475-gen_results/8p0m/2024-11-27-11-27-31/
     RDKit          3D

 23 24  0  0  0  0  0  0  0  0999 V2000
  -28.0162   -0.8135   28.8779 C   0  0  0  0  0  0  0  0  0  0  0  0
  -28.4690   -0.7850   29.8287 C   0  0  0  0  0  0  0  0  0  0  0  0
  -28.1816    0.4277   28.1134 C   0  0  0  0  0  0  0  0  0  0  0  0
  -29.3519    0.6041   27.4037 C   0  0  0  0  0  0  0  0  0  0  0  0
  -29.4078    1.3882   26.3585 C   0  0  0  0  0  0  0  0  0  0  0  0
  -28.3732   -1.9693   30.7332 C   0  0  0  0  0  0  0  0  0  0  0  0
  -27.5744   -3.0289   30.2784 C   0  0  0  0  0  0  0  0  0  0  0  0
  -26.6938   -2.8337   29.2908 C   0  0  0  0  0  0  0  0  0  0  0  0
  -26.7881   -1.6124   28.5989 C   0  0  0  0  0  0  0  0  0  0  0  0
  -27.0762    1.2576   27.6770 C   0  0  0  0  0  0  0  0  0  0  0  0
  -27.1321    2.1964   26.6854 C   0  0  0  0  0  0  0  0  0  0  0  0
  -28.3938    2.3041   26.0350 C   0  0  0  0  0  0  0  0  0  0  0  0
  -25.6105   -3.7835   29.0332 C   0  0  0  0  0  0  0  0  0  0  0  0
  -24.2137   -3.3043   28.8300 C   0  0  0  0  0  0  0  0  0  0  0  0
  -25.8059   -5.1573   29.2486 C   0  0  0  0  0  0  0  0  0  0  0  0
  -24.7154   -5.9589   29.0713 N   0  0  0  0  0  0  0  0  0  0  0  0
  -23.9011   -1.9742   28.7962 N   0  0  0  0  0  0  0  0  0  0  0  0
  -22.7510   -1.4074   29.2506 C   0  0  0  0  0  0  0  0  0  0  0  0
  -22.5639    0.0563   28.9266 C   0  0  0  0  0  0  0  0  0  0  0  0
  -23.3652    0.6303   27.9258 C   0  0  0  0  0  0  0  0  0  0  0  0
  -23.2625    2.0137   27.7589 C   0  0  0  0  0  0  0  0  0  0  0  0
  -23.5645    2.4949   26.8121 C   0  0  0  0  0  0  0  0  0  0  0  0
  -23.3719    3.9857   26.6114 C   0  0  0  0  0  0  0  0  0  0  0  0
  1  3  1  0
  8 13  1  0
 13 14  1  0
 13 15  1  0
 15 16  1  0
 14 17  1  0
 17 18  1  0
 18 19  2  3
 19 20  1  0
 20 21  1  0
 21 22  2  3
 22 23  1  0
  3  4  2  0
  4  5  1  0
  5 12  2  0
 12 11  1  0
 11 10  2  0
 10  3  1  0
  1  2  2  0
  2  6  1  0
  6  7  2  0
  7  8  1  0
  8  9  2  0
  9  1  1  0
M  END

$$$$
