No_159-gen_results/8p0m/2024-11-27-11-27-31/
     RDKit          3D

 15 16  0  0  0  0  0  0  0  0999 V2000
  -28.0162   -0.8135   28.8779 C   0  0  0  0  0  0  0  0  0  0  0  0
  -27.0636   -0.1190   28.6079 C   0  0  0  0  0  0  0  0  0  0  0  0
  -25.7647   -0.3897   29.0360 C   0  0  0  0  0  0  0  0  0  0  0  0
  -24.5516    0.4058   28.7646 C   0  0  0  0  0  0  0  0  0  0  0  0
  -23.2300    0.1178   29.2575 C   0  0  0  0  0  0  0  0  0  0  0  0
  -22.1393    0.9427   28.9224 C   0  0  0  0  0  0  0  0  0  0  0  0
  -27.8294   -1.9287   29.8545 C   0  0  0  0  0  0  0  0  0  0  0  0
  -28.9498   -2.7426   30.2348 C   0  0  0  0  0  0  0  0  0  0  0  0
  -26.5379   -2.2577   30.2952 C   0  0  0  0  0  0  0  0  0  0  0  0
  -25.4373   -1.5151   29.9207 C   0  0  0  0  0  0  0  0  0  0  0  0
  -22.2325    1.9191   27.8681 C   0  0  0  0  0  0  0  0  0  0  0  0
  -24.5553    1.4449   27.7267 C   0  0  0  0  0  0  0  0  0  0  0  0
  -23.4402    2.1612   27.3572 C   0  0  0  0  0  0  0  0  0  0  0  0
  -30.0516   -2.3406   30.2535 O   0  0  0  0  0  0  0  0  0  0  0  0
  -28.6722   -3.9575   30.7011 O   0  0  0  0  0  0  0  0  0  0  0  0
  3  4  1  0
  7  8  1  0
  8 14  2  0
  8 15  1  0
  1  2  2  0
  2  3  1  0
  3 10  2  0
 10  9  1  0
  9  7  2  0
  7  1  1  0
  4  5  2  0
  5  6  1  0
  6 11  2  0
 11 13  1  0
 13 12  2  0
 12  4  1  0
M  END

$$$$
