No_1441-gen_results/8p0m/2024-11-27-11-27-31/
     RDKit          3D

 24 25  0  0  0  0  0  0  0  0999 V2000
  -28.0162   -0.8135   28.8779 C   0  0  0  0  0  0  0  0  0  0  0  0
  -27.0636   -0.1190   28.6079 C   0  0  0  0  0  0  0  0  0  0  0  0
  -27.0010    0.6913   27.4910 C   0  0  0  0  0  0  0  0  0  0  0  0
  -25.8548    1.4825   27.0830 C   0  0  0  0  0  0  0  0  0  0  0  0
  -24.6901    1.4526   27.8807 C   0  0  0  0  0  0  0  0  0  0  0  0
  -23.4878    2.1451   27.6011 C   0  0  0  0  0  0  0  0  0  0  0  0
  -25.8122   -0.1656   29.4299 C   0  0  0  0  0  0  0  0  0  0  0  0
  -24.6457    0.5887   29.0806 C   0  0  0  0  0  0  0  0  0  0  0  0
  -28.6766   -0.4983   30.2414 C   0  0  0  0  0  0  0  0  0  0  0  0
  -23.6399    3.2242   27.0039 F   0  0  0  0  0  0  0  0  0  0  0  0
  -22.3574    1.6491   27.5560 F   0  0  0  0  0  0  0  0  0  0  0  0
  -29.6395   -1.3688   30.7384 C   0  0  0  0  0  0  0  0  0  0  0  0
  -29.9374   -2.3081   30.1493 C   0  0  0  0  0  0  0  0  0  0  0  0
  -31.0870   -3.0996   30.6884 C   0  0  0  0  0  0  0  0  0  0  0  0
  -31.6352   -2.7790   31.8071 C   0  0  0  0  0  0  0  0  0  0  0  0
  -31.2593   -1.6929   32.5289 C   0  0  0  0  0  0  0  0  0  0  0  0
  -30.2427   -0.8815   31.9997 C   0  0  0  0  0  0  0  0  0  0  0  0
  -28.2562    0.7318   30.9470 C   0  0  0  0  0  0  0  0  0  0  0  0
  -28.1095    0.7977   26.5657 C   0  0  0  0  0  0  0  0  0  0  0  0
  -29.1799    1.0771   26.9036 O   0  0  0  0  0  0  0  0  0  0  0  0
  -27.9008    0.5274   25.2573 N   0  0  0  0  0  0  0  0  0  0  0  0
  -28.7625    0.1593   24.4160 C   0  0  0  0  0  0  0  0  0  0  0  0
  -27.3425    0.7377   31.8947 C   0  0  0  0  0  0  0  0  0  0  0  0
  -26.9694    1.9128   32.5682 C   0  0  0  0  0  0  0  0  0  0  0  0
  1  2  1  0
  5  6  1  0
  1  9  1  0
  6 10  1  0
  6 11  1  0
  9 12  1  0
  9 18  1  0
  3 19  1  0
 19 20  2  0
 19 21  1  0
 21 22  1  0
 18 23  2  3
 23 24  1  0
  2  3  2  0
  3  4  1  0
  4  5  2  0
  5  8  1  0
  8  7  2  0
  7  2  1  0
 12 13  2  0
 13 14  1  0
 14 15  2  0
 15 16  1  0
 16 17  2  0
 17 12  1  0
M  END

$$$$
