No_1145-gen_results/8p0m/2024-11-27-11-27-31/
     RDKit          3D

 14 15  0  0  0  0  0  0  0  0999 V2000
  -28.1229   -1.3353   28.4874 O   0  0  0  0  0  0  0  0  0  0  0  0
  -27.0637   -0.8242   28.8687 C   0  0  0  0  0  0  0  0  0  0  0  0
  -26.4017   -0.0623   28.6224 C   0  0  0  0  0  0  0  0  0  0  0  0
  -26.5721   -1.5844   30.1172 N   0  0  0  0  0  0  0  0  0  0  0  0
  -25.0209    0.3561   29.0444 C   0  0  0  0  0  0  0  0  0  0  0  0
  -24.6646   -0.3860   30.2421 C   0  0  0  0  0  0  0  0  0  0  0  0
  -25.4289   -1.3599   30.6870 C   0  0  0  0  0  0  0  0  0  0  0  0
  -26.7072    0.8229   27.3439 C   0  0  0  0  0  0  0  0  0  0  0  0
  -25.8734    1.6078   26.7261 C   0  0  0  0  0  0  0  0  0  0  0  0
  -24.6016    1.9643   27.3632 C   0  0  0  0  0  0  0  0  0  0  0  0
  -24.1452    1.2697   28.4645 C   0  0  0  0  0  0  0  0  0  0  0  0
  -22.8240    1.5401   28.9872 C   0  0  0  0  0  0  0  0  0  0  0  0
  -21.9620    2.0480   28.1456 O   0  0  0  0  0  0  0  0  0  0  0  0
  -22.4696    1.1264   30.1741 O   0  0  0  0  0  0  0  0  0  0  0  0
  1  2  2  0
  2  3  1  0
  2  4  1  0
  5  6  1  0
 11 12  1  0
 12 13  2  0
 12 14  1  0
  6  7  1  0
  7  4  1  0
  3  8  2  0
  8  9  1  0
  9 10  2  0
 10 11  1  0
 11  5  2  0
  5  3  1  0
M  END

$$$$
