No_1817-gen_results/8p0m/2024-11-27-11-27-31/
     RDKit          3D

 10 10  0  0  0  0  0  0  0  0999 V2000
  -28.1229   -1.3353   28.4874 O   0  0  0  0  0  0  0  0  0  0  0  0
  -27.4806   -0.4044   28.7094 C   0  0  0  0  0  0  0  0  0  0  0  0
  -26.3804   -0.0867   27.9394 C   0  0  0  0  0  0  0  0  0  0  0  0
  -27.6664    0.4468   29.8988 N   0  0  0  0  0  0  0  0  0  0  0  0
  -25.1773   -0.4388   28.3946 C   0  0  0  0  0  0  0  0  0  0  0  0
  -26.4423    1.0542   27.0546 C   0  0  0  0  0  0  0  0  0  0  0  0
  -23.9272    0.0285   27.7432 C   0  0  0  0  0  0  0  0  0  0  0  0
  -23.9889    1.0631   26.8525 C   0  0  0  0  0  0  0  0  0  0  0  0
  -25.2329    1.6083   26.5111 C   0  0  0  0  0  0  0  0  0  0  0  0
  -28.7474    0.0961   30.7810 C   0  0  0  0  0  0  0  0  0  0  0  0
  1  2  2  0
  2  3  1  0
  2  4  1  0
  4 10  1  0
  3  5  2  0
  5  7  1  0
  7  8  2  0
  8  9  1  0
  9  6  2  0
  6  3  1  0
M  END

$$$$
