No_1222-gen_results/8p0m/2024-11-27-11-27-31/
     RDKit          3D

 35 38  0  0  0  0  0  0  0  0999 V2000
  -28.0162   -0.8135   28.8779 C   0  0  0  0  0  0  0  0  0  0  0  0
  -27.0636   -0.1189   28.6079 C   0  0  0  0  0  0  0  0  0  0  0  0
  -25.7923   -0.4302   29.0761 C   0  0  0  0  0  0  0  0  0  0  0  0
  -25.5681   -1.2411   29.7572 C   0  0  0  0  0  0  0  0  0  0  0  0
  -26.6114   -2.1840   30.2439 C   0  0  0  0  0  0  0  0  0  0  0  0
  -27.8191   -1.9189   29.8034 C   0  0  0  0  0  0  0  0  0  0  0  0
  -28.8528   -2.7193   30.2109 O   0  0  0  0  0  0  0  0  0  0  0  0
  -29.1753   -2.8477   31.5232 C   0  0  0  0  0  0  0  0  0  0  0  0
  -29.8608   -1.8299   32.0483 C   0  0  0  0  0  0  0  0  0  0  0  0
  -30.4509   -0.9804   31.3386 C   0  0  0  0  0  0  0  0  0  0  0  0
  -31.4167   -1.2524   30.5156 C   0  0  0  0  0  0  0  0  0  0  0  0
  -32.0759   -0.3417   29.6393 C   0  0  0  0  0  0  0  0  0  0  0  0
  -31.6849    1.0168   29.7744 C   0  0  0  0  0  0  0  0  0  0  0  0
  -30.7377    1.3981   30.7001 C   0  0  0  0  0  0  0  0  0  0  0  0
  -30.1175    0.4895   31.4605 C   0  0  0  0  0  0  0  0  0  0  0  0
  -29.0428    0.9158   32.3952 C   0  0  0  0  0  0  0  0  0  0  0  0
  -28.0045    1.6315   31.9102 C   0  0  0  0  0  0  0  0  0  0  0  0
  -27.3958    2.3038   32.4548 C   0  0  0  0  0  0  0  0  0  0  0  0
  -29.1076    0.6599   33.7540 C   0  0  0  0  0  0  0  0  0  0  0  0
  -28.2048    1.3345   34.6057 C   0  0  0  0  0  0  0  0  0  0  0  0
  -27.2274    2.1527   33.9747 C   0  0  0  0  0  0  0  0  0  0  0  0
  -27.2643    1.1073   27.6551 C   0  0  0  0  0  0  0  0  0  0  0  0
  -26.6547    1.9075   27.5171 O   0  0  0  0  0  0  0  0  0  0  0  0
  -28.5271    1.0237   27.1296 O   0  0  0  0  0  0  0  0  0  0  0  0
  -30.3462    3.0827   30.7958 Cl  0  0  0  0  0  0  0  0  0  0  0  0
  -29.8650   -4.2400   31.6275 C   0  0  0  0  0  0  0  0  0  0  0  0
  -29.2309   -5.1087   32.4224 N   0  0  0  0  0  0  0  0  0  0  0  0
  -30.0939   -4.9260   30.2644 C   0  0  0  0  0  0  0  0  0  0  0  0
  -31.1872   -5.9321   30.2842 C   0  0  0  0  0  0  0  0  0  0  0  0
  -32.3166   -5.4317   29.7464 C   0  0  0  0  0  0  0  0  0  0  0  0
  -32.3833   -4.1756   29.2510 C   0  0  0  0  0  0  0  0  0  0  0  0
  -33.0081   -3.9628   28.0007 C   0  0  0  0  0  0  0  0  0  0  0  0
  -33.8529   -4.7846   27.5963 C   0  0  0  0  0  0  0  0  0  0  0  0
  -33.8994   -6.1381   28.0535 C   0  0  0  0  0  0  0  0  0  0  0  0
  -33.1767   -6.4023   29.1191 C   0  0  0  0  0  0  0  0  0  0  0  0
  6  7  1  0
  7  8  1  0
  8  9  1  0
  9 10  1  0
 15 16  1  0
  2 22  1  0
 22 23  2  0
 22 24  1  0
 14 25  1  0
  8 26  1  0
 26 27  1  0
 26 28  1  0
 28 29  1  0
 29 30  1  0
  1  2  2  0
  2  3  1  0
  3  4  2  0
  4  5  1  0
  5  6  2  0
  6  1  1  0
 16 17  2  0
 17 18  1  0
 18 21  2  0
 21 20  1  0
 20 19  2  0
 19 16  1  0
 10 11  2  0
 11 12  1  0
 12 13  2  0
 13 14  1  0
 14 15  2  0
 15 10  1  0
 30 31  2  0
 31 32  1  0
 32 33  2  0
 33 34  1  0
 34 35  2  0
 35 30  1  0
M  END

$$$$
