No_1015-gen_results/8p0m/2024-11-27-11-27-31/
     RDKit          3D

 17 18  0  0  0  0  0  0  0  0999 V2000
  -28.0162   -0.8135   28.8779 C   0  0  0  0  0  0  0  0  0  0  0  0
  -28.4690   -0.7850   29.8287 C   0  0  0  0  0  0  0  0  0  0  0  0
  -28.1960    0.3478   28.0550 C   0  0  0  0  0  0  0  0  0  0  0  0
  -29.0191    1.3501   28.3782 C   0  0  0  0  0  0  0  0  0  0  0  0
  -29.6249    1.2683   29.6012 C   0  0  0  0  0  0  0  0  0  0  0  0
  -29.3791    0.1469   30.3923 C   0  0  0  0  0  0  0  0  0  0  0  0
  -27.5010    0.3600   26.8208 O   0  0  0  0  0  0  0  0  0  0  0  0
  -26.1310    0.4179   26.7827 C   0  0  0  0  0  0  0  0  0  0  0  0
  -25.4810    1.5566   27.2461 C   0  0  0  0  0  0  0  0  0  0  0  0
  -24.0803    1.5878   27.3118 C   0  0  0  0  0  0  0  0  0  0  0  0
  -23.3679    0.7198   27.9973 C   0  0  0  0  0  0  0  0  0  0  0  0
  -23.9704   -0.6050   28.1680 C   0  0  0  0  0  0  0  0  0  0  0  0
  -25.3522   -0.8034   27.4074 C   0  0  0  0  0  0  0  0  0  0  0  0
  -21.9855    0.8267   28.3780 C   0  0  0  0  0  0  0  0  0  0  0  0
  -21.2918    1.7130   27.6887 N   0  0  0  0  0  0  0  0  0  0  0  0
  -21.4327   -0.0453   29.1671 N   0  0  0  0  0  0  0  0  0  0  0  0
  -29.2305    2.4648   27.4964 C   0  0  0  0  0  0  0  0  0  0  0  0
  3  7  1  0
  7  8  1  0
 11 14  1  0
 14 15  2  0
 14 16  1  0
  4 17  1  0
  1  2  2  0
  2  6  1  0
  6  5  2  0
  5  4  1  0
  4  3  2  0
  3  1  1  0
  8  9  2  0
  9 10  1  0
 10 11  2  0
 11 12  1  0
 12 13  2  0
 13  8  1  0
M  END

$$$$
