No_1562-gen_results/8p0m/2024-11-27-11-27-31/
     RDKit          3D

 16 16  0  0  0  0  0  0  0  0999 V2000
  -28.0162   -0.8135   28.8779 C   0  0  0  0  0  0  0  0  0  0  0  0
  -27.0636   -0.1189   28.6079 C   0  0  0  0  0  0  0  0  0  0  0  0
  -26.9716    0.7139   27.5060 C   0  0  0  0  0  0  0  0  0  0  0  0
  -25.8206    1.4910   27.1160 C   0  0  0  0  0  0  0  0  0  0  0  0
  -24.6562    1.4242   27.9180 C   0  0  0  0  0  0  0  0  0  0  0  0
  -24.6847    0.5901   29.0659 C   0  0  0  0  0  0  0  0  0  0  0  0
  -25.8099   -0.1265   29.3338 C   0  0  0  0  0  0  0  0  0  0  0  0
  -28.9692   -0.5882   28.1955 F   0  0  0  0  0  0  0  0  0  0  0  0
  -28.3848   -0.6317   30.2385 F   0  0  0  0  0  0  0  0  0  0  0  0
  -23.4653    2.2096   27.6080 C   0  0  0  0  0  0  0  0  0  0  0  0
  -23.0637    2.3666   26.3599 N   0  0  0  0  0  0  0  0  0  0  0  0
  -22.4299    2.1752   28.4853 O   0  0  0  0  0  0  0  0  0  0  0  0
  -25.7929    2.2798   25.9074 C   0  0  0  0  0  0  0  0  0  0  0  0
  -23.9557    2.2325   25.2045 C   0  0  0  0  0  0  0  0  0  0  0  0
  -23.9333    1.1213   24.6189 O   0  0  0  0  0  0  0  0  0  0  0  0
  -26.4985    2.7558   25.2207 O   0  0  0  0  0  0  0  0  0  0  0  0
  1  2  2  3
  2  3  1  0
  3  4  1  0
  4  5  1  0
  5  6  1  0
  2  7  1  0
  6  7  1  0
  1  8  1  0
  1  9  1  0
  5 10  1  0
 10 11  1  0
 10 12  2  0
  4 13  1  0
 11 14  1  0
 14 15  1  0
 13 16  2  0
M  END

$$$$
