No_1881-gen_results/8p0m/2024-11-27-11-27-31/
     RDKit          3D

 16 18  0  0  0  0  0  0  0  0999 V2000
  -28.0162   -0.8135   28.8779 C   0  0  0  0  0  0  0  0  0  0  0  0
  -27.0636   -0.1189   28.6079 C   0  0  0  0  0  0  0  0  0  0  0  0
  -25.7923   -0.4302   29.0761 C   0  0  0  0  0  0  0  0  0  0  0  0
  -25.5756   -1.5654   29.9363 C   0  0  0  0  0  0  0  0  0  0  0  0
  -26.7354   -2.3004   30.2173 C   0  0  0  0  0  0  0  0  0  0  0  0
  -27.9184   -1.9537   29.7629 C   0  0  0  0  0  0  0  0  0  0  0  0
  -27.3243    1.0850   27.8190 C   0  0  0  0  0  0  0  0  0  0  0  0
  -26.3391    1.8438   27.4826 N   0  0  0  0  0  0  0  0  0  0  0  0
  -28.1779    0.8830   26.6510 C   0  0  0  0  0  0  0  0  0  0  0  0
  -29.2351    0.0758   26.6654 C   0  0  0  0  0  0  0  0  0  0  0  0
  -26.5653    2.7445   26.5023 C   0  0  0  0  0  0  0  0  0  0  0  0
  -28.1706    1.9167   25.6452 C   0  0  0  0  0  0  0  0  0  0  0  0
  -27.2960    2.8979   25.6102 C   0  0  0  0  0  0  0  0  0  0  0  0
  -30.2714    0.2308   25.7618 C   0  0  0  0  0  0  0  0  0  0  0  0
  -30.1770    1.0648   24.7319 C   0  0  0  0  0  0  0  0  0  0  0  0
  -29.2543    1.9268   24.6697 C   0  0  0  0  0  0  0  0  0  0  0  0
  2  7  1  0
  7  8  2  0
  8 11  1  0
 11 13  2  0
 13 12  1  0
  9  7  1  0
  1  2  2  0
  2  3  1  0
  3  4  2  0
  4  5  1  0
  5  6  2  0
  6  1  1  0
  9 10  2  0
 10 14  1  0
 14 15  2  0
 15 16  1  0
 16 12  2  0
 12  9  1  0
M  END

$$$$
