No_1066-gen_results/8p0m/2024-11-27-11-27-31/
     RDKit          3D

 21 22  0  0  0  0  0  0  0  0999 V2000
  -28.0162   -0.8135   28.8779 C   0  0  0  0  0  0  0  0  0  0  0  0
  -28.4690   -0.7850   29.8287 C   0  0  0  0  0  0  0  0  0  0  0  0
  -26.5042   -0.7777   28.8766 C   0  0  0  0  0  0  0  0  0  0  0  0
  -25.8103   -0.8531   30.1028 C   0  0  0  0  0  0  0  0  0  0  0  0
  -27.9906   -0.8916   31.2257 C   0  0  0  0  0  0  0  0  0  0  0  0
  -24.3976   -0.8364   30.1775 C   0  0  0  0  0  0  0  0  0  0  0  0
  -26.5754   -0.8899   31.2661 C   0  0  0  0  0  0  0  0  0  0  0  0
  -23.6362   -0.9045   29.1560 C   0  0  0  0  0  0  0  0  0  0  0  0
  -22.1750   -0.7187   29.2225 C   0  0  0  0  0  0  0  0  0  0  0  0
  -23.9950   -1.5757   31.4340 C   0  0  0  0  0  0  0  0  0  0  0  0
  -23.3375   -0.6880   32.3525 C   0  0  0  0  0  0  0  0  0  0  0  0
  -30.3199   -0.7098   29.8099 Cl  0  0  0  0  0  0  0  0  0  0  0  0
  -21.6942    0.7032   29.2883 C   0  0  0  0  0  0  0  0  0  0  0  0
  -20.9735    1.0876   28.1149 C   0  0  0  0  0  0  0  0  0  0  0  0
  -25.8198   -0.7641   27.7494 O   0  0  0  0  0  0  0  0  0  0  0  0
  -25.3145    0.5053   27.3033 C   0  0  0  0  0  0  0  0  0  0  0  0
  -25.6719    1.6869   27.6442 C   0  0  0  0  0  0  0  0  0  0  0  0
  -25.0601    2.8035   27.2204 C   0  0  0  0  0  0  0  0  0  0  0  0
  -24.0397    2.7238   26.2194 C   0  0  0  0  0  0  0  0  0  0  0  0
  -24.2872    0.4195   26.2233 C   0  0  0  0  0  0  0  0  0  0  0  0
  -23.7144    1.5765   25.7011 C   0  0  0  0  0  0  0  0  0  0  0  0
  4  6  1  0
  6  8  2  3
  8  9  1  0
  6 10  1  0
 10 11  1  0
  2 12  1  0
  9 13  1  0
 13 14  1  0
  3 15  1  0
 15 16  1  0
 16 17  2  0
 17 18  1  0
 18 19  2  0
 19 21  1  0
 21 20  2  0
 20 16  1  0
  1  2  2  0
  2  5  1  0
  5  7  2  0
  7  4  1  0
  4  3  2  0
  3  1  1  0
M  END

$$$$
