No_1098-gen_results/8p0m/2024-11-27-11-27-31/
     RDKit          3D

 12 13  0  0  0  0  0  0  0  0999 V2000
  -28.0162   -0.8135   28.8779 C   0  0  0  0  0  0  0  0  0  0  0  0
  -27.0636   -0.1190   28.6079 C   0  0  0  0  0  0  0  0  0  0  0  0
  -25.8176   -0.3427   29.0488 N   0  0  0  0  0  0  0  0  0  0  0  0
  -24.6757    0.3814   28.7496 C   0  0  0  0  0  0  0  0  0  0  0  0
  -24.7608    1.3095   27.7159 C   0  0  0  0  0  0  0  0  0  0  0  0
  -27.1776    0.9693   27.6449 C   0  0  0  0  0  0  0  0  0  0  0  0
  -26.0057    1.6898   27.2484 C   0  0  0  0  0  0  0  0  0  0  0  0
  -29.2786   -0.1740   29.2754 C   0  0  0  0  0  0  0  0  0  0  0  0
  -30.0655   -0.7496   30.1690 C   0  0  0  0  0  0  0  0  0  0  0  0
  -29.8253   -2.1429   30.5645 C   0  0  0  0  0  0  0  0  0  0  0  0
  -28.6244   -2.7211   30.2978 C   0  0  0  0  0  0  0  0  0  0  0  0
  -27.6765   -1.9815   29.7089 C   0  0  0  0  0  0  0  0  0  0  0  0
  1  2  1  0
  2  3  2  0
  3  4  1  0
  4  5  2  0
  5  7  1  0
  7  6  2  0
  6  2  1  0
  1  8  2  0
  8  9  1  0
  9 10  2  0
 10 11  1  0
 11 12  2  0
 12  1  1  0
M  END

$$$$
