No_1761-gen_results/8p0m/2024-11-27-11-27-31/
     RDKit          3D

 18 19  0  0  0  0  0  0  0  0999 V2000
  -28.0162   -0.8135   28.8779 C   0  0  0  0  0  0  0  0  0  0  0  0
  -28.4690   -0.7850   29.8287 C   0  0  0  0  0  0  0  0  0  0  0  0
  -28.1816    0.4277   28.1134 C   0  0  0  0  0  0  0  0  0  0  0  0
  -27.0280    0.9338   27.5279 C   0  0  0  0  0  0  0  0  0  0  0  0
  -29.8654   -0.6573   30.0468 C   0  0  0  0  0  0  0  0  0  0  0  0
  -30.4670   -0.8772   31.2288 C   0  0  0  0  0  0  0  0  0  0  0  0
  -25.8233    0.1779   27.4891 C   0  0  0  0  0  0  0  0  0  0  0  0
  -24.6397    0.7229   26.8641 C   0  0  0  0  0  0  0  0  0  0  0  0
  -24.7233    1.9435   26.2220 C   0  0  0  0  0  0  0  0  0  0  0  0
  -25.8417    2.7304   26.2580 C   0  0  0  0  0  0  0  0  0  0  0  0
  -26.9903    2.2153   26.8734 C   0  0  0  0  0  0  0  0  0  0  0  0
  -27.7888   -1.3302   31.1257 C   0  0  0  0  0  0  0  0  0  0  0  0
  -28.4546   -1.5910   32.3105 C   0  0  0  0  0  0  0  0  0  0  0  0
  -29.7755   -1.3413   32.3930 C   0  0  0  0  0  0  0  0  0  0  0  0
  -28.6520    1.3745   28.9009 F   0  0  0  0  0  0  0  0  0  0  0  0
  -29.2597    0.1735   26.9869 C   0  0  0  0  0  0  0  0  0  0  0  0
  -28.8994   -0.3447   26.0305 F   0  0  0  0  0  0  0  0  0  0  0  0
  -30.4181    0.4984   27.1900 F   0  0  0  0  0  0  0  0  0  0  0  0
  1  2  1  0
  1  3  1  0
  3  4  1  0
  3 15  1  0
  3 16  1  0
 16 17  1  0
 16 18  1  0
  4  7  2  0
  7  8  1  0
  8  9  2  0
  9 10  1  0
 10 11  2  0
 11  4  1  0
  2  5  2  0
  5  6  1  0
  6 14  2  0
 14 13  1  0
 13 12  2  0
 12  2  1  0
M  END

$$$$
