No_176-gen_results/8p0m/2024-11-27-11-27-31/
     RDKit          3D

  9  9  0  0  0  0  0  0  0  0999 V2000
  -28.0162   -0.8135   28.8779 C   0  0  0  0  0  0  0  0  0  0  0  0
  -28.4690   -0.7850   29.8287 C   0  0  0  0  0  0  0  0  0  0  0  0
  -28.1816    0.4277   28.1134 C   0  0  0  0  0  0  0  0  0  0  0  0
  -29.3519    0.6041   27.4037 C   0  0  0  0  0  0  0  0  0  0  0  0
  -30.4853    0.3938   28.3041 C   0  0  0  0  0  0  0  0  0  0  0  0
  -29.9642   -1.0433   30.1728 C   0  0  0  0  0  0  0  0  0  0  0  0
  -30.8034   -0.6515   29.0763 C   0  0  0  0  0  0  0  0  0  0  0  0
  -29.3934    0.7984   26.0871 C   0  0  0  0  0  0  0  0  0  0  0  0
  -28.2381    0.9018   25.3275 C   0  0  0  0  0  0  0  0  0  0  0  0
  1  2  1  0
  1  3  1  0
  3  4  1  0
  4  5  1  0
  2  6  1  0
  5  7  1  0
  6  7  1  0
  4  8  1  0
  8  9  2  0
M  END

$$$$
