No_1569-gen_results/8p0m/2024-11-27-11-27-31/
     RDKit          3D

 13 14  0  0  0  0  0  0  0  0999 V2000
  -28.0162   -0.8135   28.8779 C   0  0  0  0  0  0  0  0  0  0  0  0
  -27.0636   -0.1189   28.6079 C   0  0  0  0  0  0  0  0  0  0  0  0
  -26.8756    1.1325   28.9134 C   0  0  0  0  0  0  0  0  0  0  0  0
  -25.6883    1.9515   28.5672 C   0  0  0  0  0  0  0  0  0  0  0  0
  -24.6394    1.2834   27.8753 C   0  0  0  0  0  0  0  0  0  0  0  0
  -24.8068   -0.0513   27.6040 C   0  0  0  0  0  0  0  0  0  0  0  0
  -25.9020   -0.7670   27.9511 C   0  0  0  0  0  0  0  0  0  0  0  0
  -29.2125   -0.1153   29.1222 C   0  0  0  0  0  0  0  0  0  0  0  0
  -29.1930    1.2206   29.4151 C   0  0  0  0  0  0  0  0  0  0  0  0
  -28.0327    1.9256   29.1788 C   0  0  0  0  0  0  0  0  0  0  0  0
  -23.3540    1.8898   27.5892 C   0  0  0  0  0  0  0  0  0  0  0  0
  -22.6311    2.2980   28.2783 O   0  0  0  0  0  0  0  0  0  0  0  0
  -23.3503    2.4617   26.2958 N   0  0  0  0  0  0  0  0  0  0  0  0
  5 11  1  0
 11 12  2  0
 11 13  1  0
  3  4  1  0
  4  5  2  0
  5  6  1  0
  6  7  2  0
  7  2  1  0
  1  2  2  0
  2  3  1  0
  3 10  2  0
 10  9  1  0
  9  8  2  0
  8  1  1  0
M  END

$$$$
