No_1586-gen_results/8p0m/2024-11-27-11-27-31/
     RDKit          3D

  9  8  0  0  0  0  0  0  0  0999 V2000
  -28.0727   -1.2542   28.5316 F   0  0  0  0  0  0  0  0  0  0  0  0
  -28.2662   -0.4214   29.1931 C   0  0  0  0  0  0  0  0  0  0  0  0
  -27.2356   -0.0574   30.0145 C   0  0  0  0  0  0  0  0  0  0  0  0
  -25.8939   -0.7075   29.9664 C   0  0  0  0  0  0  0  0  0  0  0  0
  -24.7958   -0.2915   30.6021 C   0  0  0  0  0  0  0  0  0  0  0  0
  -24.2888    0.5760   30.6430 C   0  0  0  0  0  0  0  0  0  0  0  0
  -23.0310    0.9697   31.2840 C   0  0  0  0  0  0  0  0  0  0  0  0
  -24.8984    1.8886   29.9911 C   0  0  0  0  0  0  0  0  0  0  0  0
  -29.3722    0.1179   29.2622 F   0  0  0  0  0  0  0  0  0  0  0  0
  1  2  1  0
  2  3  2  3
  3  4  1  0
  4  5  1  0
  5  6  1  0
  6  7  1  0
  6  8  1  0
  2  9  1  0
M  END

$$$$
