No_1530-gen_results/8p0m/2024-11-27-11-27-31/
     RDKit          3D

 23 24  0  0  0  0  0  0  0  0999 V2000
  -28.0162   -0.8135   28.8779 C   0  0  0  0  0  0  0  0  0  0  0  0
  -27.0636   -0.1190   28.6079 C   0  0  0  0  0  0  0  0  0  0  0  0
  -25.7923   -0.4302   29.0761 C   0  0  0  0  0  0  0  0  0  0  0  0
  -24.5456    0.3494   28.8225 C   0  0  0  0  0  0  0  0  0  0  0  0
  -24.6586    1.4196   27.8878 C   0  0  0  0  0  0  0  0  0  0  0  0
  -25.9471    1.6811   27.3792 C   0  0  0  0  0  0  0  0  0  0  0  0
  -27.0439    0.9739   27.6871 C   0  0  0  0  0  0  0  0  0  0  0  0
  -27.9229   -2.0316   29.0996 F   0  0  0  0  0  0  0  0  0  0  0  0
  -29.2598   -0.4545   28.8119 F   0  0  0  0  0  0  0  0  0  0  0  0
  -23.4622    2.1487   27.6087 C   0  0  0  0  0  0  0  0  0  0  0  0
  -22.3199    1.8901   28.0717 O   0  0  0  0  0  0  0  0  0  0  0  0
  -23.5705    3.0278   26.5775 O   0  0  0  0  0  0  0  0  0  0  0  0
  -23.0814   -0.1538   29.5088 Cl  0  0  0  0  0  0  0  0  0  0  0  0
  -28.2152    1.2762   27.1230 O   0  0  0  0  0  0  0  0  0  0  0  0
  -28.1646    2.2350   26.1324 C   0  0  0  0  0  0  0  0  0  0  0  0
  -28.6286    3.3107   26.4191 C   0  0  0  0  0  0  0  0  0  0  0  0
  -27.8991    1.7327   24.8233 C   0  0  0  0  0  0  0  0  0  0  0  0
  -29.4928    3.8541   26.5431 C   0  0  0  0  0  0  0  0  0  0  0  0
  -29.8698    5.2850   26.8459 C   0  0  0  0  0  0  0  0  0  0  0  0
  -31.1563    5.8322   26.9751 C   0  0  0  0  0  0  0  0  0  0  0  0
  -32.2072    4.9353   26.7410 C   0  0  0  0  0  0  0  0  0  0  0  0
  -31.9860    3.6089   26.4960 C   0  0  0  0  0  0  0  0  0  0  0  0
  -30.7921    3.0948   26.4261 C   0  0  0  0  0  0  0  0  0  0  0  0
  1  2  1  0
  1  8  1  0
  1  9  1  0
  5 10  1  0
 10 11  2  0
 10 12  1  0
  4 13  1  0
  7 14  1  0
 14 15  1  0
 15 16  1  0
 15 17  1  0
 16 18  1  0
 18 19  2  0
 19 20  1  0
 20 21  2  0
 21 22  1  0
 22 23  2  0
 23 18  1  0
  2  3  2  0
  3  4  1  0
  4  5  2  0
  5  6  1  0
  6  7  2  0
  7  2  1  0
M  END

$$$$
