No_1632-gen_results/8p0m/2024-11-27-11-27-31/
     RDKit          3D

 27 29  0  0  0  0  0  0  0  0999 V2000
  -28.0162   -0.8135   28.8779 C   0  0  0  0  0  0  0  0  0  0  0  0
  -28.4690   -0.7850   29.8287 C   0  0  0  0  0  0  0  0  0  0  0  0
  -27.0871    0.2903   28.6377 C   0  0  0  0  0  0  0  0  0  0  0  0
  -26.8317    1.2487   29.5869 C   0  0  0  0  0  0  0  0  0  0  0  0
  -28.3914    0.0801   31.0065 C   0  0  0  0  0  0  0  0  0  0  0  0
  -27.4940    1.1521   30.7841 C   0  0  0  0  0  0  0  0  0  0  0  0
  -26.3172    0.3994   27.3653 C   0  0  0  0  0  0  0  0  0  0  0  0
  -26.8815    0.9711   26.3721 C   0  0  0  0  0  0  0  0  0  0  0  0
  -26.1465    0.9703   25.0973 C   0  0  0  0  0  0  0  0  0  0  0  0
  -24.7793    0.5609   25.1117 C   0  0  0  0  0  0  0  0  0  0  0  0
  -25.0074   -0.1159   27.2986 C   0  0  0  0  0  0  0  0  0  0  0  0
  -24.2881    0.0057   26.2234 C   0  0  0  0  0  0  0  0  0  0  0  0
  -24.4533   -0.6608   28.4041 F   0  0  0  0  0  0  0  0  0  0  0  0
  -28.1881    1.2920   26.4088 O   0  0  0  0  0  0  0  0  0  0  0  0
  -28.4615    2.6602   26.5424 C   0  0  0  0  0  0  0  0  0  0  0  0
  -29.5124   -1.9905   30.2227 C   0  0  0  0  0  0  0  0  0  0  0  0
  -29.1362   -2.8995   30.8536 O   0  0  0  0  0  0  0  0  0  0  0  0
  -30.6391   -1.8936   29.7182 O   0  0  0  0  0  0  0  0  0  0  0  0
  -29.4942    2.9466   27.4100 C   0  0  0  0  0  0  0  0  0  0  0  0
  -30.5776    2.2656   27.5284 C   0  0  0  0  0  0  0  0  0  0  0  0
  -31.0957    1.6105   26.4710 C   0  0  0  0  0  0  0  0  0  0  0  0
  -30.9008    2.0403   25.2885 C   0  0  0  0  0  0  0  0  0  0  0  0
  -29.1658    3.1325   25.2187 C   0  0  0  0  0  0  0  0  0  0  0  0
  -30.0062    2.4746   24.4765 C   0  0  0  0  0  0  0  0  0  0  0  0
  -27.2432    3.5122   26.7866 C   0  0  0  0  0  0  0  0  0  0  0  0
  -29.2109    3.9900   28.5217 C   0  0  0  0  0  0  0  0  0  0  0  0
  -29.9579    4.0349   29.6918 C   0  0  0  0  0  0  0  0  0  0  0  0
  3  7  1  0
 11 13  1  0
  8 14  1  0
 14 15  1  0
  2 16  1  0
 16 17  1  0
 16 18  2  0
 15 19  1  0
 19 20  1  0
 20 21  2  0
 21 22  1  0
 15 23  1  0
 22 24  2  0
 23 24  2  0
 15 25  1  0
 19 26  1  0
 26 27  2  0
  7  8  1  0
  8  9  2  0
  9 10  1  0
 10 12  2  0
 12 11  1  0
 11  7  2  0
  1  2  2  0
  2  5  1  0
  5  6  2  0
  6  4  1  0
  4  3  2  0
  3  1  1  0
M  END

$$$$
