No_1324-gen_results/8p0m/2024-11-27-11-27-31/
     RDKit          3D

  7  7  0  0  0  0  0  0  0  0999 V2000
  -28.1493   -0.8198   28.9079 Cl  0  0  0  0  0  0  0  0  0  0  0  0
  -28.5324   -0.0471   29.7727 C   0  0  0  0  0  0  0  0  0  0  0  0
  -29.7006    0.0350   30.2420 C   0  0  0  0  0  0  0  0  0  0  0  0
  -27.5805    1.1366   30.1199 C   0  0  0  0  0  0  0  0  0  0  0  0
  -27.9899    2.1196   31.1361 C   0  0  0  0  0  0  0  0  0  0  0  0
  -30.0907    1.0852   31.2925 C   0  0  0  0  0  0  0  0  0  0  0  0
  -29.2218    2.0472   31.6641 C   0  0  0  0  0  0  0  0  0  0  0  0
  1  2  1  0
  2  3  2  0
  3  6  1  0
  6  7  2  0
  7  5  1  0
  5  4  2  0
  4  2  1  0
M  END

$$$$
