No_1531-gen_results/8p0m/2024-11-27-11-27-31/
     RDKit          3D

 15 15  0  0  0  0  0  0  0  0999 V2000
  -28.0162   -0.8135   28.8779 C   0  0  0  0  0  0  0  0  0  0  0  0
  -27.0636   -0.1190   28.6079 C   0  0  0  0  0  0  0  0  0  0  0  0
  -26.9716    0.7139   27.5060 C   0  0  0  0  0  0  0  0  0  0  0  0
  -25.8205    1.4909   27.1160 C   0  0  0  0  0  0  0  0  0  0  0  0
  -24.6562    1.4242   27.9180 C   0  0  0  0  0  0  0  0  0  0  0  0
  -24.6847    0.5901   29.0659 C   0  0  0  0  0  0  0  0  0  0  0  0
  -25.8099   -0.1266   29.3338 C   0  0  0  0  0  0  0  0  0  0  0  0
  -28.0656   -1.5418   30.1882 C   0  0  0  0  0  0  0  0  0  0  0  0
  -29.1952   -2.2963   30.5409 C   0  0  0  0  0  0  0  0  0  0  0  0
  -23.4694    2.2260   27.6005 C   0  0  0  0  0  0  0  0  0  0  0  0
  -23.4690    2.9117   26.7034 F   0  0  0  0  0  0  0  0  0  0  0  0
  -23.0518    2.9981   28.6829 F   0  0  0  0  0  0  0  0  0  0  0  0
  -22.3116    1.3763   27.5361 F   0  0  0  0  0  0  0  0  0  0  0  0
  -30.3653   -1.5575   30.3690 C   0  0  0  0  0  0  0  0  0  0  0  0
  -30.4679   -0.7897   29.1754 C   0  0  0  0  0  0  0  0  0  0  0  0
  1  2  2  3
  2  3  1  0
  3  4  1  0
  4  5  1  0
  5  6  1  0
  2  7  1  0
  6  7  3  0
  1  8  1  0
  8  9  1  0
  5 10  1  0
 10 11  1  0
 10 12  1  0
 10 13  1  0
  9 14  1  0
 14 15  1  0
M  END

$$$$
