No_1153-gen_results/8p0m/2024-11-27-11-27-31/
     RDKit          3D

 28 31  0  0  0  0  0  0  0  0999 V2000
  -28.0162   -0.8135   28.8779 C   0  0  0  0  0  0  0  0  0  0  0  0
  -27.0636   -0.1190   28.6079 C   0  0  0  0  0  0  0  0  0  0  0  0
  -27.0010    0.6913   27.4910 C   0  0  0  0  0  0  0  0  0  0  0  0
  -28.1373    0.7363   26.6350 C   0  0  0  0  0  0  0  0  0  0  0  0
  -29.2360    0.0765   27.0690 C   0  0  0  0  0  0  0  0  0  0  0  0
  -29.2177   -0.6429   28.1747 C   0  0  0  0  0  0  0  0  0  0  0  0
  -30.6116    0.1653   26.0711 Cl  0  0  0  0  0  0  0  0  0  0  0  0
  -25.8391   -0.1951   29.3742 O   0  0  0  0  0  0  0  0  0  0  0  0
  -25.1232    0.8740   29.7770 C   0  0  0  0  0  0  0  0  0  0  0  0
  -23.8313    0.5054   30.2978 C   0  0  0  0  0  0  0  0  0  0  0  0
  -22.7019    1.0016   29.6219 C   0  0  0  0  0  0  0  0  0  0  0  0
  -22.7495    0.7683   28.1895 C   0  0  0  0  0  0  0  0  0  0  0  0
  -22.9048    2.0644   27.4566 C   0  0  0  0  0  0  0  0  0  0  0  0
  -24.2035    2.2319   26.9605 C   0  0  0  0  0  0  0  0  0  0  0  0
  -24.3131    3.6153   26.3479 C   0  0  0  0  0  0  0  0  0  0  0  0
  -25.0311    4.6192   26.5173 C   0  0  0  0  0  0  0  0  0  0  0  0
  -26.0635    4.5486   27.5692 C   0  0  0  0  0  0  0  0  0  0  0  0
  -26.9038    5.5454   27.7840 C   0  0  0  0  0  0  0  0  0  0  0  0
  -28.0080    5.3980   28.5990 C   0  0  0  0  0  0  0  0  0  0  0  0
  -28.1267    4.1540   29.3235 C   0  0  0  0  0  0  0  0  0  0  0  0
  -27.1548    3.2109   29.1996 C   0  0  0  0  0  0  0  0  0  0  0  0
  -26.1001    3.4333   28.3405 C   0  0  0  0  0  0  0  0  0  0  0  0
  -25.2019    2.3529   28.1253 N   0  0  0  0  0  0  0  0  0  0  0  0
  -25.0972    1.4424   29.2917 C   0  0  0  0  0  0  0  0  0  0  0  0
  -25.2216    2.4979   30.1696 O   0  0  0  0  0  0  0  0  0  0  0  0
  -25.7688    2.4586   31.4225 C   0  0  0  0  0  0  0  0  0  0  0  0
  -26.2012    1.6054   32.1971 C   0  0  0  0  0  0  0  0  0  0  0  0
  -26.9101    1.7111   33.0737 C   0  0  0  0  0  0  0  0  0  0  0  0
  5  7  1  0
  2  8  1  0
  8  9  1  0
  9 10  1  0
 10 11  1  0
 11 12  1  0
 12 13  1  0
 13 14  1  0
 15 16  1  0
 14 23  1  0
 22 23  1  0
  9 24  1  0
 23 24  1  0
 24 25  1  0
 25 26  1  0
 26 27  2  3
 27 28  1  0
 14 15  1  0
 16 17  1  0
 17 18  2  0
 18 19  1  0
 19 20  2  0
 20 21  1  0
 21 22  2  0
 22 17  1  0
  1  2  2  0
  2  3  1  0
  3  4  2  0
  4  5  1  0
  5  6  2  0
  6  1  1  0
M  END

$$$$
