No_1645-gen_results/8p0m/2024-11-27-11-27-31/
     RDKit          3D

 35 36  0  0  0  0  0  0  0  0999 V2000
  -28.0162   -0.8135   28.8779 C   0  0  0  0  0  0  0  0  0  0  0  0
  -27.0636   -0.1189   28.6079 C   0  0  0  0  0  0  0  0  0  0  0  0
  -25.7647   -0.3897   29.0360 C   0  0  0  0  0  0  0  0  0  0  0  0
  -24.5516    0.4058   28.7646 C   0  0  0  0  0  0  0  0  0  0  0  0
  -24.6957    1.4480   27.7988 C   0  0  0  0  0  0  0  0  0  0  0  0
  -25.9755    1.7250   27.3077 C   0  0  0  0  0  0  0  0  0  0  0  0
  -27.0718    1.0134   27.6535 C   0  0  0  0  0  0  0  0  0  0  0  0
  -28.6043   -0.4743   30.2323 C   0  0  0  0  0  0  0  0  0  0  0  0
  -29.5322   -1.2945   30.7258 O   0  0  0  0  0  0  0  0  0  0  0  0
  -28.4515    0.6171   30.8005 O   0  0  0  0  0  0  0  0  0  0  0  0
  -23.4997    2.2397   27.5076 C   0  0  0  0  0  0  0  0  0  0  0  0
  -23.7434    3.2570   26.8404 F   0  0  0  0  0  0  0  0  0  0  0  0
  -22.7612    2.5762   28.5691 F   0  0  0  0  0  0  0  0  0  0  0  0
  -22.6071    1.5003   26.7440 F   0  0  0  0  0  0  0  0  0  0  0  0
  -28.3717    1.3053   27.0198 C   0  0  0  0  0  0  0  0  0  0  0  0
  -29.1101    1.8379   27.5214 O   0  0  0  0  0  0  0  0  0  0  0  0
  -28.4058    0.8412   25.7484 O   0  0  0  0  0  0  0  0  0  0  0  0
  -25.4609   -1.5197   29.9849 C   0  0  0  0  0  0  0  0  0  0  0  0
  -24.8792   -2.7385   29.4801 Cl  0  0  0  0  0  0  0  0  0  0  0  0
  -29.5346    0.4834   25.1302 C   0  0  0  0  0  0  0  0  0  0  0  0
  -26.0248   -1.4992   31.1692 O   0  0  0  0  0  0  0  0  0  0  0  0
  -29.4532   -0.5991   24.4422 C   0  0  0  0  0  0  0  0  0  0  0  0
  -30.6831   -1.2112   23.8302 C   0  0  0  0  0  0  0  0  0  0  0  0
  -31.8173   -0.3580   23.7493 C   0  0  0  0  0  0  0  0  0  0  0  0
  -31.7811    0.9118   24.3554 C   0  0  0  0  0  0  0  0  0  0  0  0
  -30.6357    1.3184   25.0537 C   0  0  0  0  0  0  0  0  0  0  0  0
  -29.2681    1.1674   31.6640 C   0  0  0  0  0  0  0  0  0  0  0  0
  -29.3311    2.6288   31.6758 C   0  0  0  0  0  0  0  0  0  0  0  0
  -28.3098    3.2097   31.4557 O   0  0  0  0  0  0  0  0  0  0  0  0
  -28.0983    4.0360   30.3496 C   0  0  0  0  0  0  0  0  0  0  0  0
  -27.5102    5.2991   30.6006 C   0  0  0  0  0  0  0  0  0  0  0  0
  -27.1298    5.9815   29.5821 C   0  0  0  0  0  0  0  0  0  0  0  0
  -27.2023    5.4896   28.2619 C   0  0  0  0  0  0  0  0  0  0  0  0
  -26.7303    6.2783   27.2068 C   0  0  0  0  0  0  0  0  0  0  0  0
  -25.9960    7.4035   27.4391 C   0  0  0  0  0  0  0  0  0  0  0  0
  1  2  2  3
  2  3  1  0
  3  4  1  0
  4  5  1  0
  5  6  1  0
  2  7  1  0
  6  7  1  0
  1  8  1  0
  8  9  2  0
  8 10  1  0
  5 11  1  0
 11 12  1  0
 11 13  1  0
 11 14  1  0
  7 15  1  0
 15 16  2  0
 15 17  1  0
  3 18  1  0
 18 19  1  0
 17 20  1  0
 18 21  2  0
 10 27  1  0
 27 28  1  0
 28 29  1  0
 29 30  1  0
 30 31  2  3
 31 32  1  0
 32 33  2  3
 33 34  1  0
 34 35  2  0
 20 22  2  0
 22 23  1  0
 23 24  2  0
 24 25  1  0
 25 26  2  0
 26 20  1  0
M  END

$$$$
