No_1590-gen_results/8p0m/2024-11-27-11-27-31/
     RDKit          3D

 21 24  0  0  0  0  0  0  0  0999 V2000
  -28.0162   -0.8135   28.8779 C   0  0  0  0  0  0  0  0  0  0  0  0
  -27.0636   -0.1190   28.6079 C   0  0  0  0  0  0  0  0  0  0  0  0
  -26.9716    0.7139   27.5060 C   0  0  0  0  0  0  0  0  0  0  0  0
  -28.1053    0.7744   26.6421 C   0  0  0  0  0  0  0  0  0  0  0  0
  -29.2041    0.1179   27.0477 C   0  0  0  0  0  0  0  0  0  0  0  0
  -29.2127   -0.6088   28.1281 C   0  0  0  0  0  0  0  0  0  0  0  0
  -25.7106    1.4518   27.1380 C   0  0  0  0  0  0  0  0  0  0  0  0
  -24.6052    0.9253   27.6902 C   0  0  0  0  0  0  0  0  0  0  0  0
  -24.6227    0.0600   28.8225 C   0  0  0  0  0  0  0  0  0  0  0  0
  -25.7269   -0.4734   29.2409 C   0  0  0  0  0  0  0  0  0  0  0  0
  -23.2725    1.6786   27.4284 C   0  0  0  0  0  0  0  0  0  0  0  0
  -23.2122    2.7616   26.7043 N   0  0  0  0  0  0  0  0  0  0  0  0
  -22.0993    1.2729   27.9574 N   0  0  0  0  0  0  0  0  0  0  0  0
  -21.9885    0.2386   28.8099 C   0  0  0  0  0  0  0  0  0  0  0  0
  -23.2870   -0.4115   29.3527 C   0  0  0  0  0  0  0  0  0  0  0  0
  -25.7673   -1.2562   30.2659 O   0  0  0  0  0  0  0  0  0  0  0  0
  -30.4406    0.3069   26.2447 C   0  0  0  0  0  0  0  0  0  0  0  0
  -31.4736    0.2715   26.6589 O   0  0  0  0  0  0  0  0  0  0  0  0
  -30.2732    0.8669   25.0768 O   0  0  0  0  0  0  0  0  0  0  0  0
  -25.7750    2.4342   26.0951 C   0  0  0  0  0  0  0  0  0  0  0  0
  -24.4217    3.1317   25.9565 C   0  0  0  0  0  0  0  0  0  0  0  0
  3  7  1  0
  2 10  1  0
  9 10  1  0
 10 16  2  0
  5 17  1  0
 17 18  1  0
 17 19  2  0
  8  9  2  0
  9 15  1  0
 15 14  2  0
 14 13  1  0
 13 11  2  0
  1  2  2  0
  2  3  1  0
  3  4  2  0
  4  5  1  0
  5  6  2  0
  6  1  1  0
  7 20  2  0
 20 21  1  0
 21 12  2  0
 12 11  1  0
 11  8  1  0
  8  7  1  0
M  END

$$$$
