No_1666-gen_results/8p0m/2024-11-27-11-27-31/
     RDKit          3D

 13 14  0  0  0  0  0  0  0  0999 V2000
  -28.0162   -0.8135   28.8779 C   0  0  0  0  0  0  0  0  0  0  0  0
  -28.4690   -0.7850   29.8287 C   0  0  0  0  0  0  0  0  0  0  0  0
  -26.5455   -0.8762   28.8500 C   0  0  0  0  0  0  0  0  0  0  0  0
  -25.8041   -1.0324   30.0571 C   0  0  0  0  0  0  0  0  0  0  0  0
  -26.5373   -1.0386   31.2171 C   0  0  0  0  0  0  0  0  0  0  0  0
  -27.8929   -0.9601   31.1743 C   0  0  0  0  0  0  0  0  0  0  0  0
  -25.8001   -0.8259   27.7108 O   0  0  0  0  0  0  0  0  0  0  0  0
  -24.5257   -0.3180   27.8415 C   0  0  0  0  0  0  0  0  0  0  0  0
  -24.3971   -0.9843   30.0860 C   0  0  0  0  0  0  0  0  0  0  0  0
  -23.6959   -0.6545   28.8571 C   0  0  0  0  0  0  0  0  0  0  0  0
  -30.0462   -0.8138   30.0773 C   0  0  0  0  0  0  0  0  0  0  0  0
  -30.6777   -1.2153   30.8532 O   0  0  0  0  0  0  0  0  0  0  0  0
  -30.6125   -0.2139   29.0141 O   0  0  0  0  0  0  0  0  0  0  0  0
  3  7  1  0
  7  8  1  0
  4  9  1  0
  8 10  2  0
  9 10  2  0
  2 11  1  0
 11 12  2  0
 11 13  1  0
  1  2  2  0
  2  6  1  0
  6  5  2  0
  5  4  1  0
  4  3  2  0
  3  1  1  0
M  END

$$$$
