No_1880-gen_results/8p0m/2024-11-27-11-27-31/
     RDKit          3D

 24 26  0  0  0  0  0  0  0  0999 V2000
  -28.0162   -0.8135   28.8779 C   0  0  0  0  0  0  0  0  0  0  0  0
  -27.0636   -0.1189   28.6079 C   0  0  0  0  0  0  0  0  0  0  0  0
  -27.0010    0.6913   27.4910 C   0  0  0  0  0  0  0  0  0  0  0  0
  -25.8548    1.4825   27.0830 C   0  0  0  0  0  0  0  0  0  0  0  0
  -24.6901    1.4526   27.8807 C   0  0  0  0  0  0  0  0  0  0  0  0
  -24.7379    0.6010   29.0416 C   0  0  0  0  0  0  0  0  0  0  0  0
  -25.8234   -0.1688   29.3887 C   0  0  0  0  0  0  0  0  0  0  0  0
  -29.2150   -0.1726   29.0132 N   0  0  0  0  0  0  0  0  0  0  0  0
  -29.6839    0.2429   30.1439 C   0  0  0  0  0  0  0  0  0  0  0  0
  -30.9830    0.8092   30.1275 C   0  0  0  0  0  0  0  0  0  0  0  0
  -29.9554   -0.0811   27.8470 C   0  0  0  0  0  0  0  0  0  0  0  0
  -30.9688    0.4132   27.8208 C   0  0  0  0  0  0  0  0  0  0  0  0
  -31.6383    0.9218   28.9625 C   0  0  0  0  0  0  0  0  0  0  0  0
  -23.5178    2.1966   27.5716 C   0  0  0  0  0  0  0  0  0  0  0  0
  -23.0232    2.7586   28.5679 F   0  0  0  0  0  0  0  0  0  0  0  0
  -22.4960    1.3458   27.0233 F   0  0  0  0  0  0  0  0  0  0  0  0
  -23.7610    3.1537   26.6735 F   0  0  0  0  0  0  0  0  0  0  0  0
  -27.9069   -1.9196   29.4796 O   0  0  0  0  0  0  0  0  0  0  0  0
  -31.5608    0.6454   26.4639 C   0  0  0  0  0  0  0  0  0  0  0  0
  -31.8331    1.7225   26.0255 C   0  0  0  0  0  0  0  0  0  0  0  0
  -31.8047   -0.5346   25.6746 C   0  0  0  0  0  0  0  0  0  0  0  0
  -32.4409    1.9334   24.7330 C   0  0  0  0  0  0  0  0  0  0  0  0
  -32.3762   -0.4008   24.3961 C   0  0  0  0  0  0  0  0  0  0  0  0
  -32.6629    0.8396   23.9222 C   0  0  0  0  0  0  0  0  0  0  0  0
  1  2  1  0
  1  8  1  0
  8  9  1  0
  8 11  1  0
 10 13  1  0
 12 13  1  0
  5 14  1  0
 14 15  1  0
 14 16  1  0
 14 17  1  0
  1 18  2  0
 12 19  1  0
  9 10  1  0
 12 11  1  0
 19 20  2  0
 20 22  1  0
 22 24  2  0
 24 23  1  0
 23 21  2  0
 21 19  1  0
  2  3  2  0
  3  4  1  0
  4  5  2  0
  5  6  1  0
  6  7  2  0
  7  2  1  0
M  END

$$$$
