No_1289-gen_results/8p0m/2024-11-27-11-27-31/
     RDKit          3D

 20 21  0  0  0  0  0  0  0  0999 V2000
  -28.0162   -0.8135   28.8779 C   0  0  0  0  0  0  0  0  0  0  0  0
  -27.0636   -0.1189   28.6079 C   0  0  0  0  0  0  0  0  0  0  0  0
  -25.7923   -0.4302   29.0761 C   0  0  0  0  0  0  0  0  0  0  0  0
  -25.5756   -1.5654   29.9363 C   0  0  0  0  0  0  0  0  0  0  0  0
  -26.7354   -2.3004   30.2173 C   0  0  0  0  0  0  0  0  0  0  0  0
  -27.9184   -1.9537   29.7629 C   0  0  0  0  0  0  0  0  0  0  0  0
  -27.1057    1.1023   27.7593 C   0  0  0  0  0  0  0  0  0  0  0  0
  -26.1219    1.4820   27.0232 C   0  0  0  0  0  0  0  0  0  0  0  0
  -24.7142    1.1299   27.4889 C   0  0  0  0  0  0  0  0  0  0  0  0
  -24.5718    0.0966   28.4066 C   0  0  0  0  0  0  0  0  0  0  0  0
  -23.5495    1.7790   26.9027 C   0  0  0  0  0  0  0  0  0  0  0  0
  -22.4536    1.9030   27.6175 N   0  0  0  0  0  0  0  0  0  0  0  0
  -23.5345    2.2077   25.5484 C   0  0  0  0  0  0  0  0  0  0  0  0
  -29.2774   -2.8229   30.3220 Cl  0  0  0  0  0  0  0  0  0  0  0  0
  -22.2766    2.6980   25.1285 C   0  0  0  0  0  0  0  0  0  0  0  0
  -22.4326    1.5782   28.9382 C   0  0  0  0  0  0  0  0  0  0  0  0
  -28.4823    1.5930   27.4596 C   0  0  0  0  0  0  0  0  0  0  0  0
  -28.7844    2.5476   28.1178 O   0  0  0  0  0  0  0  0  0  0  0  0
  -29.1961    0.9753   26.6108 O   0  0  0  0  0  0  0  0  0  0  0  0
  -21.2083    2.4170   25.8081 N   0  0  0  0  0  0  0  0  0  0  0  0
  9 11  1  0
 11 12  2  3
 11 13  1  0
  6 14  1  0
 13 15  1  0
 12 16  1  0
  7 17  1  0
 17 18  2  0
 17 19  1  0
 15 20  2  0
  1  2  2  0
  3  4  2  0
  4  5  1  0
  5  6  2  0
  6  1  1  0
  2  3  1  0
  3 10  1  0
 10  9  2  0
  9  8  1  0
  8  7  2  0
  7  2  1  0
M  END

$$$$
