No_1403-gen_results/8p0m/2024-11-27-11-27-31/
     RDKit          3D

 28 31  0  0  0  0  0  0  0  0999 V2000
  -28.0162   -0.8135   28.8779 C   0  0  0  0  0  0  0  0  0  0  0  0
  -27.0636   -0.1189   28.6079 C   0  0  0  0  0  0  0  0  0  0  0  0
  -25.7923   -0.4302   29.0761 C   0  0  0  0  0  0  0  0  0  0  0  0
  -25.5756   -1.5654   29.9363 C   0  0  0  0  0  0  0  0  0  0  0  0
  -26.7354   -2.3004   30.2173 C   0  0  0  0  0  0  0  0  0  0  0  0
  -27.9184   -1.9537   29.7629 C   0  0  0  0  0  0  0  0  0  0  0  0
  -29.0001   -2.7012   30.1151 O   0  0  0  0  0  0  0  0  0  0  0  0
  -24.5290    0.3490   28.7998 C   0  0  0  0  0  0  0  0  0  0  0  0
  -24.4808    1.2113   27.7998 C   0  0  0  0  0  0  0  0  0  0  0  0
  -23.2760    1.8178   27.4206 C   0  0  0  0  0  0  0  0  0  0  0  0
  -22.0486    1.5250   28.1131 C   0  0  0  0  0  0  0  0  0  0  0  0
  -23.2966   -0.0161   29.4358 C   0  0  0  0  0  0  0  0  0  0  0  0
  -22.0768    0.6512   29.1041 C   0  0  0  0  0  0  0  0  0  0  0  0
  -28.8856   -3.9734   30.5998 C   0  0  0  0  0  0  0  0  0  0  0  0
  -30.0799   -4.7405   30.5558 C   0  0  0  0  0  0  0  0  0  0  0  0
  -30.0302   -5.7524   31.2797 O   0  0  0  0  0  0  0  0  0  0  0  0
  -30.7628   -4.8426   29.3797 N   0  0  0  0  0  0  0  0  0  0  0  0
  -31.7479   -5.8054   29.0968 C   0  0  0  0  0  0  0  0  0  0  0  0
  -32.0878   -5.8213   27.7895 C   0  0  0  0  0  0  0  0  0  0  0  0
  -31.8647   -6.8641   27.0047 C   0  0  0  0  0  0  0  0  0  0  0  0
  -31.1195   -7.9112   27.5266 C   0  0  0  0  0  0  0  0  0  0  0  0
  -31.0927   -9.1179   26.7799 C   0  0  0  0  0  0  0  0  0  0  0  0
  -30.5537  -10.2583   27.3641 C   0  0  0  0  0  0  0  0  0  0  0  0
  -30.4364  -10.2424   28.8340 C   0  0  0  0  0  0  0  0  0  0  0  0
  -30.7710   -9.0689   29.5615 C   0  0  0  0  0  0  0  0  0  0  0  0
  -31.1660   -8.0008   28.9635 C   0  0  0  0  0  0  0  0  0  0  0  0
  -31.3494   -6.8047   29.7065 C   0  0  0  0  0  0  0  0  0  0  0  0
  -31.0792   -6.9750   31.0802 C   0  0  0  0  0  0  0  0  0  0  0  0
  6  7  1  0
  3  8  1  0
  7 14  1  0
 14 15  1  0
 15 16  2  0
 15 17  1  0
 17 18  1  0
 27 28  1  0
 21 22  1  0
 22 23  2  0
 23 24  1  0
 24 25  2  0
 25 26  1  0
  1  2  2  0
  2  3  1  0
  3  4  2  0
  4  5  1  0
  5  6  2  0
  6  1  1  0
 18 19  2  0
 19 20  1  0
 20 21  2  0
 21 26  1  0
 26 27  2  0
 27 18  1  0
  8  9  2  0
  9 10  1  0
 10 11  2  0
 11 13  1  0
 13 12  2  0
 12  8  1  0
M  END

$$$$
