No_1958-gen_results/8p0m/2024-11-27-11-27-31/
     RDKit          3D

 28 31  0  0  0  0  0  0  0  0999 V2000
  -28.0162   -0.8135   28.8779 C   0  0  0  0  0  0  0  0  0  0  0  0
  -28.4690   -0.7850   29.8287 C   0  0  0  0  0  0  0  0  0  0  0  0
  -26.5455   -0.8762   28.8500 C   0  0  0  0  0  0  0  0  0  0  0  0
  -25.8041   -1.0324   30.0571 C   0  0  0  0  0  0  0  0  0  0  0  0
  -24.3697   -1.0998   30.0718 C   0  0  0  0  0  0  0  0  0  0  0  0
  -27.9902   -1.0051   31.2092 C   0  0  0  0  0  0  0  0  0  0  0  0
  -26.5616   -1.1368   31.2600 C   0  0  0  0  0  0  0  0  0  0  0  0
  -23.7014    0.1528   29.9480 C   0  0  0  0  0  0  0  0  0  0  0  0
  -24.0085    1.2300   30.6175 C   0  0  0  0  0  0  0  0  0  0  0  0
  -22.5950    0.2576   28.9934 C   0  0  0  0  0  0  0  0  0  0  0  0
  -22.2183    1.4033   28.3299 C   0  0  0  0  0  0  0  0  0  0  0  0
  -25.1177    1.2490   31.5912 C   0  0  0  0  0  0  0  0  0  0  0  0
  -23.0755    2.6009   28.6372 C   0  0  0  0  0  0  0  0  0  0  0  0
  -23.7371    2.5968   29.9876 C   0  0  0  0  0  0  0  0  0  0  0  0
  -25.7940   -0.7219   27.6772 N   0  0  0  0  0  0  0  0  0  0  0  0
  -25.1257    2.5757   32.4071 C   0  0  0  0  0  0  0  0  0  0  0  0
  -26.2085    2.6413   33.3860 C   0  0  0  0  0  0  0  0  0  0  0  0
  -27.2251    2.8479   32.9566 C   0  0  0  0  0  0  0  0  0  0  0  0
  -27.5811    3.5512   31.9769 C   0  0  0  0  0  0  0  0  0  0  0  0
  -28.8333    3.5058   31.3801 C   0  0  0  0  0  0  0  0  0  0  0  0
  -28.4227    2.2115   33.6760 C   0  0  0  0  0  0  0  0  0  0  0  0
  -28.2501    1.4072   34.8530 C   0  0  0  0  0  0  0  0  0  0  0  0
  -29.0717    4.2092   30.1843 C   0  0  0  0  0  0  0  0  0  0  0  0
  -28.0485    4.8302   29.5572 C   0  0  0  0  0  0  0  0  0  0  0  0
  -26.7800    4.8783   30.0712 C   0  0  0  0  0  0  0  0  0  0  0  0
  -26.5676    4.2449   31.2074 C   0  0  0  0  0  0  0  0  0  0  0  0
  -27.2377    1.4337   35.3981 C   0  0  0  0  0  0  0  0  0  0  0  0
  -25.9283    1.7905   34.6169 C   0  0  0  0  0  0  0  0  0  0  0  0
  4  5  1  0
  5  8  1  0
  9 12  1  0
  3 15  1  0
 12 16  1  0
 16 17  1  0
 18 19  1  0
 19 20  2  0
 20 23  1  0
 23 24  2  0
 24 25  1  0
 25 26  2  0
 26 19  1  0
  1  2  2  0
  2  6  1  0
  6  7  2  0
  7  4  1  0
  4  3  2  0
  3  1  1  0
  8  9  2  0
  9 14  1  0
 14 13  2  0
 13 11  1  0
 11 10  2  0
 10  8  1  0
 17 18  1  0
 18 21  2  0
 21 22  1  0
 22 27  2  0
 27 28  1  0
 28 17  2  0
M  END

$$$$
