No_1366-gen_results/8p0m/2024-11-27-11-27-31/
     RDKit          3D

 17 17  0  0  0  0  0  0  0  0999 V2000
  -28.0162   -0.8135   28.8779 C   0  0  0  0  0  0  0  0  0  0  0  0
  -27.0636   -0.1189   28.6079 C   0  0  0  0  0  0  0  0  0  0  0  0
  -25.7923   -0.4302   29.0761 C   0  0  0  0  0  0  0  0  0  0  0  0
  -25.5756   -1.5654   29.9363 C   0  0  0  0  0  0  0  0  0  0  0  0
  -26.7354   -2.3004   30.2173 C   0  0  0  0  0  0  0  0  0  0  0  0
  -27.9184   -1.9537   29.7629 C   0  0  0  0  0  0  0  0  0  0  0  0
  -27.1057    1.1023   27.7593 C   0  0  0  0  0  0  0  0  0  0  0  0
  -28.1026    1.2424   27.1566 F   0  0  0  0  0  0  0  0  0  0  0  0
  -26.9077    2.2808   28.5196 F   0  0  0  0  0  0  0  0  0  0  0  0
  -25.9872    1.1458   26.8902 F   0  0  0  0  0  0  0  0  0  0  0  0
  -29.0694   -2.7534   30.2050 C   0  0  0  0  0  0  0  0  0  0  0  0
  -29.0090   -3.9801   30.2994 O   0  0  0  0  0  0  0  0  0  0  0  0
  -30.1948   -2.1934   30.4312 O   0  0  0  0  0  0  0  0  0  0  0  0
  -24.2246   -1.8458   30.3935 C   0  0  0  0  0  0  0  0  0  0  0  0
  -23.7164   -2.6886   29.7550 F   0  0  0  0  0  0  0  0  0  0  0  0
  -23.4172   -0.6880   30.3193 F   0  0  0  0  0  0  0  0  0  0  0  0
  -24.2876   -2.0096   31.7695 F   0  0  0  0  0  0  0  0  0  0  0  0
  2  7  1  0
  7  8  1  0
  7  9  1  0
  7 10  1  0
  6 11  1  0
 11 12  1  0
 11 13  2  0
  4 14  1  0
 14 15  1  0
 14 16  1  0
 14 17  1  0
  1  2  2  0
  2  3  1  0
  3  4  2  0
  4  5  1  0
  5  6  2  0
  6  1  1  0
M  END

$$$$
