No_179-gen_results/8p0m/2024-11-27-11-27-31/
     RDKit          3D

 20 21  0  0  0  0  0  0  0  0999 V2000
  -28.0162   -0.8135   28.8779 C   0  0  0  0  0  0  0  0  0  0  0  0
  -27.0636   -0.1189   28.6079 C   0  0  0  0  0  0  0  0  0  0  0  0
  -26.9287    1.1713   29.0083 C   0  0  0  0  0  0  0  0  0  0  0  0
  -27.9560    1.7411   29.7840 C   0  0  0  0  0  0  0  0  0  0  0  0
  -29.0569   -0.3271   29.7466 C   0  0  0  0  0  0  0  0  0  0  0  0
  -28.9828    0.9722   30.1516 C   0  0  0  0  0  0  0  0  0  0  0  0
  -25.8815   -0.6260   27.7945 C   0  0  0  0  0  0  0  0  0  0  0  0
  -25.4215    0.1302   26.7096 C   0  0  0  0  0  0  0  0  0  0  0  0
  -25.0332   -1.6821   28.2396 C   0  0  0  0  0  0  0  0  0  0  0  0
  -23.8635   -1.4377   29.0263 C   0  0  0  0  0  0  0  0  0  0  0  0
  -23.2724   -0.1521   29.1376 C   0  0  0  0  0  0  0  0  0  0  0  0
  -23.9064    0.9816   28.8971 C   0  0  0  0  0  0  0  0  0  0  0  0
  -24.3016    1.2462   27.4374 C   0  0  0  0  0  0  0  0  0  0  0  0
  -23.8198    2.2774   26.6038 C   0  0  0  0  0  0  0  0  0  0  0  0
  -27.8333    3.1879   30.2243 C   0  0  0  0  0  0  0  0  0  0  0  0
  -27.2893    3.4506   31.2889 C   0  0  0  0  0  0  0  0  0  0  0  0
  -28.2140    4.1665   29.2548 C   0  0  0  0  0  0  0  0  0  0  0  0
  -27.0207    2.7070   32.1996 O   0  0  0  0  0  0  0  0  0  0  0  0
  -27.0552    4.7673   31.6424 O   0  0  0  0  0  0  0  0  0  0  0  0
  -29.3587    4.6239   29.1967 C   0  0  0  0  0  0  0  0  0  0  0  0
  2  7  1  0
  7  8  1  0
  7  9  1  0
  9 10  2  0
 10 11  1  0
 11 12  1  0
  8 13  1  0
 12 13  1  0
 13 14  1  0
  4 15  1  0
 15 16  1  0
 15 17  1  0
 16 18  2  0
 16 19  1  0
 17 20  1  0
  1  2  2  0
  2  3  1  0
  3  4  2  0
  4  6  1  0
  6  5  2  0
  5  1  1  0
M  END

$$$$
