No_1091-gen_results/8p0m/2024-11-27-11-27-31/
     RDKit          3D

 28 31  0  0  0  0  0  0  0  0999 V2000
  -28.0162   -0.8135   28.8779 C   0  0  0  0  0  0  0  0  0  0  0  0
  -27.0636   -0.1190   28.6079 C   0  0  0  0  0  0  0  0  0  0  0  0
  -26.8756    1.1325   28.9134 C   0  0  0  0  0  0  0  0  0  0  0  0
  -25.6883    1.9515   28.5672 C   0  0  0  0  0  0  0  0  0  0  0  0
  -24.6394    1.2834   27.8753 C   0  0  0  0  0  0  0  0  0  0  0  0
  -24.8068   -0.0513   27.6040 C   0  0  0  0  0  0  0  0  0  0  0  0
  -25.9019   -0.7670   27.9511 C   0  0  0  0  0  0  0  0  0  0  0  0
  -29.2125   -0.1153   29.1222 C   0  0  0  0  0  0  0  0  0  0  0  0
  -29.1930    1.2207   29.4151 C   0  0  0  0  0  0  0  0  0  0  0  0
  -28.0327    1.9256   29.1788 C   0  0  0  0  0  0  0  0  0  0  0  0
  -23.3539    1.8898   27.5892 C   0  0  0  0  0  0  0  0  0  0  0  0
  -23.1789    2.6305   26.7506 O   0  0  0  0  0  0  0  0  0  0  0  0
  -22.2101    1.4155   28.3583 O   0  0  0  0  0  0  0  0  0  0  0  0
  -25.4777    3.3728   28.9092 C   0  0  0  0  0  0  0  0  0  0  0  0
  -25.4641    3.9850   30.0211 C   0  0  0  0  0  0  0  0  0  0  0  0
  -25.4578    3.2857   31.2831 C   0  0  0  0  0  0  0  0  0  0  0  0
  -25.3693    4.0396   32.5082 C   0  0  0  0  0  0  0  0  0  0  0  0
  -25.1469    5.4356   32.3971 C   0  0  0  0  0  0  0  0  0  0  0  0
  -25.2152    6.0881   31.1640 C   0  0  0  0  0  0  0  0  0  0  0  0
  -25.3209    5.3581   30.0347 C   0  0  0  0  0  0  0  0  0  0  0  0
  -25.7679    4.1801   27.8516 O   0  0  0  0  0  0  0  0  0  0  0  0
  -30.4279    1.9235   29.8840 C   0  0  0  0  0  0  0  0  0  0  0  0
  -31.0153    2.6484   29.1665 C   0  0  0  0  0  0  0  0  0  0  0  0
  -30.6060    2.9900   27.8134 C   0  0  0  0  0  0  0  0  0  0  0  0
  -31.3599    3.9237   27.0243 C   0  0  0  0  0  0  0  0  0  0  0  0
  -32.4859    4.5256   27.5604 C   0  0  0  0  0  0  0  0  0  0  0  0
  -32.9085    4.2707   28.8109 C   0  0  0  0  0  0  0  0  0  0  0  0
  -32.2149    3.4332   29.6407 C   0  0  0  0  0  0  0  0  0  0  0  0
  5 11  1  0
 11 12  2  0
 11 13  1  0
  4 14  1  0
 14 15  1  0
 14 21  2  0
  9 22  1  0
 22 23  1  0
 15 16  2  0
 16 17  1  0
 17 18  2  0
 18 19  1  0
 19 20  2  0
 20 15  1  0
  3  4  1  0
  4  5  2  0
  5  6  1  0
  6  7  2  0
  7  2  1  0
 23 24  2  0
 24 25  1  0
 25 26  2  0
 26 27  1  0
 27 28  2  0
 28 23  1  0
  1  2  2  0
  2  3  1  0
  3 10  2  0
 10  9  1  0
  9  8  2  0
  8  1  1  0
M  END

$$$$
