No_1142-gen_results/8p0m/2024-11-27-11-27-31/
     RDKit          3D

 14 15  0  0  0  0  0  0  0  0999 V2000
  -28.1229   -1.3353   28.4874 O   0  0  0  0  0  0  0  0  0  0  0  0
  -27.4806   -0.4044   28.7094 C   0  0  0  0  0  0  0  0  0  0  0  0
  -27.1904    0.2460   29.5268 C   0  0  0  0  0  0  0  0  0  0  0  0
  -26.6871   -0.0001   27.4423 N   0  0  0  0  0  0  0  0  0  0  0  0
  -27.6511    0.1259   30.8798 C   0  0  0  0  0  0  0  0  0  0  0  0
  -25.7508    1.0047   27.4342 C   0  0  0  0  0  0  0  0  0  0  0  0
  -25.5541    1.7023   28.6009 C   0  0  0  0  0  0  0  0  0  0  0  0
  -26.1486    1.3780   29.6666 C   0  0  0  0  0  0  0  0  0  0  0  0
  -28.6090    0.6564   31.3753 C   0  0  0  0  0  0  0  0  0  0  0  0
  -29.1795    0.3372   32.7060 C   0  0  0  0  0  0  0  0  0  0  0  0
  -28.6939   -0.7983   33.3433 C   0  0  0  0  0  0  0  0  0  0  0  0
  -27.7116   -1.5497   32.7547 C   0  0  0  0  0  0  0  0  0  0  0  0
  -27.1276   -1.1674   31.5291 C   0  0  0  0  0  0  0  0  0  0  0  0
  -25.1524    1.2948   26.3076 F   0  0  0  0  0  0  0  0  0  0  0  0
  1  2  2  0
  2  3  1  0
  2  4  1  0
  3  5  1  0
  4  6  1  0
  3  8  1  0
  7  8  1  0
  6 14  1  0
  7  6  1  0
  5  9  2  0
  9 10  1  0
 10 11  2  0
 11 12  1  0
 12 13  2  0
 13  5  1  0
M  END

$$$$
