No_1494-gen_results/8p0m/2024-11-27-11-27-31/
     RDKit          3D

 16 17  0  0  0  0  0  0  0  0999 V2000
  -28.0162   -0.8135   28.8779 C   0  0  0  0  0  0  0  0  0  0  0  0
  -28.4690   -0.7850   29.8287 C   0  0  0  0  0  0  0  0  0  0  0  0
  -28.1816    0.4277   28.1134 C   0  0  0  0  0  0  0  0  0  0  0  0
  -27.4498    0.6435   26.8500 C   0  0  0  0  0  0  0  0  0  0  0  0
  -26.1815    0.0357   26.7145 C   0  0  0  0  0  0  0  0  0  0  0  0
  -25.7800   -0.9326   27.6938 C   0  0  0  0  0  0  0  0  0  0  0  0
  -26.5568   -1.2134   28.7413 C   0  0  0  0  0  0  0  0  0  0  0  0
  -29.6198   -0.2424   30.2347 C   0  0  0  0  0  0  0  0  0  0  0  0
  -30.0397    0.8257   29.3606 C   0  0  0  0  0  0  0  0  0  0  0  0
  -29.3523    1.1382   28.2041 C   0  0  0  0  0  0  0  0  0  0  0  0
  -25.9764   -2.3069   29.6342 C   0  0  0  0  0  0  0  0  0  0  0  0
  -25.2001   -1.9013   30.4489 F   0  0  0  0  0  0  0  0  0  0  0  0
  -27.1000   -2.8644   30.2640 F   0  0  0  0  0  0  0  0  0  0  0  0
  -25.3105   -3.2296   28.9341 F   0  0  0  0  0  0  0  0  0  0  0  0
  -31.3603    1.5713   29.6827 C   0  0  0  0  0  0  0  0  0  0  0  0
  -31.7874    1.8841   30.6390 O   0  0  0  0  0  0  0  0  0  0  0  0
  7 11  1  0
 11 12  1  0
 11 13  1  0
 11 14  1  0
  9 15  1  0
 15 16  2  0
  1  2  2  0
  2  8  1  0
  8  9  2  0
  9 10  1  0
 10  3  2  0
  1  3  1  0
  3  4  1  0
  4  5  2  0
  5  6  1  0
  6  7  2  0
  7  1  1  0
M  END

$$$$
