No_1027-gen_results/8p0m/2024-11-27-11-27-31/
     RDKit          3D

 35 39  0  0  0  0  0  0  0  0999 V2000
  -28.1493   -0.8198   28.9079 Cl  0  0  0  0  0  0  0  0  0  0  0  0
  -28.5324   -0.0471   29.7727 C   0  0  0  0  0  0  0  0  0  0  0  0
  -29.7006    0.0350   30.2420 C   0  0  0  0  0  0  0  0  0  0  0  0
  -27.4574    0.8974   30.3816 C   0  0  0  0  0  0  0  0  0  0  0  0
  -26.1303    0.9457   29.9571 C   0  0  0  0  0  0  0  0  0  0  0  0
  -25.3731    1.0557   29.0080 C   0  0  0  0  0  0  0  0  0  0  0  0
  -23.9859    0.9116   28.9267 C   0  0  0  0  0  0  0  0  0  0  0  0
  -23.3261    0.4715   30.0462 C   0  0  0  0  0  0  0  0  0  0  0  0
  -24.0461    0.2350   31.2155 C   0  0  0  0  0  0  0  0  0  0  0  0
  -25.3990    0.4280   31.2607 C   0  0  0  0  0  0  0  0  0  0  0  0
  -30.1525    1.0288   31.2016 C   0  0  0  0  0  0  0  0  0  0  0  0
  -29.2555    1.9034   31.7161 C   0  0  0  0  0  0  0  0  0  0  0  0
  -27.8925    1.8800   31.3958 C   0  0  0  0  0  0  0  0  0  0  0  0
  -25.9795    1.4782   27.6608 C   0  0  0  0  0  0  0  0  0  0  0  0
  -25.4807    2.5396   27.0730 C   0  0  0  0  0  0  0  0  0  0  0  0
  -25.3907    2.5264   25.6937 C   0  0  0  0  0  0  0  0  0  0  0  0
  -25.0926    3.7364   27.7664 C   0  0  0  0  0  0  0  0  0  0  0  0
  -24.7868    4.8367   27.0555 N   0  0  0  0  0  0  0  0  0  0  0  0
  -25.6696    1.4263   24.9779 C   0  0  0  0  0  0  0  0  0  0  0  0
  -25.2105    3.9290   29.0084 O   0  0  0  0  0  0  0  0  0  0  0  0
  -24.5758    4.8293   25.6153 C   0  0  0  0  0  0  0  0  0  0  0  0
  -24.8961    3.7501   25.0720 C   0  0  0  0  0  0  0  0  0  0  0  0
  -26.6721    0.6218   25.0515 C   0  0  0  0  0  0  0  0  0  0  0  0
  -27.8377    1.0213   25.7982 C   0  0  0  0  0  0  0  0  0  0  0  0
  -27.3940    1.2312   27.3143 C   0  0  0  0  0  0  0  0  0  0  0  0
  -29.1525    0.7162   25.5947 C   0  0  0  0  0  0  0  0  0  0  0  0
  -29.6296    1.5900   24.9286 F   0  0  0  0  0  0  0  0  0  0  0  0
  -29.2870   -0.4783   25.0345 F   0  0  0  0  0  0  0  0  0  0  0  0
  -29.9921    0.6005   26.6974 F   0  0  0  0  0  0  0  0  0  0  0  0
  -26.9742    2.7558   32.0481 C   0  0  0  0  0  0  0  0  0  0  0  0
  -26.8085    3.9889   31.5180 C   0  0  0  0  0  0  0  0  0  0  0  0
  -27.2366    2.8880   33.5658 C   0  0  0  0  0  0  0  0  0  0  0  0
  -26.6075    3.8974   34.1627 C   0  0  0  0  0  0  0  0  0  0  0  0
  -26.3094    5.1598   33.5214 C   0  0  0  0  0  0  0  0  0  0  0  0
  -25.9793    5.0610   32.1635 C   0  0  0  0  0  0  0  0  0  0  0  0
  1  2  1  0
  4  5  1  0
  6 14  1  0
 14 15  1  0
 15 17  1  0
 17 18  1  0
 16 19  1  0
 17 20  2  0
 16 22  1  0
 21 22  1  0
 19 23  2  0
 23 24  1  0
 14 25  1  0
 24 25  2  0
 24 26  1  0
 26 27  1  0
 26 28  1  0
 26 29  1  0
 13 30  1  0
 15 16  1  0
 21 18  1  0
  2  3  2  0
  3 11  1  0
 11 12  2  0
 12 13  1  0
 13  4  2  0
  4  2  1  0
 30 31  2  0
 31 35  1  0
 35 34  2  0
 34 33  1  0
 33 32  2  0
 32 30  1  0
  5  6  1  0
  6  7  2  0
  7  8  1  0
  8  9  2  0
  9 10  1  0
 10  5  2  0
M  END

$$$$
