No_1780-gen_results/8p0m/2024-11-27-11-27-31/
     RDKit          3D

 17 19  0  0  0  0  0  0  0  0999 V2000
  -28.0162   -0.8135   28.8779 C   0  0  0  0  0  0  0  0  0  0  0  0
  -27.0636   -0.1189   28.6079 C   0  0  0  0  0  0  0  0  0  0  0  0
  -25.7647   -0.3897   29.0360 C   0  0  0  0  0  0  0  0  0  0  0  0
  -25.5296   -1.5302   29.9014 C   0  0  0  0  0  0  0  0  0  0  0  0
  -26.6577   -2.2915   30.2035 C   0  0  0  0  0  0  0  0  0  0  0  0
  -27.8548   -1.9555   29.7630 C   0  0  0  0  0  0  0  0  0  0  0  0
  -24.6243    0.3696   28.7560 N   0  0  0  0  0  0  0  0  0  0  0  0
  -23.3706    0.0563   28.9386 C   0  0  0  0  0  0  0  0  0  0  0  0
  -22.3372    0.9649   28.4941 C   0  0  0  0  0  0  0  0  0  0  0  0
  -24.7016    1.5971   28.0302 C   0  0  0  0  0  0  0  0  0  0  0  0
  -25.9833    2.1567   27.6735 C   0  0  0  0  0  0  0  0  0  0  0  0
  -23.4563    2.2207   27.7443 C   0  0  0  0  0  0  0  0  0  0  0  0
  -27.1669    1.2154   27.8471 C   0  0  0  0  0  0  0  0  0  0  0  0
  -28.4091    1.6180   27.3089 C   0  0  0  0  0  0  0  0  0  0  0  0
  -28.4883    2.3563   26.4669 O   0  0  0  0  0  0  0  0  0  0  0  0
  -29.4292    1.4418   28.0699 O   0  0  0  0  0  0  0  0  0  0  0  0
  -22.8943   -1.0497   29.4071 F   0  0  0  0  0  0  0  0  0  0  0  0
  3  7  1  0
  7  8  1  0
  8  9  2  0
  7 10  1  0
 10 11  1  0
  9 12  1  0
 10 12  1  0
  2 13  1  0
 13 14  1  0
 14 15  2  0
 14 16  1  0
  8 17  1  0
 13 11  1  0
  1  2  2  0
  2  3  1  0
  3  4  2  0
  4  5  1  0
  5  6  2  0
  6  1  1  0
M  END

$$$$
