No_1483-gen_results/8p0m/2024-11-27-11-27-31/
     RDKit          3D

 13 14  0  0  0  0  0  0  0  0999 V2000
  -28.0162   -0.8135   28.8779 C   0  0  0  0  0  0  0  0  0  0  0  0
  -27.0636   -0.1190   28.6079 C   0  0  0  0  0  0  0  0  0  0  0  0
  -26.9716    0.7139   27.5060 C   0  0  0  0  0  0  0  0  0  0  0  0
  -25.8205    1.4909   27.1160 C   0  0  0  0  0  0  0  0  0  0  0  0
  -24.6562    1.4242   27.9180 C   0  0  0  0  0  0  0  0  0  0  0  0
  -24.7114    0.5419   29.0507 C   0  0  0  0  0  0  0  0  0  0  0  0
  -25.8042   -0.2058   29.3881 C   0  0  0  0  0  0  0  0  0  0  0  0
  -27.9544   -1.6764   30.0105 N   0  0  0  0  0  0  0  0  0  0  0  0
  -26.7667   -1.9166   30.6692 C   0  0  0  0  0  0  0  0  0  0  0  0
  -25.6732   -1.1544   30.3925 C   0  0  0  0  0  0  0  0  0  0  0  0
  -23.4761    2.2346   27.6212 C   0  0  0  0  0  0  0  0  0  0  0  0
  -22.3111    1.8293   27.5105 N   0  0  0  0  0  0  0  0  0  0  0  0
  -23.7344    3.3880   26.9828 O   0  0  0  0  0  0  0  0  0  0  0  0
  5 11  1  0
 11 12  1  0
 11 13  2  0
  2  3  1  0
  3  4  2  0
  4  5  1  0
  5  6  2  0
  6  7  1  0
  1  2  2  0
  2  7  1  0
  7 10  2  0
 10  9  1  0
  9  8  2  0
  8  1  1  0
M  END

$$$$
