No_158-gen_results/8p0m/2024-11-27-11-27-31/
     RDKit          3D

 35 38  0  0  0  0  0  0  0  0999 V2000
  -28.0162   -0.8135   28.8779 C   0  0  0  0  0  0  0  0  0  0  0  0
  -28.4690   -0.7850   29.8287 C   0  0  0  0  0  0  0  0  0  0  0  0
  -26.5042   -0.7777   28.8766 C   0  0  0  0  0  0  0  0  0  0  0  0
  -25.8103   -0.8531   30.1028 C   0  0  0  0  0  0  0  0  0  0  0  0
  -27.9906   -0.8916   31.2257 C   0  0  0  0  0  0  0  0  0  0  0  0
  -26.6042   -0.8676   31.2652 C   0  0  0  0  0  0  0  0  0  0  0  0
  -24.3894   -0.8050   30.1638 C   0  0  0  0  0  0  0  0  0  0  0  0
  -23.7660   -0.9500   31.0679 C   0  0  0  0  0  0  0  0  0  0  0  0
  -22.2665   -0.8379   31.2250 C   0  0  0  0  0  0  0  0  0  0  0  0
  -21.6701   -0.5264   30.0648 C   0  0  0  0  0  0  0  0  0  0  0  0
  -23.6437   -0.4433   28.9621 C   0  0  0  0  0  0  0  0  0  0  0  0
  -22.3479   -0.3035   28.9177 C   0  0  0  0  0  0  0  0  0  0  0  0
  -30.0924   -0.7792   29.8445 C   0  0  0  0  0  0  0  0  0  0  0  0
  -30.4928   -0.2971   28.8950 O   0  0  0  0  0  0  0  0  0  0  0  0
  -30.8082   -1.2857   30.8570 N   0  0  0  0  0  0  0  0  0  0  0  0
  -31.7600   -1.5744   30.9863 C   0  0  0  0  0  0  0  0  0  0  0  0
  -32.5589   -2.1619   31.1525 C   0  0  0  0  0  0  0  0  0  0  0  0
  -33.2916   -2.8704   30.2253 N   0  0  0  0  0  0  0  0  0  0  0  0
  -33.1842   -2.5275   29.0238 C   0  0  0  0  0  0  0  0  0  0  0  0
  -34.2048   -2.8052   28.1592 C   0  0  0  0  0  0  0  0  0  0  0  0
  -35.2513   -2.8899   28.4700 C   0  0  0  0  0  0  0  0  0  0  0  0
  -35.5776   -3.2034   29.8599 C   0  0  0  0  0  0  0  0  0  0  0  0
  -34.6735   -2.5308   30.7641 C   0  0  0  0  0  0  0  0  0  0  0  0
  -32.6354   -2.7622   32.6054 C   0  0  0  0  0  0  0  0  0  0  0  0
  -32.0426   -3.8253   33.0020 Cl  0  0  0  0  0  0  0  0  0  0  0  0
  -32.9156   -1.6345   33.5747 C   0  0  0  0  0  0  0  0  0  0  0  0
  -32.3788   -0.1634   31.1608 N   0  0  0  0  0  0  0  0  0  0  0  0
  -32.9747   -2.1384   34.8837 C   0  0  0  0  0  0  0  0  0  0  0  0
  -31.9537   -1.7561   35.6718 C   0  0  0  0  0  0  0  0  0  0  0  0
  -31.6631   -2.3907   36.9206 C   0  0  0  0  0  0  0  0  0  0  0  0
  -32.7073   -3.2255   37.4079 C   0  0  0  0  0  0  0  0  0  0  0  0
  -33.7829   -3.4962   36.6369 C   0  0  0  0  0  0  0  0  0  0  0  0
  -33.9081   -2.9770   35.3385 C   0  0  0  0  0  0  0  0  0  0  0  0
  -36.7715   -3.8049   30.3259 C   0  0  0  0  0  0  0  0  0  0  0  0
  -36.9615   -3.9328   31.6091 N   0  0  0  0  0  0  0  0  0  0  0  0
  4  7  1  0
  2 13  1  0
 13 14  2  0
 13 15  1  0
 15 16  2  3
 16 17  1  0
 17 18  1  0
 18 19  1  0
 20 21  1  0
 18 23  1  0
 22 23  1  0
 17 24  1  0
 24 25  1  0
 24 26  1  0
 16 27  1  0
 26 28  1  0
 22 34  1  0
 34 35  1  0
 19 20  1  0
 21 22  1  0
  7  8  2  0
  8  9  1  0
  9 10  2  0
 10 12  1  0
 12 11  2  0
 11  7  1  0
 28 29  2  0
 29 30  1  0
 30 31  2  0
 31 32  1  0
 32 33  2  0
 33 28  1  0
  1  2  2  0
  2  5  1  0
  5  6  2  0
  6  4  1  0
  4  3  2  0
  3  1  1  0
M  END

$$$$
