No_1526-gen_results/8p0m/2024-11-27-11-27-31/
     RDKit          3D

 18 19  0  0  0  0  0  0  0  0999 V2000
  -28.0162   -0.8135   28.8779 C   0  0  0  0  0  0  0  0  0  0  0  0
  -27.0636   -0.1189   28.6079 C   0  0  0  0  0  0  0  0  0  0  0  0
  -26.9287    1.1713   29.0083 C   0  0  0  0  0  0  0  0  0  0  0  0
  -27.9560    1.7411   29.7840 C   0  0  0  0  0  0  0  0  0  0  0  0
  -29.0569   -0.3271   29.7466 C   0  0  0  0  0  0  0  0  0  0  0  0
  -28.9828    0.9722   30.1516 C   0  0  0  0  0  0  0  0  0  0  0  0
  -25.8907   -0.6263   27.7857 C   0  0  0  0  0  0  0  0  0  0  0  0
  -24.7182   -1.0610   28.6129 C   0  0  0  0  0  0  0  0  0  0  0  0
  -23.5950   -0.2827   28.8125 C   0  0  0  0  0  0  0  0  0  0  0  0
  -23.4356    1.0607   28.2949 C   0  0  0  0  0  0  0  0  0  0  0  0
  -22.1708    1.6917   28.3753 C   0  0  0  0  0  0  0  0  0  0  0  0
  -21.0787    0.9144   28.6906 C   0  0  0  0  0  0  0  0  0  0  0  0
  -21.2744   -0.4677   28.9417 C   0  0  0  0  0  0  0  0  0  0  0  0
  -22.4585   -1.0257   29.0553 C   0  0  0  0  0  0  0  0  0  0  0  0
  -24.9275   -2.1966   29.4350 C   0  0  0  0  0  0  0  0  0  0  0  0
  -24.2668   -3.1655   29.0661 F   0  0  0  0  0  0  0  0  0  0  0  0
  -26.2370   -2.6606   29.3461 F   0  0  0  0  0  0  0  0  0  0  0  0
  -24.6700   -1.9533   30.7265 F   0  0  0  0  0  0  0  0  0  0  0  0
  2  7  1  0
  7  8  1  0
  8 15  1  0
 15 16  1  0
 15 17  1  0
 15 18  1  0
  8  9  1  0
  1  2  2  0
  2  3  1  0
  3  4  2  0
  4  6  1  0
  6  5  2  0
  5  1  1  0
  9 10  2  0
 10 11  1  0
 11 12  2  0
 12 13  1  0
 13 14  2  0
 14  9  1  0
M  END

$$$$
