No_1778-gen_results/8p0m/2024-11-27-11-27-31/
     RDKit          3D

 25 27  0  0  0  0  0  0  0  0999 V2000
  -28.0162   -0.8135   28.8779 C   0  0  0  0  0  0  0  0  0  0  0  0
  -27.0636   -0.1190   28.6079 C   0  0  0  0  0  0  0  0  0  0  0  0
  -26.8756    1.1325   28.9134 C   0  0  0  0  0  0  0  0  0  0  0  0
  -25.6883    1.9515   28.5672 C   0  0  0  0  0  0  0  0  0  0  0  0
  -24.6394    1.2834   27.8753 C   0  0  0  0  0  0  0  0  0  0  0  0
  -24.8068   -0.0513   27.6040 C   0  0  0  0  0  0  0  0  0  0  0  0
  -25.9019   -0.7670   27.9511 C   0  0  0  0  0  0  0  0  0  0  0  0
  -28.0678   -1.4475   30.2707 C   0  0  0  0  0  0  0  0  0  0  0  0
  -27.0358   -1.6665   30.8241 C   0  0  0  0  0  0  0  0  0  0  0  0
  -29.3991   -1.9123   30.7190 C   0  0  0  0  0  0  0  0  0  0  0  0
  -30.5107   -1.5398   30.1973 C   0  0  0  0  0  0  0  0  0  0  0  0
  -30.4466   -0.7592   29.0588 C   0  0  0  0  0  0  0  0  0  0  0  0
  -29.3186   -0.2900   28.4968 C   0  0  0  0  0  0  0  0  0  0  0  0
  -23.4057    1.9374   27.4953 C   0  0  0  0  0  0  0  0  0  0  0  0
  -22.2198    1.5704   27.7152 N   0  0  0  0  0  0  0  0  0  0  0  0
  -23.5820    2.9993   26.7060 O   0  0  0  0  0  0  0  0  0  0  0  0
  -29.3316    0.4042   27.3801 O   0  0  0  0  0  0  0  0  0  0  0  0
  -30.0332    0.0888   26.3016 C   0  0  0  0  0  0  0  0  0  0  0  0
  -31.2483    0.2282   26.2050 C   0  0  0  0  0  0  0  0  0  0  0  0
  -31.9573   -0.3073   25.1512 C   0  0  0  0  0  0  0  0  0  0  0  0
  -29.2696   -0.2054   25.1355 C   0  0  0  0  0  0  0  0  0  0  0  0
  -29.8438   -0.6258   23.9764 C   0  0  0  0  0  0  0  0  0  0  0  0
  -31.2342   -0.6553   23.9341 C   0  0  0  0  0  0  0  0  0  0  0  0
  -21.8368    0.6343   28.7042 C   0  0  0  0  0  0  0  0  0  0  0  0
  -21.7481   -0.6459   28.5051 C   0  0  0  0  0  0  0  0  0  0  0  0
  5 14  1  0
 14 15  1  0
 14 16  2  0
 13 17  1  0
 17 18  1  0
 15 24  1  0
 24 25  1  0
  9  8  1  0
  2  1  1  0
  2  3  2  0
  3  4  1  0
  4  5  2  0
  5  6  1  0
  6  7  2  0
  7  2  1  0
  1  8  2  0
  8 10  1  0
 10 11  2  0
 11 12  1  0
 12 13  2  0
 13  1  1  0
 18 19  2  0
 19 20  1  0
 20 23  2  0
 23 22  1  0
 22 21  2  0
 21 18  1  0
M  END

$$$$
