No_1510-gen_results/8p0m/2024-11-27-11-27-31/
     RDKit          3D

 28 31  0  0  0  0  0  0  0  0999 V2000
  -28.0162   -0.8135   28.8779 C   0  0  0  0  0  0  0  0  0  0  0  0
  -27.0636   -0.1189   28.6079 C   0  0  0  0  0  0  0  0  0  0  0  0
  -25.7923   -0.4302   29.0761 C   0  0  0  0  0  0  0  0  0  0  0  0
  -25.5756   -1.5654   29.9363 C   0  0  0  0  0  0  0  0  0  0  0  0
  -26.7354   -2.3004   30.2173 C   0  0  0  0  0  0  0  0  0  0  0  0
  -27.9184   -1.9537   29.7629 C   0  0  0  0  0  0  0  0  0  0  0  0
  -27.1057    1.1023   27.7593 C   0  0  0  0  0  0  0  0  0  0  0  0
  -26.1219    1.4820   27.0232 C   0  0  0  0  0  0  0  0  0  0  0  0
  -26.0928    2.6187   26.1808 C   0  0  0  0  0  0  0  0  0  0  0  0
  -24.8978    3.1557   25.6096 C   0  0  0  0  0  0  0  0  0  0  0  0
  -23.6829    2.4421   25.8463 C   0  0  0  0  0  0  0  0  0  0  0  0
  -23.6913    1.3254   26.6992 C   0  0  0  0  0  0  0  0  0  0  0  0
  -24.8098    0.8591   27.2802 C   0  0  0  0  0  0  0  0  0  0  0  0
  -24.7160   -0.1674   28.2908 C   0  0  0  0  0  0  0  0  0  0  0  0
  -28.0357    2.0162   28.2878 C   0  0  0  0  0  0  0  0  0  0  0  0
  -27.9963    2.8411   29.3812 C   0  0  0  0  0  0  0  0  0  0  0  0
  -29.3100    2.0539   27.4959 C   0  0  0  0  0  0  0  0  0  0  0  0
  -27.3052    3.6925   29.6243 C   0  0  0  0  0  0  0  0  0  0  0  0
  -26.9787    4.7936   28.7414 C   0  0  0  0  0  0  0  0  0  0  0  0
  -26.0117    5.7901   29.0114 C   0  0  0  0  0  0  0  0  0  0  0  0
  -25.5029    5.8949   30.2756 C   0  0  0  0  0  0  0  0  0  0  0  0
  -25.7917    4.9526   31.2333 C   0  0  0  0  0  0  0  0  0  0  0  0
  -26.6758    3.9198   30.9469 C   0  0  0  0  0  0  0  0  0  0  0  0
  -29.0298    2.4593   30.4512 C   0  0  0  0  0  0  0  0  0  0  0  0
  -30.3904    2.7312   30.1394 C   0  0  0  0  0  0  0  0  0  0  0  0
  -31.2020    2.7026   31.3194 C   0  0  0  0  0  0  0  0  0  0  0  0
  -30.7530    2.2131   32.5025 C   0  0  0  0  0  0  0  0  0  0  0  0
  -29.4458    1.8714   32.7400 C   0  0  0  0  0  0  0  0  0  0  0  0
  7 15  1  0
 15 16  1  0
 15 17  1  0
 16 18  1  0
 16 24  1  0
 24 25  2  3
 25 26  1  0
 26 27  2  3
 27 28  1  0
 18 19  2  0
 19 20  1  0
 20 21  2  0
 21 22  1  0
 22 23  2  0
 23 18  1  0
  1  2  2  0
  3  4  2  0
  4  5  1  0
  5  6  2  0
  6  1  1  0
  2  3  1  0
  3 14  1  0
 14 13  2  0
  8  7  2  0
  7  2  1  0
  8  9  1  0
  9 10  2  0
 10 11  1  0
 11 12  2  0
 12 13  1  0
 13  8  1  0
M  END

$$$$
