No_1024-gen_results/8p0m/2024-11-27-11-27-31/
     RDKit          3D

 12 13  0  0  0  0  0  0  0  0999 V2000
  -28.0162   -0.8135   28.8779 C   0  0  0  0  0  0  0  0  0  0  0  0
  -27.0636   -0.1189   28.6079 C   0  0  0  0  0  0  0  0  0  0  0  0
  -26.9849    0.5972   27.5218 N   0  0  0  0  0  0  0  0  0  0  0  0
  -27.9606   -1.5421   30.1660 C   0  0  0  0  0  0  0  0  0  0  0  0
  -26.7813   -1.6198   30.8836 C   0  0  0  0  0  0  0  0  0  0  0  0
  -25.6460   -0.9698   30.4630 C   0  0  0  0  0  0  0  0  0  0  0  0
  -25.7563   -0.1767   29.2863 C   0  0  0  0  0  0  0  0  0  0  0  0
  -26.7273    1.9385   27.4437 C   0  0  0  0  0  0  0  0  0  0  0  0
  -26.5308    2.5855   26.1998 C   0  0  0  0  0  0  0  0  0  0  0  0
  -27.2107    0.0598   26.2094 C   0  0  0  0  0  0  0  0  0  0  0  0
  -27.1705    0.6325   24.9772 C   0  0  0  0  0  0  0  0  0  0  0  0
  -26.8036    1.9744   24.9537 C   0  0  0  0  0  0  0  0  0  0  0  0
  2  3  1  0
  3  8  1  0
  3 10  1  0
  9 12  1  0
 11 12  1  0
  8  9  1  0
 11 10  1  0
  1  2  2  0
  2  7  1  0
  7  6  2  0
  6  5  1  0
  5  4  2  0
  4  1  1  0
M  END

$$$$
