No_1471-gen_results/8p0m/2024-11-27-11-27-31/
     RDKit          3D

 28 31  0  0  0  0  0  0  0  0999 V2000
  -28.0162   -0.8135   28.8779 C   0  0  0  0  0  0  0  0  0  0  0  0
  -27.0636   -0.1190   28.6079 C   0  0  0  0  0  0  0  0  0  0  0  0
  -25.7647   -0.3897   29.0360 C   0  0  0  0  0  0  0  0  0  0  0  0
  -24.5516    0.4058   28.7646 C   0  0  0  0  0  0  0  0  0  0  0  0
  -24.6957    1.4480   27.7988 C   0  0  0  0  0  0  0  0  0  0  0  0
  -25.9755    1.7250   27.3077 C   0  0  0  0  0  0  0  0  0  0  0  0
  -27.0718    1.0134   27.6535 C   0  0  0  0  0  0  0  0  0  0  0  0
  -29.1869   -0.1649   29.1026 N   0  0  0  0  0  0  0  0  0  0  0  0
  -23.4964    2.1689   27.4760 C   0  0  0  0  0  0  0  0  0  0  0  0
  -22.3108    1.7042   27.8633 N   0  0  0  0  0  0  0  0  0  0  0  0
  -22.1918    0.7005   28.7972 C   0  0  0  0  0  0  0  0  0  0  0  0
  -23.2809   -0.0477   29.1837 C   0  0  0  0  0  0  0  0  0  0  0  0
  -29.9586   -0.4146   30.0757 C   0  0  0  0  0  0  0  0  0  0  0  0
  -23.4843    3.1841   26.6893 O   0  0  0  0  0  0  0  0  0  0  0  0
  -31.3216   -0.1215   30.0299 C   0  0  0  0  0  0  0  0  0  0  0  0
  -29.5220   -0.9693   31.2566 N   0  0  0  0  0  0  0  0  0  0  0  0
  -31.8990    0.5653   29.0347 C   0  0  0  0  0  0  0  0  0  0  0  0
  -31.0130    0.7749   27.9547 C   0  0  0  0  0  0  0  0  0  0  0  0
  -29.7342    0.1142   27.7479 C   0  0  0  0  0  0  0  0  0  0  0  0
  -31.6033    1.3794   26.6522 C   0  0  0  0  0  0  0  0  0  0  0  0
  -31.0600    1.6538   25.7597 O   0  0  0  0  0  0  0  0  0  0  0  0
  -32.7566    1.9548   26.8839 O   0  0  0  0  0  0  0  0  0  0  0  0
  -30.1569   -1.4806   32.2021 C   0  0  0  0  0  0  0  0  0  0  0  0
  -25.5890   -1.3695   29.9016 O   0  0  0  0  0  0  0  0  0  0  0  0
  -29.4326   -2.0181   33.3347 C   0  0  0  0  0  0  0  0  0  0  0  0
  -30.1027   -2.7361   34.2878 C   0  0  0  0  0  0  0  0  0  0  0  0
  -31.3902   -2.9413   34.1542 C   0  0  0  0  0  0  0  0  0  0  0  0
  -31.3223   -2.0976   32.5448 C   0  0  0  0  0  0  0  0  0  0  0  0
  2  3  1  0
  3  4  1  0
  4  5  1  0
  5  6  1  0
  2  7  1  0
  1  8  1  0
  5  9  1  0
  9 10  1  0
  4 12  1  0
 11 12  1  0
  8 13  1  0
  9 14  2  0
 13 16  1  0
 15 17  1  0
  8 19  1  0
 18 19  1  0
 18 20  1  0
 20 21  2  0
 20 22  1  0
 16 23  2  3
  3 24  2  0
 23 25  1  0
 25 26  1  0
 26 27  2  0
 23 28  1  0
 27 28  1  0
  1  2  1  0
 13 15  1  0
 17 18  1  0
  7  6  1  0
 11 10  1  0
M  END

$$$$
