No_1195-gen_results/8p0m/2024-11-27-11-27-31/
     RDKit          3D

 27 28  0  0  0  0  0  0  0  0999 V2000
  -28.1229   -1.3353   28.4874 O   0  0  0  0  0  0  0  0  0  0  0  0
  -27.4806   -0.4044   28.7094 C   0  0  0  0  0  0  0  0  0  0  0  0
  -26.3804   -0.0867   27.9394 C   0  0  0  0  0  0  0  0  0  0  0  0
  -27.6664    0.4468   29.8988 N   0  0  0  0  0  0  0  0  0  0  0  0
  -26.4086    0.8567   26.8802 C   0  0  0  0  0  0  0  0  0  0  0  0
  -25.0824   -0.6970   28.1699 C   0  0  0  0  0  0  0  0  0  0  0  0
  -25.2842    1.0488   26.0470 C   0  0  0  0  0  0  0  0  0  0  0  0
  -23.9159   -0.3440   27.4444 C   0  0  0  0  0  0  0  0  0  0  0  0
  -24.0618    0.5290   26.3707 C   0  0  0  0  0  0  0  0  0  0  0  0
  -28.7724    0.0990   30.7925 C   0  0  0  0  0  0  0  0  0  0  0  0
  -26.8467    1.5200   30.2210 C   0  0  0  0  0  0  0  0  0  0  0  0
  -26.1382    1.4748   31.0766 C   0  0  0  0  0  0  0  0  0  0  0  0
  -25.1673    2.5766   31.3042 C   0  0  0  0  0  0  0  0  0  0  0  0
  -25.2042    3.5062   30.9048 C   0  0  0  0  0  0  0  0  0  0  0  0
  -26.1347    3.7830   29.7907 C   0  0  0  0  0  0  0  0  0  0  0  0
  -27.0065    2.7239   29.4247 C   0  0  0  0  0  0  0  0  0  0  0  0
  -26.0957    5.0858   29.0368 C   0  0  0  0  0  0  0  0  0  0  0  0
  -25.6436    5.1476   28.0016 O   0  0  0  0  0  0  0  0  0  0  0  0
  -26.5220    6.1265   29.6850 O   0  0  0  0  0  0  0  0  0  0  0  0
  -24.8721   -1.7379   29.5100 Cl  0  0  0  0  0  0  0  0  0  0  0  0
  -27.7044    1.4337   26.4413 C   0  0  0  0  0  0  0  0  0  0  0  0
  -27.7436    2.3713   25.6209 C   0  0  0  0  0  0  0  0  0  0  0  0
  -28.8103    2.9340   25.3247 C   0  0  0  0  0  0  0  0  0  0  0  0
  -29.5482    2.9894   24.2138 C   0  0  0  0  0  0  0  0  0  0  0  0
  -30.8013    3.6122   24.0008 C   0  0  0  0  0  0  0  0  0  0  0  0
  -31.3882    4.3033   25.0791 C   0  0  0  0  0  0  0  0  0  0  0  0
  -30.6764    4.4400   26.2670 C   0  0  0  0  0  0  0  0  0  0  0  0
  1  2  2  0
  2  3  1  0
  2  4  1  0
  4 10  1  0
  4 11  1  0
 15 17  1  0
 17 18  2  0
 17 19  1  0
  6 20  1  0
  5 21  1  0
 21 22  2  3
 22 23  1  0
 23 24  2  3
 24 25  1  0
 25 26  2  3
 26 27  1  0
 11 12  2  0
 12 13  1  0
 13 14  2  0
 14 15  1  0
 15 16  2  0
 16 11  1  0
  3  5  2  0
  5  7  1  0
  7  9  2  0
  9  8  1  0
  8  6  2  0
  6  3  1  0
M  END

$$$$
