No_1261-gen_results/8p0m/2024-11-27-11-27-31/
     RDKit          3D

 18 19  0  0  0  0  0  0  0  0999 V2000
  -28.0162   -0.8135   28.8779 C   0  0  0  0  0  0  0  0  0  0  0  0
  -27.0636   -0.1189   28.6079 C   0  0  0  0  0  0  0  0  0  0  0  0
  -25.7647   -0.3897   29.0360 C   0  0  0  0  0  0  0  0  0  0  0  0
  -24.5516    0.4058   28.7646 C   0  0  0  0  0  0  0  0  0  0  0  0
  -24.6957    1.4480   27.7988 C   0  0  0  0  0  0  0  0  0  0  0  0
  -25.9755    1.7250   27.3077 C   0  0  0  0  0  0  0  0  0  0  0  0
  -27.0718    1.0134   27.6535 C   0  0  0  0  0  0  0  0  0  0  0  0
  -28.0654   -2.0262   30.1710 Cl  0  0  0  0  0  0  0  0  0  0  0  0
  -23.4943    2.1814   27.4807 C   0  0  0  0  0  0  0  0  0  0  0  0
  -22.2381    1.6324   27.8222 C   0  0  0  0  0  0  0  0  0  0  0  0
  -22.1750    0.6186   28.8005 C   0  0  0  0  0  0  0  0  0  0  0  0
  -23.3018   -0.1041   29.1924 C   0  0  0  0  0  0  0  0  0  0  0  0
  -29.2915   -0.3820   28.9562 F   0  0  0  0  0  0  0  0  0  0  0  0
  -26.1229    2.9145   26.4276 C   0  0  0  0  0  0  0  0  0  0  0  0
  -23.1574   -1.2646   30.0534 C   0  0  0  0  0  0  0  0  0  0  0  0
  -24.2351   -1.6515   30.4551 F   0  0  0  0  0  0  0  0  0  0  0  0
  -22.4985   -2.2213   29.3822 F   0  0  0  0  0  0  0  0  0  0  0  0
  -22.2629   -0.9957   31.0438 F   0  0  0  0  0  0  0  0  0  0  0  0
  1  8  1  0
  1 13  1  0
  6 14  1  0
 12 15  1  0
 15 16  1  0
 15 17  1  0
 15 18  1  0
  1  2  1  0
  2  3  2  0
  3  4  1  0
  5  6  1  0
  6  7  2  0
  7  2  1  0
  4  5  2  0
  5  9  1  0
  9 10  2  0
 10 11  1  0
 11 12  2  0
 12  4  1  0
M  END

$$$$
