No_1246-gen_results/8p0m/2024-11-27-11-27-31/
     RDKit          3D

 35 39  0  0  0  0  0  0  0  0999 V2000
  -28.0162   -0.8135   28.8779 C   0  0  0  0  0  0  0  0  0  0  0  0
  -27.0636   -0.1190   28.6079 C   0  0  0  0  0  0  0  0  0  0  0  0
  -25.7923   -0.4302   29.0761 C   0  0  0  0  0  0  0  0  0  0  0  0
  -24.5456    0.3494   28.8225 C   0  0  0  0  0  0  0  0  0  0  0  0
  -23.2409    0.0217   29.3323 C   0  0  0  0  0  0  0  0  0  0  0  0
  -23.1926   -1.2816   29.8967 C   0  0  0  0  0  0  0  0  0  0  0  0
  -27.8703   -1.9138   29.8642 C   0  0  0  0  0  0  0  0  0  0  0  0
  -26.6310   -2.3256   30.2990 C   0  0  0  0  0  0  0  0  0  0  0  0
  -25.5115   -1.5728   29.9655 C   0  0  0  0  0  0  0  0  0  0  0  0
  -24.2124   -1.9703   30.3280 C   0  0  0  0  0  0  0  0  0  0  0  0
  -24.5933    1.5941   27.9969 C   0  0  0  0  0  0  0  0  0  0  0  0
  -25.0566    1.5294   26.7501 C   0  0  0  0  0  0  0  0  0  0  0  0
  -24.6781    2.6084   28.6919 C   0  0  0  0  0  0  0  0  0  0  0  0
  -24.8742    3.8368   28.0620 N   0  0  0  0  0  0  0  0  0  0  0  0
  -25.1137    2.6781   25.9769 C   0  0  0  0  0  0  0  0  0  0  0  0
  -25.0279    3.8764   26.7140 C   0  0  0  0  0  0  0  0  0  0  0  0
  -24.4361    2.8291   30.0623 N   0  0  0  0  0  0  0  0  0  0  0  0
  -29.4338   -2.9024   30.2984 Br  0  0  0  0  0  0  0  0  0  0  0  0
  -25.4918    2.9080   31.0446 C   0  0  0  0  0  0  0  0  0  0  0  0
  -25.1754    2.6681   32.3165 C   0  0  0  0  0  0  0  0  0  0  0  0
  -26.7918    3.0363   30.5861 C   0  0  0  0  0  0  0  0  0  0  0  0
  -27.8346    2.9415   31.5249 C   0  0  0  0  0  0  0  0  0  0  0  0
  -26.1850    2.6509   33.3341 C   0  0  0  0  0  0  0  0  0  0  0  0
  -29.2356    3.0736   31.1494 C   0  0  0  0  0  0  0  0  0  0  0  0
  -27.5012    2.7356   32.8895 C   0  0  0  0  0  0  0  0  0  0  0  0
  -29.9411    2.1433   31.4559 O   0  0  0  0  0  0  0  0  0  0  0  0
  -29.6134    4.0603   30.3634 N   0  0  0  0  0  0  0  0  0  0  0  0
  -28.8684    5.1961   29.9365 C   0  0  0  0  0  0  0  0  0  0  0  0
  -29.3376    6.0875   29.1382 C   0  0  0  0  0  0  0  0  0  0  0  0
  -30.3396    6.7637   29.5575 C   0  0  0  0  0  0  0  0  0  0  0  0
  -30.9155    7.7410   28.7675 C   0  0  0  0  0  0  0  0  0  0  0  0
  -32.0451    8.5320   29.1234 C   0  0  0  0  0  0  0  0  0  0  0  0
  -32.6095    8.2167   30.3883 C   0  0  0  0  0  0  0  0  0  0  0  0
  -32.1095    7.2606   31.1927 C   0  0  0  0  0  0  0  0  0  0  0  0
  -31.0001    6.5566   30.8379 C   0  0  0  0  0  0  0  0  0  0  0  0
  4 11  1  0
 13 17  1  0
  7 18  1  0
 17 19  1  0
 22 24  1  0
 24 26  2  0
 24 27  1  0
 27 28  1  0
 28 29  2  3
 29 30  1  0
  1  2  2  0
  2  3  1  0
  9  8  1  0
  8  7  2  0
  7  1  1  0
 19 20  2  0
 20 23  1  0
 23 25  2  0
 25 22  1  0
 22 21  2  0
 21 19  1  0
 30 31  2  0
 31 32  1  0
 32 33  2  0
 33 34  1  0
 34 35  2  0
 35 30  1  0
  3  4  2  0
  4  5  1  0
  5  6  2  0
  6 10  1  0
 10  9  2  0
  9  3  1  0
 11 12  2  0
 12 15  1  0
 15 16  2  0
 16 14  1  0
 14 13  2  0
 13 11  1  0
M  END

$$$$
