No_1689-gen_results/8p0m/2024-11-27-11-27-31/
     RDKit          3D

 19 20  0  0  0  0  0  0  0  0999 V2000
  -28.0162   -0.8135   28.8779 C   0  0  0  0  0  0  0  0  0  0  0  0
  -28.4690   -0.7850   29.8287 C   0  0  0  0  0  0  0  0  0  0  0  0
  -28.1960    0.3478   28.0550 C   0  0  0  0  0  0  0  0  0  0  0  0
  -29.0191    1.3501   28.3782 C   0  0  0  0  0  0  0  0  0  0  0  0
  -29.4107    0.1803   30.3782 C   0  0  0  0  0  0  0  0  0  0  0  0
  -29.6059    1.2495   29.6193 C   0  0  0  0  0  0  0  0  0  0  0  0
  -27.4597    0.3802   26.7091 C   0  0  0  0  0  0  0  0  0  0  0  0
  -27.8834    0.5390   25.7073 N   0  0  0  0  0  0  0  0  0  0  0  0
  -26.0949    0.5090   26.8522 O   0  0  0  0  0  0  0  0  0  0  0  0
  -27.1846    0.4984   24.4151 C   0  0  0  0  0  0  0  0  0  0  0  0
  -29.2903    0.0926   25.4448 C   0  0  0  0  0  0  0  0  0  0  0  0
  -30.1344    1.2119   25.1049 C   0  0  0  0  0  0  0  0  0  0  0  0
  -29.9531    2.2854   25.1155 C   0  0  0  0  0  0  0  0  0  0  0  0
  -30.9447    3.3878   24.7649 C   0  0  0  0  0  0  0  0  0  0  0  0
  -32.1983    2.9102   24.4337 C   0  0  0  0  0  0  0  0  0  0  0  0
  -31.5610    0.8109   24.8363 C   0  0  0  0  0  0  0  0  0  0  0  0
  -32.4596    1.6330   24.4800 C   0  0  0  0  0  0  0  0  0  0  0  0
  -29.5004   -1.0606   25.0691 O   0  0  0  0  0  0  0  0  0  0  0  0
  -30.6964    2.5341   30.1417 Cl  0  0  0  0  0  0  0  0  0  0  0  0
  3  7  1  0
  7  8  1  0
  7  9  2  0
  8 10  1  0
  8 11  1  0
 11 12  1  0
 11 18  2  0
  6 19  1  0
 12 13  2  0
 13 14  1  0
 14 15  2  0
 15 17  1  0
 17 16  2  0
 16 12  1  0
  1  2  2  0
  2  5  1  0
  5  6  2  0
  6  4  1  0
  4  3  2  0
  3  1  1  0
M  END

$$$$
