No_1125-gen_results/8p0m/2024-11-27-11-27-31/
     RDKit          3D

 29 31  0  0  0  0  0  0  0  0999 V2000
  -28.0162   -0.8135   28.8779 C   0  0  0  0  0  0  0  0  0  0  0  0
  -27.0636   -0.1189   28.6079 C   0  0  0  0  0  0  0  0  0  0  0  0
  -25.7647   -0.3897   29.0360 C   0  0  0  0  0  0  0  0  0  0  0  0
  -24.5516    0.4058   28.7646 C   0  0  0  0  0  0  0  0  0  0  0  0
  -24.6957    1.4480   27.7988 C   0  0  0  0  0  0  0  0  0  0  0  0
  -23.5821    2.2166   27.4626 C   0  0  0  0  0  0  0  0  0  0  0  0
  -22.3295    1.8428   27.9660 C   0  0  0  0  0  0  0  0  0  0  0  0
  -22.1809    0.8284   28.8814 C   0  0  0  0  0  0  0  0  0  0  0  0
  -23.3190    0.0774   29.2471 C   0  0  0  0  0  0  0  0  0  0  0  0
  -27.8976   -1.8938   29.8574 C   0  0  0  0  0  0  0  0  0  0  0  0
  -26.6550   -2.3404   30.2745 C   0  0  0  0  0  0  0  0  0  0  0  0
  -25.5323   -1.5588   29.9128 C   0  0  0  0  0  0  0  0  0  0  0  0
  -28.9365   -2.6524   30.1532 F   0  0  0  0  0  0  0  0  0  0  0  0
  -23.7395    3.4989   26.2393 P   0  0  0  0  0  0  0  0  0  0  0  0
  -23.3713    3.0385   25.0993 O   0  0  0  0  0  0  0  0  0  0  0  0
  -25.3716    3.6080   26.3238 O   0  0  0  0  0  0  0  0  0  0  0  0
  -23.4823    4.8403   26.8116 O   0  0  0  0  0  0  0  0  0  0  0  0
  -26.2105    2.7406   25.6682 C   0  0  0  0  0  0  0  0  0  0  0  0
  -27.5558    3.2860   25.5580 C   0  0  0  0  0  0  0  0  0  0  0  0
  -28.5082    2.4961   24.8282 C   0  0  0  0  0  0  0  0  0  0  0  0
  -29.8251    3.0252   24.6713 C   0  0  0  0  0  0  0  0  0  0  0  0
  -30.2137    4.1996   25.3253 C   0  0  0  0  0  0  0  0  0  0  0  0
  -29.2729    4.9127   26.0826 C   0  0  0  0  0  0  0  0  0  0  0  0
  -27.9518    4.4376   26.2113 C   0  0  0  0  0  0  0  0  0  0  0  0
  -30.9222    2.1573   23.7929 Cl  0  0  0  0  0  0  0  0  0  0  0  0
  -29.3083   -0.4820   28.5260 O   0  0  0  0  0  0  0  0  0  0  0  0
  -30.2145    0.1244   29.2773 C   0  0  0  0  0  0  0  0  0  0  0  0
  -30.0867    1.4774   29.3735 C   0  0  0  0  0  0  0  0  0  0  0  0
  -30.4224    2.1581   30.4292 C   0  0  0  0  0  0  0  0  0  0  0  0
  3  4  1  0
 10 13  1  0
  6 14  1  0
 14 15  2  0
 14 16  1  0
 14 17  1  0
 16 18  1  0
 21 25  1  0
  1 26  1  0
 26 27  1  0
 27 28  1  0
 28 29  2  0
 18 19  1  0
  1  2  2  0
  2  3  1  0
  3 12  2  0
 12 11  1  0
 11 10  2  0
 10  1  1  0
 19 20  2  0
 20 21  1  0
 21 22  2  0
 22 23  1  0
 23 24  2  0
 24 19  1  0
  4  5  2  0
  5  6  1  0
  6  7  2  0
  7  8  1  0
  8  9  2  0
  9  4  1  0
M  END

$$$$
