No_1408-gen_results/8p0m/2024-11-27-11-27-31/
     RDKit          3D

 17 17  0  0  0  0  0  0  0  0999 V2000
  -28.0162   -0.8135   28.8779 C   0  0  0  0  0  0  0  0  0  0  0  0
  -28.4690   -0.7850   29.8287 C   0  0  0  0  0  0  0  0  0  0  0  0
  -28.1816    0.4277   28.1134 C   0  0  0  0  0  0  0  0  0  0  0  0
  -27.4498    0.6435   26.8500 C   0  0  0  0  0  0  0  0  0  0  0  0
  -26.4529    0.9939   26.6681 C   0  0  0  0  0  0  0  0  0  0  0  0
  -25.1813    0.8625   26.8165 C   0  0  0  0  0  0  0  0  0  0  0  0
  -24.2036    1.0465   27.4866 C   0  0  0  0  0  0  0  0  0  0  0  0
  -29.4367    0.0780   30.4436 C   0  0  0  0  0  0  0  0  0  0  0  0
  -22.8391    0.8493   27.2826 C   0  0  0  0  0  0  0  0  0  0  0  0
  -29.6751    1.1909   29.7285 C   0  0  0  0  0  0  0  0  0  0  0  0
  -29.0574    1.3992   28.5462 C   0  0  0  0  0  0  0  0  0  0  0  0
  -28.3537    0.1527   25.7209 C   0  0  0  0  0  0  0  0  0  0  0  0
  -21.9602    0.8546   28.3887 C   0  0  0  0  0  0  0  0  0  0  0  0
  -22.4352    0.5835   29.5500 C   0  0  0  0  0  0  0  0  0  0  0  0
  -24.3618    0.4990   28.9549 C   0  0  0  0  0  0  0  0  0  0  0  0
  -23.5735    0.4235   29.9135 C   0  0  0  0  0  0  0  0  0  0  0  0
  -25.7546    0.4513   29.2687 F   0  0  0  0  0  0  0  0  0  0  0  0
  3  4  1  0
  4  5  2  3
  5  6  1  0
  6  7  2  3
  7  9  1  0
  4 12  1  0
  9 13  2  3
 13 14  1  0
  7 15  1  0
 14 16  1  0
 15 17  1  0
  1  2  2  0
  2  8  1  0
  8 10  2  0
 10 11  1  0
 11  3  2  0
  3  1  1  0
M  END

$$$$
