No_122-gen_results/8p0m/2024-11-27-11-27-31/
     RDKit          3D

 12 12  0  0  0  0  0  0  0  0999 V2000
  -28.0162   -0.8135   28.8779 C   0  0  0  0  0  0  0  0  0  0  0  0
  -28.4690   -0.7850   29.8287 C   0  0  0  0  0  0  0  0  0  0  0  0
  -28.1816    0.4277   28.1134 C   0  0  0  0  0  0  0  0  0  0  0  0
  -27.0280    0.9338   27.5279 C   0  0  0  0  0  0  0  0  0  0  0  0
  -29.8654   -0.6573   30.0468 C   0  0  0  0  0  0  0  0  0  0  0  0
  -30.4269    0.4083   29.2782 C   0  0  0  0  0  0  0  0  0  0  0  0
  -29.4631    1.0173   28.1730 C   0  0  0  0  0  0  0  0  0  0  0  0
  -25.9866    1.4786   28.3759 C   0  0  0  0  0  0  0  0  0  0  0  0
  -24.7493    1.8782   27.7848 C   0  0  0  0  0  0  0  0  0  0  0  0
  -23.5660    2.0616   28.5576 C   0  0  0  0  0  0  0  0  0  0  0  0
  -23.6221    1.8093   29.9456 C   0  0  0  0  0  0  0  0  0  0  0  0
  -24.8088    1.4283   30.5507 C   0  0  0  0  0  0  0  0  0  0  0  0
  1  2  1  0
  1  3  1  0
  3  4  1  0
  2  5  1  0
  5  6  1  0
  3  7  1  0
  6  7  1  0
  4  8  2  3
  8  9  1  0
  9 10  2  3
 10 11  1  0
 11 12  2  0
M  END

$$$$
