No_1267-gen_results/8p0m/2024-11-27-11-27-31/
     RDKit          3D

 20 23  0  0  0  0  0  0  0  0999 V2000
  -28.0162   -0.8135   28.8779 C   0  0  0  0  0  0  0  0  0  0  0  0
  -28.4690   -0.7850   29.8287 C   0  0  0  0  0  0  0  0  0  0  0  0
  -26.5042   -0.7777   28.8766 C   0  0  0  0  0  0  0  0  0  0  0  0
  -25.8103   -0.8531   30.1028 C   0  0  0  0  0  0  0  0  0  0  0  0
  -27.9906   -0.8916   31.2257 C   0  0  0  0  0  0  0  0  0  0  0  0
  -26.6042   -0.8676   31.2652 C   0  0  0  0  0  0  0  0  0  0  0  0
  -29.9808   -0.8491   30.0372 N   0  0  0  0  0  0  0  0  0  0  0  0
  -30.7032   -0.0242   29.3095 C   0  0  0  0  0  0  0  0  0  0  0  0
  -30.3328    0.9349   28.7702 C   0  0  0  0  0  0  0  0  0  0  0  0
  -31.2226    1.7766   27.8574 C   0  0  0  0  0  0  0  0  0  0  0  0
  -30.8119    2.9011   27.1540 C   0  0  0  0  0  0  0  0  0  0  0  0
  -29.4137    3.2793   27.2007 C   0  0  0  0  0  0  0  0  0  0  0  0
  -28.5538    2.4771   27.9637 C   0  0  0  0  0  0  0  0  0  0  0  0
  -28.9509    1.3871   28.6742 C   0  0  0  0  0  0  0  0  0  0  0  0
  -31.9773   -0.1999   29.5100 O   0  0  0  0  0  0  0  0  0  0  0  0
  -27.8827    0.7613   29.0542 O   0  0  0  0  0  0  0  0  0  0  0  0
  -25.6305   -0.8275   27.7008 C   0  0  0  0  0  0  0  0  0  0  0  0
  -24.2744   -0.6864   27.8421 C   0  0  0  0  0  0  0  0  0  0  0  0
  -23.6258   -0.8161   29.1453 C   0  0  0  0  0  0  0  0  0  0  0  0
  -24.4081   -0.8902   30.2191 C   0  0  0  0  0  0  0  0  0  0  0  0
  2  7  1  0
  7  8  1  0
  8  9  1  0
  8 15  2  0
  1 16  1  0
 14 16  1  0
  9 10  2  0
 10 11  1  0
 11 12  2  0
 12 13  1  0
 13 14  2  0
 14  9  1  0
  1  2  1  0
  2  5  2  0
  5  6  1  0
  6  4  2  0
  3  1  2  0
  3  4  1  0
  4 20  1  0
 20 19  2  0
 19 18  1  0
 18 17  2  0
 17  3  1  0
M  END

$$$$
