No_1144-gen_results/8p0m/2024-11-27-11-27-31/
     RDKit          3D

 32 34  0  0  0  0  0  0  0  0999 V2000
  -28.0162   -0.8135   28.8779 C   0  0  0  0  0  0  0  0  0  0  0  0
  -28.4690   -0.7850   29.8287 C   0  0  0  0  0  0  0  0  0  0  0  0
  -28.1816    0.4277   28.1134 C   0  0  0  0  0  0  0  0  0  0  0  0
  -27.4498    0.6435   26.8500 C   0  0  0  0  0  0  0  0  0  0  0  0
  -26.4529    0.9939   26.6681 C   0  0  0  0  0  0  0  0  0  0  0  0
  -25.1812    0.8624   26.8165 C   0  0  0  0  0  0  0  0  0  0  0  0
  -24.2036    1.0464   27.4866 C   0  0  0  0  0  0  0  0  0  0  0  0
  -29.4367    0.0780   30.4436 C   0  0  0  0  0  0  0  0  0  0  0  0
  -23.2068    1.1720   27.8982 C   0  0  0  0  0  0  0  0  0  0  0  0
  -29.6775    1.1885   29.7341 C   0  0  0  0  0  0  0  0  0  0  0  0
  -29.0585    1.3972   28.5508 C   0  0  0  0  0  0  0  0  0  0  0  0
  -21.9511    1.0728   28.5269 C   0  0  0  0  0  0  0  0  0  0  0  0
  -28.3646    0.2102   25.7067 C   0  0  0  0  0  0  0  0  0  0  0  0
  -28.4589    1.1036   24.7132 C   0  0  0  0  0  0  0  0  0  0  0  0
  -26.5028    2.5526   26.2212 C   0  0  0  0  0  0  0  0  0  0  0  0
  -27.4766    2.2909   24.8367 C   0  0  0  0  0  0  0  0  0  0  0  0
  -30.6119    2.2594   30.2785 C   0  0  0  0  0  0  0  0  0  0  0  0
  -30.8752    2.2814   31.3937 F   0  0  0  0  0  0  0  0  0  0  0  0
  -30.0314    3.4660   29.9073 F   0  0  0  0  0  0  0  0  0  0  0  0
  -31.7237    2.1834   29.4391 F   0  0  0  0  0  0  0  0  0  0  0  0
  -28.2741   -2.0961   30.8047 C   0  0  0  0  0  0  0  0  0  0  0  0
  -27.5930   -2.9828   30.4227 O   0  0  0  0  0  0  0  0  0  0  0  0
  -29.0439   -2.2362   31.8980 O   0  0  0  0  0  0  0  0  0  0  0  0
  -20.9436    0.8458   29.3211 C   0  0  0  0  0  0  0  0  0  0  0  0
  -29.3207    1.1132   23.6732 C   0  0  0  0  0  0  0  0  0  0  0  0
  -30.6521    1.4583   24.0279 C   0  0  0  0  0  0  0  0  0  0  0  0
  -31.0758    2.1885   24.6257 C   0  0  0  0  0  0  0  0  0  0  0  0
  -32.5371    2.5358   24.8855 C   0  0  0  0  0  0  0  0  0  0  0  0
  -33.3980    1.8341   24.1630 C   0  0  0  0  0  0  0  0  0  0  0  0
  -32.9609    0.9067   23.2412 C   0  0  0  0  0  0  0  0  0  0  0  0
  -31.6001    0.6817   23.0830 C   0  0  0  0  0  0  0  0  0  0  0  0
  -20.1685   -0.1838   29.3781 N   0  0  0  0  0  0  0  0  0  0  0  0
  3  4  1  0
  5  6  1  0
  6  7  2  3
  7  9  1  0
  9 12  3  0
 10 17  1  0
 17 18  1  0
 17 19  1  0
 17 20  1  0
  2 21  1  0
 21 22  2  0
 21 23  1  0
 12 24  1  0
 14 25  1  0
 25 26  1  0
 24 32  1  0
  4  5  2  0
  5 15  1  0
 15 16  2  0
 16 14  1  0
 14 13  2  0
 13  4  1  0
 26 27  2  0
 27 28  1  0
 28 29  2  0
 29 30  1  0
 30 31  2  0
 31 26  1  0
  1  2  2  0
  2  8  1  0
  8 10  2  0
 10 11  1  0
 11  3  2  0
  3  1  1  0
M  END

$$$$
