No_1674-gen_results/8p0m/2024-11-27-11-27-31/
     RDKit          3D

 16 17  0  0  0  0  0  0  0  0999 V2000
  -28.0162   -0.8135   28.8779 C   0  0  0  0  0  0  0  0  0  0  0  0
  -27.0636   -0.1190   28.6079 C   0  0  0  0  0  0  0  0  0  0  0  0
  -27.0010    0.6913   27.4910 C   0  0  0  0  0  0  0  0  0  0  0  0
  -27.1778    1.9037   27.5632 C   0  0  0  0  0  0  0  0  0  0  0  0
  -28.0594   -1.3960   30.2136 C   0  0  0  0  0  0  0  0  0  0  0  0
  -29.1724   -2.2387   30.6532 C   0  0  0  0  0  0  0  0  0  0  0  0
  -25.7498   -0.2714   29.3838 C   0  0  0  0  0  0  0  0  0  0  0  0
  -25.7765   -1.0135   30.5810 C   0  0  0  0  0  0  0  0  0  0  0  0
  -26.9089   -1.6513   30.9865 C   0  0  0  0  0  0  0  0  0  0  0  0
  -27.1411    2.7922   26.3662 C   0  0  0  0  0  0  0  0  0  0  0  0
  -26.8949    2.2095   25.1146 C   0  0  0  0  0  0  0  0  0  0  0  0
  -26.7025    0.1610   26.1466 C   0  0  0  0  0  0  0  0  0  0  0  0
  -26.6528    0.8898   25.0164 C   0  0  0  0  0  0  0  0  0  0  0  0
  -30.1166   -1.6891   30.8450 F   0  0  0  0  0  0  0  0  0  0  0  0
  -29.1187   -3.4820   30.5532 F   0  0  0  0  0  0  0  0  0  0  0  0
  -24.3970    0.5958   28.9208 Cl  0  0  0  0  0  0  0  0  0  0  0  0
  2  3  1  0
  6 14  1  0
  6 15  1  0
  7 16  1  0
  6  5  1  0
  1  2  2  0
  2  7  1  0
  7  8  2  0
  8  9  1  0
  9  5  2  0
  5  1  1  0
  3  4  2  0
  4 10  1  0
 10 11  2  0
 11 13  1  0
 13 12  2  0
 12  3  1  0
M  END

$$$$
