No_1595-gen_results/8p0m/2024-11-27-11-27-31/
     RDKit          3D

 13 14  0  0  0  0  0  0  0  0999 V2000
  -28.0162   -0.8135   28.8779 C   0  0  0  0  0  0  0  0  0  0  0  0
  -28.4690   -0.7850   29.8287 C   0  0  0  0  0  0  0  0  0  0  0  0
  -26.5455   -0.8762   28.8500 C   0  0  0  0  0  0  0  0  0  0  0  0
  -25.8041   -1.0324   30.0571 C   0  0  0  0  0  0  0  0  0  0  0  0
  -26.5373   -1.0386   31.2171 C   0  0  0  0  0  0  0  0  0  0  0  0
  -27.8843   -0.9532   31.1862 C   0  0  0  0  0  0  0  0  0  0  0  0
  -24.3655   -1.1134   30.0483 C   0  0  0  0  0  0  0  0  0  0  0  0
  -23.6925    0.1188   29.9185 C   0  0  0  0  0  0  0  0  0  0  0  0
  -22.3936    0.1820   29.3480 C   0  0  0  0  0  0  0  0  0  0  0  0
  -21.7660   -1.0836   29.1002 C   0  0  0  0  0  0  0  0  0  0  0  0
  -23.6501   -1.9106   30.9707 C   0  0  0  0  0  0  0  0  0  0  0  0
  -24.0433   -2.0266   28.6445 C   0  0  0  0  0  0  0  0  0  0  0  0
  -22.5602   -2.1961   28.6664 C   0  0  0  0  0  0  0  0  0  0  0  0
  4  7  1  0
  7  8  1  0
  9 10  1  0
  7 11  1  0
  7 12  1  0
 10 13  1  0
 12 13  1  0
  8  9  1  0
  1  2  2  0
  2  6  1  0
  6  5  2  0
  5  4  1  0
  4  3  2  0
  3  1  1  0
M  END

$$$$
