No_1892-gen_results/8p0m/2024-11-27-11-27-31/
     RDKit          3D

 13 13  0  0  0  0  0  0  0  0999 V2000
  -28.0162   -0.8135   28.8779 C   0  0  0  0  0  0  0  0  0  0  0  0
  -27.0636   -0.1189   28.6079 C   0  0  0  0  0  0  0  0  0  0  0  0
  -26.9287    1.1713   29.0083 C   0  0  0  0  0  0  0  0  0  0  0  0
  -25.7702    2.0341   28.6884 C   0  0  0  0  0  0  0  0  0  0  0  0
  -24.7141    1.4431   27.9188 C   0  0  0  0  0  0  0  0  0  0  0  0
  -24.8590    0.0783   27.5836 C   0  0  0  0  0  0  0  0  0  0  0  0
  -25.9647   -0.6606   27.9164 C   0  0  0  0  0  0  0  0  0  0  0  0
  -28.7024   -0.6427   30.0750 N   0  0  0  0  0  0  0  0  0  0  0  0
  -29.5716   -1.0828   30.6278 C   0  0  0  0  0  0  0  0  0  0  0  0
  -30.3910   -2.3862   29.9521 Cl  0  0  0  0  0  0  0  0  0  0  0  0
  -23.5301    2.1684   27.5493 C   0  0  0  0  0  0  0  0  0  0  0  0
  -22.5065    1.7730   27.2815 O   0  0  0  0  0  0  0  0  0  0  0  0
  -23.8614    3.4383   27.0527 O   0  0  0  0  0  0  0  0  0  0  0  0
  1  2  1  0
  1  8  1  0
  8  9  2  3
  9 10  1  0
  5 11  1  0
 11 12  2  0
 11 13  1  0
  2  3  2  0
  3  4  1  0
  4  5  2  0
  5  6  1  0
  6  7  2  0
  7  2  1  0
M  END

$$$$
