No_1355-gen_results/8p0m/2024-11-27-11-27-31/
     RDKit          3D

 28 30  0  0  0  0  0  0  0  0999 V2000
  -28.0162   -0.8135   28.8779 C   0  0  0  0  0  0  0  0  0  0  0  0
  -28.4690   -0.7850   29.8287 C   0  0  0  0  0  0  0  0  0  0  0  0
  -28.1816    0.4277   28.1134 C   0  0  0  0  0  0  0  0  0  0  0  0
  -27.4498    0.6435   26.8500 C   0  0  0  0  0  0  0  0  0  0  0  0
  -27.8596    1.4573   25.9076 C   0  0  0  0  0  0  0  0  0  0  0  0
  -29.4263    0.1097   30.4178 C   0  0  0  0  0  0  0  0  0  0  0  0
  -29.6233    1.2198   29.7351 C   0  0  0  0  0  0  0  0  0  0  0  0
  -28.9609    1.4529   28.5513 C   0  0  0  0  0  0  0  0  0  0  0  0
  -28.7869    2.5467   26.3167 C   0  0  0  0  0  0  0  0  0  0  0  0
  -29.1419    2.6713   27.3685 C   0  0  0  0  0  0  0  0  0  0  0  0
  -30.5273    2.2442   30.2005 C   0  0  0  0  0  0  0  0  0  0  0  0
  -30.0837    3.0829   30.8779 O   0  0  0  0  0  0  0  0  0  0  0  0
  -31.8119    2.1532   29.7597 N   0  0  0  0  0  0  0  0  0  0  0  0
  -32.4142    1.1689   29.0164 C   0  0  0  0  0  0  0  0  0  0  0  0
  -32.7441    0.1174   29.3932 C   0  0  0  0  0  0  0  0  0  0  0  0
  -33.1963   -0.9652   28.5336 C   0  0  0  0  0  0  0  0  0  0  0  0
  -32.6094    1.5155   27.6247 C   0  0  0  0  0  0  0  0  0  0  0  0
  -33.0696    0.5919   26.7166 C   0  0  0  0  0  0  0  0  0  0  0  0
  -33.4081   -0.6590   27.2129 C   0  0  0  0  0  0  0  0  0  0  0  0
  -32.7998    3.1950   30.2860 C   0  0  0  0  0  0  0  0  0  0  0  0
  -33.9232   -1.7267   26.3094 C   0  0  0  0  0  0  0  0  0  0  0  0
  -34.9505   -1.6882   25.9294 C   0  0  0  0  0  0  0  0  0  0  0  0
  -32.9413   -2.7633   25.8862 C   0  0  0  0  0  0  0  0  0  0  0  0
  -32.5028   -3.7082   26.6228 C   0  0  0  0  0  0  0  0  0  0  0  0
  -31.6192   -2.0554   25.2430 C   0  0  0  0  0  0  0  0  0  0  0  0
  -33.2048   -3.9422   27.5491 F   0  0  0  0  0  0  0  0  0  0  0  0
  -32.3065   -4.9120   25.9667 F   0  0  0  0  0  0  0  0  0  0  0  0
  -31.2170   -3.5405   27.1867 F   0  0  0  0  0  0  0  0  0  0  0  0
  7 11  1  0
 11 12  2  0
 11 13  1  0
 13 14  1  0
 13 20  1  0
 19 21  1  0
 21 22  1  0
 21 23  1  0
 23 24  1  0
 23 25  1  0
 24 26  1  0
 24 27  1  0
 24 28  1  0
  3  4  2  0
  4  5  1  0
  5  9  2  0
  9 10  1  0
 10  8  2  0
 14 15  2  0
 15 16  1  0
 16 19  2  0
 19 18  1  0
 18 17  2  0
 17 14  1  0
  1  2  2  0
  2  6  1  0
  6  7  2  0
  7  8  1  0
  8  3  1  0
  3  1  1  0
M  END

$$$$
