No_1874-gen_results/8p0m/2024-11-27-11-27-31/
     RDKit          3D

 35 37  0  0  0  0  0  0  0  0999 V2000
  -28.0162   -0.8135   28.8779 C   0  0  0  0  0  0  0  0  0  0  0  0
  -27.0636   -0.1190   28.6079 C   0  0  0  0  0  0  0  0  0  0  0  0
  -26.9716    0.7139   27.5060 C   0  0  0  0  0  0  0  0  0  0  0  0
  -28.1053    0.7744   26.6421 C   0  0  0  0  0  0  0  0  0  0  0  0
  -29.2041    0.1179   27.0477 C   0  0  0  0  0  0  0  0  0  0  0  0
  -29.2127   -0.6088   28.1281 C   0  0  0  0  0  0  0  0  0  0  0  0
  -30.3709    0.2326   26.1381 C   0  0  0  0  0  0  0  0  0  0  0  0
  -30.9682    1.1917   26.0009 N   0  0  0  0  0  0  0  0  0  0  0  0
  -30.4532   -0.7398   25.2508 O   0  0  0  0  0  0  0  0  0  0  0  0
  -30.9325    2.3903   26.9205 C   0  0  0  0  0  0  0  0  0  0  0  0
  -25.6691    1.4037   27.1208 C   0  0  0  0  0  0  0  0  0  0  0  0
  -25.2468    2.4449   28.0583 C   0  0  0  0  0  0  0  0  0  0  0  0
  -24.1331    3.1717   27.5970 C   0  0  0  0  0  0  0  0  0  0  0  0
  -24.9454    1.1541   26.0347 C   0  0  0  0  0  0  0  0  0  0  0  0
  -23.8015    1.7479   25.6359 C   0  0  0  0  0  0  0  0  0  0  0  0
  -23.3370    2.8234   26.4151 C   0  0  0  0  0  0  0  0  0  0  0  0
  -25.9111    2.8980   29.2270 C   0  0  0  0  0  0  0  0  0  0  0  0
  -27.0497    2.6445   29.3195 O   0  0  0  0  0  0  0  0  0  0  0  0
  -25.2585    3.6097   29.9763 O   0  0  0  0  0  0  0  0  0  0  0  0
  -30.9729    3.4502   26.8208 C   0  0  0  0  0  0  0  0  0  0  0  0
  -30.7740    4.3910   27.2798 C   0  0  0  0  0  0  0  0  0  0  0  0
  -30.4731    4.3389   28.7792 C   0  0  0  0  0  0  0  0  0  0  0  0
  -30.4154    3.0032   29.2382 C   0  0  0  0  0  0  0  0  0  0  0  0
  -30.5139    2.0062   28.3310 C   0  0  0  0  0  0  0  0  0  0  0  0
  -32.1790    1.3051   25.1408 C   0  0  0  0  0  0  0  0  0  0  0  0
  -28.1437   -1.6006   30.1629 C   0  0  0  0  0  0  0  0  0  0  0  0
  -28.8162   -1.5561   30.9986 O   0  0  0  0  0  0  0  0  0  0  0  0
  -26.9796   -2.3674   30.2503 O   0  0  0  0  0  0  0  0  0  0  0  0
  -27.1846   -3.7409   30.0448 C   0  0  0  0  0  0  0  0  0  0  0  0
  -26.1605   -4.4951   29.3981 C   0  0  0  0  0  0  0  0  0  0  0  0
  -25.0679   -3.7092   29.0280 C   0  0  0  0  0  0  0  0  0  0  0  0
  -24.1175   -3.2297   29.6913 C   0  0  0  0  0  0  0  0  0  0  0  0
  -23.1416   -2.2892   29.1193 C   0  0  0  0  0  0  0  0  0  0  0  0
  -23.7899   -1.0689   28.5590 C   0  0  0  0  0  0  0  0  0  0  0  0
  -28.3434   -4.3726   30.6188 C   0  0  0  0  0  0  0  0  0  0  0  0
  5  7  1  0
  7  8  1  0
  7  9  2  0
  8 10  1  0
  3 11  1  0
 12 17  1  0
 17 18  2  0
 17 19  1  0
  8 25  1  0
  1 26  1  0
 26 27  2  0
 26 28  1  0
 28 29  1  0
 29 30  1  0
 30 31  1  0
 31 32  1  0
 32 33  2  3
 33 34  1  0
 29 35  1  0
  1  2  2  0
  2  3  1  0
  3  4  2  0
  4  5  1  0
  5  6  2  0
  6  1  1  0
 10 20  2  0
 20 21  1  0
 21 22  2  0
 22 23  1  0
 23 24  2  0
 24 10  1  0
 11 12  2  0
 12 13  1  0
 13 16  2  0
 16 15  1  0
 15 14  2  0
 14 11  1  0
M  END

$$$$
