No_1050-gen_results/8p0m/2024-11-27-11-27-31/
     RDKit          3D

 12 13  0  0  0  0  0  0  0  0999 V2000
  -28.0162   -0.8135   28.8779 C   0  0  0  0  0  0  0  0  0  0  0  0
  -27.0636   -0.1189   28.6079 C   0  0  0  0  0  0  0  0  0  0  0  0
  -26.9515    1.1286   28.9566 N   0  0  0  0  0  0  0  0  0  0  0  0
  -29.1088   -0.2102   29.6318 C   0  0  0  0  0  0  0  0  0  0  0  0
  -30.1959   -1.0433   29.9956 C   0  0  0  0  0  0  0  0  0  0  0  0
  -29.0156    1.0500   30.1750 C   0  0  0  0  0  0  0  0  0  0  0  0
  -27.8658    1.7664   29.7225 C   0  0  0  0  0  0  0  0  0  0  0  0
  -30.0485   -2.2503   30.5301 C   0  0  0  0  0  0  0  0  0  0  0  0
  -28.6947   -2.9131   30.3071 C   0  0  0  0  0  0  0  0  0  0  0  0
  -27.6893   -2.1772   29.6255 C   0  0  0  0  0  0  0  0  0  0  0  0
  -26.0433   -0.5914   27.8466 F   0  0  0  0  0  0  0  0  0  0  0  0
  -28.5208   -4.2358   30.5038 O   0  0  0  0  0  0  0  0  0  0  0  0
  2 11  1  0
  9 12  1  0
  4  5  1  0
  5  8  2  0
  8  9  1  0
  9 10  2  0
 10  1  1  0
  1  2  2  0
  2  3  1  0
  3  7  2  0
  7  6  1  0
  6  4  2  0
  4  1  1  0
M  END

$$$$
