No_1011-gen_results/8p0m/2024-11-27-11-27-31/
     RDKit          3D

 17 18  0  0  0  0  0  0  0  0999 V2000
  -28.0162   -0.8135   28.8779 C   0  0  0  0  0  0  0  0  0  0  0  0
  -28.4690   -0.7850   29.8287 C   0  0  0  0  0  0  0  0  0  0  0  0
  -26.5455   -0.8762   28.8500 C   0  0  0  0  0  0  0  0  0  0  0  0
  -25.8041   -1.0324   30.0571 C   0  0  0  0  0  0  0  0  0  0  0  0
  -27.9437   -0.9869   31.2075 C   0  0  0  0  0  0  0  0  0  0  0  0
  -26.5825   -1.0386   31.2231 C   0  0  0  0  0  0  0  0  0  0  0  0
  -29.9267   -0.7257   29.8772 O   0  0  0  0  0  0  0  0  0  0  0  0
  -30.5256    0.4218   30.2407 C   0  0  0  0  0  0  0  0  0  0  0  0
  -31.6092    0.5419   29.9850 C   0  0  0  0  0  0  0  0  0  0  0  0
  -32.3220    1.8295   30.2977 C   0  0  0  0  0  0  0  0  0  0  0  0
  -33.6607    2.1325   30.0335 C   0  0  0  0  0  0  0  0  0  0  0  0
  -31.4133    2.7967   30.9236 C   0  0  0  0  0  0  0  0  0  0  0  0
  -30.1069    2.5317   31.1657 C   0  0  0  0  0  0  0  0  0  0  0  0
  -29.5879    1.3776   30.8291 C   0  0  0  0  0  0  0  0  0  0  0  0
  -34.5016    1.9833   30.9826 C   0  0  0  0  0  0  0  0  0  0  0  0
  -35.9374    2.2157   30.7466 C   0  0  0  0  0  0  0  0  0  0  0  0
  -36.2738    2.5451   29.4325 C   0  0  0  0  0  0  0  0  0  0  0  0
  2  7  1  0
  7  8  1  0
 11 15  1  0
 15 16  2  3
 16 17  1  0
 11 10  1  0
  8  9  2  0
  9 10  1  0
 10 12  2  0
 12 13  1  0
 13 14  2  0
 14  8  1  0
  1  2  2  0
  2  5  1  0
  5  6  2  0
  6  4  1  0
  4  3  2  0
  3  1  1  0
M  END

$$$$
