No_1768-gen_results/8p0m/2024-11-27-11-27-31/
     RDKit          3D

 27 30  0  0  0  0  0  0  0  0999 V2000
  -28.0162   -0.8135   28.8779 C   0  0  0  0  0  0  0  0  0  0  0  0
  -27.0636   -0.1189   28.6079 C   0  0  0  0  0  0  0  0  0  0  0  0
  -27.0010    0.6913   27.4910 C   0  0  0  0  0  0  0  0  0  0  0  0
  -25.8548    1.4825   27.0830 C   0  0  0  0  0  0  0  0  0  0  0  0
  -24.6901    1.4526   27.8807 C   0  0  0  0  0  0  0  0  0  0  0  0
  -24.7379    0.6010   29.0416 C   0  0  0  0  0  0  0  0  0  0  0  0
  -25.8234   -0.1688   29.3887 C   0  0  0  0  0  0  0  0  0  0  0  0
  -29.2150   -0.1726   29.0132 N   0  0  0  0  0  0  0  0  0  0  0  0
  -30.2463   -0.7736   29.6388 C   0  0  0  0  0  0  0  0  0  0  0  0
  -23.5190    2.2034   27.5550 C   0  0  0  0  0  0  0  0  0  0  0  0
  -23.4378    2.7950   26.4513 O   0  0  0  0  0  0  0  0  0  0  0  0
  -22.4965    2.2757   28.3531 O   0  0  0  0  0  0  0  0  0  0  0  0
  -30.4252   -0.8075   30.8405 C   0  0  0  0  0  0  0  0  0  0  0  0
  -29.9481    0.2504   31.5569 C   0  0  0  0  0  0  0  0  0  0  0  0
  -29.8873    0.2418   33.0034 C   0  0  0  0  0  0  0  0  0  0  0  0
  -29.2593    1.3158   33.7399 C   0  0  0  0  0  0  0  0  0  0  0  0
  -28.6929    2.4013   33.0041 C   0  0  0  0  0  0  0  0  0  0  0  0
  -28.7186    2.3700   31.6061 C   0  0  0  0  0  0  0  0  0  0  0  0
  -29.2647    1.3234   30.9531 C   0  0  0  0  0  0  0  0  0  0  0  0
  -29.2858    1.2242   29.1409 C   0  0  0  0  0  0  0  0  0  0  0  0
  -28.0307    3.5242   30.9022 C   0  0  0  0  0  0  0  0  0  0  0  0
  -28.2223    4.5655   31.0227 C   0  0  0  0  0  0  0  0  0  0  0  0
  -26.9224    3.0499   29.9571 C   0  0  0  0  0  0  0  0  0  0  0  0
  -26.1902    4.0734   29.3253 C   0  0  0  0  0  0  0  0  0  0  0  0
  -26.4977    5.4061   29.5498 C   0  0  0  0  0  0  0  0  0  0  0  0
  -27.5249    5.7230   30.4500 C   0  0  0  0  0  0  0  0  0  0  0  0
  -31.0611   -1.4812   28.8616 O   0  0  0  0  0  0  0  0  0  0  0  0
  1  2  1  0
  1  8  1  0
  8  9  1  0
  5 10  1  0
 10 11  2  0
 10 12  1  0
  9 13  1  0
  8 20  1  0
 19 20  1  0
 18 21  1  0
  9 27  2  0
 13 14  1  0
 21 22  2  0
 22 26  1  0
 26 25  2  0
 25 24  1  0
 24 23  2  0
 23 21  1  0
  2  3  2  0
  3  4  1  0
  4  5  2  0
  5  6  1  0
  6  7  2  0
  7  2  1  0
 14 15  2  0
 15 16  1  0
 16 17  2  0
 17 18  1  0
 18 19  2  0
 19 14  1  0
M  END

$$$$
