No_1693-gen_results/8p0m/2024-11-27-11-27-31/
     RDKit          3D

 19 20  0  0  0  0  0  0  0  0999 V2000
  -28.0162   -0.8135   28.8779 C   0  0  0  0  0  0  0  0  0  0  0  0
  -28.4690   -0.7850   29.8287 C   0  0  0  0  0  0  0  0  0  0  0  0
  -27.1356    0.2359   28.5352 C   0  0  0  0  0  0  0  0  0  0  0  0
  -26.8745    1.2825   29.3982 C   0  0  0  0  0  0  0  0  0  0  0  0
  -28.3613    0.1987   30.9244 C   0  0  0  0  0  0  0  0  0  0  0  0
  -27.5277    1.2234   30.6356 C   0  0  0  0  0  0  0  0  0  0  0  0
  -26.3987    0.2949   27.2279 C   0  0  0  0  0  0  0  0  0  0  0  0
  -25.1481    0.1287   27.3794 N   0  0  0  0  0  0  0  0  0  0  0  0
  -27.0030    0.4900   26.0157 C   0  0  0  0  0  0  0  0  0  0  0  0
  -28.3398    0.7048   25.8353 C   0  0  0  0  0  0  0  0  0  0  0  0
  -29.1227    1.0151   26.9142 C   0  0  0  0  0  0  0  0  0  0  0  0
  -30.5718    1.2867   26.5466 C   0  0  0  0  0  0  0  0  0  0  0  0
  -30.9355    1.1571   25.2572 C   0  0  0  0  0  0  0  0  0  0  0  0
  -28.9826    0.7198   24.5301 C   0  0  0  0  0  0  0  0  0  0  0  0
  -30.1735    0.9569   24.2365 C   0  0  0  0  0  0  0  0  0  0  0  0
  -26.0821    0.4437   24.8907 C   0  0  0  0  0  0  0  0  0  0  0  0
  -24.3014    0.8759   28.1611 C   0  0  0  0  0  0  0  0  0  0  0  0
  -22.9463    0.4733   28.3643 C   0  0  0  0  0  0  0  0  0  0  0  0
  -21.8912    0.9879   27.6816 N   0  0  0  0  0  0  0  0  0  0  0  0
  3  7  1  0
  7  8  1  0
  7  9  1  0
  9 10  1  0
  9 16  1  0
  8 17  1  0
 17 18  2  0
 18 19  2  0
 10 11  2  0
 11 12  1  0
 12 13  2  0
 13 15  1  0
 15 14  2  0
 14 10  1  0
  1  2  2  0
  2  5  1  0
  5  6  2  0
  6  4  1  0
  4  3  2  0
  3  1  1  0
M  END

$$$$
