No_1075-gen_results/8p0m/2024-11-27-11-27-31/
     RDKit          3D

 24 25  0  0  0  0  0  0  0  0999 V2000
  -28.0162   -0.8135   28.8779 C   0  0  0  0  0  0  0  0  0  0  0  0
  -27.0636   -0.1189   28.6079 C   0  0  0  0  0  0  0  0  0  0  0  0
  -26.9716    0.7139   27.5060 C   0  0  0  0  0  0  0  0  0  0  0  0
  -28.1053    0.7744   26.6421 C   0  0  0  0  0  0  0  0  0  0  0  0
  -29.2008    0.1044   27.0527 C   0  0  0  0  0  0  0  0  0  0  0  0
  -29.2096   -0.6029   28.1853 C   0  0  0  0  0  0  0  0  0  0  0  0
  -30.2851    0.2916   26.0027 C   0  0  0  0  0  0  0  0  0  0  0  0
  -30.9770    1.0934   26.0318 O   0  0  0  0  0  0  0  0  0  0  0  0
  -30.4240   -0.7973   25.2032 O   0  0  0  0  0  0  0  0  0  0  0  0
  -25.7102   -0.2089   29.4469 C   0  0  0  0  0  0  0  0  0  0  0  0
  -24.6245   -0.5947   28.9338 N   0  0  0  0  0  0  0  0  0  0  0  0
  -23.4742   -0.8027   29.4458 C   0  0  0  0  0  0  0  0  0  0  0  0
  -22.4648   -0.9201   28.4606 C   0  0  0  0  0  0  0  0  0  0  0  0
  -23.4752   -1.9729   30.4008 C   0  0  0  0  0  0  0  0  0  0  0  0
  -23.1168    0.5344   30.3666 C   0  0  0  0  0  0  0  0  0  0  0  0
  -25.9582   -0.6068   30.6713 O   0  0  0  0  0  0  0  0  0  0  0  0
  -24.5336   -0.2078   27.4388 C   0  0  0  0  0  0  0  0  0  0  0  0
  -22.6790    0.1505   27.5330 C   0  0  0  0  0  0  0  0  0  0  0  0
  -30.3374   -1.2786   28.5057 O   0  0  0  0  0  0  0  0  0  0  0  0
  -30.4545   -1.7053   29.8094 C   0  0  0  0  0  0  0  0  0  0  0  0
  -31.8461   -1.8660   30.1383 C   0  0  0  0  0  0  0  0  0  0  0  0
  -32.0803   -2.2490   31.2768 N   0  0  0  0  0  0  0  0  0  0  0  0
  -31.1062   -2.5796   32.0054 C   0  0  0  0  0  0  0  0  0  0  0  0
  -31.4158   -3.1604   33.6980 Cl  0  0  0  0  0  0  0  0  0  0  0  0
  5  7  1  0
  7  8  2  0
  7  9  1  0
  2 10  1  0
 10 11  1  0
 11 12  1  0
 12 13  1  0
 12 14  1  0
 12 15  1  0
 10 16  2  0
 11 17  1  0
 13 18  1  0
 17 18  1  0
  6 19  1  0
 19 20  1  0
 20 21  1  0
 21 22  1  0
 22 23  2  3
 23 24  1  0
  1  2  2  0
  2  3  1  0
  3  4  2  0
  4  5  1  0
  5  6  2  0
  6  1  1  0
M  END

$$$$
