No_1612-gen_results/8p0m/2024-11-27-11-27-31/
     RDKit          3D

 35 39  0  0  0  0  0  0  0  0999 V2000
  -28.0162   -0.8135   28.8779 C   0  0  0  0  0  0  0  0  0  0  0  0
  -28.4690   -0.7850   29.8287 C   0  0  0  0  0  0  0  0  0  0  0  0
  -26.5042   -0.7777   28.8766 C   0  0  0  0  0  0  0  0  0  0  0  0
  -25.8103   -0.8531   30.1028 C   0  0  0  0  0  0  0  0  0  0  0  0
  -27.9906   -0.8916   31.2257 C   0  0  0  0  0  0  0  0  0  0  0  0
  -26.6042   -0.8676   31.2652 C   0  0  0  0  0  0  0  0  0  0  0  0
  -30.0739   -0.8360   29.8615 C   0  0  0  0  0  0  0  0  0  0  0  0
  -30.5608   -0.4417   28.9417 O   0  0  0  0  0  0  0  0  0  0  0  0
  -30.7486   -1.4028   30.9473 N   0  0  0  0  0  0  0  0  0  0  0  0
  -32.1750   -1.4682   30.8889 C   0  0  0  0  0  0  0  0  0  0  0  0
  -32.6810   -2.3081   31.6133 C   0  0  0  0  0  0  0  0  0  0  0  0
  -31.9587   -3.0280   32.6935 C   0  0  0  0  0  0  0  0  0  0  0  0
  -30.5517   -2.9318   32.6822 C   0  0  0  0  0  0  0  0  0  0  0  0
  -29.9425   -2.2353   31.7810 C   0  0  0  0  0  0  0  0  0  0  0  0
  -28.6175   -1.9640   31.9624 N   0  0  0  0  0  0  0  0  0  0  0  0
  -25.6198   -0.6657   27.6780 C   0  0  0  0  0  0  0  0  0  0  0  0
  -25.9249    0.3357   26.7139 C   0  0  0  0  0  0  0  0  0  0  0  0
  -25.5272    1.3748   26.5748 C   0  0  0  0  0  0  0  0  0  0  0  0
  -25.7977    2.2336   25.3755 C   0  0  0  0  0  0  0  0  0  0  0  0
  -26.9950    2.3020   25.2001 C   0  0  0  0  0  0  0  0  0  0  0  0
  -27.8259    1.1828   25.3160 C   0  0  0  0  0  0  0  0  0  0  0  0
  -27.3116    0.1681   26.1691 C   0  0  0  0  0  0  0  0  0  0  0  0
  -29.1588    1.0880   24.7951 C   0  0  0  0  0  0  0  0  0  0  0  0
  -30.2192    1.4291   25.6766 C   0  0  0  0  0  0  0  0  0  0  0  0
  -31.5358    1.2123   25.2945 C   0  0  0  0  0  0  0  0  0  0  0  0
  -32.6269    1.4540   26.1298 C   0  0  0  0  0  0  0  0  0  0  0  0
  -32.3633    2.0783   27.3920 C   0  0  0  0  0  0  0  0  0  0  0  0
  -31.0522    2.3984   27.7637 C   0  0  0  0  0  0  0  0  0  0  0  0
  -30.0210    2.0715   26.9649 C   0  0  0  0  0  0  0  0  0  0  0  0
  -29.3119    0.5004   23.5784 C   0  0  0  0  0  0  0  0  0  0  0  0
  -23.9420    1.5344   26.9836 C   0  0  0  0  0  0  0  0  0  0  0  0
  -23.1387    2.3350   26.4984 C   0  0  0  0  0  0  0  0  0  0  0  0
  -21.7756    2.3231   27.0688 C   0  0  0  0  0  0  0  0  0  0  0  0
  -21.4854    1.3595   28.0801 C   0  0  0  0  0  0  0  0  0  0  0  0
  -22.3976    0.5277   28.5944 C   0  0  0  0  0  0  0  0  0  0  0  0
  2  7  1  0
  7  8  2  0
  7  9  1  0
  9 10  1  0
 11 12  1  0
  9 14  1  0
 13 14  1  0
  5 15  1  0
 14 15  1  0
  3 16  1  0
 16 17  1  0
 21 23  1  0
 23 24  1  0
 23 30  1  0
 18 31  1  0
 31 32  1  0
 32 33  2  3
 33 34  1  0
 34 35  2  0
 10 11  1  0
 12 13  1  0
 24 25  2  0
 25 26  1  0
 26 27  2  0
 27 28  1  0
 28 29  2  0
 29 24  1  0
 17 18  2  0
 18 19  1  0
 19 20  2  0
 20 21  1  0
 21 22  2  0
 22 17  1  0
  1  2  2  0
  2  5  1  0
  5  6  2  0
  6  4  1  0
  4  3  2  0
  3  1  1  0
M  END

$$$$
