No_1249-gen_results/8p0m/2024-11-27-11-27-31/
     RDKit          3D

 35 38  0  0  0  0  0  0  0  0999 V2000
  -28.0162   -0.8135   28.8779 C   0  0  0  0  0  0  0  0  0  0  0  0
  -27.0636   -0.1189   28.6079 C   0  0  0  0  0  0  0  0  0  0  0  0
  -27.0010    0.6913   27.4910 C   0  0  0  0  0  0  0  0  0  0  0  0
  -28.1373    0.7363   26.6350 C   0  0  0  0  0  0  0  0  0  0  0  0
  -29.2360    0.0765   27.0690 C   0  0  0  0  0  0  0  0  0  0  0  0
  -30.3815    0.2048   26.2662 C   0  0  0  0  0  0  0  0  0  0  0  0
  -29.1803   -0.6422   28.1830 C   0  0  0  0  0  0  0  0  0  0  0  0
  -30.4107   -0.0071   25.0540 O   0  0  0  0  0  0  0  0  0  0  0  0
  -31.5296    0.7422   26.8013 N   0  0  0  0  0  0  0  0  0  0  0  0
  -32.7445    0.8616   26.0723 C   0  0  0  0  0  0  0  0  0  0  0  0
  -28.0089   -1.7931   30.3474 Cl  0  0  0  0  0  0  0  0  0  0  0  0
  -25.5292    1.5087   27.0299 Cl  0  0  0  0  0  0  0  0  0  0  0  0
  -25.6615   -0.2060   29.4309 C   0  0  0  0  0  0  0  0  0  0  0  0
  -24.8322   -1.1623   29.1656 N   0  0  0  0  0  0  0  0  0  0  0  0
  -24.7853   -2.1892   29.0265 C   0  0  0  0  0  0  0  0  0  0  0  0
  -25.8610   -3.0312   28.9703 N   0  0  0  0  0  0  0  0  0  0  0  0
  -25.6401   -4.4010   29.0320 C   0  0  0  0  0  0  0  0  0  0  0  0
  -24.4233   -4.8840   28.8477 N   0  0  0  0  0  0  0  0  0  0  0  0
  -23.5184   -2.9789   29.0543 C   0  0  0  0  0  0  0  0  0  0  0  0
  -23.3841   -4.1822   28.9283 N   0  0  0  0  0  0  0  0  0  0  0  0
  -23.5417   -0.2670   28.8001 C   0  0  0  0  0  0  0  0  0  0  0  0
  -23.2656    0.7499   29.8442 C   0  0  0  0  0  0  0  0  0  0  0  0
  -24.3353    1.5951   30.3156 C   0  0  0  0  0  0  0  0  0  0  0  0
  -25.5750    0.9865   30.2286 C   0  0  0  0  0  0  0  0  0  0  0  0
  -26.6893    1.7192   30.8811 C   0  0  0  0  0  0  0  0  0  0  0  0
  -27.0928    2.8291   30.5488 C   0  0  0  0  0  0  0  0  0  0  0  0
  -28.1548    3.5278   31.2117 C   0  0  0  0  0  0  0  0  0  0  0  0
  -27.1784    1.0846   32.0690 C   0  0  0  0  0  0  0  0  0  0  0  0
  -28.2046    1.6941   32.8411 C   0  0  0  0  0  0  0  0  0  0  0  0
  -28.6898    2.9286   32.3955 C   0  0  0  0  0  0  0  0  0  0  0  0
  -28.6606    4.8444   30.7408 C   0  0  0  0  0  0  0  0  0  0  0  0
  -29.2290    5.5858   31.2151 O   0  0  0  0  0  0  0  0  0  0  0  0
  -28.5675    4.8580   29.2987 O   0  0  0  0  0  0  0  0  0  0  0  0
  -31.6084    1.2016   28.2064 C   0  0  0  0  0  0  0  0  0  0  0  0
  -32.7402    0.8428   28.8626 C   0  0  0  0  0  0  0  0  0  0  0  0
  5  6  1  0
  6  8  2  0
  6  9  1  0
  9 10  1  0
  1 11  1  0
  3 12  1  0
  2 13  1  0
 13 14  1  0
 14 15  1  0
 14 21  1  0
 21 22  1  0
 13 24  1  0
 23 24  1  0
 24 25  1  0
 27 31  1  0
 31 32  2  0
 31 33  1  0
  9 34  1  0
 34 35  2  0
 23 22  1  0
 15 16  2  0
 16 17  1  0
 17 18  2  0
 18 20  1  0
 20 19  2  0
 19 15  1  0
 25 26  2  0
 26 27  1  0
 27 30  2  0
 30 29  1  0
 29 28  2  0
 28 25  1  0
  1  2  2  0
  2  3  1  0
  3  4  2  0
  4  5  1  0
  5  7  2  0
  7  1  1  0
M  END

$$$$
