No_1615-gen_results/8p0m/2024-11-27-11-27-31/
     RDKit          3D

 13 14  0  0  0  0  0  0  0  0999 V2000
  -28.0162   -0.8135   28.8779 C   0  0  0  0  0  0  0  0  0  0  0  0
  -27.0636   -0.1190   28.6079 C   0  0  0  0  0  0  0  0  0  0  0  0
  -26.9287    1.1713   29.0083 C   0  0  0  0  0  0  0  0  0  0  0  0
  -27.9560    1.7411   29.7840 C   0  0  0  0  0  0  0  0  0  0  0  0
  -29.0569   -0.3271   29.7466 C   0  0  0  0  0  0  0  0  0  0  0  0
  -28.9828    0.9722   30.1516 C   0  0  0  0  0  0  0  0  0  0  0  0
  -25.8907   -0.6263   27.7857 C   0  0  0  0  0  0  0  0  0  0  0  0
  -25.4633    0.1123   26.6815 C   0  0  0  0  0  0  0  0  0  0  0  0
  -26.2851    1.1179   26.2362 C   0  0  0  0  0  0  0  0  0  0  0  0
  -25.6301    1.9474   25.3034 C   0  0  0  0  0  0  0  0  0  0  0  0
  -24.2881    1.7112   24.9870 C   0  0  0  0  0  0  0  0  0  0  0  0
  -23.5140    0.7832   25.6762 C   0  0  0  0  0  0  0  0  0  0  0  0
  -24.1108    0.0946   26.6673 C   0  0  0  0  0  0  0  0  0  0  0  0
  2  7  1  0
  7  8  1  0
  1  2  2  0
  2  3  1  0
  3  4  2  0
  4  6  1  0
  6  5  2  0
  5  1  1  0
  8  9  2  0
  9 10  1  0
 10 11  2  0
 11 12  1  0
 12 13  2  0
 13  8  1  0
M  END

$$$$
