No_1130-gen_results/8p0m/2024-11-27-11-27-31/
     RDKit          3D

 10 10  0  0  0  0  0  0  0  0999 V2000
  -28.0162   -0.8135   28.8779 C   0  0  0  0  0  0  0  0  0  0  0  0
  -27.0636   -0.1189   28.6079 C   0  0  0  0  0  0  0  0  0  0  0  0
  -25.7647   -0.3897   29.0360 C   0  0  0  0  0  0  0  0  0  0  0  0
  -25.5296   -1.5302   29.9014 C   0  0  0  0  0  0  0  0  0  0  0  0
  -24.3236   -1.9076   30.4324 C   0  0  0  0  0  0  0  0  0  0  0  0
  -27.9274   -1.9227   29.7902 C   0  0  0  0  0  0  0  0  0  0  0  0
  -26.5991   -2.2840   30.3806 C   0  0  0  0  0  0  0  0  0  0  0  0
  -23.9823   -1.3988   31.5687 F   0  0  0  0  0  0  0  0  0  0  0  0
  -23.2254   -1.4534   29.5852 F   0  0  0  0  0  0  0  0  0  0  0  0
  -24.1117   -3.2214   30.3608 F   0  0  0  0  0  0  0  0  0  0  0  0
  4  5  1  0
  5  8  1  0
  5  9  1  0
  5 10  1  0
  1  2  2  0
  2  3  1  0
  3  4  2  0
  4  7  1  0
  7  6  2  0
  6  1  1  0
M  END

$$$$
