No_110-gen_results/8p0m/2024-11-27-11-27-31/
     RDKit          3D

 18 18  0  0  0  0  0  0  0  0999 V2000
  -28.0162   -0.8135   28.8779 C   0  0  0  0  0  0  0  0  0  0  0  0
  -27.0636   -0.1190   28.6079 C   0  0  0  0  0  0  0  0  0  0  0  0
  -26.9716    0.7139   27.5060 C   0  0  0  0  0  0  0  0  0  0  0  0
  -28.1053    0.7744   26.6421 C   0  0  0  0  0  0  0  0  0  0  0  0
  -29.2008    0.1044   27.0527 C   0  0  0  0  0  0  0  0  0  0  0  0
  -29.2096   -0.6029   28.1853 C   0  0  0  0  0  0  0  0  0  0  0  0
  -30.3749    0.2232   26.1670 C   0  0  0  0  0  0  0  0  0  0  0  0
  -31.2461   -0.4191   26.3596 O   0  0  0  0  0  0  0  0  0  0  0  0
  -30.3218    1.0070   25.0714 O   0  0  0  0  0  0  0  0  0  0  0  0
  -25.6987   -0.2203   29.4317 C   0  0  0  0  0  0  0  0  0  0  0  0
  -25.0543    0.9508   29.9027 Cl  0  0  0  0  0  0  0  0  0  0  0  0
  -25.1044   -1.5275   29.6221 C   0  0  0  0  0  0  0  0  0  0  0  0
  -25.5998   -2.5081   29.8010 C   0  0  0  0  0  0  0  0  0  0  0  0
  -25.1813   -3.8417   29.5820 C   0  0  0  0  0  0  0  0  0  0  0  0
  -26.0016   -5.0179   29.5043 C   0  0  0  0  0  0  0  0  0  0  0  0
  -27.3689   -4.7302   29.9400 C   0  0  0  0  0  0  0  0  0  0  0  0
  -27.8639   -3.5361   30.3674 C   0  0  0  0  0  0  0  0  0  0  0  0
  -27.0207   -2.4070   30.3022 C   0  0  0  0  0  0  0  0  0  0  0  0
  5  7  1  0
  7  8  2  0
  7  9  1  0
  2 10  1  0
 10 11  1  0
 10 12  1  0
 12 13  2  3
 13 14  1  0
 14 15  2  3
 15 16  1  0
 16 17  2  3
 17 18  1  0
  1  2  2  0
  2  3  1  0
  3  4  2  0
  4  5  1  0
  5  6  2  0
  6  1  1  0
M  END

$$$$
