No_1038-gen_results/8p0m/2024-11-27-11-27-31/
     RDKit          3D

 15 17  0  0  0  0  0  0  0  0999 V2000
  -28.1229   -1.3353   28.4874 O   0  0  0  0  0  0  0  0  0  0  0  0
  -27.0637   -0.8242   28.8687 C   0  0  0  0  0  0  0  0  0  0  0  0
  -26.4017   -0.0623   28.6224 C   0  0  0  0  0  0  0  0  0  0  0  0
  -26.2652   -1.8674   29.7609 N   0  0  0  0  0  0  0  0  0  0  0  0
  -26.8442    1.1343   27.8798 C   0  0  0  0  0  0  0  0  0  0  0  0
  -25.0005   -1.6707   30.1794 C   0  0  0  0  0  0  0  0  0  0  0  0
  -24.9962    0.1972   29.1990 C   0  0  0  0  0  0  0  0  0  0  0  0
  -24.3722   -0.5669   29.9374 C   0  0  0  0  0  0  0  0  0  0  0  0
  -27.7211    1.2152   27.3825 C   0  0  0  0  0  0  0  0  0  0  0  0
  -28.2394    2.3093   26.4728 C   0  0  0  0  0  0  0  0  0  0  0  0
  -27.3741    3.4161   26.3467 C   0  0  0  0  0  0  0  0  0  0  0  0
  -26.0893    3.3564   26.8967 C   0  0  0  0  0  0  0  0  0  0  0  0
  -25.7472    2.2604   27.6746 C   0  0  0  0  0  0  0  0  0  0  0  0
  -24.4620    2.2744   28.2416 C   0  0  0  0  0  0  0  0  0  0  0  0
  -24.1716    1.3753   28.9022 C   0  0  0  0  0  0  0  0  0  0  0  0
  1  2  2  0
  2  3  1  0
  2  4  1  0
  6  8  1  0
  7  8  1  0
  6  4  1  0
  5  9  1  0
  9 10  2  0
 10 11  1  0
 11 12  2  0
 12 13  1  0
  3  5  2  0
  5 13  1  0
 13 14  2  0
 14 15  1  0
 15  7  2  0
  7  3  1  0
M  END

$$$$
