No_1084-gen_results/8p0m/2024-11-27-11-27-31/
     RDKit          3D

 31 32  0  0  0  0  0  0  0  0999 V2000
  -28.0162   -0.8135   28.8779 C   0  0  0  0  0  0  0  0  0  0  0  0
  -27.0636   -0.1190   28.6079 C   0  0  0  0  0  0  0  0  0  0  0  0
  -25.7647   -0.3897   29.0360 C   0  0  0  0  0  0  0  0  0  0  0  0
  -25.5296   -1.5302   29.9014 C   0  0  0  0  0  0  0  0  0  0  0  0
  -26.6577   -2.2915   30.2035 C   0  0  0  0  0  0  0  0  0  0  0  0
  -27.8548   -1.9555   29.7630 C   0  0  0  0  0  0  0  0  0  0  0  0
  -24.6951    0.3523   28.7823 F   0  0  0  0  0  0  0  0  0  0  0  0
  -29.0269   -2.6022   30.1244 O   0  0  0  0  0  0  0  0  0  0  0  0
  -28.9597   -3.9217   30.5315 C   0  0  0  0  0  0  0  0  0  0  0  0
  -30.2595   -4.6116   30.1937 C   0  0  0  0  0  0  0  0  0  0  0  0
  -30.6972   -4.6492   29.1317 O   0  0  0  0  0  0  0  0  0  0  0  0
  -30.9916   -4.9902   31.2726 N   0  0  0  0  0  0  0  0  0  0  0  0
  -30.5894   -4.8954   32.7042 C   0  0  0  0  0  0  0  0  0  0  0  0
  -32.2582   -5.7228   31.0406 C   0  0  0  0  0  0  0  0  0  0  0  0
  -24.1603   -1.8799   30.2787 C   0  0  0  0  0  0  0  0  0  0  0  0
  -23.5413   -0.9385   31.2907 C   0  0  0  0  0  0  0  0  0  0  0  0
  -27.1456    1.0547   27.6348 C   0  0  0  0  0  0  0  0  0  0  0  0
  -27.3103    0.8064   26.4472 O   0  0  0  0  0  0  0  0  0  0  0  0
  -27.0996    2.2102   28.0662 O   0  0  0  0  0  0  0  0  0  0  0  0
  -22.4559   -0.5304   31.0718 O   0  0  0  0  0  0  0  0  0  0  0  0
  -24.2915   -0.6393   32.3056 O   0  0  0  0  0  0  0  0  0  0  0  0
  -30.7824   -3.6804   33.2299 C   0  0  0  0  0  0  0  0  0  0  0  0
  -31.5534   -3.6614   34.2824 C   0  0  0  0  0  0  0  0  0  0  0  0
  -31.7661   -2.4229   34.8352 C   0  0  0  0  0  0  0  0  0  0  0  0
  -31.1637   -1.2197   34.4037 C   0  0  0  0  0  0  0  0  0  0  0  0
  -30.2876   -1.3092   33.3214 C   0  0  0  0  0  0  0  0  0  0  0  0
  -30.0472   -2.5569   32.7528 C   0  0  0  0  0  0  0  0  0  0  0  0
  -29.6561   -0.0748   32.8294 C   0  0  0  0  0  0  0  0  0  0  0  0
  -28.3161    0.1786   33.2188 C   0  0  0  0  0  0  0  0  0  0  0  0
  -29.9376    0.2992   31.4286 C   0  0  0  0  0  0  0  0  0  0  0  0
  -27.8201   -0.0504   34.5059 C   0  0  0  0  0  0  0  0  0  0  0  0
  3  7  1  0
  6  8  1  0
  8  9  1  0
  9 10  1  0
 10 11  2  0
 10 12  1  0
 12 13  1  0
 12 14  1  0
  4 15  1  0
 15 16  1  0
  2 17  1  0
 17 18  2  0
 17 19  1  0
 16 20  2  0
 16 21  1  0
 13 22  1  0
 26 28  1  0
 28 29  2  3
 28 30  1  0
 29 31  1  0
  1  2  2  0
  2  3  1  0
  3  4  2  0
  4  5  1  0
  5  6  2  0
  6  1  1  0
 22 23  2  0
 23 24  1  0
 24 25  2  0
 25 26  1  0
 26 27  2  0
 27 22  1  0
M  END

$$$$
