No_1069-gen_results/8p0m/2024-11-27-11-27-31/
     RDKit          3D

 12 12  0  0  0  0  0  0  0  0999 V2000
  -28.0162   -0.8135   28.8779 C   0  0  0  0  0  0  0  0  0  0  0  0
  -27.0636   -0.1189   28.6079 C   0  0  0  0  0  0  0  0  0  0  0  0
  -26.9716    0.7139   27.5060 C   0  0  0  0  0  0  0  0  0  0  0  0
  -28.1053    0.7744   26.6421 C   0  0  0  0  0  0  0  0  0  0  0  0
  -29.2008    0.1044   27.0527 C   0  0  0  0  0  0  0  0  0  0  0  0
  -29.2096   -0.6029   28.1853 C   0  0  0  0  0  0  0  0  0  0  0  0
  -30.2808    0.2156   26.2913 F   0  0  0  0  0  0  0  0  0  0  0  0
  -25.8043   -0.2081   29.3653 N   0  0  0  0  0  0  0  0  0  0  0  0
  -25.1238    0.4061   29.8975 C   0  0  0  0  0  0  0  0  0  0  0  0
  -23.9111   -0.0226   30.4812 N   0  0  0  0  0  0  0  0  0  0  0  0
  -23.9253   -1.2886   30.1013 C   0  0  0  0  0  0  0  0  0  0  0  0
  -25.0194   -1.4954   29.4061 C   0  0  0  0  0  0  0  0  0  0  0  0
  5  7  1  0
  2  8  1  0
  8  9  2  3
  9 10  1  0
 10 11  1  0
 11 12  1  0
  1  2  2  0
  2  3  1  0
  3  4  2  0
  4  5  1  0
  5  6  2  0
  6  1  1  0
M  END

$$$$
