No_1123-gen_results/8p0m/2024-11-27-11-27-31/
     RDKit          3D

 22 24  0  0  0  0  0  0  0  0999 V2000
  -28.0162   -0.8135   28.8779 C   0  0  0  0  0  0  0  0  0  0  0  0
  -28.4690   -0.7850   29.8287 C   0  0  0  0  0  0  0  0  0  0  0  0
  -27.0871    0.2903   28.6377 C   0  0  0  0  0  0  0  0  0  0  0  0
  -26.8317    1.2487   29.5869 C   0  0  0  0  0  0  0  0  0  0  0  0
  -28.3914    0.0801   31.0065 C   0  0  0  0  0  0  0  0  0  0  0  0
  -27.4940    1.1521   30.7841 C   0  0  0  0  0  0  0  0  0  0  0  0
  -26.3172    0.3994   27.3653 C   0  0  0  0  0  0  0  0  0  0  0  0
  -25.4320    1.4866   27.2802 C   0  0  0  0  0  0  0  0  0  0  0  0
  -25.2459    2.4300   28.2946 C   0  0  0  0  0  0  0  0  0  0  0  0
  -25.9289    2.3306   29.4680 C   0  0  0  0  0  0  0  0  0  0  0  0
  -25.6696    3.3674   30.4891 C   0  0  0  0  0  0  0  0  0  0  0  0
  -24.8195    3.1021   31.3416 O   0  0  0  0  0  0  0  0  0  0  0  0
  -26.3872    4.4008   30.5262 O   0  0  0  0  0  0  0  0  0  0  0  0
  -24.6616    1.5817   26.0073 C   0  0  0  0  0  0  0  0  0  0  0  0
  -23.4692    2.3900   26.0427 C   0  0  0  0  0  0  0  0  0  0  0  0
  -22.3989    1.9460   26.6831 C   0  0  0  0  0  0  0  0  0  0  0  0
  -22.2939    1.2602   27.9053 C   0  0  0  0  0  0  0  0  0  0  0  0
  -21.1888    0.6502   28.3927 C   0  0  0  0  0  0  0  0  0  0  0  0
  -21.3148   -0.2512   29.3951 N   0  0  0  0  0  0  0  0  0  0  0  0
  -22.4789   -0.9029   29.6619 C   0  0  0  0  0  0  0  0  0  0  0  0
  -23.6867   -0.2719   29.1857 C   0  0  0  0  0  0  0  0  0  0  0  0
  -23.5723    0.6305   28.3067 C   0  0  0  0  0  0  0  0  0  0  0  0
 10 11  1  0
 11 12  2  0
 11 13  1  0
  8 14  1  0
 14 15  1  0
 15 16  1  0
 16 17  1  0
 17 18  2  0
 18 19  1  0
 19 20  2  0
 20 21  1  0
 21 22  2  0
 22 17  1  0
  4 10  2  0
 10  9  1  0
  9  8  2  0
  8  7  1  0
  7  3  2  0
  1  2  2  0
  2  5  1  0
  5  6  2  0
  6  4  1  0
  4  3  1  0
  3  1  1  0
M  END

$$$$
