No_1701-gen_results/8p0m/2024-11-27-11-27-31/
     RDKit          3D

 26 29  0  0  0  0  0  0  0  0999 V2000
  -28.0162   -0.8135   28.8779 C   0  0  0  0  0  0  0  0  0  0  0  0
  -27.0636   -0.1190   28.6079 C   0  0  0  0  0  0  0  0  0  0  0  0
  -25.7647   -0.3897   29.0360 C   0  0  0  0  0  0  0  0  0  0  0  0
  -25.5296   -1.5302   29.9014 C   0  0  0  0  0  0  0  0  0  0  0  0
  -26.6577   -2.2915   30.2035 C   0  0  0  0  0  0  0  0  0  0  0  0
  -27.8548   -1.9555   29.7630 C   0  0  0  0  0  0  0  0  0  0  0  0
  -24.5441    0.4126   28.7379 C   0  0  0  0  0  0  0  0  0  0  0  0
  -23.3231    0.0476   29.0499 C   0  0  0  0  0  0  0  0  0  0  0  0
  -22.1997    0.8411   28.7194 C   0  0  0  0  0  0  0  0  0  0  0  0
  -22.3632    1.8394   27.7172 C   0  0  0  0  0  0  0  0  0  0  0  0
  -24.6043    1.5165   27.8119 C   0  0  0  0  0  0  0  0  0  0  0  0
  -23.5582    2.1898   27.3588 C   0  0  0  0  0  0  0  0  0  0  0  0
  -29.0212   -2.7832   30.1825 C   0  0  0  0  0  0  0  0  0  0  0  0
  -28.8814   -4.1037   30.3866 N   0  0  0  0  0  0  0  0  0  0  0  0
  -29.7088   -4.8041   31.1728 C   0  0  0  0  0  0  0  0  0  0  0  0
  -30.9993   -4.8317   30.8515 C   0  0  0  0  0  0  0  0  0  0  0  0
  -31.5447   -3.5436   30.4844 C   0  0  0  0  0  0  0  0  0  0  0  0
  -30.4523   -2.3899   30.2389 C   0  0  0  0  0  0  0  0  0  0  0  0
  -32.2397   -6.1788   31.1137 Br  0  0  0  0  0  0  0  0  0  0  0  0
  -23.7301    3.2456   26.5146 O   0  0  0  0  0  0  0  0  0  0  0  0
  -25.0285    3.1759   25.8896 C   0  0  0  0  0  0  0  0  0  0  0  0
  -25.8517    1.8744   27.1800 C   0  0  0  0  0  0  0  0  0  0  0  0
  -25.9130    2.7485   26.1407 C   0  0  0  0  0  0  0  0  0  0  0  0
  -27.1168    1.0309   27.5627 C   0  0  0  0  0  0  0  0  0  0  0  0
  -26.2026    2.5369   27.8893 C   0  0  0  0  0  0  0  0  0  0  0  0
  -27.3558    2.8755   25.2535 Cl  0  0  0  0  0  0  0  0  0  0  0  0
  6 13  1  0
 16 19  1  0
 12 20  1  0
 20 21  1  0
 21 23  2  3
 22 25  1  0
 23 26  1  0
  7  8  2  0
  8  9  1  0
  9 10  2  0
 10 12  1  0
 12 11  2  0
  1  2  2  0
  3  4  2  0
  4  5  1  0
  5  6  2  0
  6  1  1  0
 13 14  2  0
 14 15  1  0
 15 16  2  0
 16 17  1  0
 17 18  2  0
 18 13  1  0
  2  3  1  0
  3  7  1  0
  7 11  1  0
 11 22  1  0
 22 24  2  0
 24  2  1  0
M  END

$$$$
