No_1909-gen_results/8p0m/2024-11-27-11-27-31/
     RDKit          3D

 22 23  0  0  0  0  0  0  0  0999 V2000
  -28.0162   -0.8135   28.8779 C   0  0  0  0  0  0  0  0  0  0  0  0
  -27.0636   -0.1189   28.6079 C   0  0  0  0  0  0  0  0  0  0  0  0
  -25.7923   -0.4302   29.0761 C   0  0  0  0  0  0  0  0  0  0  0  0
  -25.5756   -1.5654   29.9363 C   0  0  0  0  0  0  0  0  0  0  0  0
  -26.7354   -2.3004   30.2173 C   0  0  0  0  0  0  0  0  0  0  0  0
  -27.9184   -1.9537   29.7629 C   0  0  0  0  0  0  0  0  0  0  0  0
  -29.0001   -2.7012   30.1151 O   0  0  0  0  0  0  0  0  0  0  0  0
  -24.5290    0.3490   28.7998 C   0  0  0  0  0  0  0  0  0  0  0  0
  -23.3442    0.0060   29.1658 C   0  0  0  0  0  0  0  0  0  0  0  0
  -22.1783    0.7811   28.7783 C   0  0  0  0  0  0  0  0  0  0  0  0
  -22.3218    1.7499   27.7727 C   0  0  0  0  0  0  0  0  0  0  0  0
  -24.6102    1.3558   27.7479 C   0  0  0  0  0  0  0  0  0  0  0  0
  -23.5148    2.0341   27.3068 C   0  0  0  0  0  0  0  0  0  0  0  0
  -28.8769   -3.9644   30.6079 C   0  0  0  0  0  0  0  0  0  0  0  0
  -30.1232   -4.6748   30.7699 C   0  0  0  0  0  0  0  0  0  0  0  0
  -31.0556   -4.4591   29.8252 C   0  0  0  0  0  0  0  0  0  0  0  0
  -31.2748   -3.4413   29.3263 F   0  0  0  0  0  0  0  0  0  0  0  0
  -32.2989   -4.9955   30.1761 F   0  0  0  0  0  0  0  0  0  0  0  0
  -29.8133   -6.0830   31.0593 O   0  0  0  0  0  0  0  0  0  0  0  0
  -30.7662   -5.4429   28.7188 F   0  0  0  0  0  0  0  0  0  0  0  0
  -30.6960   -4.1526   32.0628 O   0  0  0  0  0  0  0  0  0  0  0  0
  -29.2972   -0.5276   28.6169 O   0  0  0  0  0  0  0  0  0  0  0  0
  1  2  1  0
  3  4  1  0
  1  6  1  0
  5  6  1  0
  6  7  1  0
  3  8  1  0
  7 14  1  0
 14 15  1  0
 15 16  1  0
 16 17  1  0
 16 18  1  0
 15 19  1  0
 16 20  1  0
 15 21  1  0
  1 22  2  0
  2  3  1  0
  4  5  1  0
  8  9  2  0
  9 10  1  0
 10 11  2  0
 11 13  1  0
 13 12  2  0
 12  8  1  0
M  END

$$$$
