No_1617-gen_results/8p0m/2024-11-27-11-27-31/
     RDKit          3D

 22 24  0  0  0  0  0  0  0  0999 V2000
  -28.0162   -0.8135   28.8779 C   0  0  0  0  0  0  0  0  0  0  0  0
  -28.4690   -0.7850   29.8287 C   0  0  0  0  0  0  0  0  0  0  0  0
  -26.5455   -0.8762   28.8500 C   0  0  0  0  0  0  0  0  0  0  0  0
  -25.6825   -0.7773   27.6829 C   0  0  0  0  0  0  0  0  0  0  0  0
  -27.9181   -1.0034   31.1877 C   0  0  0  0  0  0  0  0  0  0  0  0
  -26.5308   -1.0794   31.2463 C   0  0  0  0  0  0  0  0  0  0  0  0
  -25.7798   -1.0462   30.0905 C   0  0  0  0  0  0  0  0  0  0  0  0
  -25.2322    0.5793   27.3292 C   0  0  0  0  0  0  0  0  0  0  0  0
  -23.9816    0.8698   27.7677 C   0  0  0  0  0  0  0  0  0  0  0  0
  -23.4121    2.1477   27.3881 C   0  0  0  0  0  0  0  0  0  0  0  0
  -24.0639    2.9853   26.5439 C   0  0  0  0  0  0  0  0  0  0  0  0
  -25.8821    1.3934   26.4161 C   0  0  0  0  0  0  0  0  0  0  0  0
  -27.1466    0.9654   25.9458 C   0  0  0  0  0  0  0  0  0  0  0  0
  -25.3137    2.5841   26.0295 C   0  0  0  0  0  0  0  0  0  0  0  0
  -28.1512    1.9635   25.8406 C   0  0  0  0  0  0  0  0  0  0  0  0
  -29.4480    1.6089   25.3891 C   0  0  0  0  0  0  0  0  0  0  0  0
  -29.6458    0.3501   24.9174 C   0  0  0  0  0  0  0  0  0  0  0  0
  -28.6366   -0.5922   24.8292 C   0  0  0  0  0  0  0  0  0  0  0  0
  -27.3754   -0.2412   25.3767 C   0  0  0  0  0  0  0  0  0  0  0  0
  -30.0840   -0.6002   29.8944 C   0  0  0  0  0  0  0  0  0  0  0  0
  -30.6336   -0.2800   30.9191 O   0  0  0  0  0  0  0  0  0  0  0  0
  -30.7025   -1.0163   28.8392 O   0  0  0  0  0  0  0  0  0  0  0  0
  3  4  1  0
  4  8  1  0
 12 13  1  0
  2 20  1  0
 20 21  2  0
 20 22  1  0
 13 15  2  0
 15 16  1  0
 16 17  2  0
 17 18  1  0
 18 19  2  0
 19 13  1  0
  8  9  2  0
  9 10  1  0
 10 11  2  0
 11 14  1  0
 14 12  2  0
 12  8  1  0
  1  2  2  0
  2  5  1  0
  5  6  2  0
  6  7  1  0
  7  3  2  0
  3  1  1  0
M  END

$$$$
