No_1440-gen_results/8p0m/2024-11-27-11-27-31/
     RDKit          3D

 35 38  0  0  0  0  0  0  0  0999 V2000
  -28.0162   -0.8135   28.8779 C   0  0  0  0  0  0  0  0  0  0  0  0
  -28.4690   -0.7850   29.8287 C   0  0  0  0  0  0  0  0  0  0  0  0
  -27.1356    0.2359   28.5352 C   0  0  0  0  0  0  0  0  0  0  0  0
  -26.8745    1.2825   29.3982 C   0  0  0  0  0  0  0  0  0  0  0  0
  -28.3613    0.1987   30.9244 C   0  0  0  0  0  0  0  0  0  0  0  0
  -27.5277    1.2234   30.6356 C   0  0  0  0  0  0  0  0  0  0  0  0
  -26.3987    0.2949   27.2279 C   0  0  0  0  0  0  0  0  0  0  0  0
  -25.0392    0.2356   27.3538 C   0  0  0  0  0  0  0  0  0  0  0  0
  -27.0287    0.3958   26.0087 C   0  0  0  0  0  0  0  0  0  0  0  0
  -28.3713    0.5360   25.8782 C   0  0  0  0  0  0  0  0  0  0  0  0
  -28.8860    0.5071   24.5687 C   0  0  0  0  0  0  0  0  0  0  0  0
  -30.2841    0.5712   24.3900 C   0  0  0  0  0  0  0  0  0  0  0  0
  -31.1106    0.6022   25.4906 C   0  0  0  0  0  0  0  0  0  0  0  0
  -30.6219    0.5694   26.7682 C   0  0  0  0  0  0  0  0  0  0  0  0
  -29.2916    0.5546   26.9892 C   0  0  0  0  0  0  0  0  0  0  0  0
  -26.1610    0.4614   24.8753 C   0  0  0  0  0  0  0  0  0  0  0  0
  -31.6282    0.6711   27.9019 C   0  0  0  0  0  0  0  0  0  0  0  0
  -31.6240    1.1371   28.7891 N   0  0  0  0  0  0  0  0  0  0  0  0
  -32.6935   -0.2275   27.7153 N   0  0  0  0  0  0  0  0  0  0  0  0
  -32.4880    1.1220   29.8468 C   0  0  0  0  0  0  0  0  0  0  0  0
  -33.6526   -0.4014   28.6022 C   0  0  0  0  0  0  0  0  0  0  0  0
  -33.5605    0.3360   29.7559 C   0  0  0  0  0  0  0  0  0  0  0  0
  -24.2237    1.3488   27.1343 C   0  0  0  0  0  0  0  0  0  0  0  0
  -22.8890    1.4689   27.5919 C   0  0  0  0  0  0  0  0  0  0  0  0
  -22.4605    0.7075   28.6545 C   0  0  0  0  0  0  0  0  0  0  0  0
  -23.0580   -0.1093   29.0615 C   0  0  0  0  0  0  0  0  0  0  0  0
  -24.4628   -0.5617   28.6065 C   0  0  0  0  0  0  0  0  0  0  0  0
  -29.5068   -1.9173   30.3517 C   0  0  0  0  0  0  0  0  0  0  0  0
  -30.5301   -1.5537   31.1212 N   0  0  0  0  0  0  0  0  0  0  0  0
  -30.8343   -2.1098   32.1413 C   0  0  0  0  0  0  0  0  0  0  0  0
  -32.0951   -1.7771   32.8196 C   0  0  0  0  0  0  0  0  0  0  0  0
  -30.1615   -2.9865   32.7733 O   0  0  0  0  0  0  0  0  0  0  0  0
  -32.2811    1.9226   31.0071 N   0  0  0  0  0  0  0  0  0  0  0  0
  -31.2690    2.5659   31.3238 C   0  0  0  0  0  0  0  0  0  0  0  0
  -31.1220    3.1456   32.6551 C   0  0  0  0  0  0  0  0  0  0  0  0
  3  7  1  0
  7  8  1  0
  7  9  1  0
  9 10  1  0
  9 16  1  0
 14 17  1  0
  2 28  1  0
 28 29  2  3
 29 30  1  0
 30 31  1  0
 30 32  2  0
 20 33  1  0
 33 34  1  0
 34 35  2  0
 17 18  2  0
 18 20  1  0
 20 22  2  0
 22 21  1  0
 21 19  2  0
 19 17  1  0
  1  2  2  0
  2  5  1  0
  5  6  2  0
  6  4  1  0
  4  3  2  0
  3  1  1  0
 10 11  2  0
 11 12  1  0
 12 13  2  0
 13 14  1  0
 14 15  2  0
 15 10  1  0
  8 23  2  0
 23 24  1  0
 24 25  2  0
 25 26  1  0
 26 27  2  0
 27  8  1  0
M  END

$$$$
