No_1820-gen_results/8p0m/2024-11-27-11-27-31/
     RDKit          3D

 20 23  0  0  0  0  0  0  0  0999 V2000
  -28.0162   -0.8135   28.8779 C   0  0  0  0  0  0  0  0  0  0  0  0
  -27.0636   -0.1190   28.6079 C   0  0  0  0  0  0  0  0  0  0  0  0
  -25.7923   -0.4302   29.0761 C   0  0  0  0  0  0  0  0  0  0  0  0
  -24.5456    0.3494   28.8225 C   0  0  0  0  0  0  0  0  0  0  0  0
  -23.2409    0.0217   29.3323 C   0  0  0  0  0  0  0  0  0  0  0  0
  -27.8820   -1.8995   29.8633 C   0  0  0  0  0  0  0  0  0  0  0  0
  -26.6526   -2.3142   30.3138 C   0  0  0  0  0  0  0  0  0  0  0  0
  -25.5153   -1.5607   29.9787 C   0  0  0  0  0  0  0  0  0  0  0  0
  -22.1645    0.7936   28.9524 C   0  0  0  0  0  0  0  0  0  0  0  0
  -22.1241    1.7484   27.9889 C   0  0  0  0  0  0  0  0  0  0  0  0
  -24.5235    1.3782   27.7946 C   0  0  0  0  0  0  0  0  0  0  0  0
  -25.7193    1.6870   27.1452 C   0  0  0  0  0  0  0  0  0  0  0  0
  -23.3418    2.0550   27.3740 C   0  0  0  0  0  0  0  0  0  0  0  0
  -26.9521    0.9050   27.5233 C   0  0  0  0  0  0  0  0  0  0  0  0
  -28.2186    1.2432   26.8349 C   0  0  0  0  0  0  0  0  0  0  0  0
  -28.9804    1.8900   27.2818 C   0  0  0  0  0  0  0  0  0  0  0  0
  -28.3295    0.6480   25.5312 C   0  0  0  0  0  0  0  0  0  0  0  0
  -29.5553    0.3164   24.9564 C   0  0  0  0  0  0  0  0  0  0  0  0
  -30.3960    1.8373   26.7053 C   0  0  0  0  0  0  0  0  0  0  0  0
  -30.5690    1.1836   25.4447 C   0  0  0  0  0  0  0  0  0  0  0  0
 14 15  1  0
  4  5  2  0
  5  9  1  0
  9 10  2  0
 10 13  1  0
 13 11  2  0
  1  2  2  0
  3  8  2  0
  8  7  1  0
  7  6  2  0
  6  1  1  0
  2  3  1  0
  3  4  1  0
  4 11  1  0
 11 12  1  0
 12 14  2  0
 14  2  1  0
 15 16  2  0
 16 19  1  0
 19 20  2  0
 20 18  1  0
 18 17  2  0
 17 15  1  0
M  END

$$$$
