No_1065-gen_results/8p0m/2024-11-27-11-27-31/
     RDKit          3D

 23 25  0  0  0  0  0  0  0  0999 V2000
  -28.0727   -1.2542   28.5316 F   0  0  0  0  0  0  0  0  0  0  0  0
  -27.3591   -0.3792   28.7224 C   0  0  0  0  0  0  0  0  0  0  0  0
  -27.7014    0.7608   29.1249 C   0  0  0  0  0  0  0  0  0  0  0  0
  -25.8844   -0.6918   28.4374 C   0  0  0  0  0  0  0  0  0  0  0  0
  -24.9212    0.3779   28.6013 C   0  0  0  0  0  0  0  0  0  0  0  0
  -26.6914    1.8696   29.2705 C   0  0  0  0  0  0  0  0  0  0  0  0
  -25.3451    1.6252   29.0013 C   0  0  0  0  0  0  0  0  0  0  0  0
  -23.5124    0.1705   28.3599 C   0  0  0  0  0  0  0  0  0  0  0  0
  -22.7659    1.1813   27.7690 C   0  0  0  0  0  0  0  0  0  0  0  0
  -23.2773    2.5793   27.9731 C   0  0  0  0  0  0  0  0  0  0  0  0
  -24.4620    2.7334   28.6826 C   0  0  0  0  0  0  0  0  0  0  0  0
  -21.4805    1.1199   27.4662 O   0  0  0  0  0  0  0  0  0  0  0  0
  -27.1577    3.2495   29.7018 C   0  0  0  0  0  0  0  0  0  0  0  0
  -26.8501    3.6207   30.9422 C   0  0  0  0  0  0  0  0  0  0  0  0
  -26.9563    2.8678   32.0292 C   0  0  0  0  0  0  0  0  0  0  0  0
  -27.4783    1.5868   31.9805 C   0  0  0  0  0  0  0  0  0  0  0  0
  -27.4308    0.9154   32.9213 C   0  0  0  0  0  0  0  0  0  0  0  0
  -27.8488   -0.5432   32.9412 C   0  0  0  0  0  0  0  0  0  0  0  0
  -28.3098   -1.0339   31.7127 C   0  0  0  0  0  0  0  0  0  0  0  0
  -28.5470   -0.1579   30.6992 C   0  0  0  0  0  0  0  0  0  0  0  0
  -28.1348    1.1082   31.1677 C   0  0  0  0  0  0  0  0  0  0  0  0
  -29.2139    2.0701   30.5565 C   0  0  0  0  0  0  0  0  0  0  0  0
  -28.4454    1.2484   27.7740 C   0  0  0  0  0  0  0  0  0  0  0  0
  1  2  1  0
  9 12  1  0
  6 13  1  0
 13 14  1  0
 14 15  2  3
 15 16  1  0
 21 22  1  0
  3 23  1  0
  2  3  2  0
  3  6  1  0
  6  7  2  0
  5  4  2  0
  4  2  1  0
  5  7  1  0
  7 11  1  0
 11 10  2  0
 10  9  1  0
  9  8  2  0
  8  5  1  0
 16 17  2  0
 17 18  1  0
 18 19  2  0
 19 20  1  0
 20 21  2  0
 21 16  1  0
M  END

$$$$
