No_1517-gen_results/8p0m/2024-11-27-11-27-31/
     RDKit          3D

 31 34  0  0  0  0  0  0  0  0999 V2000
  -28.0162   -0.8135   28.8779 C   0  0  0  0  0  0  0  0  0  0  0  0
  -28.4690   -0.7850   29.8287 C   0  0  0  0  0  0  0  0  0  0  0  0
  -27.1356    0.2359   28.5352 C   0  0  0  0  0  0  0  0  0  0  0  0
  -26.8745    1.2825   29.3982 C   0  0  0  0  0  0  0  0  0  0  0  0
  -28.3613    0.1987   30.9244 C   0  0  0  0  0  0  0  0  0  0  0  0
  -27.5277    1.2234   30.6356 C   0  0  0  0  0  0  0  0  0  0  0  0
  -26.3987    0.2949   27.2279 C   0  0  0  0  0  0  0  0  0  0  0  0
  -25.0392    0.2356   27.3538 C   0  0  0  0  0  0  0  0  0  0  0  0
  -26.8420    1.2723   26.2572 C   0  0  0  0  0  0  0  0  0  0  0  0
  -24.1353    0.9376   26.5875 C   0  0  0  0  0  0  0  0  0  0  0  0
  -24.6369    1.7194   25.5290 C   0  0  0  0  0  0  0  0  0  0  0  0
  -25.9592    1.8671   25.3831 C   0  0  0  0  0  0  0  0  0  0  0  0
  -28.2664    1.3946   25.9246 C   0  0  0  0  0  0  0  0  0  0  0  0
  -28.8627    1.8875   25.1771 C   0  0  0  0  0  0  0  0  0  0  0  0
  -29.9400    2.0649   24.8532 C   0  0  0  0  0  0  0  0  0  0  0  0
  -30.9913    1.5129   25.7255 C   0  0  0  0  0  0  0  0  0  0  0  0
  -30.4712    0.7682   26.8189 C   0  0  0  0  0  0  0  0  0  0  0  0
  -29.0916    0.6821   26.9877 C   0  0  0  0  0  0  0  0  0  0  0  0
  -29.0239    1.0524   28.1208 F   0  0  0  0  0  0  0  0  0  0  0  0
  -31.3795    0.1491   27.5993 O   0  0  0  0  0  0  0  0  0  0  0  0
  -31.7332   -1.1445   27.3960 C   0  0  0  0  0  0  0  0  0  0  0  0
  -32.4672   -1.6745   28.5174 C   0  0  0  0  0  0  0  0  0  0  0  0
  -32.5299   -1.1090   29.5161 O   0  0  0  0  0  0  0  0  0  0  0  0
  -32.9935   -2.8209   28.3328 O   0  0  0  0  0  0  0  0  0  0  0  0
  -31.8857   -1.5045   26.2099 O   0  0  0  0  0  0  0  0  0  0  0  0
  -24.4246   -0.6484   28.4120 C   0  0  0  0  0  0  0  0  0  0  0  0
  -23.3387   -0.2995   29.2049 C   0  0  0  0  0  0  0  0  0  0  0  0
  -22.7767   -1.2248   30.0327 C   0  0  0  0  0  0  0  0  0  0  0  0
  -23.4946   -2.3671   30.3159 C   0  0  0  0  0  0  0  0  0  0  0  0
  -24.8555   -1.9458   28.7916 C   0  0  0  0  0  0  0  0  0  0  0  0
  -24.5025   -2.7968   29.5939 C   0  0  0  0  0  0  0  0  0  0  0  0
  3  7  1  0
  9 13  1  0
 18 19  1  0
 17 20  1  0
 20 21  1  0
 21 22  1  0
 22 23  1  0
 22 24  2  0
 21 25  2  0
  8 26  1  0
 26 27  2  0
 27 28  1  0
 28 29  2  0
 29 31  1  0
 31 30  2  0
 30 26  1  0
 13 14  2  0
 14 15  1  0
 15 16  2  0
 16 17  1  0
 17 18  2  0
 18 13  1  0
  1  2  2  0
  2  5  1  0
  5  6  2  0
  6  4  1  0
  4  3  2  0
  3  1  1  0
  7  8  1  0
  8 10  2  0
 10 11  1  0
 11 12  2  0
 12  9  1  0
  9  7  2  0
M  END

$$$$
