No_1480-gen_results/8p0m/2024-11-27-11-27-31/
     RDKit          3D

 17 19  0  0  0  0  0  0  0  0999 V2000
  -28.0162   -0.8135   28.8779 C   0  0  0  0  0  0  0  0  0  0  0  0
  -27.0636   -0.1189   28.6079 C   0  0  0  0  0  0  0  0  0  0  0  0
  -25.7647   -0.3897   29.0360 C   0  0  0  0  0  0  0  0  0  0  0  0
  -25.5296   -1.5302   29.9014 C   0  0  0  0  0  0  0  0  0  0  0  0
  -26.6888   -2.2893   30.1810 C   0  0  0  0  0  0  0  0  0  0  0  0
  -27.8727   -1.9508   29.7373 C   0  0  0  0  0  0  0  0  0  0  0  0
  -28.8984   -2.7212   30.0727 F   0  0  0  0  0  0  0  0  0  0  0  0
  -24.6195    0.3899   28.7636 N   0  0  0  0  0  0  0  0  0  0  0  0
  -24.5164    1.2625   27.7915 C   0  0  0  0  0  0  0  0  0  0  0  0
  -25.1744    1.6445   26.9906 C   0  0  0  0  0  0  0  0  0  0  0  0
  -24.8043    2.5882   25.9582 C   0  0  0  0  0  0  0  0  0  0  0  0
  -23.4662    2.9841   25.8793 C   0  0  0  0  0  0  0  0  0  0  0  0
  -23.0144    1.7529   27.7890 C   0  0  0  0  0  0  0  0  0  0  0  0
  -22.6706    2.6157   26.8252 N   0  0  0  0  0  0  0  0  0  0  0  0
  -23.3766    0.2406   29.5879 C   0  0  0  0  0  0  0  0  0  0  0  0
  -22.3304    1.2189   28.8521 N   0  0  0  0  0  0  0  0  0  0  0  0
  -23.0429   -0.3603   30.5126 O   0  0  0  0  0  0  0  0  0  0  0  0
  6  7  1  0
  3  8  1  0
  8  9  1  0
  8 15  1  0
 15 16  1  0
 15 17  2  0
 16 13  1  0
  1  2  2  0
  2  3  1  0
  3  4  2  0
  4  5  1  0
  5  6  2  0
  6  1  1  0
  9 10  2  0
 10 11  1  0
 11 12  2  0
 12 14  1  0
 14 13  2  0
 13  9  1  0
M  END

$$$$
