No_1072-gen_results/8p0m/2024-11-27-11-27-31/
     RDKit          3D

 18 19  0  0  0  0  0  0  0  0999 V2000
  -28.0162   -0.8135   28.8779 C   0  0  0  0  0  0  0  0  0  0  0  0
  -27.0636   -0.1189   28.6079 C   0  0  0  0  0  0  0  0  0  0  0  0
  -25.7923   -0.4302   29.0761 C   0  0  0  0  0  0  0  0  0  0  0  0
  -24.5456    0.3494   28.8225 C   0  0  0  0  0  0  0  0  0  0  0  0
  -24.6586    1.4196   27.8878 C   0  0  0  0  0  0  0  0  0  0  0  0
  -25.9471    1.6811   27.3792 C   0  0  0  0  0  0  0  0  0  0  0  0
  -27.0439    0.9739   27.6871 C   0  0  0  0  0  0  0  0  0  0  0  0
  -28.6395   -0.7690   30.2119 Cl  0  0  0  0  0  0  0  0  0  0  0  0
  -23.4498    2.1424   27.6011 C   0  0  0  0  0  0  0  0  0  0  0  0
  -23.4622    3.1341   26.8596 N   0  0  0  0  0  0  0  0  0  0  0  0
  -22.2878    1.7227   27.9793 O   0  0  0  0  0  0  0  0  0  0  0  0
  -28.3080    1.3141   27.0212 C   0  0  0  0  0  0  0  0  0  0  0  0
  -29.2583    1.8678   27.7558 C   0  0  0  0  0  0  0  0  0  0  0  0
  -30.5048    2.2179   27.1883 C   0  0  0  0  0  0  0  0  0  0  0  0
  -28.4504    1.1180   25.6617 C   0  0  0  0  0  0  0  0  0  0  0  0
  -29.6188    1.4617   25.0227 C   0  0  0  0  0  0  0  0  0  0  0  0
  -30.6341    2.0588   25.7835 C   0  0  0  0  0  0  0  0  0  0  0  0
  -27.4623    0.6103   24.9480 F   0  0  0  0  0  0  0  0  0  0  0  0
  1  2  1  0
  1  8  1  0
  5  9  1  0
  9 10  1  0
  9 11  2  0
  7 12  1  0
 15 18  1  0
 12 13  2  0
 13 14  1  0
 14 17  2  0
 17 16  1  0
 16 15  2  0
 15 12  1  0
  2  3  2  0
  3  4  1  0
  4  5  2  0
  5  6  1  0
  6  7  2  0
  7  2  1  0
M  END

$$$$
