No_1731-gen_results/8p0m/2024-11-27-11-27-31/
     RDKit          3D

 28 30  0  0  0  0  0  0  0  0999 V2000
  -28.0162   -0.8135   28.8779 C   0  0  0  0  0  0  0  0  0  0  0  0
  -28.4690   -0.7850   29.8287 C   0  0  0  0  0  0  0  0  0  0  0  0
  -27.0871    0.2903   28.6377 C   0  0  0  0  0  0  0  0  0  0  0  0
  -26.2516    0.4114   27.4222 C   0  0  0  0  0  0  0  0  0  0  0  0
  -28.3913    0.1041   30.9805 C   0  0  0  0  0  0  0  0  0  0  0  0
  -27.5332    1.1666   30.7866 C   0  0  0  0  0  0  0  0  0  0  0  0
  -26.8281    1.2557   29.6454 C   0  0  0  0  0  0  0  0  0  0  0  0
  -25.1382    0.6746   27.2309 C   0  0  0  0  0  0  0  0  0  0  0  0
  -24.5120    1.0056   25.9535 C   0  0  0  0  0  0  0  0  0  0  0  0
  -25.2544    0.5909   24.8011 C   0  0  0  0  0  0  0  0  0  0  0  0
  -26.8693    0.1288   26.0855 C   0  0  0  0  0  0  0  0  0  0  0  0
  -26.4250    0.2296   24.9552 C   0  0  0  0  0  0  0  0  0  0  0  0
  -27.1529   -0.1058   23.8652 O   0  0  0  0  0  0  0  0  0  0  0  0
  -28.3659   -0.5170   24.2463 C   0  0  0  0  0  0  0  0  0  0  0  0
  -28.5789   -0.3234   26.1668 Cl  0  0  0  0  0  0  0  0  0  0  0  0
  -29.5124   -0.8910   23.5968 C   0  0  0  0  0  0  0  0  0  0  0  0
  -27.8506   -1.1751   23.6590 O   0  0  0  0  0  0  0  0  0  0  0  0
  -27.2540   -2.1131   24.1938 C   0  0  0  0  0  0  0  0  0  0  0  0
  -30.5795   -0.0948   23.9159 C   0  0  0  0  0  0  0  0  0  0  0  0
  -31.8892   -0.7150   23.7538 C   0  0  0  0  0  0  0  0  0  0  0  0
  -32.7391   -0.7931   24.8335 C   0  0  0  0  0  0  0  0  0  0  0  0
  -32.7215    0.2369   25.7101 C   0  0  0  0  0  0  0  0  0  0  0  0
  -31.6970    1.2209   25.6183 C   0  0  0  0  0  0  0  0  0  0  0  0
  -30.5361    0.5611   25.3024 C   0  0  0  0  0  0  0  0  0  0  0  0
  -30.2707   -0.2824   26.0886 O   0  0  0  0  0  0  0  0  0  0  0  0
  -30.5524    0.0108   27.7518 P   0  0  0  0  0  0  0  0  0  0  0  0
  -30.5167   -1.2441   28.4072 O   0  0  0  0  0  0  0  0  0  0  0  0
  -32.0139    0.6017   27.7670 O   0  0  0  0  0  0  0  0  0  0  0  0
  3  4  1  0
 12 13  1  0
 13 14  1  0
 11 15  1  0
 14 16  1  0
 14 17  1  0
 17 18  1  0
 16 19  1  0
 24 25  1  0
 25 26  1  0
 26 27  2  0
 26 28  1  0
  4  8  2  0
  8  9  1  0
  9 10  2  0
 10 12  1  0
 12 11  2  0
 11  4  1  0
  1  2  2  0
  2  5  1  0
  5  6  2  0
  6  7  1  0
  7  3  2  0
  3  1  1  0
 19 20  2  0
 20 21  1  0
 21 22  2  0
 22 23  1  0
 23 24  2  0
 24 19  1  0
M  END

$$$$
