No_1124-gen_results/8p0m/2024-11-27-11-27-31/
     RDKit          3D

 20 22  0  0  0  0  0  0  0  0999 V2000
  -28.0162   -0.8135   28.8779 C   0  0  0  0  0  0  0  0  0  0  0  0
  -27.0636   -0.1189   28.6079 C   0  0  0  0  0  0  0  0  0  0  0  0
  -25.7647   -0.3897   29.0360 C   0  0  0  0  0  0  0  0  0  0  0  0
  -25.5296   -1.5302   29.9014 C   0  0  0  0  0  0  0  0  0  0  0  0
  -26.6888   -2.2893   30.1810 C   0  0  0  0  0  0  0  0  0  0  0  0
  -27.8727   -1.9508   29.7373 C   0  0  0  0  0  0  0  0  0  0  0  0
  -28.8984   -2.7212   30.0727 F   0  0  0  0  0  0  0  0  0  0  0  0
  -24.4046    0.2454   28.8089 C   0  0  0  0  0  0  0  0  0  0  0  0
  -23.2531   -0.0928   29.1730 C   0  0  0  0  0  0  0  0  0  0  0  0
  -22.0882    0.6554   28.8490 C   0  0  0  0  0  0  0  0  0  0  0  0
  -22.0600    1.6195   27.8858 C   0  0  0  0  0  0  0  0  0  0  0  0
  -24.5556    1.5296   27.9599 C   0  0  0  0  0  0  0  0  0  0  0  0
  -23.3109    2.1250   27.5487 C   0  0  0  0  0  0  0  0  0  0  0  0
  -29.2761   -0.5168   28.4914 O   0  0  0  0  0  0  0  0  0  0  0  0
  -29.4592    0.4598   27.5484 C   0  0  0  0  0  0  0  0  0  0  0  0
  -29.5410    0.0883   26.2216 C   0  0  0  0  0  0  0  0  0  0  0  0
  -30.0888    1.0138   25.3659 C   0  0  0  0  0  0  0  0  0  0  0  0
  -30.5099    1.9811   25.8103 C   0  0  0  0  0  0  0  0  0  0  0  0
  -30.1348    1.7161   27.7396 C   0  0  0  0  0  0  0  0  0  0  0  0
  -30.5651    2.5546   27.0283 C   0  0  0  0  0  0  0  0  0  0  0  0
  6  7  1  0
  3  8  1  0
  1 14  1  0
 14 15  1  0
 15 16  2  0
 16 17  1  0
 17 18  2  0
 18 20  1  0
 20 19  2  0
 19 15  1  0
  1  2  2  0
  2  3  1  0
  3  4  2  0
  4  5  1  0
  5  6  2  0
  6  1  1  0
  8  9  2  0
  9 10  1  0
 10 11  2  0
 11 13  1  0
 13 12  2  0
 12  8  1  0
M  END

$$$$
