No_1438-gen_results/8p0m/2024-11-27-11-27-31/
     RDKit          3D

 27 30  0  0  0  0  0  0  0  0999 V2000
  -28.0162   -0.8135   28.8779 C   0  0  0  0  0  0  0  0  0  0  0  0
  -28.4690   -0.7850   29.8287 C   0  0  0  0  0  0  0  0  0  0  0  0
  -27.0871    0.2903   28.6377 C   0  0  0  0  0  0  0  0  0  0  0  0
  -26.9102    0.8486   27.4199 C   0  0  0  0  0  0  0  0  0  0  0  0
  -27.8863   -0.5049   31.0945 C   0  0  0  0  0  0  0  0  0  0  0  0
  -26.9294    0.5930   31.0741 C   0  0  0  0  0  0  0  0  0  0  0  0
  -26.5225    0.9550   29.8008 C   0  0  0  0  0  0  0  0  0  0  0  0
  -26.0918    1.8857   27.1882 C   0  0  0  0  0  0  0  0  0  0  0  0
  -25.3942    2.4980   28.2759 C   0  0  0  0  0  0  0  0  0  0  0  0
  -25.6653    2.0791   29.5847 C   0  0  0  0  0  0  0  0  0  0  0  0
  -27.3661    0.2343   26.2645 N   0  0  0  0  0  0  0  0  0  0  0  0
  -27.0907    0.6006   25.0239 C   0  0  0  0  0  0  0  0  0  0  0  0
  -27.7174   -0.0058   24.0731 N   0  0  0  0  0  0  0  0  0  0  0  0
  -26.3452    1.5171   24.7535 O   0  0  0  0  0  0  0  0  0  0  0  0
  -25.7731    2.9494   30.4835 C   0  0  0  0  0  0  0  0  0  0  0  0
  -24.9928    2.6694   31.4658 O   0  0  0  0  0  0  0  0  0  0  0  0
  -26.2784    4.1745   30.5251 N   0  0  0  0  0  0  0  0  0  0  0  0
  -27.1976    4.6499   29.5488 C   0  0  0  0  0  0  0  0  0  0  0  0
  -27.6291    5.8229   29.8384 C   0  0  0  0  0  0  0  0  0  0  0  0
  -26.1041    5.2021   31.5080 C   0  0  0  0  0  0  0  0  0  0  0  0
  -26.9321    6.2813   31.0256 C   0  0  0  0  0  0  0  0  0  0  0  0
  -27.0467    7.5776   31.7087 C   0  0  0  0  0  0  0  0  0  0  0  0
  -26.5444    7.6874   32.8115 C   0  0  0  0  0  0  0  0  0  0  0  0
  -26.5544    8.9296   33.6140 C   0  0  0  0  0  0  0  0  0  0  0  0
  -27.2686    9.9617   32.9685 C   0  0  0  0  0  0  0  0  0  0  0  0
  -27.7938    9.8043   31.7545 C   0  0  0  0  0  0  0  0  0  0  0  0
  -27.6594    8.5987   31.0436 C   0  0  0  0  0  0  0  0  0  0  0  0
  4 11  1  0
 11 12  1  0
 12 13  1  0
 12 14  2  0
 10 15  1  0
 15 16  2  0
 15 17  1  0
 17 18  1  0
 18 19  2  0
 17 20  1  0
 19 21  1  0
 20 21  2  0
 21 22  1  0
 22 23  2  0
 23 24  1  0
 24 25  2  0
 25 26  1  0
 26 27  2  0
 27 22  1  0
  1  2  2  0
  2  5  1  0
  5  6  2  0
  6  7  1  0
  3  1  1  0
  3  4  2  0
  4  8  1  0
  8  9  2  0
  9 10  1  0
 10  7  2  0
  7  3  1  0
M  END

$$$$
