No_1428-gen_results/8p0m/2024-11-27-11-27-31/
     RDKit          3D

 11 11  0  0  0  0  0  0  0  0999 V2000
  -28.0162   -0.8135   28.8779 C   0  0  0  0  0  0  0  0  0  0  0  0
  -28.4690   -0.7850   29.8287 C   0  0  0  0  0  0  0  0  0  0  0  0
  -27.1356    0.2359   28.5352 C   0  0  0  0  0  0  0  0  0  0  0  0
  -26.8745    1.2825   29.3982 C   0  0  0  0  0  0  0  0  0  0  0  0
  -28.3426    0.0692   30.8236 C   0  0  0  0  0  0  0  0  0  0  0  0
  -27.5245    1.1625   30.6420 C   0  0  0  0  0  0  0  0  0  0  0  0
  -26.3962    0.3216   27.2201 C   0  0  0  0  0  0  0  0  0  0  0  0
  -26.7564    0.7478   26.2907 C   0  0  0  0  0  0  0  0  0  0  0  0
  -28.0675    1.4093   26.2092 C   0  0  0  0  0  0  0  0  0  0  0  0
  -28.5998    1.7429   24.8979 C   0  0  0  0  0  0  0  0  0  0  0  0
  -27.8861    1.2835   23.8111 C   0  0  0  0  0  0  0  0  0  0  0  0
  3  7  1  0
  7  8  2  3
  8  9  1  0
  9 10  2  3
 10 11  1  0
  1  2  2  0
  2  5  1  0
  5  6  2  0
  6  4  1  0
  4  3  2  0
  3  1  1  0
M  END

$$$$
