No_1151-gen_results/8p0m/2024-11-27-11-27-31/
     RDKit          3D

  8  7  0  0  0  0  0  0  0  0999 V2000
  -28.0727   -1.2542   28.5316 F   0  0  0  0  0  0  0  0  0  0  0  0
  -28.2662   -0.4214   29.1931 C   0  0  0  0  0  0  0  0  0  0  0  0
  -28.1839    0.5652   29.0416 C   0  0  0  0  0  0  0  0  0  0  0  0
  -27.7131    1.1254   27.6783 C   0  0  0  0  0  0  0  0  0  0  0  0
  -27.2933    0.2963   26.8244 C   0  0  0  0  0  0  0  0  0  0  0  0
  -26.9904    0.8443   25.4815 C   0  0  0  0  0  0  0  0  0  0  0  0
  -26.9785    2.1871   25.2853 C   0  0  0  0  0  0  0  0  0  0  0  0
  -27.4005    3.0730   26.2069 C   0  0  0  0  0  0  0  0  0  0  0  0
  1  2  1  0
  2  3  2  3
  3  4  1  0
  4  5  2  3
  5  6  1  0
  6  7  2  3
  7  8  1  0
M  END

$$$$
