No_1445-gen_results/8p0m/2024-11-27-11-27-31/
     RDKit          3D

 15 16  0  0  0  0  0  0  0  0999 V2000
  -28.0162   -0.8135   28.8779 C   0  0  0  0  0  0  0  0  0  0  0  0
  -27.0636   -0.1190   28.6079 C   0  0  0  0  0  0  0  0  0  0  0  0
  -26.9716    0.7139   27.5060 C   0  0  0  0  0  0  0  0  0  0  0  0
  -28.1053    0.7744   26.6421 C   0  0  0  0  0  0  0  0  0  0  0  0
  -29.2041    0.1179   27.0477 C   0  0  0  0  0  0  0  0  0  0  0  0
  -29.2127   -0.6088   28.1281 C   0  0  0  0  0  0  0  0  0  0  0  0
  -30.5638    0.2475   26.0224 Cl  0  0  0  0  0  0  0  0  0  0  0  0
  -25.6995    1.4455   27.1228 C   0  0  0  0  0  0  0  0  0  0  0  0
  -25.3808    1.9859   26.1420 C   0  0  0  0  0  0  0  0  0  0  0  0
  -24.0675    2.6553   25.9463 C   0  0  0  0  0  0  0  0  0  0  0  0
  -23.0535    2.4052   26.9107 C   0  0  0  0  0  0  0  0  0  0  0  0
  -23.3543    1.6250   28.0170 C   0  0  0  0  0  0  0  0  0  0  0  0
  -24.6328    1.1060   28.1778 C   0  0  0  0  0  0  0  0  0  0  0  0
  -22.3496    1.4667   28.8956 O   0  0  0  0  0  0  0  0  0  0  0  0
  -22.6030    0.5078   29.8528 C   0  0  0  0  0  0  0  0  0  0  0  0
  5  7  1  0
  3  8  1  0
 12 14  1  0
 14 15  1  0
  1  2  2  0
  2  3  1  0
  3  4  2  0
  4  5  1  0
  5  6  2  0
  6  1  1  0
  8  9  2  0
  9 10  1  0
 10 11  2  0
 11 12  1  0
 12 13  2  0
 13  8  1  0
M  END

$$$$
