No_1040-gen_results/8p0m/2024-11-27-11-27-31/
     RDKit          3D

 16 17  0  0  0  0  0  0  0  0999 V2000
  -28.0162   -0.8135   28.8779 C   0  0  0  0  0  0  0  0  0  0  0  0
  -27.0636   -0.1190   28.6079 C   0  0  0  0  0  0  0  0  0  0  0  0
  -26.9716    0.7139   27.5060 C   0  0  0  0  0  0  0  0  0  0  0  0
  -25.8205    1.4909   27.1160 C   0  0  0  0  0  0  0  0  0  0  0  0
  -24.8579    1.3421   27.6008 C   0  0  0  0  0  0  0  0  0  0  0  0
  -24.6224    0.5295   28.8144 C   0  0  0  0  0  0  0  0  0  0  0  0
  -25.7344   -0.1811   29.1908 C   0  0  0  0  0  0  0  0  0  0  0  0
  -28.6269   -0.4745   30.2487 C   0  0  0  0  0  0  0  0  0  0  0  0
  -29.7287   -1.2771   30.7236 C   0  0  0  0  0  0  0  0  0  0  0  0
  -23.5103    2.1338   27.3073 C   0  0  0  0  0  0  0  0  0  0  0  0
  -22.5944    2.2186   28.1088 O   0  0  0  0  0  0  0  0  0  0  0  0
  -23.4439    2.7363   26.1415 O   0  0  0  0  0  0  0  0  0  0  0  0
  -30.0934   -2.2069   29.9636 C   0  0  0  0  0  0  0  0  0  0  0  0
  -29.6312   -2.7560   28.9667 C   0  0  0  0  0  0  0  0  0  0  0  0
  -28.5705   -2.0090   28.4273 C   0  0  0  0  0  0  0  0  0  0  0  0
  -28.0884    0.8421   26.8038 F   0  0  0  0  0  0  0  0  0  0  0  0
  5 10  1  0
 10 11  1  0
 10 12  2  0
  3 16  1  0
  1  2  1  0
  1  8  2  0
  8  9  1  0
  9 13  2  0
 13 14  1  0
 14 15  2  0
 15  1  1  0
  2  3  2  0
  3  4  1  0
  4  5  2  0
  5  6  1  0
  6  7  2  0
  7  2  1  0
M  END

$$$$
