No_1521-gen_results/8p0m/2024-11-27-11-27-31/
     RDKit          3D

 31 32  0  0  0  0  0  0  0  0999 V2000
  -28.0162   -0.8135   28.8779 C   0  0  0  0  0  0  0  0  0  0  0  0
  -28.4690   -0.7850   29.8287 C   0  0  0  0  0  0  0  0  0  0  0  0
  -27.0871    0.2903   28.6377 C   0  0  0  0  0  0  0  0  0  0  0  0
  -26.2516    0.4114   27.4223 C   0  0  0  0  0  0  0  0  0  0  0  0
  -28.3913    0.1041   30.9805 C   0  0  0  0  0  0  0  0  0  0  0  0
  -27.5332    1.1666   30.7866 C   0  0  0  0  0  0  0  0  0  0  0  0
  -26.8281    1.2557   29.6454 C   0  0  0  0  0  0  0  0  0  0  0  0
  -26.2894   -0.3208   26.7008 F   0  0  0  0  0  0  0  0  0  0  0  0
  -26.4501    1.7036   26.8785 F   0  0  0  0  0  0  0  0  0  0  0  0
  -24.8206    0.5393   27.7857 F   0  0  0  0  0  0  0  0  0  0  0  0
  -29.4616   -2.0181   30.2134 C   0  0  0  0  0  0  0  0  0  0  0  0
  -29.0571   -3.1828   30.3946 O   0  0  0  0  0  0  0  0  0  0  0  0
  -30.6852   -1.7927   30.3630 O   0  0  0  0  0  0  0  0  0  0  0  0
  -27.3240    2.1925   31.8316 C   0  0  0  0  0  0  0  0  0  0  0  0
  -26.5719    3.0554   31.7348 C   0  0  0  0  0  0  0  0  0  0  0  0
  -26.3038    4.1538   32.7644 C   0  0  0  0  0  0  0  0  0  0  0  0
  -27.0015    4.0384   33.9332 C   0  0  0  0  0  0  0  0  0  0  0  0
  -27.8629    2.9808   34.0809 C   0  0  0  0  0  0  0  0  0  0  0  0
  -28.0576    2.0491   33.0930 C   0  0  0  0  0  0  0  0  0  0  0  0
  -25.2970    5.2120   32.5001 C   0  0  0  0  0  0  0  0  0  0  0  0
  -24.2072    5.0668   32.9109 O   0  0  0  0  0  0  0  0  0  0  0  0
  -25.6864    6.2017   31.8415 O   0  0  0  0  0  0  0  0  0  0  0  0
  -28.6018    2.8538   35.4007 C   0  0  0  0  0  0  0  0  0  0  0  0
  -28.2482    3.5838   36.3182 O   0  0  0  0  0  0  0  0  0  0  0  0
  -29.5587    1.9832   35.4606 O   0  0  0  0  0  0  0  0  0  0  0  0
  -24.8194    7.1061   31.3881 C   0  0  0  0  0  0  0  0  0  0  0  0
  -25.0379    7.5320   30.0122 C   0  0  0  0  0  0  0  0  0  0  0  0
  -25.3808    6.7529   29.1901 O   0  0  0  0  0  0  0  0  0  0  0  0
  -25.9647    5.8830   29.0601 C   0  0  0  0  0  0  0  0  0  0  0  0
  -25.6968    4.8318   28.0265 C   0  0  0  0  0  0  0  0  0  0  0  0
  -24.6761    4.1907   28.0876 O   0  0  0  0  0  0  0  0  0  0  0  0
  3  4  1  0
  4  8  1  0
  4  9  1  0
  4 10  1  0
  2 11  1  0
 11 12  2  0
 11 13  1  0
  6 14  1  0
 16 20  1  0
 20 21  2  0
 20 22  1  0
 18 23  1  0
 23 24  1  0
 23 25  2  0
 22 26  1  0
 26 27  1  0
 27 28  1  0
 28 29  1  0
 29 30  2  0
 30 31  2  0
 14 15  2  0
 15 16  1  0
 16 17  2  0
 17 18  1  0
 18 19  2  0
 19 14  1  0
  1  2  2  0
  2  5  1  0
  5  6  2  0
  6  7  1  0
  7  3  2  0
  3  1  1  0
M  END

$$$$
