No_1005-gen_results/8p0m/2024-11-27-11-27-31/
     RDKit          3D

 21 22  0  0  0  0  0  0  0  0999 V2000
  -28.0162   -0.8135   28.8779 C   0  0  0  0  0  0  0  0  0  0  0  0
  -28.4690   -0.7850   29.8287 C   0  0  0  0  0  0  0  0  0  0  0  0
  -26.5455   -0.8762   28.8500 C   0  0  0  0  0  0  0  0  0  0  0  0
  -25.8041   -1.0324   30.0571 C   0  0  0  0  0  0  0  0  0  0  0  0
  -26.5373   -1.0386   31.2171 C   0  0  0  0  0  0  0  0  0  0  0  0
  -27.8843   -0.9532   31.1862 C   0  0  0  0  0  0  0  0  0  0  0  0
  -24.3655   -1.1134   30.0483 C   0  0  0  0  0  0  0  0  0  0  0  0
  -23.6925    0.1188   29.9185 C   0  0  0  0  0  0  0  0  0  0  0  0
  -23.1776    0.5817   28.7884 C   0  0  0  0  0  0  0  0  0  0  0  0
  -23.6021    1.3720   27.8809 C   0  0  0  0  0  0  0  0  0  0  0  0
  -23.0124    1.6054   26.6401 C   0  0  0  0  0  0  0  0  0  0  0  0
  -23.6035    2.5003   25.7727 C   0  0  0  0  0  0  0  0  0  0  0  0
  -24.8349    2.0946   28.0951 C   0  0  0  0  0  0  0  0  0  0  0  0
  -25.3732    3.0501   27.2634 C   0  0  0  0  0  0  0  0  0  0  0  0
  -26.5318    3.8030   27.6466 C   0  0  0  0  0  0  0  0  0  0  0  0
  -24.7189    3.2581   26.0796 C   0  0  0  0  0  0  0  0  0  0  0  0
  -21.8218   -0.1102   28.5921 C   0  0  0  0  0  0  0  0  0  0  0  0
  -27.6884    3.3437   27.4333 O   0  0  0  0  0  0  0  0  0  0  0  0
  -26.3784    4.9669   28.2084 O   0  0  0  0  0  0  0  0  0  0  0  0
  -25.8353   -0.8177   27.6828 O   0  0  0  0  0  0  0  0  0  0  0  0
  -23.7107    1.0061   31.1181 C   0  0  0  0  0  0  0  0  0  0  0  0
  4  7  1  0
  7  8  1  0
  8  9  1  0
  9 10  1  0
 14 15  1  0
  9 17  1  0
 15 18  1  0
 15 19  2  0
  3 20  1  0
  8 21  1  0
  1  2  2  0
  2  6  1  0
  6  5  2  0
  5  4  1  0
  4  3  2  0
  3  1  1  0
 10 11  2  0
 11 12  1  0
 12 16  2  0
 16 14  1  0
 14 13  2  0
 13 10  1  0
M  END

$$$$
