No_1508-gen_results/8p0m/2024-11-27-11-27-31/
     RDKit          3D

 26 28  0  0  0  0  0  0  0  0999 V2000
  -28.0162   -0.8135   28.8779 C   0  0  0  0  0  0  0  0  0  0  0  0
  -28.4690   -0.7850   29.8287 C   0  0  0  0  0  0  0  0  0  0  0  0
  -26.5042   -0.7777   28.8766 C   0  0  0  0  0  0  0  0  0  0  0  0
  -25.8103   -0.8531   30.1028 C   0  0  0  0  0  0  0  0  0  0  0  0
  -27.9906   -0.8916   31.2257 C   0  0  0  0  0  0  0  0  0  0  0  0
  -26.6042   -0.8676   31.2652 C   0  0  0  0  0  0  0  0  0  0  0  0
  -24.3894   -0.8049   30.1638 C   0  0  0  0  0  0  0  0  0  0  0  0
  -23.7660   -0.9500   31.0679 C   0  0  0  0  0  0  0  0  0  0  0  0
  -24.4866   -1.0287   32.3849 C   0  0  0  0  0  0  0  0  0  0  0  0
  -25.8375   -0.9259   32.4678 C   0  0  0  0  0  0  0  0  0  0  0  0
  -25.5066   -0.6828   27.2731 Br  0  0  0  0  0  0  0  0  0  0  0  0
  -30.0990   -0.8539   29.8321 C   0  0  0  0  0  0  0  0  0  0  0  0
  -30.7836   -1.6550   30.2899 O   0  0  0  0  0  0  0  0  0  0  0  0
  -30.6003    0.3381   29.4973 O   0  0  0  0  0  0  0  0  0  0  0  0
  -31.6767    0.6232   29.1667 C   0  0  0  0  0  0  0  0  0  0  0  0
  -31.8408    1.8810   28.5332 C   0  0  0  0  0  0  0  0  0  0  0  0
  -30.9489    2.7936   28.6586 C   0  0  0  0  0  0  0  0  0  0  0  0
  -30.9954    4.0588   28.0078 C   0  0  0  0  0  0  0  0  0  0  0  0
  -29.9880    5.0979   28.1196 C   0  0  0  0  0  0  0  0  0  0  0  0
  -28.8134    4.8193   28.8393 C   0  0  0  0  0  0  0  0  0  0  0  0
  -28.7277    3.5455   29.4936 C   0  0  0  0  0  0  0  0  0  0  0  0
  -29.7206    2.6411   29.3802 C   0  0  0  0  0  0  0  0  0  0  0  0
  -27.4798    3.3108   30.2799 C   0  0  0  0  0  0  0  0  0  0  0  0
  -27.5690    2.7025   31.4633 C   0  0  0  0  0  0  0  0  0  0  0  0
  -26.2664    3.6796   29.6488 C   0  0  0  0  0  0  0  0  0  0  0  0
  -26.0864    4.0504   28.6123 O   0  0  0  0  0  0  0  0  0  0  0  0
  3 11  1  0
  2 12  1  0
 12 13  2  0
 12 14  1  0
 14 15  1  0
 15 16  2  3
 16 17  1  0
 21 23  1  0
 23 24  1  0
 23 25  1  0
 25 26  2  0
  6 10  1  0
 10  9  2  0
  9  8  1  0
  8  7  2  0
  7  4  1  0
 17 18  2  0
 18 19  1  0
 19 20  2  0
 20 21  1  0
 21 22  2  0
 22 17  1  0
  1  2  2  0
  2  5  1  0
  5  6  2  0
  6  4  1  0
  4  3  2  0
  3  1  1  0
M  END

$$$$
