No_1300-gen_results/8p0m/2024-11-27-11-27-31/
     RDKit          3D

 15 16  0  0  0  0  0  0  0  0999 V2000
  -28.0162   -0.8135   28.8779 C   0  0  0  0  0  0  0  0  0  0  0  0
  -28.4690   -0.7850   29.8287 C   0  0  0  0  0  0  0  0  0  0  0  0
  -27.1356    0.2359   28.5352 C   0  0  0  0  0  0  0  0  0  0  0  0
  -26.8745    1.2825   29.3982 C   0  0  0  0  0  0  0  0  0  0  0  0
  -28.3613    0.1987   30.9244 C   0  0  0  0  0  0  0  0  0  0  0  0
  -27.5277    1.2234   30.6356 C   0  0  0  0  0  0  0  0  0  0  0  0
  -26.3879    0.2914   27.2334 C   0  0  0  0  0  0  0  0  0  0  0  0
  -26.5292    0.7116   26.2887 N   0  0  0  0  0  0  0  0  0  0  0  0
  -24.5183   -0.1698   27.5872 Br  0  0  0  0  0  0  0  0  0  0  0  0
  -27.7874    1.2483   26.0707 C   0  0  0  0  0  0  0  0  0  0  0  0
  -28.2898    1.2069   24.7258 C   0  0  0  0  0  0  0  0  0  0  0  0
  -29.5138    1.7976   24.4781 C   0  0  0  0  0  0  0  0  0  0  0  0
  -30.2115    2.5027   25.4547 C   0  0  0  0  0  0  0  0  0  0  0  0
  -29.6406    2.6564   26.7119 C   0  0  0  0  0  0  0  0  0  0  0  0
  -28.4639    2.0848   27.0070 C   0  0  0  0  0  0  0  0  0  0  0  0
  3  7  1  0
  7  8  2  3
  7  9  1  0
  8 10  1  0
  1  2  2  0
  2  5  1  0
  5  6  2  0
  6  4  1  0
  4  3  2  0
  3  1  1  0
 10 11  2  0
 11 12  1  0
 12 13  2  0
 13 14  1  0
 14 15  2  0
 15 10  1  0
M  END

$$$$
