No_1383-gen_results/8p0m/2024-11-27-11-27-31/
     RDKit          3D

 22 23  0  0  0  0  0  0  0  0999 V2000
  -28.0162   -0.8135   28.8779 C   0  0  0  0  0  0  0  0  0  0  0  0
  -28.4690   -0.7850   29.8287 C   0  0  0  0  0  0  0  0  0  0  0  0
  -26.5042   -0.7777   28.8766 C   0  0  0  0  0  0  0  0  0  0  0  0
  -25.8103   -0.8531   30.1028 C   0  0  0  0  0  0  0  0  0  0  0  0
  -27.9906   -0.8916   31.2257 C   0  0  0  0  0  0  0  0  0  0  0  0
  -26.6042   -0.8676   31.2652 C   0  0  0  0  0  0  0  0  0  0  0  0
  -24.3894   -0.8049   30.1638 C   0  0  0  0  0  0  0  0  0  0  0  0
  -23.8172    0.4762   29.9118 C   0  0  0  0  0  0  0  0  0  0  0  0
  -22.5010    0.5449   29.4097 C   0  0  0  0  0  0  0  0  0  0  0  0
  -21.9695    1.7500   28.9289 C   0  0  0  0  0  0  0  0  0  0  0  0
  -22.4910    1.9927   27.5925 C   0  0  0  0  0  0  0  0  0  0  0  0
  -23.8754    2.4372   27.5369 C   0  0  0  0  0  0  0  0  0  0  0  0
  -24.3252    2.5587   26.2246 C   0  0  0  0  0  0  0  0  0  0  0  0
  -25.3757    1.8369   25.8677 C   0  0  0  0  0  0  0  0  0  0  0  0
  -25.2176    0.6224   25.1512 C   0  0  0  0  0  0  0  0  0  0  0  0
  -26.3014   -0.2504   24.8941 C   0  0  0  0  0  0  0  0  0  0  0  0
  -27.5329    0.3416   24.7373 C   0  0  0  0  0  0  0  0  0  0  0  0
  -27.8163    1.5800   25.3490 C   0  0  0  0  0  0  0  0  0  0  0  0
  -26.7432    2.4040   25.8457 C   0  0  0  0  0  0  0  0  0  0  0  0
  -24.7133    1.5509   28.4761 C   0  0  0  0  0  0  0  0  0  0  0  0
  -25.5978    2.2470   29.3229 O   0  0  0  0  0  0  0  0  0  0  0  0
  -25.1501    0.4210   27.8264 O   0  0  0  0  0  0  0  0  0  0  0  0
  4  7  1  0
  7  8  1  0
  8  9  2  3
  9 10  1  0
 10 11  1  0
 11 12  1  0
 12 13  1  0
 13 14  1  0
 12 20  1  0
 20 21  1  0
 20 22  1  0
 14 15  2  0
 15 16  1  0
 16 17  2  0
 17 18  1  0
 18 19  2  0
 19 14  1  0
  1  2  2  0
  2  5  1  0
  5  6  2  0
  6  4  1  0
  4  3  2  0
  3  1  1  0
M  END

$$$$
