No_1767-gen_results/8p0m/2024-11-27-11-27-31/
     RDKit          3D

 12 12  0  0  0  0  0  0  0  0999 V2000
  -28.0727   -1.2542   28.5316 F   0  0  0  0  0  0  0  0  0  0  0  0
  -27.3591   -0.3792   28.7224 C   0  0  0  0  0  0  0  0  0  0  0  0
  -26.8100    0.1885   27.6513 C   0  0  0  0  0  0  0  0  0  0  0  0
  -25.6015    0.9529   27.6828 C   0  0  0  0  0  0  0  0  0  0  0  0
  -24.8881    1.5328   26.5873 C   0  0  0  0  0  0  0  0  0  0  0  0
  -23.6888    2.2595   26.7241 C   0  0  0  0  0  0  0  0  0  0  0  0
  -22.9533    2.0974   27.8861 C   0  0  0  0  0  0  0  0  0  0  0  0
  -23.4899    1.3640   28.9697 C   0  0  0  0  0  0  0  0  0  0  0  0
  -24.7375    0.7605   28.7865 C   0  0  0  0  0  0  0  0  0  0  0  0
  -27.7801    0.7317   29.7032 C   0  0  0  0  0  0  0  0  0  0  0  0
  -27.6094    1.8063   29.6631 F   0  0  0  0  0  0  0  0  0  0  0  0
  -28.6252    0.1686   30.5820 F   0  0  0  0  0  0  0  0  0  0  0  0
  1  2  1  0
  2  3  2  3
  3  4  1  0
  2 10  1  0
 10 11  1  0
 10 12  1  0
  4  5  2  0
  5  6  1  0
  6  7  2  0
  7  8  1  0
  8  9  2  0
  9  4  1  0
M  END

$$$$
