No_1545-gen_results/8p0m/2024-11-27-11-27-31/
     RDKit          3D

 29 31  0  0  0  0  0  0  0  0999 V2000
  -28.0162   -0.8135   28.8779 C   0  0  0  0  0  0  0  0  0  0  0  0
  -27.0636   -0.1190   28.6079 C   0  0  0  0  0  0  0  0  0  0  0  0
  -25.7923   -0.4302   29.0761 C   0  0  0  0  0  0  0  0  0  0  0  0
  -25.5756   -1.5654   29.9363 C   0  0  0  0  0  0  0  0  0  0  0  0
  -26.7354   -2.3004   30.2173 C   0  0  0  0  0  0  0  0  0  0  0  0
  -27.9184   -1.9537   29.7629 C   0  0  0  0  0  0  0  0  0  0  0  0
  -29.0001   -2.7012   30.1151 O   0  0  0  0  0  0  0  0  0  0  0  0
  -24.5290    0.3490   28.7998 C   0  0  0  0  0  0  0  0  0  0  0  0
  -23.3442    0.0060   29.1658 C   0  0  0  0  0  0  0  0  0  0  0  0
  -22.1783    0.7811   28.7783 C   0  0  0  0  0  0  0  0  0  0  0  0
  -22.3217    1.7499   27.7727 C   0  0  0  0  0  0  0  0  0  0  0  0
  -24.6102    1.3558   27.7479 C   0  0  0  0  0  0  0  0  0  0  0  0
  -23.5148    2.0341   27.3068 C   0  0  0  0  0  0  0  0  0  0  0  0
  -29.3590   -2.8169   31.4427 C   0  0  0  0  0  0  0  0  0  0  0  0
  -29.7819   -4.1265   31.7466 C   0  0  0  0  0  0  0  0  0  0  0  0
  -29.6800   -4.4391   32.9377 O   0  0  0  0  0  0  0  0  0  0  0  0
  -30.0934   -5.7720   33.3645 C   0  0  0  0  0  0  0  0  0  0  0  0
  -31.3976   -5.9612   33.0015 C   0  0  0  0  0  0  0  0  0  0  0  0
  -31.6070   -5.7348   31.5732 C   0  0  0  0  0  0  0  0  0  0  0  0
  -31.0839   -4.3363   31.2343 C   0  0  0  0  0  0  0  0  0  0  0  0
  -31.6141   -3.7474   30.2419 O   0  0  0  0  0  0  0  0  0  0  0  0
  -29.8597   -5.8246   34.7599 F   0  0  0  0  0  0  0  0  0  0  0  0
  -31.7857   -7.3459   33.3176 O   0  0  0  0  0  0  0  0  0  0  0  0
  -32.9410   -5.7631   31.1521 O   0  0  0  0  0  0  0  0  0  0  0  0
  -32.1269   -2.5284   30.4682 C   0  0  0  0  0  0  0  0  0  0  0  0
  -33.5037   -2.4949   30.1693 C   0  0  0  0  0  0  0  0  0  0  0  0
  -34.1310   -1.4488   30.6829 C   0  0  0  0  0  0  0  0  0  0  0  0
  -33.3463   -0.3488   30.8898 C   0  0  0  0  0  0  0  0  0  0  0  0
  -33.9098    0.9093   31.4683 C   0  0  0  0  0  0  0  0  0  0  0  0
  6  7  1  0
  3  8  1  0
  7 14  1  0
 14 15  1  0
 15 16  1  0
 16 17  1  0
 17 18  1  0
 18 19  1  0
 15 20  1  0
 19 20  1  0
 20 21  1  0
 17 22  1  0
 18 23  1  0
 19 24  1  0
 21 25  1  0
 25 26  1  0
 26 27  1  0
 27 28  2  3
 28 29  1  0
  1  2  2  0
  2  3  1  0
  3  4  2  0
  4  5  1  0
  5  6  2  0
  6  1  1  0
  8  9  2  0
  9 10  1  0
 10 11  2  0
 11 13  1  0
 13 12  2  0
 12  8  1  0
M  END

$$$$
