No_1190-gen_results/8p0m/2024-11-27-11-27-31/
     RDKit          3D

 35 38  0  0  0  0  0  0  0  0999 V2000
  -28.0162   -0.8135   28.8779 C   0  0  0  0  0  0  0  0  0  0  0  0
  -27.0636   -0.1189   28.6079 C   0  0  0  0  0  0  0  0  0  0  0  0
  -25.7923   -0.4302   29.0761 C   0  0  0  0  0  0  0  0  0  0  0  0
  -25.5756   -1.5654   29.9363 C   0  0  0  0  0  0  0  0  0  0  0  0
  -26.7354   -2.3004   30.2173 C   0  0  0  0  0  0  0  0  0  0  0  0
  -27.9184   -1.9537   29.7629 C   0  0  0  0  0  0  0  0  0  0  0  0
  -27.1057    1.1023   27.7593 C   0  0  0  0  0  0  0  0  0  0  0  0
  -26.1219    1.4820   27.0232 C   0  0  0  0  0  0  0  0  0  0  0  0
  -24.7142    1.1299   27.4889 C   0  0  0  0  0  0  0  0  0  0  0  0
  -24.5718    0.0966   28.4066 C   0  0  0  0  0  0  0  0  0  0  0  0
  -23.5476    1.7679   26.9015 C   0  0  0  0  0  0  0  0  0  0  0  0
  -23.4844    2.5317   25.8074 C   0  0  0  0  0  0  0  0  0  0  0  0
  -22.3003    1.5421   27.6678 C   0  0  0  0  0  0  0  0  0  0  0  0
  -22.2079    1.0009   28.7982 N   0  0  0  0  0  0  0  0  0  0  0  0
  -23.3001    0.1399   29.1595 C   0  0  0  0  0  0  0  0  0  0  0  0
  -29.0991   -2.5386   30.1090 O   0  0  0  0  0  0  0  0  0  0  0  0
  -30.1647   -1.8407   30.5500 C   0  0  0  0  0  0  0  0  0  0  0  0
  -31.3088   -2.1823   29.9068 C   0  0  0  0  0  0  0  0  0  0  0  0
  -32.2745   -2.0691   30.3002 O   0  0  0  0  0  0  0  0  0  0  0  0
  -31.2260   -2.7446   28.7546 O   0  0  0  0  0  0  0  0  0  0  0  0
  -30.0411   -1.0531   31.5069 O   0  0  0  0  0  0  0  0  0  0  0  0
  -28.4160    1.7461   27.5669 C   0  0  0  0  0  0  0  0  0  0  0  0
  -29.0395    1.9561   28.5424 F   0  0  0  0  0  0  0  0  0  0  0  0
  -28.2451    2.9252   26.9617 F   0  0  0  0  0  0  0  0  0  0  0  0
  -29.1662    0.9414   26.6946 F   0  0  0  0  0  0  0  0  0  0  0  0
  -23.0979   -0.5936   30.1996 O   0  0  0  0  0  0  0  0  0  0  0  0
  -21.1899    2.0918   27.2351 O   0  0  0  0  0  0  0  0  0  0  0  0
  -32.3115   -2.9012   27.8753 C   0  0  0  0  0  0  0  0  0  0  0  0
  -32.2227   -4.1903   27.2910 C   0  0  0  0  0  0  0  0  0  0  0  0
  -32.8182   -4.3328   26.2261 O   0  0  0  0  0  0  0  0  0  0  0  0
  -31.5646   -5.1618   27.7273 O   0  0  0  0  0  0  0  0  0  0  0  0
  -32.2441   -1.8036   26.8238 C   0  0  0  0  0  0  0  0  0  0  0  0
  -32.4901   -1.8321   25.7041 C   0  0  0  0  0  0  0  0  0  0  0  0
  -32.7621   -3.2627   25.1721 C   0  0  0  0  0  0  0  0  0  0  0  0
  -32.0221   -0.4793   27.3514 O   0  0  0  0  0  0  0  0  0  0  0  0
  9 11  1  0
 11 12  2  0
 11 13  1  0
 13 14  1  0
 10 15  1  0
 14 15  1  0
  6 16  1  0
 16 17  1  0
 17 18  1  0
 18 19  2  0
 18 20  1  0
 17 21  2  0
  7 22  1  0
 22 23  1  0
 22 24  1  0
 22 25  1  0
 15 26  2  0
 13 27  2  0
 20 28  1  0
 28 29  1  0
 29 30  1  0
 29 31  2  0
 28 32  1  0
 32 33  2  0
 30 34  1  0
 33 34  1  0
 32 35  1  0
  1  2  2  0
  3  4  2  0
  4  5  1  0
  5  6  2  0
  6  1  1  0
  2  3  1  0
  3 10  1  0
 10  9  2  0
  9  8  1  0
  8  7  2  0
  7  2  1  0
M  END

$$$$
