No_1619-gen_results/8p0m/2024-11-27-11-27-31/
     RDKit          3D

 23 24  0  0  0  0  0  0  0  0999 V2000
  -28.1229   -1.3353   28.4874 O   0  0  0  0  0  0  0  0  0  0  0  0
  -27.0637   -0.8242   28.8687 C   0  0  0  0  0  0  0  0  0  0  0  0
  -27.0246    0.1877   29.7358 C   0  0  0  0  0  0  0  0  0  0  0  0
  -27.8240    0.5330   30.2854 C   0  0  0  0  0  0  0  0  0  0  0  0
  -25.9291   -1.3440   28.2220 O   0  0  0  0  0  0  0  0  0  0  0  0
  -25.5217    0.6846   29.9861 C   0  0  0  0  0  0  0  0  0  0  0  0
  -25.2672    1.6216   30.6868 C   0  0  0  0  0  0  0  0  0  0  0  0
  -27.6496    1.7361   31.3409 C   0  0  0  0  0  0  0  0  0  0  0  0
  -26.3527    2.2178   31.4858 C   0  0  0  0  0  0  0  0  0  0  0  0
  -26.0671    3.3579   32.4048 C   0  0  0  0  0  0  0  0  0  0  0  0
  -26.2878    3.2975   33.6255 N   0  0  0  0  0  0  0  0  0  0  0  0
  -25.8049    4.4909   31.8185 O   0  0  0  0  0  0  0  0  0  0  0  0
  -26.7183    2.1425   34.3159 C   0  0  0  0  0  0  0  0  0  0  0  0
  -25.9293    4.4831   34.4684 C   0  0  0  0  0  0  0  0  0  0  0  0
  -26.9798    4.5800   35.5594 C   0  0  0  0  0  0  0  0  0  0  0  0
  -27.2101    5.6069   36.0313 C   0  0  0  0  0  0  0  0  0  0  0  0
  -27.6451    3.3585   35.8429 C   0  0  0  0  0  0  0  0  0  0  0  0
  -27.5652    2.2652   35.2069 N   0  0  0  0  0  0  0  0  0  0  0  0
  -26.9061    6.8206   35.5213 N   0  0  0  0  0  0  0  0  0  0  0  0
  -27.1384    8.0389   36.0755 C   0  0  0  0  0  0  0  0  0  0  0  0
  -26.7844    9.2303   35.3210 C   0  0  0  0  0  0  0  0  0  0  0  0
  -26.5171    9.2448   34.2699 C   0  0  0  0  0  0  0  0  0  0  0  0
  -26.1984    7.9885   33.5314 C   0  0  0  0  0  0  0  0  0  0  0  0
  1  2  1  0
  2  3  1  0
  2  5  2  0
  9 10  1  0
 10 11  1  0
 10 12  2  0
 11 13  1  0
 11 14  1  0
 14 15  1  0
 15 17  1  0
 13 18  1  0
 16 19  1  0
 19 20  2  3
 20 21  1  0
 21 22  2  3
 22 23  1  0
 16 15  1  0
 18 17  1  0
  3  4  2  0
  4  8  1  0
  8  9  2  0
  9  7  1  0
  7  6  2  0
  6  3  1  0
M  END

$$$$
