No_136-gen_results/8p0m/2024-11-27-11-27-31/
     RDKit          3D

 21 23  0  0  0  0  0  0  0  0999 V2000
  -28.0162   -0.8135   28.8779 C   0  0  0  0  0  0  0  0  0  0  0  0
  -27.0636   -0.1189   28.6079 C   0  0  0  0  0  0  0  0  0  0  0  0
  -26.9716    0.7139   27.5060 C   0  0  0  0  0  0  0  0  0  0  0  0
  -28.1053    0.7744   26.6421 C   0  0  0  0  0  0  0  0  0  0  0  0
  -29.2008    0.1044   27.0527 C   0  0  0  0  0  0  0  0  0  0  0  0
  -29.2096   -0.6029   28.1853 C   0  0  0  0  0  0  0  0  0  0  0  0
  -30.3702    0.2264   26.1604 C   0  0  0  0  0  0  0  0  0  0  0  0
  -30.3387    0.2161   24.9661 O   0  0  0  0  0  0  0  0  0  0  0  0
  -31.6346    0.1197   26.7803 N   0  0  0  0  0  0  0  0  0  0  0  0
  -32.7984    0.0964   25.9807 C   0  0  0  0  0  0  0  0  0  0  0  0
  -28.0264   -1.6624   30.1436 C   0  0  0  0  0  0  0  0  0  0  0  0
  -28.6624   -1.7637   30.9309 O   0  0  0  0  0  0  0  0  0  0  0  0
  -26.7566   -2.2492   30.2693 O   0  0  0  0  0  0  0  0  0  0  0  0
  -25.5018    1.5262   27.0335 Cl  0  0  0  0  0  0  0  0  0  0  0  0
  -31.8891    0.1986   28.2166 C   0  0  0  0  0  0  0  0  0  0  0  0
  -32.9939    0.6129   28.4974 C   0  0  0  0  0  0  0  0  0  0  0  0
  -33.3602    0.9505   29.7711 C   0  0  0  0  0  0  0  0  0  0  0  0
  -32.4122    0.6599   30.8459 C   0  0  0  0  0  0  0  0  0  0  0  0
  -31.1676    0.2098   30.4831 C   0  0  0  0  0  0  0  0  0  0  0  0
  -30.8706    0.0507   29.2308 C   0  0  0  0  0  0  0  0  0  0  0  0
  -29.6759   -0.2719   29.0822 O   0  0  0  0  0  0  0  0  0  0  0  0
  5  7  1  0
  7  8  2  0
  7  9  1  0
  9 10  1  0
  1 11  1  0
 11 12  1  0
 11 13  2  0
  3 14  1  0
  9 15  1  0
  6 21  1  0
 20 21  1  0
 15 16  2  0
 16 17  1  0
 17 18  2  0
 18 19  1  0
 19 20  2  0
 20 15  1  0
  1  2  2  0
  2  3  1  0
  3  4  2  0
  4  5  1  0
  5  6  2  0
  6  1  1  0
M  END

$$$$
