No_1515-gen_results/8p0m/2024-11-27-11-27-31/
     RDKit          3D

 14 15  0  0  0  0  0  0  0  0999 V2000
  -28.0162   -0.8135   28.8779 C   0  0  0  0  0  0  0  0  0  0  0  0
  -27.0636   -0.1189   28.6079 C   0  0  0  0  0  0  0  0  0  0  0  0
  -26.8756    1.1325   28.9134 C   0  0  0  0  0  0  0  0  0  0  0  0
  -27.9014    1.8066   29.6436 C   0  0  0  0  0  0  0  0  0  0  0  0
  -29.0458   -0.2316   29.7181 C   0  0  0  0  0  0  0  0  0  0  0  0
  -28.9402    1.0517   30.0597 C   0  0  0  0  0  0  0  0  0  0  0  0
  -30.0593   -1.0632   30.0946 O   0  0  0  0  0  0  0  0  0  0  0  0
  -25.6684    1.9362   28.4484 C   0  0  0  0  0  0  0  0  0  0  0  0
  -24.8300    1.8451   27.8766 C   0  0  0  0  0  0  0  0  0  0  0  0
  -23.6993    2.7703   27.5516 C   0  0  0  0  0  0  0  0  0  0  0  0
  -25.7348    3.4201   29.0156 C   0  0  0  0  0  0  0  0  0  0  0  0
  -27.0320    3.8946   30.3007 Br  0  0  0  0  0  0  0  0  0  0  0  0
  -23.9262    3.9856   27.8544 N   0  0  0  0  0  0  0  0  0  0  0  0
  -24.8078    4.3600   28.6517 C   0  0  0  0  0  0  0  0  0  0  0  0
  5  7  1  0
  3  8  1  0
 11 12  1  0
  8  9  2  0
  9 10  1  0
 10 13  2  0
 13 14  1  0
 14 11  2  0
 11  8  1  0
  1  2  2  0
  2  3  1  0
  3  4  2  0
  4  6  1  0
  6  5  2  0
  5  1  1  0
M  END

$$$$
