No_1264-gen_results/8p0m/2024-11-27-11-27-31/
     RDKit          3D

 16 17  0  0  0  0  0  0  0  0999 V2000
  -28.0162   -0.8135   28.8779 C   0  0  0  0  0  0  0  0  0  0  0  0
  -28.4690   -0.7850   29.8287 C   0  0  0  0  0  0  0  0  0  0  0  0
  -26.5455   -0.8762   28.8500 C   0  0  0  0  0  0  0  0  0  0  0  0
  -25.6825   -0.7773   27.6829 C   0  0  0  0  0  0  0  0  0  0  0  0
  -27.9181   -1.0034   31.1877 C   0  0  0  0  0  0  0  0  0  0  0  0
  -26.5308   -1.0794   31.2463 C   0  0  0  0  0  0  0  0  0  0  0  0
  -25.7798   -1.0462   30.0905 C   0  0  0  0  0  0  0  0  0  0  0  0
  -25.8976    0.2387   26.7449 C   0  0  0  0  0  0  0  0  0  0  0  0
  -25.6318    1.4984   27.0379 C   0  0  0  0  0  0  0  0  0  0  0  0
  -24.8915    1.8300   28.2575 C   0  0  0  0  0  0  0  0  0  0  0  0
  -23.7185    1.2879   28.5049 C   0  0  0  0  0  0  0  0  0  0  0  0
  -23.2410    0.2338   27.6974 C   0  0  0  0  0  0  0  0  0  0  0  0
  -24.3328   -1.1557   27.8561 C   0  0  0  0  0  0  0  0  0  0  0  0
  -25.3146    3.0180   29.0815 C   0  0  0  0  0  0  0  0  0  0  0  0
  -26.4084    2.9228   29.4609 O   0  0  0  0  0  0  0  0  0  0  0  0
  -24.7337    4.1781   28.8029 O   0  0  0  0  0  0  0  0  0  0  0  0
  3  4  1  0
  4  8  1  0
  8  9  2  0
  9 10  1  0
 10 11  2  0
 11 12  1  0
  4 13  1  0
 12 13  1  0
 10 14  1  0
 14 15  1  0
 14 16  2  0
  1  2  2  0
  2  5  1  0
  5  6  2  0
  6  7  1  0
  7  3  2  0
  3  1  1  0
M  END

$$$$
