No_1282-gen_results/8p0m/2024-11-27-11-27-31/
     RDKit          3D

 31 31  0  0  0  0  0  0  0  0999 V2000
  -28.0162   -0.8135   28.8779 C   0  0  0  0  0  0  0  0  0  0  0  0
  -27.0636   -0.1189   28.6079 C   0  0  0  0  0  0  0  0  0  0  0  0
  -26.8756    1.1325   28.9134 C   0  0  0  0  0  0  0  0  0  0  0  0
  -25.6883    1.9515   28.5672 C   0  0  0  0  0  0  0  0  0  0  0  0
  -24.6394    1.2834   27.8753 C   0  0  0  0  0  0  0  0  0  0  0  0
  -24.8181   -0.0802   27.6166 C   0  0  0  0  0  0  0  0  0  0  0  0
  -25.9311   -0.7717   27.9696 C   0  0  0  0  0  0  0  0  0  0  0  0
  -28.6501   -0.5385   30.2330 C   0  0  0  0  0  0  0  0  0  0  0  0
  -29.7142   -1.2183   30.6194 C   0  0  0  0  0  0  0  0  0  0  0  0
  -23.4428    1.9731   27.4688 C   0  0  0  0  0  0  0  0  0  0  0  0
  -23.4399    2.6504   26.5190 O   0  0  0  0  0  0  0  0  0  0  0  0
  -22.1996    1.4517   27.9307 O   0  0  0  0  0  0  0  0  0  0  0  0
  -29.9973   -1.8945   29.8938 F   0  0  0  0  0  0  0  0  0  0  0  0
  -29.4212   -1.8599   31.8256 F   0  0  0  0  0  0  0  0  0  0  0  0
  -30.6860   -0.3510   30.9203 F   0  0  0  0  0  0  0  0  0  0  0  0
  -27.5356   -0.7114   31.1370 F   0  0  0  0  0  0  0  0  0  0  0  0
  -28.8088    0.8330   30.3975 F   0  0  0  0  0  0  0  0  0  0  0  0
  -25.4893    3.3668   28.8571 C   0  0  0  0  0  0  0  0  0  0  0  0
  -25.8332    4.1771   28.0796 O   0  0  0  0  0  0  0  0  0  0  0  0
  -24.9162    3.6058   30.1250 O   0  0  0  0  0  0  0  0  0  0  0  0
  -25.7043    4.3950   30.9314 C   0  0  0  0  0  0  0  0  0  0  0  0
  -25.1396    4.2942   32.2122 C   0  0  0  0  0  0  0  0  0  0  0  0
  -24.0885    4.2645   32.4085 O   0  0  0  0  0  0  0  0  0  0  0  0
  -26.0909    4.2775   33.2962 N   0  0  0  0  0  0  0  0  0  0  0  0
  -27.5304    4.2684   33.1584 C   0  0  0  0  0  0  0  0  0  0  0  0
  -28.0754    3.1288   33.5867 C   0  0  0  0  0  0  0  0  0  0  0  0
  -27.6216    2.2041   34.1476 C   0  0  0  0  0  0  0  0  0  0  0  0
  -28.3515    1.0983   34.6212 C   0  0  0  0  0  0  0  0  0  0  0  0
  -27.8116   -0.0642   35.2859 C   0  0  0  0  0  0  0  0  0  0  0  0
  -26.4089   -0.1271   35.3072 C   0  0  0  0  0  0  0  0  0  0  0  0
  -25.6174    0.7447   34.5631 C   0  0  0  0  0  0  0  0  0  0  0  0
  1  8  1  0
  8  9  1  0
  5 10  1  0
 10 11  2  0
 10 12  1  0
  9 13  1  0
  9 14  1  0
  9 15  1  0
  8 16  1  0
  8 17  1  0
  4 18  1  0
 18 19  2  0
 18 20  1  0
 20 21  1  0
 21 22  1  0
 22 23  2  0
 22 24  1  0
 24 25  1  0
 25 26  1  0
 26 27  2  3
 27 28  1  0
 28 29  2  3
 29 30  1  0
 30 31  2  0
  1  2  1  0
  2  3  2  0
  3  4  1  0
  4  5  2  0
  5  6  1  0
  6  7  2  0
  7  2  1  0
M  END

$$$$
