No_1989-gen_results/8p0m/2024-11-27-11-27-31/
     RDKit          3D

 24 25  0  0  0  0  0  0  0  0999 V2000
  -28.0162   -0.8135   28.8779 C   0  0  0  0  0  0  0  0  0  0  0  0
  -27.0636   -0.1189   28.6079 C   0  0  0  0  0  0  0  0  0  0  0  0
  -25.7923   -0.4302   29.0761 C   0  0  0  0  0  0  0  0  0  0  0  0
  -24.5456    0.3494   28.8225 C   0  0  0  0  0  0  0  0  0  0  0  0
  -24.6586    1.4196   27.8878 C   0  0  0  0  0  0  0  0  0  0  0  0
  -25.9471    1.6811   27.3792 C   0  0  0  0  0  0  0  0  0  0  0  0
  -27.0439    0.9739   27.6871 C   0  0  0  0  0  0  0  0  0  0  0  0
  -29.1218   -0.3264   28.7148 O   0  0  0  0  0  0  0  0  0  0  0  0
  -27.8447   -1.9482   29.6695 N   0  0  0  0  0  0  0  0  0  0  0  0
  -28.6468   -2.6004   30.3511 C   0  0  0  0  0  0  0  0  0  0  0  0
  -28.9417   -2.0896   31.5727 C   0  0  0  0  0  0  0  0  0  0  0  0
  -29.9182   -2.7657   32.4048 C   0  0  0  0  0  0  0  0  0  0  0  0
  -30.4022   -4.0192   31.9666 C   0  0  0  0  0  0  0  0  0  0  0  0
  -30.0290   -4.5357   30.7432 C   0  0  0  0  0  0  0  0  0  0  0  0
  -29.1396   -3.8500   29.9893 C   0  0  0  0  0  0  0  0  0  0  0  0
  -23.4707    2.1903   27.5978 C   0  0  0  0  0  0  0  0  0  0  0  0
  -22.2700    1.7404   28.0285 N   0  0  0  0  0  0  0  0  0  0  0  0
  -23.5553    3.1320   26.6499 N   0  0  0  0  0  0  0  0  0  0  0  0
  -31.3650   -4.7946   32.8233 C   0  0  0  0  0  0  0  0  0  0  0  0
  -31.9539   -4.4209   33.7561 O   0  0  0  0  0  0  0  0  0  0  0  0
  -31.5431   -6.1115   32.4669 N   0  0  0  0  0  0  0  0  0  0  0  0
  -32.4472   -6.9670   33.1734 C   0  0  0  0  0  0  0  0  0  0  0  0
  -32.5213   -8.1167   32.6725 C   0  0  0  0  0  0  0  0  0  0  0  0
  -33.1641   -8.9920   32.6610 C   0  0  0  0  0  0  0  0  0  0  0  0
  1  2  1  0
  1  8  2  0
  1  9  1  0
  9 10  1  0
  5 16  1  0
 16 17  2  0
 16 18  1  0
 13 19  1  0
 19 20  1  0
 19 21  1  0
 21 22  1  0
 22 23  2  3
 23 24  1  0
  2  3  2  0
  3  4  1  0
  4  5  2  0
  5  6  1  0
  6  7  2  0
  7  2  1  0
 10 11  2  0
 11 12  1  0
 12 13  2  0
 13 14  1  0
 14 15  2  0
 15 10  1  0
M  END

$$$$
