No_1060-gen_results/8p0m/2024-11-27-11-27-31/
     RDKit          3D

 22 23  0  0  0  0  0  0  0  0999 V2000
  -28.0162   -0.8135   28.8779 C   0  0  0  0  0  0  0  0  0  0  0  0
  -27.0636   -0.1189   28.6079 C   0  0  0  0  0  0  0  0  0  0  0  0
  -25.7923   -0.4302   29.0761 C   0  0  0  0  0  0  0  0  0  0  0  0
  -25.5756   -1.5654   29.9363 C   0  0  0  0  0  0  0  0  0  0  0  0
  -26.7354   -2.3004   30.2173 C   0  0  0  0  0  0  0  0  0  0  0  0
  -27.9184   -1.9537   29.7629 C   0  0  0  0  0  0  0  0  0  0  0  0
  -29.0001   -2.7012   30.1151 O   0  0  0  0  0  0  0  0  0  0  0  0
  -24.5290    0.3490   28.7998 C   0  0  0  0  0  0  0  0  0  0  0  0
  -24.4808    1.2113   27.7998 C   0  0  0  0  0  0  0  0  0  0  0  0
  -23.2478    1.8974   27.4951 C   0  0  0  0  0  0  0  0  0  0  0  0
  -22.0497    1.5890   28.1642 C   0  0  0  0  0  0  0  0  0  0  0  0
  -23.3072    0.0149   29.4618 C   0  0  0  0  0  0  0  0  0  0  0  0
  -22.0852    0.6899   29.1374 C   0  0  0  0  0  0  0  0  0  0  0  0
  -28.8808   -3.9653   30.6064 C   0  0  0  0  0  0  0  0  0  0  0  0
  -30.1311   -4.6678   30.7784 C   0  0  0  0  0  0  0  0  0  0  0  0
  -30.8604   -4.7734   29.8876 O   0  0  0  0  0  0  0  0  0  0  0  0
  -30.9842   -5.7221   29.3393 F   0  0  0  0  0  0  0  0  0  0  0  0
  -29.8351   -6.1625   31.6377 Cl  0  0  0  0  0  0  0  0  0  0  0  0
  -29.2669   -0.5207   28.4399 O   0  0  0  0  0  0  0  0  0  0  0  0
  -29.7854    0.7110   28.4468 C   0  0  0  0  0  0  0  0  0  0  0  0
  -29.9784    1.3533   29.4721 C   0  0  0  0  0  0  0  0  0  0  0  0
  -30.5384    0.7661   30.4469 O   0  0  0  0  0  0  0  0  0  0  0  0
  6  7  1  0
  3  8  1  0
  7 14  1  0
 14 15  1  0
 15 16  1  0
 16 17  1  0
 15 18  1  0
  1 19  1  0
 19 20  1  0
 20 21  3  0
 21 22  1  0
  1  2  2  0
  2  3  1  0
  3  4  2  0
  4  5  1  0
  5  6  2  0
  6  1  1  0
  8  9  2  0
  9 10  1  0
 10 11  2  0
 11 13  1  0
 13 12  2  0
 12  8  1  0
M  END

$$$$
