No_1576-gen_results/8p0m/2024-11-27-11-27-31/
     RDKit          3D

 21 23  0  0  0  0  0  0  0  0999 V2000
  -28.0162   -0.8135   28.8779 C   0  0  0  0  0  0  0  0  0  0  0  0
  -27.0636   -0.1189   28.6079 C   0  0  0  0  0  0  0  0  0  0  0  0
  -25.7923   -0.4302   29.0761 C   0  0  0  0  0  0  0  0  0  0  0  0
  -24.5456    0.3494   28.8225 C   0  0  0  0  0  0  0  0  0  0  0  0
  -23.2409    0.0217   29.3323 C   0  0  0  0  0  0  0  0  0  0  0  0
  -27.8820   -1.8995   29.8633 C   0  0  0  0  0  0  0  0  0  0  0  0
  -26.6706   -2.3272   30.3212 C   0  0  0  0  0  0  0  0  0  0  0  0
  -25.5256   -1.5687   29.9818 C   0  0  0  0  0  0  0  0  0  0  0  0
  -22.1698    0.7965   28.9549 C   0  0  0  0  0  0  0  0  0  0  0  0
  -22.1316    1.7520   27.9916 C   0  0  0  0  0  0  0  0  0  0  0  0
  -24.5371    1.3821   27.7945 C   0  0  0  0  0  0  0  0  0  0  0  0
  -23.3474    2.0449   27.4322 C   0  0  0  0  0  0  0  0  0  0  0  0
  -29.0591   -2.7282   30.2959 C   0  0  0  0  0  0  0  0  0  0  0  0
  -28.9645   -3.9301   30.3064 O   0  0  0  0  0  0  0  0  0  0  0  0
  -30.1714   -2.1110   30.6695 N   0  0  0  0  0  0  0  0  0  0  0  0
  -31.2339   -2.5007   30.9917 C   0  0  0  0  0  0  0  0  0  0  0  0
  -32.2565   -2.2381   31.1371 C   0  0  0  0  0  0  0  0  0  0  0  0
  -33.4804   -2.9394   31.5890 C   0  0  0  0  0  0  0  0  0  0  0  0
  -33.2317   -4.2821   31.8702 C   0  0  0  0  0  0  0  0  0  0  0  0
  -31.9937   -4.8348   31.7345 C   0  0  0  0  0  0  0  0  0  0  0  0
  -30.9761   -4.0852   31.3843 C   0  0  0  0  0  0  0  0  0  0  0  0
  3  4  1  0
  6 13  1  0
 13 14  2  0
 13 15  1  0
 15 16  1  0
  1  2  2  0
  2  3  1  0
  3  8  2  0
  8  7  1  0
  7  6  2  0
  6  1  1  0
  4  5  2  0
  5  9  1  0
  9 10  2  0
 10 12  1  0
 12 11  2  0
 11  4  1  0
 16 17  2  0
 17 18  1  0
 18 19  2  0
 19 20  1  0
 20 21  2  0
 21 16  1  0
M  END

$$$$
