No_1193-gen_results/8p0m/2024-11-27-11-27-31/
     RDKit          3D

 17 18  0  0  0  0  0  0  0  0999 V2000
  -28.0162   -0.8135   28.8779 C   0  0  0  0  0  0  0  0  0  0  0  0
  -27.0636   -0.1190   28.6079 C   0  0  0  0  0  0  0  0  0  0  0  0
  -27.0010    0.6913   27.4910 C   0  0  0  0  0  0  0  0  0  0  0  0
  -25.8548    1.4825   27.0830 C   0  0  0  0  0  0  0  0  0  0  0  0
  -24.6901    1.4526   27.8807 C   0  0  0  0  0  0  0  0  0  0  0  0
  -24.7379    0.6010   29.0416 C   0  0  0  0  0  0  0  0  0  0  0  0
  -25.8234   -0.1688   29.3887 C   0  0  0  0  0  0  0  0  0  0  0  0
  -29.2075   -0.1514   29.0660 N   0  0  0  0  0  0  0  0  0  0  0  0
  -29.7474    0.5548   28.4314 C   0  0  0  0  0  0  0  0  0  0  0  0
  -30.7406    0.2931   27.6888 C   0  0  0  0  0  0  0  0  0  0  0  0
  -31.4731   -0.8672   27.9388 C   0  0  0  0  0  0  0  0  0  0  0  0
  -30.0928   -0.7685   30.1771 C   0  0  0  0  0  0  0  0  0  0  0  0
  -32.5839   -1.2432   27.3371 N   0  0  0  0  0  0  0  0  0  0  0  0
  -31.2852   -1.5691   29.0547 O   0  0  0  0  0  0  0  0  0  0  0  0
  -23.7926    2.4751   27.7421 C   0  0  0  0  0  0  0  0  0  0  0  0
  -23.0036    2.6903   28.6675 O   0  0  0  0  0  0  0  0  0  0  0  0
  -23.5050    2.9376   26.5723 O   0  0  0  0  0  0  0  0  0  0  0  0
  1  2  1  0
  1  8  1  0
  8  9  1  0
  9 10  2  0
 10 11  1  0
  8 12  1  0
 11 13  1  0
 11 14  1  0
 12 14  1  0
  5 15  1  0
 15 16  2  0
 15 17  1  0
  2  3  2  0
  3  4  1  0
  4  5  2  0
  5  6  1  0
  6  7  2  0
  7  2  1  0
M  END

$$$$
