No_1149-gen_results/8p0m/2024-11-27-11-27-31/
     RDKit          3D

  9  9  0  0  0  0  0  0  0  0999 V2000
  -28.0727   -1.2542   28.5316 F   0  0  0  0  0  0  0  0  0  0  0  0
  -28.2662   -0.4214   29.1931 C   0  0  0  0  0  0  0  0  0  0  0  0
  -27.2356   -0.0574   30.0145 C   0  0  0  0  0  0  0  0  0  0  0  0
  -25.8939   -0.7075   29.9664 C   0  0  0  0  0  0  0  0  0  0  0  0
  -24.7958   -0.2915   30.6021 C   0  0  0  0  0  0  0  0  0  0  0  0
  -24.4893    0.7067   30.8338 C   0  0  0  0  0  0  0  0  0  0  0  0
  -25.6529    1.7067   31.0786 C   0  0  0  0  0  0  0  0  0  0  0  0
  -26.8646    1.3021   30.5620 C   0  0  0  0  0  0  0  0  0  0  0  0
  -28.9491    0.5974   28.5364 F   0  0  0  0  0  0  0  0  0  0  0  0
  1  2  1  0
  2  9  1  0
  2  3  1  0
  3  4  2  0
  4  5  1  0
  5  6  2  0
  6  7  1  0
  7  8  2  0
  8  3  1  0
M  END

$$$$
