No_1485-gen_results/8p0m/2024-11-27-11-27-31/
     RDKit          3D

 28 32  0  0  0  0  0  0  0  0999 V2000
  -28.0162   -0.8135   28.8779 C   0  0  0  0  0  0  0  0  0  0  0  0
  -27.0636   -0.1189   28.6079 C   0  0  0  0  0  0  0  0  0  0  0  0
  -27.0010    0.6913   27.4910 C   0  0  0  0  0  0  0  0  0  0  0  0
  -25.8548    1.4825   27.0830 C   0  0  0  0  0  0  0  0  0  0  0  0
  -24.6901    1.4526   27.8807 C   0  0  0  0  0  0  0  0  0  0  0  0
  -24.7379    0.6010   29.0416 C   0  0  0  0  0  0  0  0  0  0  0  0
  -25.8234   -0.1688   29.3887 C   0  0  0  0  0  0  0  0  0  0  0  0
  -28.7125   -0.4634   30.1695 C   0  0  0  0  0  0  0  0  0  0  0  0
  -28.7790    0.6069   30.5305 C   0  0  0  0  0  0  0  0  0  0  0  0
  -28.4587    1.7835   29.8275 C   0  0  0  0  0  0  0  0  0  0  0  0
  -28.6120    2.7833   30.1410 C   0  0  0  0  0  0  0  0  0  0  0  0
  -28.2130    4.0612   29.3971 C   0  0  0  0  0  0  0  0  0  0  0  0
  -27.6404    3.8435   28.1431 C   0  0  0  0  0  0  0  0  0  0  0  0
  -27.1945    5.0256   27.5096 C   0  0  0  0  0  0  0  0  0  0  0  0
  -27.2599    6.2787   28.0594 C   0  0  0  0  0  0  0  0  0  0  0  0
  -27.8216    6.4311   29.2972 C   0  0  0  0  0  0  0  0  0  0  0  0
  -28.2429    5.3115   30.0216 C   0  0  0  0  0  0  0  0  0  0  0  0
  -23.4421    0.4910   29.8369 C   0  0  0  0  0  0  0  0  0  0  0  0
  -22.2580    0.3483   29.1021 C   0  0  0  0  0  0  0  0  0  0  0  0
  -21.3002   -0.6026   29.4948 C   0  0  0  0  0  0  0  0  0  0  0  0
  -21.9784    1.2132   28.0144 C   0  0  0  0  0  0  0  0  0  0  0  0
  -29.3073    3.1931   31.4332 C   0  0  0  0  0  0  0  0  0  0  0  0
  -20.6619    1.3109   27.6396 N   0  0  0  0  0  0  0  0  0  0  0  0
  -20.1037   -0.6014   28.7866 N   0  0  0  0  0  0  0  0  0  0  0  0
  -19.8246    0.3875   27.9455 C   0  0  0  0  0  0  0  0  0  0  0  0
  -29.7006    2.0503   32.2347 C   0  0  0  0  0  0  0  0  0  0  0  0
  -29.4976    0.8610   31.8007 C   0  0  0  0  0  0  0  0  0  0  0  0
  -23.0709    1.9898   27.6268 N   0  0  0  0  0  0  0  0  0  0  0  0
  1  2  1  0
  1  8  1  0
 11 12  1  0
  6 18  1  0
 18 19  1  0
  5 28  1  0
 21 28  1  0
  8  9  1  0
 12 13  2  0
 13 14  1  0
 14 15  2  0
 15 16  1  0
 16 17  2  0
 17 12  1  0
  9 10  2  0
 10 11  1  0
 11 22  2  0
 22 26  1  0
 26 27  2  0
 27  9  1  0
  2  3  2  0
  3  4  1  0
  4  5  2  0
  5  6  1  0
  6  7  2  0
  7  2  1  0
 19 20  2  0
 20 24  1  0
 24 25  2  0
 25 23  1  0
 23 21  2  0
 21 19  1  0
M  END

$$$$
