No_1340-gen_results/8p0m/2024-11-27-11-27-31/
     RDKit          3D

 35 39  0  0  0  0  0  0  0  0999 V2000
  -28.0162   -0.8135   28.8779 C   0  0  0  0  0  0  0  0  0  0  0  0
  -27.0636   -0.1190   28.6079 C   0  0  0  0  0  0  0  0  0  0  0  0
  -27.0010    0.6913   27.4910 C   0  0  0  0  0  0  0  0  0  0  0  0
  -25.8548    1.4825   27.0830 C   0  0  0  0  0  0  0  0  0  0  0  0
  -24.6901    1.4526   27.8807 C   0  0  0  0  0  0  0  0  0  0  0  0
  -24.7379    0.6010   29.0416 C   0  0  0  0  0  0  0  0  0  0  0  0
  -25.8234   -0.1688   29.3887 C   0  0  0  0  0  0  0  0  0  0  0  0
  -28.7125   -0.4634   30.1695 C   0  0  0  0  0  0  0  0  0  0  0  0
  -28.7790    0.6069   30.5305 C   0  0  0  0  0  0  0  0  0  0  0  0
  -29.5397    0.9594   31.8268 C   0  0  0  0  0  0  0  0  0  0  0  0
  -30.0930   -0.1051   32.5067 C   0  0  0  0  0  0  0  0  0  0  0  0
  -29.3384   -1.6245   30.9464 C   0  0  0  0  0  0  0  0  0  0  0  0
  -29.9965   -1.3768   32.1008 C   0  0  0  0  0  0  0  0  0  0  0  0
  -23.4891    2.1663   27.5579 C   0  0  0  0  0  0  0  0  0  0  0  0
  -22.2351    1.7101   28.1580 C   0  0  0  0  0  0  0  0  0  0  0  0
  -22.2974    0.8422   29.2623 C   0  0  0  0  0  0  0  0  0  0  0  0
  -23.4879    0.2597   29.7124 C   0  0  0  0  0  0  0  0  0  0  0  0
  -28.1848    0.8834   26.6459 C   0  0  0  0  0  0  0  0  0  0  0  0
  -28.2205    0.7497   25.5232 O   0  0  0  0  0  0  0  0  0  0  0  0
  -29.4032    1.0907   27.3110 N   0  0  0  0  0  0  0  0  0  0  0  0
  -30.6502    1.2466   26.6068 C   0  0  0  0  0  0  0  0  0  0  0  0
  -31.2264    2.2465   26.7380 C   0  0  0  0  0  0  0  0  0  0  0  0
  -31.0294    3.1384   27.6587 C   0  0  0  0  0  0  0  0  0  0  0  0
  -31.7544    4.3635   27.9179 C   0  0  0  0  0  0  0  0  0  0  0  0
  -31.4692    5.2870   28.9596 C   0  0  0  0  0  0  0  0  0  0  0  0
  -30.3527    5.0020   29.7766 C   0  0  0  0  0  0  0  0  0  0  0  0
  -29.5746    3.8479   29.5580 C   0  0  0  0  0  0  0  0  0  0  0  0
  -29.9133    3.0213   28.5903 C   0  0  0  0  0  0  0  0  0  0  0  0
  -29.3813    2.0943   28.3883 C   0  0  0  0  0  0  0  0  0  0  0  0
  -25.7892   -0.8942   30.4396 O   0  0  0  0  0  0  0  0  0  0  0  0
  -30.8560    0.1744   25.9404 O   0  0  0  0  0  0  0  0  0  0  0  0
  -32.5084    2.3836   25.9005 C   0  0  0  0  0  0  0  0  0  0  0  0
  -33.5928    2.2698   26.2096 N   0  0  0  0  0  0  0  0  0  0  0  0
  -34.6693    2.5497   25.5997 C   0  0  0  0  0  0  0  0  0  0  0  0
  -32.2227    2.9058   24.5472 C   0  0  0  0  0  0  0  0  0  0  0  0
  1  2  1  0
  3  4  1  0
  2  7  1  0
  6  7  1  0
  1  8  1  0
  3 18  1  0
 18 19  2  0
 18 20  1  0
 20 21  1  0
 21 22  1  0
 20 29  1  0
 28 29  1  0
  7 30  2  0
 21 31  2  0
 22 32  1  0
 32 33  1  0
 33 34  1  0
 32 35  1  0
 22 23  1  0
  2  3  1  0
  4  5  1  0
  5  6  2  0
  6 17  1  0
 17 16  2  0
 16 15  1  0
 15 14  2  0
 14  5  1  0
 23 24  2  0
 24 25  1  0
 25 26  2  0
 26 27  1  0
 27 28  2  0
 28 23  1  0
  8  9  2  0
  9 10  1  0
 10 11  2  0
 11 13  1  0
 13 12  2  0
 12  8  1  0
M  END

$$$$
