No_1655-gen_results/8p0m/2024-11-27-11-27-31/
     RDKit          3D

 10 10  0  0  0  0  0  0  0  0999 V2000
  -28.0162   -0.8135   28.8779 C   0  0  0  0  0  0  0  0  0  0  0  0
  -27.0636   -0.1189   28.6079 C   0  0  0  0  0  0  0  0  0  0  0  0
  -25.7923   -0.4302   29.0761 C   0  0  0  0  0  0  0  0  0  0  0  0
  -24.5456    0.3494   28.8225 C   0  0  0  0  0  0  0  0  0  0  0  0
  -23.2409    0.0217   29.3323 C   0  0  0  0  0  0  0  0  0  0  0  0
  -29.3456   -0.3422   28.7604 C   0  0  0  0  0  0  0  0  0  0  0  0
  -29.5393    0.7392   27.9261 C   0  0  0  0  0  0  0  0  0  0  0  0
  -28.4425    1.4440   27.4406 C   0  0  0  0  0  0  0  0  0  0  0  0
  -27.1381    1.0234   27.7832 C   0  0  0  0  0  0  0  0  0  0  0  0
  -23.1279   -1.2619   29.8892 C   0  0  0  0  0  0  0  0  0  0  0  0
  3  4  1  0
  4  5  2  3
  5 10  1  0
  3  2  1  0
  1  2  2  0
  2  9  1  0
  9  8  2  0
  8  7  1  0
  7  6  2  0
  6  1  1  0
M  END

$$$$
