No_1955-gen_results/8p0m/2024-11-27-11-27-31/
     RDKit          3D

 17 18  0  0  0  0  0  0  0  0999 V2000
  -28.1229   -1.3353   28.4874 O   0  0  0  0  0  0  0  0  0  0  0  0
  -28.5208   -0.4363   29.0779 C   0  0  0  0  0  0  0  0  0  0  0  0
  -28.5894    0.5916   28.9464 C   0  0  0  0  0  0  0  0  0  0  0  0
  -28.7865   -0.8872   30.4874 N   0  0  0  0  0  0  0  0  0  0  0  0
  -29.3324    1.6324   29.5095 C   0  0  0  0  0  0  0  0  0  0  0  0
  -29.4472    0.0430   31.3167 C   0  0  0  0  0  0  0  0  0  0  0  0
  -29.6643    1.2919   30.8941 C   0  0  0  0  0  0  0  0  0  0  0  0
  -28.2070    1.0273   27.4337 C   0  0  0  0  0  0  0  0  0  0  0  0
  -27.6154    2.1840   27.2757 N   0  0  0  0  0  0  0  0  0  0  0  0
  -26.2010    2.2842   27.4312 C   0  0  0  0  0  0  0  0  0  0  0  0
  -25.6413    3.5968   27.4041 C   0  0  0  0  0  0  0  0  0  0  0  0
  -24.2684    3.7641   27.4351 C   0  0  0  0  0  0  0  0  0  0  0  0
  -25.3104    1.2833   27.6004 C   0  0  0  0  0  0  0  0  0  0  0  0
  -23.9453    1.3920   27.7084 C   0  0  0  0  0  0  0  0  0  0  0  0
  -23.4228    2.7089   27.5992 C   0  0  0  0  0  0  0  0  0  0  0  0
  -28.3576    3.3351   26.8575 C   0  0  0  0  0  0  0  0  0  0  0  0
  -28.4203    0.3651   26.4704 O   0  0  0  0  0  0  0  0  0  0  0  0
  1  2  2  0
  2  3  1  0
  2  4  1  0
  4  6  1  0
  5  7  1  0
  3  8  1  0
  8  9  1  0
  9 10  1  0
  9 16  1  0
  8 17  2  0
  3  5  1  0
  7  6  1  0
 10 11  2  0
 11 12  1  0
 12 15  2  0
 15 14  1  0
 14 13  2  0
 13 10  1  0
M  END

$$$$
