No_1803-gen_results/8p0m/2024-11-27-11-27-31/
     RDKit          3D

 21 23  0  0  0  0  0  0  0  0999 V2000
  -28.0162   -0.8135   28.8779 C   0  0  0  0  0  0  0  0  0  0  0  0
  -28.4690   -0.7850   29.8287 C   0  0  0  0  0  0  0  0  0  0  0  0
  -27.1356    0.2359   28.5352 C   0  0  0  0  0  0  0  0  0  0  0  0
  -26.8745    1.2825   29.3982 C   0  0  0  0  0  0  0  0  0  0  0  0
  -28.3613    0.1987   30.9244 C   0  0  0  0  0  0  0  0  0  0  0  0
  -27.5277    1.2234   30.6356 C   0  0  0  0  0  0  0  0  0  0  0  0
  -26.3987    0.2949   27.2279 C   0  0  0  0  0  0  0  0  0  0  0  0
  -26.9022    0.7280   26.2134 C   0  0  0  0  0  0  0  0  0  0  0  0
  -26.1747    0.6364   24.9259 C   0  0  0  0  0  0  0  0  0  0  0  0
  -25.0769   -0.2068   27.2393 C   0  0  0  0  0  0  0  0  0  0  0  0
  -24.4662   -0.6746   28.5690 C   0  0  0  0  0  0  0  0  0  0  0  0
  -24.8102    0.2419   24.9847 C   0  0  0  0  0  0  0  0  0  0  0  0
  -24.2910   -0.1013   26.1508 C   0  0  0  0  0  0  0  0  0  0  0  0
  -24.0778   -1.5859   29.1453 C   0  0  0  0  0  0  0  0  0  0  0  0
  -23.4715   -1.5901   30.3718 C   0  0  0  0  0  0  0  0  0  0  0  0
  -23.9079    0.5043   29.4164 C   0  0  0  0  0  0  0  0  0  0  0  0
  -23.3871    0.4097   30.4229 C   0  0  0  0  0  0  0  0  0  0  0  0
  -23.0933   -0.5880   31.1360 C   0  0  0  0  0  0  0  0  0  0  0  0
  -28.3385    1.1471   25.9765 C   0  0  0  0  0  0  0  0  0  0  0  0
  -28.5588    2.2896   26.0054 O   0  0  0  0  0  0  0  0  0  0  0  0
  -29.2418    0.2590   26.0794 O   0  0  0  0  0  0  0  0  0  0  0  0
  3  7  1  0
 10 11  1  0
  8 19  1  0
 19 20  2  0
 19 21  1  0
  7  8  2  0
  8  9  1  0
  9 12  2  0
 12 13  1  0
 13 10  2  0
 10  7  1  0
 11 14  2  0
 14 15  1  0
 15 18  2  0
 18 17  1  0
 17 16  2  0
 16 11  1  0
  1  2  2  0
  2  5  1  0
  5  6  2  0
  6  4  1  0
  4  3  2  0
  3  1  1  0
M  END

$$$$
