No_1829-gen_results/8p0m/2024-11-27-11-27-31/
     RDKit          3D

 16 16  0  0  0  0  0  0  0  0999 V2000
  -28.0162   -0.8135   28.8779 C   0  0  0  0  0  0  0  0  0  0  0  0
  -28.4690   -0.7850   29.8287 C   0  0  0  0  0  0  0  0  0  0  0  0
  -26.5042   -0.7777   28.8766 C   0  0  0  0  0  0  0  0  0  0  0  0
  -25.8103   -0.8531   30.1028 C   0  0  0  0  0  0  0  0  0  0  0  0
  -27.9906   -0.8916   31.2257 C   0  0  0  0  0  0  0  0  0  0  0  0
  -26.6042   -0.8676   31.2652 C   0  0  0  0  0  0  0  0  0  0  0  0
  -24.3894   -0.8049   30.1638 C   0  0  0  0  0  0  0  0  0  0  0  0
  -23.8446   -1.5191   29.3384 F   0  0  0  0  0  0  0  0  0  0  0  0
  -23.9425    0.4688   29.8547 F   0  0  0  0  0  0  0  0  0  0  0  0
  -23.9045   -1.0576   31.4139 F   0  0  0  0  0  0  0  0  0  0  0  0
  -30.0885   -0.7960   29.8278 C   0  0  0  0  0  0  0  0  0  0  0  0
  -30.3807   -0.5485   28.7568 F   0  0  0  0  0  0  0  0  0  0  0  0
  -30.5988   -1.9577   30.2546 F   0  0  0  0  0  0  0  0  0  0  0  0
  -30.5480    0.1567   30.6158 F   0  0  0  0  0  0  0  0  0  0  0  0
  -25.0911   -1.7267   29.8134 Br  0  0  0  0  0  0  0  0  0  0  0  0
  -25.8873   -0.1472   27.6296 C   0  0  0  0  0  0  0  0  0  0  0  0
  1  2  1  0
  1  3  2  0
  3  4  1  0
  2  5  2  0
  4  6  1  0
  5  6  1  0
  4  7  1  0
  7  8  1  0
  7  9  1  0
  7 10  1  0
  2 11  1  0
 11 12  1  0
 11 13  1  0
 11 14  1  0
  4 15  1  0
  3 16  1  0
M  END

$$$$
