No_1468-gen_results/8p0m/2024-11-27-11-27-31/
     RDKit          3D

 26 27  0  0  0  0  0  0  0  0999 V2000
  -28.0162   -0.8135   28.8779 C   0  0  0  0  0  0  0  0  0  0  0  0
  -27.0636   -0.1189   28.6079 C   0  0  0  0  0  0  0  0  0  0  0  0
  -26.9716    0.7139   27.5060 C   0  0  0  0  0  0  0  0  0  0  0  0
  -25.8205    1.4910   27.1160 C   0  0  0  0  0  0  0  0  0  0  0  0
  -24.6562    1.4242   27.9180 C   0  0  0  0  0  0  0  0  0  0  0  0
  -24.6847    0.5901   29.0659 C   0  0  0  0  0  0  0  0  0  0  0  0
  -25.8099   -0.1266   29.3338 C   0  0  0  0  0  0  0  0  0  0  0  0
  -28.6943   -0.4734   30.1587 C   0  0  0  0  0  0  0  0  0  0  0  0
  -28.6468    0.6468   30.5733 C   0  0  0  0  0  0  0  0  0  0  0  0
  -28.9280    1.7253   29.9803 C   0  0  0  0  0  0  0  0  0  0  0  0
  -29.1516    2.7795   30.3148 C   0  0  0  0  0  0  0  0  0  0  0  0
  -28.9507    3.0744   31.7544 C   0  0  0  0  0  0  0  0  0  0  0  0
  -28.7098    2.0131   32.6081 C   0  0  0  0  0  0  0  0  0  0  0  0
  -28.5438    0.7476   32.0963 C   0  0  0  0  0  0  0  0  0  0  0  0
  -23.4337    2.1416   27.5630 C   0  0  0  0  0  0  0  0  0  0  0  0
  -23.0594    2.2886   26.3217 N   0  0  0  0  0  0  0  0  0  0  0  0
  -22.4630    2.2672   28.4418 O   0  0  0  0  0  0  0  0  0  0  0  0
  -27.9593    0.8387   26.4391 C   0  0  0  0  0  0  0  0  0  0  0  0
  -29.0881    0.8239   26.8004 F   0  0  0  0  0  0  0  0  0  0  0  0
  -27.7880   -0.2067   25.5241 F   0  0  0  0  0  0  0  0  0  0  0  0
  -27.8650    1.9652   25.6779 F   0  0  0  0  0  0  0  0  0  0  0  0
  -30.0651   -1.2852   30.3238 C   0  0  0  0  0  0  0  0  0  0  0  0
  -31.0120   -1.0559   29.7000 F   0  0  0  0  0  0  0  0  0  0  0  0
  -29.7446   -2.6622   30.2101 F   0  0  0  0  0  0  0  0  0  0  0  0
  -30.4083   -1.3534   31.6684 F   0  0  0  0  0  0  0  0  0  0  0  0
  -27.8259   -1.3154   31.1496 O   0  0  0  0  0  0  0  0  0  0  0  0
  1  8  1  0
  8  9  1  0
  5 15  1  0
 15 16  2  0
 15 17  1  0
  3 18  1  0
 18 19  1  0
 18 20  1  0
 18 21  1  0
  8 22  1  0
 22 23  1  0
 22 24  1  0
 22 25  1  0
  8 26  1  0
  1  2  1  0
  2  3  2  0
  3  4  1  0
  4  5  2  0
  5  6  1  0
  6  7  2  0
  7  2  1  0
  9 10  2  0
 10 11  1  0
 11 12  2  0
 12 13  1  0
 13 14  2  0
 14  9  1  0
M  END

$$$$
