No_1241-gen_results/8p0m/2024-11-27-11-27-31/
     RDKit          3D

 18 20  0  0  0  0  0  0  0  0999 V2000
  -28.0162   -0.8135   28.8779 C   0  0  0  0  0  0  0  0  0  0  0  0
  -27.0636   -0.1189   28.6079 C   0  0  0  0  0  0  0  0  0  0  0  0
  -25.7647   -0.3897   29.0360 C   0  0  0  0  0  0  0  0  0  0  0  0
  -24.5516    0.4058   28.7646 C   0  0  0  0  0  0  0  0  0  0  0  0
  -24.6957    1.4480   27.7988 C   0  0  0  0  0  0  0  0  0  0  0  0
  -26.0010    1.6784   27.2965 C   0  0  0  0  0  0  0  0  0  0  0  0
  -27.0736    0.9682   27.6500 C   0  0  0  0  0  0  0  0  0  0  0  0
  -27.9723   -1.6229   30.1490 C   0  0  0  0  0  0  0  0  0  0  0  0
  -26.6814   -2.1373   30.5176 C   0  0  0  0  0  0  0  0  0  0  0  0
  -25.5549   -1.4021   30.0997 C   0  0  0  0  0  0  0  0  0  0  0  0
  -28.3339    1.2821   26.9402 C   0  0  0  0  0  0  0  0  0  0  0  0
  -28.3810    1.8352   25.8039 C   0  0  0  0  0  0  0  0  0  0  0  0
  -27.2086    2.7329   25.4225 C   0  0  0  0  0  0  0  0  0  0  0  0
  -25.9971    2.6395   26.1611 C   0  0  0  0  0  0  0  0  0  0  0  0
  -23.4755    2.2077   27.4363 C   0  0  0  0  0  0  0  0  0  0  0  0
  -22.9274    2.7453   28.4186 F   0  0  0  0  0  0  0  0  0  0  0  0
  -22.5400    1.4929   26.7027 F   0  0  0  0  0  0  0  0  0  0  0  0
  -23.7634    3.3446   26.7006 F   0  0  0  0  0  0  0  0  0  0  0  0
  5 15  1  0
 15 16  1  0
 15 17  1  0
 15 18  1  0
  3  4  1  0
  4  5  2  0
  5  6  1  0
  7  2  1  0
  1  2  2  0
  2  3  1  0
  3 10  2  0
 10  9  1  0
  9  8  2  0
  8  1  1  0
  6  7  2  0
  7 11  1  0
 11 12  2  0
 12 13  1  0
 13 14  2  0
 14  6  1  0
M  END

$$$$
