No_1129-gen_results/8p0m/2024-11-27-11-27-31/
     RDKit          3D

 34 37  0  0  0  0  0  0  0  0999 V2000
  -28.0162   -0.8135   28.8779 C   0  0  0  0  0  0  0  0  0  0  0  0
  -27.0636   -0.1190   28.6079 C   0  0  0  0  0  0  0  0  0  0  0  0
  -25.7923   -0.4302   29.0761 C   0  0  0  0  0  0  0  0  0  0  0  0
  -24.5456    0.3494   28.8225 C   0  0  0  0  0  0  0  0  0  0  0  0
  -24.6586    1.4196   27.8878 C   0  0  0  0  0  0  0  0  0  0  0  0
  -25.9471    1.6811   27.3792 C   0  0  0  0  0  0  0  0  0  0  0  0
  -27.0439    0.9739   27.6871 C   0  0  0  0  0  0  0  0  0  0  0  0
  -27.9517   -1.7518   29.9375 N   0  0  0  0  0  0  0  0  0  0  0  0
  -29.1984   -0.5344   28.5255 O   0  0  0  0  0  0  0  0  0  0  0  0
  -29.0453   -2.5720   30.4456 C   0  0  0  0  0  0  0  0  0  0  0  0
  -23.4612    2.1665   27.5992 C   0  0  0  0  0  0  0  0  0  0  0  0
  -22.3304    1.8650   28.0495 O   0  0  0  0  0  0  0  0  0  0  0  0
  -23.6132    3.2504   26.8810 O   0  0  0  0  0  0  0  0  0  0  0  0
  -29.3548   -2.1473   31.7118 C   0  0  0  0  0  0  0  0  0  0  0  0
  -28.7625   -1.3271   32.2690 O   0  0  0  0  0  0  0  0  0  0  0  0
  -30.2976   -2.9381   32.3467 N   0  0  0  0  0  0  0  0  0  0  0  0
  -30.7524   -2.6145   33.7636 C   0  0  0  0  0  0  0  0  0  0  0  0
  -31.0084   -4.0003   31.7268 C   0  0  0  0  0  0  0  0  0  0  0  0
  -29.1571   -3.6833   29.8867 O   0  0  0  0  0  0  0  0  0  0  0  0
  -30.5687   -3.3324   34.4580 C   0  0  0  0  0  0  0  0  0  0  0  0
  -31.5462   -4.4333   34.6364 C   0  0  0  0  0  0  0  0  0  0  0  0
  -31.5224   -5.2082   35.6735 C   0  0  0  0  0  0  0  0  0  0  0  0
  -30.5339   -5.4409   36.1606 C   0  0  0  0  0  0  0  0  0  0  0  0
  -29.2916   -4.6420   36.1602 C   0  0  0  0  0  0  0  0  0  0  0  0
  -29.3683   -3.6096   35.3383 C   0  0  0  0  0  0  0  0  0  0  0  0
  -32.1934   -3.7658   31.1587 C   0  0  0  0  0  0  0  0  0  0  0  0
  -32.8771   -4.6804   30.5344 C   0  0  0  0  0  0  0  0  0  0  0  0
  -32.3399   -6.0095   30.5489 C   0  0  0  0  0  0  0  0  0  0  0  0
  -31.1174   -6.3209   31.1959 C   0  0  0  0  0  0  0  0  0  0  0  0
  -30.4127   -5.2717   31.8400 C   0  0  0  0  0  0  0  0  0  0  0  0
  -32.8197   -4.2469   33.8921 C   0  0  0  0  0  0  0  0  0  0  0  0
  -33.8923   -4.0061   34.8186 C   0  0  0  0  0  0  0  0  0  0  0  0
  -34.0143   -4.9402   35.8908 C   0  0  0  0  0  0  0  0  0  0  0  0
  -32.8202   -5.2938   36.4317 C   0  0  0  0  0  0  0  0  0  0  0  0
  1  2  1  0
  1  8  1  0
  1  9  2  0
  8 10  1  0
  5 11  1  0
 11 12  2  0
 11 13  1  0
 10 14  1  0
 14 15  2  0
 14 16  1  0
 16 17  1  0
 16 18  1  0
 10 19  2  0
 17 20  1  0
  2  3  2  0
  3  4  1  0
  4  5  2  0
  5  6  1  0
  6  7  2  0
  7  2  1  0
 18 26  2  0
 26 27  1  0
 27 28  2  0
 28 29  1  0
 29 30  2  0
 30 18  1  0
 20 21  2  0
 22 23  2  0
 23 24  1  0
 24 25  2  0
 25 20  1  0
 21 22  1  0
 22 34  1  0
 34 33  2  0
 33 32  1  0
 32 31  2  0
 31 21  1  0
M  END

$$$$
