No_1496-gen_results/8p0m/2024-11-27-11-27-31/
     RDKit          3D

  8  7  0  0  0  0  0  0  0  0999 V2000
  -28.0162   -0.8135   28.8779 C   0  0  0  0  0  0  0  0  0  0  0  0
  -28.4690   -0.7850   29.8287 C   0  0  0  0  0  0  0  0  0  0  0  0
  -26.5042   -0.7777   28.8766 C   0  0  0  0  0  0  0  0  0  0  0  0
  -25.8103   -0.8531   30.1028 C   0  0  0  0  0  0  0  0  0  0  0  0
  -30.0136   -0.8410   29.8508 C   0  0  0  0  0  0  0  0  0  0  0  0
  -24.3668   -0.8189   30.1382 C   0  0  0  0  0  0  0  0  0  0  0  0
  -23.6885   -0.5818   28.9529 C   0  0  0  0  0  0  0  0  0  0  0  0
  -24.3897   -0.3886   27.7575 C   0  0  0  0  0  0  0  0  0  0  0  0
  1  2  1  0
  1  3  2  3
  3  4  1  0
  2  5  1  0
  4  6  2  3
  6  7  1  0
  7  8  2  0
M  END

$$$$
