No_1121-gen_results/8p0m/2024-11-27-11-27-31/
     RDKit          3D

 14 14  0  0  0  0  0  0  0  0999 V2000
  -28.0162   -0.8135   28.8779 C   0  0  0  0  0  0  0  0  0  0  0  0
  -28.4690   -0.7850   29.8287 C   0  0  0  0  0  0  0  0  0  0  0  0
  -26.5042   -0.7777   28.8766 C   0  0  0  0  0  0  0  0  0  0  0  0
  -25.6540   -0.6597   27.7191 C   0  0  0  0  0  0  0  0  0  0  0  0
  -29.9920   -0.8134   29.9579 C   0  0  0  0  0  0  0  0  0  0  0  0
  -26.1232   -0.1174   26.5796 C   0  0  0  0  0  0  0  0  0  0  0  0
  -27.4869    0.2318   26.5236 C   0  0  0  0  0  0  0  0  0  0  0  0
  -27.9979    0.7916   25.3873 C   0  0  0  0  0  0  0  0  0  0  0  0
  -28.2866   -0.0433   27.6084 C   0  0  0  0  0  0  0  0  0  0  0  0
  -27.9376   -1.2569   31.2156 C   0  0  0  0  0  0  0  0  0  0  0  0
  -27.7004    1.8643   25.1224 F   0  0  0  0  0  0  0  0  0  0  0  0
  -29.3762    0.7392   25.4832 F   0  0  0  0  0  0  0  0  0  0  0  0
  -27.6995   -0.1710   24.3777 F   0  0  0  0  0  0  0  0  0  0  0  0
  -30.6800   -1.3328   30.8094 O   0  0  0  0  0  0  0  0  0  0  0  0
  1  2  1  0
  2  5  2  0
  7  8  1  0
  2 10  1  0
  8 11  1  0
  8 12  1  0
  8 13  1  0
  5 14  2  0
  1  3  2  0
  3  4  1  0
  4  6  2  0
  6  7  1  0
  7  9  2  0
  9  1  1  0
M  END

$$$$
