No_1808-gen_results/8p0m/2024-11-27-11-27-31/
     RDKit          3D

 23 26  0  0  0  0  0  0  0  0999 V2000
  -28.0544   -1.0498   28.7246 N   0  0  0  0  0  0  0  0  0  0  0  0
  -27.7460   -0.0733   29.0098 C   0  0  0  0  0  0  0  0  0  0  0  0
  -27.1737    0.7565   28.1070 C   0  0  0  0  0  0  0  0  0  0  0  0
  -26.5770    2.0960   28.3920 C   0  0  0  0  0  0  0  0  0  0  0  0
  -26.5762    2.4337   29.7569 C   0  0  0  0  0  0  0  0  0  0  0  0
  -27.0953    1.5387   30.7175 C   0  0  0  0  0  0  0  0  0  0  0  0
  -27.5988    0.3077   30.4002 C   0  0  0  0  0  0  0  0  0  0  0  0
  -27.7930   -2.1260   29.6217 C   0  0  0  0  0  0  0  0  0  0  0  0
  -27.8751   -1.9304   31.0336 C   0  0  0  0  0  0  0  0  0  0  0  0
  -27.9395   -0.7141   31.4350 C   0  0  0  0  0  0  0  0  0  0  0  0
  -27.1468    0.5281   26.6447 C   0  0  0  0  0  0  0  0  0  0  0  0
  -26.1532    0.9938   25.8121 C   0  0  0  0  0  0  0  0  0  0  0  0
  -25.6069    2.2698   26.1243 C   0  0  0  0  0  0  0  0  0  0  0  0
  -25.6521    2.7415   27.5181 C   0  0  0  0  0  0  0  0  0  0  0  0
  -25.9682    3.7388   30.1463 C   0  0  0  0  0  0  0  0  0  0  0  0
  -25.0934    3.7824   30.9333 O   0  0  0  0  0  0  0  0  0  0  0  0
  -26.4033    4.7813   29.5213 O   0  0  0  0  0  0  0  0  0  0  0  0
  -27.1066    5.6839   30.2545 C   0  0  0  0  0  0  0  0  0  0  0  0
  -27.8458    6.3535   29.5599 C   0  0  0  0  0  0  0  0  0  0  0  0
  -28.6878    7.3745   30.2374 C   0  0  0  0  0  0  0  0  0  0  0  0
  -28.5444    7.5692   31.6208 C   0  0  0  0  0  0  0  0  0  0  0  0
  -27.6288    6.7457   32.2737 C   0  0  0  0  0  0  0  0  0  0  0  0
  -26.8687    5.8461   31.6417 C   0  0  0  0  0  0  0  0  0  0  0  0
  5 15  1  0
 15 16  2  0
 15 17  1  0
 17 18  1  0
 18 19  2  0
 19 20  1  0
 20 21  2  0
 21 22  1  0
 22 23  2  0
 23 18  1  0
  2  3  1  0
  4  5  1  0
  5  6  2  0
  6  7  1  0
  3  4  2  0
  4 14  1  0
 14 13  2  0
 13 12  1  0
 12 11  2  0
 11  3  1  0
  1  2  2  0
  2  7  1  0
  7 10  2  0
 10  9  1  0
  9  8  2  0
  8  1  1  0
M  END

$$$$
