No_1981-gen_results/8p0m/2024-11-27-11-27-31/
     RDKit          3D

 17 18  0  0  0  0  0  0  0  0999 V2000
  -28.0162   -0.8135   28.8779 C   0  0  0  0  0  0  0  0  0  0  0  0
  -27.0636   -0.1189   28.6079 C   0  0  0  0  0  0  0  0  0  0  0  0
  -25.7923   -0.4302   29.0761 C   0  0  0  0  0  0  0  0  0  0  0  0
  -25.2700   -0.0487   30.0123 C   0  0  0  0  0  0  0  0  0  0  0  0
  -27.8851   -1.6683   30.1122 C   0  0  0  0  0  0  0  0  0  0  0  0
  -26.9250   -1.6038   31.1803 C   0  0  0  0  0  0  0  0  0  0  0  0
  -25.6201   -1.1587   31.0391 C   0  0  0  0  0  0  0  0  0  0  0  0
  -27.0087    0.3663   27.1241 C   0  0  0  0  0  0  0  0  0  0  0  0
  -28.0171    1.0246   26.6258 C   0  0  0  0  0  0  0  0  0  0  0  0
  -25.8358    0.1797   26.2889 C   0  0  0  0  0  0  0  0  0  0  0  0
  -25.8655    0.4422   24.9669 C   0  0  0  0  0  0  0  0  0  0  0  0
  -28.0509    1.4391   25.2576 C   0  0  0  0  0  0  0  0  0  0  0  0
  -26.9226    1.1633   24.4326 C   0  0  0  0  0  0  0  0  0  0  0  0
  -28.8860   -2.8018   30.2805 C   0  0  0  0  0  0  0  0  0  0  0  0
  -29.9968   -2.5896   30.1288 O   0  0  0  0  0  0  0  0  0  0  0  0
  -28.4603   -3.8893   30.9268 O   0  0  0  0  0  0  0  0  0  0  0  0
  -24.9044   -1.2328   28.1814 C   0  0  0  0  0  0  0  0  0  0  0  0
  1  2  1  0
  2  3  1  0
  3  4  2  0
  1  5  1  0
  5  6  1  0
  4  7  1  0
  6  7  1  0
  2  8  1  0
  5 14  1  0
 14 15  2  0
 14 16  1  0
  3 17  1  0
  8  9  2  0
  9 12  1  0
 12 13  2  0
 13 11  1  0
 11 10  2  0
 10  8  1  0
M  END

$$$$
