No_1597-gen_results/8p0m/2024-11-27-11-27-31/
     RDKit          3D

 25 27  0  0  0  0  0  0  0  0999 V2000
  -28.0544   -1.0498   28.7246 N   0  0  0  0  0  0  0  0  0  0  0  0
  -27.7460   -0.0733   29.0098 C   0  0  0  0  0  0  0  0  0  0  0  0
  -27.1737    0.7565   28.1070 C   0  0  0  0  0  0  0  0  0  0  0  0
  -25.8200    1.2606   28.2149 C   0  0  0  0  0  0  0  0  0  0  0  0
  -24.8932    0.8355   27.3882 C   0  0  0  0  0  0  0  0  0  0  0  0
  -23.5082    1.0340   27.6366 C   0  0  0  0  0  0  0  0  0  0  0  0
  -22.6797    1.5411   26.8130 C   0  0  0  0  0  0  0  0  0  0  0  0
  -22.9570    0.5579   28.9355 C   0  0  0  0  0  0  0  0  0  0  0  0
  -21.3319    1.7623   27.2475 N   0  0  0  0  0  0  0  0  0  0  0  0
  -21.6574    0.4776   29.2183 C   0  0  0  0  0  0  0  0  0  0  0  0
  -20.8413    1.1720   28.3539 C   0  0  0  0  0  0  0  0  0  0  0  0
  -25.2576    0.3793   26.1113 C   0  0  0  0  0  0  0  0  0  0  0  0
  -26.5963    0.2376   25.7803 C   0  0  0  0  0  0  0  0  0  0  0  0
  -27.5002    0.2348   26.8478 C   0  0  0  0  0  0  0  0  0  0  0  0
  -27.5927    0.3204   30.2974 O   0  0  0  0  0  0  0  0  0  0  0  0
  -28.6597   -1.9933   29.9002 C   0  0  0  0  0  0  0  0  0  0  0  0
  -29.9669   -1.8756   30.2505 C   0  0  0  0  0  0  0  0  0  0  0  0
  -30.4665   -2.9214   30.8129 C   0  0  0  0  0  0  0  0  0  0  0  0
  -29.7183   -4.1690   31.1431 C   0  0  0  0  0  0  0  0  0  0  0  0
  -28.4247   -4.2401   30.6546 C   0  0  0  0  0  0  0  0  0  0  0  0
  -27.9963   -3.2671   29.6254 C   0  0  0  0  0  0  0  0  0  0  0  0
  -30.3080   -5.2993   31.8131 C   0  0  0  0  0  0  0  0  0  0  0  0
  -30.2656   -6.2300   31.2427 F   0  0  0  0  0  0  0  0  0  0  0  0
  -31.6568   -4.9675   32.0921 F   0  0  0  0  0  0  0  0  0  0  0  0
  -29.4665   -5.2676   32.8381 F   0  0  0  0  0  0  0  0  0  0  0  0
  1  2  1  0
  2  3  1  0
  5  6  1  0
  2 15  2  0
  1 16  1  0
 19 22  1  0
 22 23  1  0
 22 24  1  0
 22 25  1  0
  6  7  2  0
  7  9  1  0
  9 11  2  0
 11 10  1  0
 10  8  2  0
  8  6  1  0
 16 17  2  0
 17 18  1  0
 18 19  2  0
 19 20  1  0
 20 21  2  0
 21 16  1  0
  3  4  2  0
  4  5  1  0
  5 12  2  0
 12 13  1  0
 13 14  2  0
 14  3  1  0
M  END

$$$$
