No_1165-gen_results/8p0m/2024-11-27-11-27-31/
     RDKit          3D

 27 30  0  0  0  0  0  0  0  0999 V2000
  -28.0162   -0.8135   28.8779 C   0  0  0  0  0  0  0  0  0  0  0  0
  -27.0636   -0.1189   28.6079 C   0  0  0  0  0  0  0  0  0  0  0  0
  -26.8756    1.1325   28.9134 C   0  0  0  0  0  0  0  0  0  0  0  0
  -27.9014    1.8066   29.6436 C   0  0  0  0  0  0  0  0  0  0  0  0
  -29.0458   -0.2316   29.7181 C   0  0  0  0  0  0  0  0  0  0  0  0
  -28.9402    1.0517   30.0597 C   0  0  0  0  0  0  0  0  0  0  0  0
  -26.0585   -0.8632   27.9084 N   0  0  0  0  0  0  0  0  0  0  0  0
  -24.9484   -1.4918   28.5838 C   0  0  0  0  0  0  0  0  0  0  0  0
  -23.8453   -1.0625   28.9262 C   0  0  0  0  0  0  0  0  0  0  0  0
  -25.2718   -2.8748   29.0590 C   0  0  0  0  0  0  0  0  0  0  0  0
  -23.2947    0.2911   28.5944 C   0  0  0  0  0  0  0  0  0  0  0  0
  -21.9569    0.6237   28.8256 C   0  0  0  0  0  0  0  0  0  0  0  0
  -24.2719   -3.6062   29.5865 C   0  0  0  0  0  0  0  0  0  0  0  0
  -21.1432   -0.5103   29.1393 C   0  0  0  0  0  0  0  0  0  0  0  0
  -21.5591   -1.7226   29.3755 C   0  0  0  0  0  0  0  0  0  0  0  0
  -22.8273   -1.9984   29.2491 C   0  0  0  0  0  0  0  0  0  0  0  0
  -23.0779   -3.2115   29.7201 N   0  0  0  0  0  0  0  0  0  0  0  0
  -25.8365   -0.4875   26.5225 C   0  0  0  0  0  0  0  0  0  0  0  0
  -30.5017   -1.0685   30.1365 Cl  0  0  0  0  0  0  0  0  0  0  0  0
  -26.8440    0.2853   25.8964 C   0  0  0  0  0  0  0  0  0  0  0  0
  -27.5811   -0.1807   24.8357 C   0  0  0  0  0  0  0  0  0  0  0  0
  -28.5864    0.5857   24.2205 C   0  0  0  0  0  0  0  0  0  0  0  0
  -28.9256    1.8866   24.7951 C   0  0  0  0  0  0  0  0  0  0  0  0
  -28.2119    2.3580   25.9432 C   0  0  0  0  0  0  0  0  0  0  0  0
  -27.1969    1.6508   26.4207 C   0  0  0  0  0  0  0  0  0  0  0  0
  -27.6998    3.4698   30.1168 Cl  0  0  0  0  0  0  0  0  0  0  0  0
  -24.7836   -0.6227   25.9655 O   0  0  0  0  0  0  0  0  0  0  0  0
  2  7  1  0
  7  8  1  0
  7 18  1  0
  5 19  1  0
 18 20  1  0
  4 26  1  0
 18 27  2  0
  1  2  2  0
  2  3  1  0
  3  4  2  0
  4  6  1  0
  6  5  2  0
  5  1  1  0
  9 11  1  0
 11 12  2  0
 12 14  1  0
 14 15  2  0
 15 16  1  0
  8  9  2  0
  9 16  1  0
 16 17  2  0
 17 13  1  0
 13 10  2  0
 10  8  1  0
 20 21  2  0
 21 22  1  0
 22 23  2  0
 23 24  1  0
 24 25  2  0
 25 20  1  0
M  END

$$$$
