No_1861-gen_results/8p0m/2024-11-27-11-27-31/
     RDKit          3D

  5  4  0  0  0  0  0  0  0  0999 V2000
  -28.1493   -0.8198   28.9079 Cl  0  0  0  0  0  0  0  0  0  0  0  0
  -27.8339    0.4961   29.0598 C   0  0  0  0  0  0  0  0  0  0  0  0
  -27.6022    1.0128   30.2974 C   0  0  0  0  0  0  0  0  0  0  0  0
  -27.7182    0.1626   31.4900 C   0  0  0  0  0  0  0  0  0  0  0  0
  -28.0543   -1.1901   31.1837 C   0  0  0  0  0  0  0  0  0  0  0  0
  1  2  1  0
  2  3  2  3
  3  4  1  0
  4  5  2  0
M  END

$$$$
