No_1342-gen_results/8p0m/2024-11-27-11-27-31/
     RDKit          3D

 23 25  0  0  0  0  0  0  0  0999 V2000
  -28.1493   -0.8198   28.9079 Cl  0  0  0  0  0  0  0  0  0  0  0  0
  -27.8339    0.4961   29.0598 C   0  0  0  0  0  0  0  0  0  0  0  0
  -27.6022    1.0128   30.2974 C   0  0  0  0  0  0  0  0  0  0  0  0
  -27.7182    0.1626   31.4900 C   0  0  0  0  0  0  0  0  0  0  0  0
  -27.5116    0.5962   32.7770 C   0  0  0  0  0  0  0  0  0  0  0  0
  -27.0754    1.9448   32.9969 C   0  0  0  0  0  0  0  0  0  0  0  0
  -26.7752    2.5217   34.2650 C   0  0  0  0  0  0  0  0  0  0  0  0
  -26.7794    2.7762   31.8368 C   0  0  0  0  0  0  0  0  0  0  0  0
  -27.0604    2.2622   30.5736 C   0  0  0  0  0  0  0  0  0  0  0  0
  -28.8437    1.5147   28.3240 C   0  0  0  0  0  0  0  0  0  0  0  0
  -26.9158    1.7948   35.1869 O   0  0  0  0  0  0  0  0  0  0  0  0
  -26.4533    3.7369   34.3567 O   0  0  0  0  0  0  0  0  0  0  0  0
  -28.3507    2.3590   27.8684 N   0  0  0  0  0  0  0  0  0  0  0  0
  -27.0378    2.5640   27.8247 C   0  0  0  0  0  0  0  0  0  0  0  0
  -26.1180    1.6853   27.9575 C   0  0  0  0  0  0  0  0  0  0  0  0
  -25.6040    0.7772   27.2789 C   0  0  0  0  0  0  0  0  0  0  0  0
  -24.5575   -0.1240   27.6384 C   0  0  0  0  0  0  0  0  0  0  0  0
  -24.0312    0.0027   28.9035 C   0  0  0  0  0  0  0  0  0  0  0  0
  -24.2329    1.1194   29.6619 C   0  0  0  0  0  0  0  0  0  0  0  0
  -25.2648    1.9137   29.3500 C   0  0  0  0  0  0  0  0  0  0  0  0
  -25.6239    2.5274   30.0041 N   0  0  0  0  0  0  0  0  0  0  0  0
  -29.2315    3.4050   27.1316 C   0  0  0  0  0  0  0  0  0  0  0  0
  -30.0375    1.3107   28.6823 O   0  0  0  0  0  0  0  0  0  0  0  0
  1  2  1  0
  6  7  1  0
  2 10  1  0
  7 11  1  0
  7 12  2  0
 10 13  1  0
 13 14  1  0
  9 21  1  0
 20 21  1  0
 13 22  1  0
 10 23  2  0
  2  3  1  0
 14 15  1  0
  3  4  2  0
  4  5  1  0
  5  6  2  0
  6  8  1  0
  8  9  2  0
  9  3  1  0
 15 16  2  0
 16 17  1  0
 17 18  2  0
 18 19  1  0
 19 20  2  0
 20 15  1  0
M  END

$$$$
