No_1175-gen_results/8p0m/2024-11-27-11-27-31/
     RDKit          3D

 14 13  0  0  0  0  0  0  0  0999 V2000
  -28.0727   -1.2542   28.5316 F   0  0  0  0  0  0  0  0  0  0  0  0
  -28.2662   -0.4214   29.1931 C   0  0  0  0  0  0  0  0  0  0  0  0
  -29.4400   -0.1817   29.3649 F   0  0  0  0  0  0  0  0  0  0  0  0
  -27.4757    0.7953   28.7095 C   0  0  0  0  0  0  0  0  0  0  0  0
  -27.8060    1.8591   28.8524 O   0  0  0  0  0  0  0  0  0  0  0  0
  -26.1395    0.5843   28.4594 O   0  0  0  0  0  0  0  0  0  0  0  0
  -25.4920    1.1773   27.3511 C   0  0  0  0  0  0  0  0  0  0  0  0
  -24.6549    2.2744   27.6839 C   0  0  0  0  0  0  0  0  0  0  0  0
  -23.4695    1.9782   28.0930 C   0  0  0  0  0  0  0  0  0  0  0  0
  -25.0630    3.6158   27.4886 C   0  0  0  0  0  0  0  0  0  0  0  0
  -27.7760   -0.8541   30.4070 F   0  0  0  0  0  0  0  0  0  0  0  0
  -22.9186    0.7003   28.3890 C   0  0  0  0  0  0  0  0  0  0  0  0
  -22.1512    0.1074   28.8555 C   0  0  0  0  0  0  0  0  0  0  0  0
  -20.9360    0.1562   29.3577 C   0  0  0  0  0  0  0  0  0  0  0  0
  1  2  1  0
  2  3  1  0
  2  4  1  0
  4  5  2  0
  4  6  1  0
  6  7  1  0
  7  8  1  0
  8  9  2  3
  8 10  1  0
  2 11  1  0
  9 12  1  0
 12 13  3  0
 13 14  1  0
M  END

$$$$
