No_1834-gen_results/8p0m/2024-11-27-11-27-31/
     RDKit          3D

  9  9  0  0  0  0  0  0  0  0999 V2000
  -28.0162   -0.8135   28.8779 C   0  0  0  0  0  0  0  0  0  0  0  0
  -27.0636   -0.1190   28.6079 C   0  0  0  0  0  0  0  0  0  0  0  0
  -25.8176   -0.3427   29.0488 N   0  0  0  0  0  0  0  0  0  0  0  0
  -24.6757    0.3814   28.7496 C   0  0  0  0  0  0  0  0  0  0  0  0
  -24.7608    1.3095   27.7159 C   0  0  0  0  0  0  0  0  0  0  0  0
  -27.0792    0.7756   27.4599 C   0  0  0  0  0  0  0  0  0  0  0  0
  -25.9581    1.5508   27.1142 C   0  0  0  0  0  0  0  0  0  0  0  0
  -27.9850   -1.3846   30.2850 C   0  0  0  0  0  0  0  0  0  0  0  0
  -26.7148   -1.7314   30.8137 C   0  0  0  0  0  0  0  0  0  0  0  0
  1  2  1  0
  1  8  2  3
  8  9  1  0
  2  3  2  0
  3  4  1  0
  4  5  2  0
  5  7  1  0
  7  6  2  0
  6  2  1  0
M  END

$$$$
