No_1891-gen_results/8p0m/2024-11-27-11-27-31/
     RDKit          3D

 11 11  0  0  0  0  0  0  0  0999 V2000
  -28.0162   -0.8135   28.8779 C   0  0  0  0  0  0  0  0  0  0  0  0
  -27.0636   -0.1189   28.6079 C   0  0  0  0  0  0  0  0  0  0  0  0
  -27.0010    0.6913   27.4910 C   0  0  0  0  0  0  0  0  0  0  0  0
  -28.1373    0.7363   26.6350 C   0  0  0  0  0  0  0  0  0  0  0  0
  -29.2360    0.0765   27.0690 C   0  0  0  0  0  0  0  0  0  0  0  0
  -29.2177   -0.6429   28.1747 C   0  0  0  0  0  0  0  0  0  0  0  0
  -30.5230    0.0808   26.3695 C   0  0  0  0  0  0  0  0  0  0  0  0
  -31.8506   -0.4058   26.7454 Cl  0  0  0  0  0  0  0  0  0  0  0  0
  -30.3503    0.5529   24.9688 N   0  0  0  0  0  0  0  0  0  0  0  0
  -25.8486   -0.1810   29.3393 F   0  0  0  0  0  0  0  0  0  0  0  0
  -28.2103   -1.7717   30.3429 Cl  0  0  0  0  0  0  0  0  0  0  0  0
  5  7  1  0
  7  8  1  0
  7  9  1  0
  2 10  1  0
  1 11  1  0
  1  2  2  0
  2  3  1  0
  3  4  2  0
  4  5  1  0
  5  6  2  0
  6  1  1  0
M  END

$$$$
