No_1420-gen_results/8p0m/2024-11-27-11-27-31/
     RDKit          3D

 12 12  0  0  0  0  0  0  0  0999 V2000
  -28.0162   -0.8135   28.8779 C   0  0  0  0  0  0  0  0  0  0  0  0
  -28.4690   -0.7850   29.8287 C   0  0  0  0  0  0  0  0  0  0  0  0
  -26.5042   -0.7777   28.8766 C   0  0  0  0  0  0  0  0  0  0  0  0
  -25.8103   -0.8531   30.1028 C   0  0  0  0  0  0  0  0  0  0  0  0
  -30.0136   -0.8410   29.8508 C   0  0  0  0  0  0  0  0  0  0  0  0
  -26.5670   -0.8850   31.2517 C   0  0  0  0  0  0  0  0  0  0  0  0
  -27.9411   -0.9069   31.1850 C   0  0  0  0  0  0  0  0  0  0  0  0
  -30.6475   -0.1344   28.9948 N   0  0  0  0  0  0  0  0  0  0  0  0
  -30.1958    0.9235   28.5339 C   0  0  0  0  0  0  0  0  0  0  0  0
  -30.7055    1.3432   27.3701 O   0  0  0  0  0  0  0  0  0  0  0  0
  -29.2452    1.8713   29.1273 C   0  0  0  0  0  0  0  0  0  0  0  0
  -29.4492    2.9639   28.9472 C   0  0  0  0  0  0  0  0  0  0  0  0
  2  5  1  0
  5  8  1  0
  8  9  1  0
  9 10  2  0
  9 11  1  0
 11 12  2  0
  1  2  2  0
  2  7  1  0
  7  6  2  0
  6  4  1  0
  4  3  2  0
  3  1  1  0
M  END

$$$$
