No_1596-gen_results/8p0m/2024-11-27-11-27-31/
     RDKit          3D

 14 14  0  0  0  0  0  0  0  0999 V2000
  -28.0162   -0.8135   28.8779 C   0  0  0  0  0  0  0  0  0  0  0  0
  -28.4690   -0.7850   29.8287 C   0  0  0  0  0  0  0  0  0  0  0  0
  -26.5042   -0.7777   28.8766 C   0  0  0  0  0  0  0  0  0  0  0  0
  -25.8103   -0.8531   30.1028 C   0  0  0  0  0  0  0  0  0  0  0  0
  -27.9906   -0.8916   31.2257 C   0  0  0  0  0  0  0  0  0  0  0  0
  -26.6042   -0.8676   31.2652 C   0  0  0  0  0  0  0  0  0  0  0  0
  -24.1648   -0.7915   30.1717 Cl  0  0  0  0  0  0  0  0  0  0  0  0
  -30.0988   -0.8363   29.8511 C   0  0  0  0  0  0  0  0  0  0  0  0
  -30.7818   -0.0091   28.8639 Cl  0  0  0  0  0  0  0  0  0  0  0  0
  -30.7358   -1.7052   30.7399 N   0  0  0  0  0  0  0  0  0  0  0  0
  -32.0770   -1.8871   30.5667 C   0  0  0  0  0  0  0  0  0  0  0  0
  -32.5416   -3.0317   30.8188 C   0  0  0  0  0  0  0  0  0  0  0  0
  -31.7948   -3.9848   31.5149 C   0  0  0  0  0  0  0  0  0  0  0  0
  -30.3729   -3.8659   31.6422 C   0  0  0  0  0  0  0  0  0  0  0  0
  4  7  1  0
  2  8  1  0
  8  9  1  0
  8 10  2  3
 10 11  1  0
 11 12  2  3
 12 13  1  0
 13 14  2  0
  1  2  2  0
  2  5  1  0
  5  6  2  0
  6  4  1  0
  4  3  2  0
  3  1  1  0
M  END

$$$$
