No_1016-gen_results/8p0m/2024-11-27-11-27-31/
     RDKit          3D

 35 38  0  0  0  0  0  0  0  0999 V2000
  -28.0162   -0.8135   28.8779 C   0  0  0  0  0  0  0  0  0  0  0  0
  -27.0636   -0.1189   28.6079 C   0  0  0  0  0  0  0  0  0  0  0  0
  -25.7647   -0.3897   29.0360 C   0  0  0  0  0  0  0  0  0  0  0  0
  -25.5296   -1.5302   29.9014 C   0  0  0  0  0  0  0  0  0  0  0  0
  -26.6577   -2.2915   30.2035 C   0  0  0  0  0  0  0  0  0  0  0  0
  -27.8548   -1.9555   29.7630 C   0  0  0  0  0  0  0  0  0  0  0  0
  -24.5441    0.4126   28.7379 C   0  0  0  0  0  0  0  0  0  0  0  0
  -24.4731    1.2065   27.7114 C   0  0  0  0  0  0  0  0  0  0  0  0
  -23.2779    1.8420   27.3661 C   0  0  0  0  0  0  0  0  0  0  0  0
  -22.0928    1.6644   28.0344 C   0  0  0  0  0  0  0  0  0  0  0  0
  -23.3031    0.1394   29.4701 C   0  0  0  0  0  0  0  0  0  0  0  0
  -22.0943    0.7976   29.1026 C   0  0  0  0  0  0  0  0  0  0  0  0
  -29.0212   -2.7980   30.1782 C   0  0  0  0  0  0  0  0  0  0  0  0
  -28.8816   -4.1071   30.4140 N   0  0  0  0  0  0  0  0  0  0  0  0
  -29.9223   -4.9781   30.2060 C   0  0  0  0  0  0  0  0  0  0  0  0
  -30.3251   -5.7445   31.3277 C   0  0  0  0  0  0  0  0  0  0  0  0
  -31.3054   -6.8003   31.1712 C   0  0  0  0  0  0  0  0  0  0  0  0
  -31.8013   -7.0338   29.8778 C   0  0  0  0  0  0  0  0  0  0  0  0
  -31.3428   -6.2906   28.7772 C   0  0  0  0  0  0  0  0  0  0  0  0
  -30.3739   -5.2911   28.9607 C   0  0  0  0  0  0  0  0  0  0  0  0
  -30.1347   -2.2768   30.2583 O   0  0  0  0  0  0  0  0  0  0  0  0
  -31.8514   -6.5996   27.4409 C   0  0  0  0  0  0  0  0  0  0  0  0
  -32.3948   -5.9178   26.6789 O   0  0  0  0  0  0  0  0  0  0  0  0
  -31.4719   -7.8361   26.9267 O   0  0  0  0  0  0  0  0  0  0  0  0
  -23.2919    2.7433   26.3160 O   0  0  0  0  0  0  0  0  0  0  0  0
  -24.4206    2.6000   25.5300 C   0  0  0  0  0  0  0  0  0  0  0  0
  -25.4116    1.4962   26.8313 N   0  0  0  0  0  0  0  0  0  0  0  0
  -25.4411    2.1621   25.7603 C   0  0  0  0  0  0  0  0  0  0  0  0
  -31.7152   -7.5771   32.3285 C   0  0  0  0  0  0  0  0  0  0  0  0
  -32.7596   -7.8825   32.5494 O   0  0  0  0  0  0  0  0  0  0  0  0
  -30.7791   -7.5917   33.3264 O   0  0  0  0  0  0  0  0  0  0  0  0
  -30.3934   -8.8746   33.8205 C   0  0  0  0  0  0  0  0  0  0  0  0
  -30.2450   -9.7395   33.2365 C   0  0  0  0  0  0  0  0  0  0  0  0
  -29.6126  -10.9076   33.7642 C   0  0  0  0  0  0  0  0  0  0  0  0
  -29.0241  -10.7827   34.6266 C   0  0  0  0  0  0  0  0  0  0  0  0
  3  7  1  0
  6 13  1  0
 13 14  1  0
 14 15  1  0
 13 21  2  0
 19 22  1  0
 22 23  2  0
 22 24  1  0
  9 25  1  0
 25 26  1  0
  8 27  1  0
 26 28  1  0
 27 28  1  0
 17 29  1  0
 29 30  2  0
 29 31  1  0
 31 32  1  0
 32 33  1  0
 33 34  2  3
 34 35  1  0
  7  8  2  0
  8  9  1  0
  9 10  2  0
 10 12  1  0
 12 11  2  0
 11  7  1  0
  1  2  2  0
  2  3  1  0
  3  4  2  0
  4  5  1  0
  5  6  2  0
  6  1  1  0
 15 16  2  0
 16 17  1  0
 17 18  2  0
 18 19  1  0
 19 20  2  0
 20 15  1  0
M  END

$$$$
