No_1071-gen_results/8p0m/2024-11-27-11-27-31/
     RDKit          3D

 35 38  0  0  0  0  0  0  0  0999 V2000
  -28.0162   -0.8135   28.8779 C   0  0  0  0  0  0  0  0  0  0  0  0
  -27.0636   -0.1189   28.6079 C   0  0  0  0  0  0  0  0  0  0  0  0
  -26.9716    0.7139   27.5060 C   0  0  0  0  0  0  0  0  0  0  0  0
  -28.1053    0.7744   26.6421 C   0  0  0  0  0  0  0  0  0  0  0  0
  -29.2008    0.1044   27.0527 C   0  0  0  0  0  0  0  0  0  0  0  0
  -28.0219   -1.5899   30.0879 C   0  0  0  0  0  0  0  0  0  0  0  0
  -29.1640   -0.6394   28.1484 C   0  0  0  0  0  0  0  0  0  0  0  0
  -28.8376   -1.8977   30.7662 N   0  0  0  0  0  0  0  0  0  0  0  0
  -26.7856   -1.9477   30.5474 O   0  0  0  0  0  0  0  0  0  0  0  0
  -30.2508   -1.5519   30.5150 C   0  0  0  0  0  0  0  0  0  0  0  0
  -30.3815    0.2120   26.1633 C   0  0  0  0  0  0  0  0  0  0  0  0
  -30.3809    0.2468   24.9497 N   0  0  0  0  0  0  0  0  0  0  0  0
  -31.5479    0.0489   26.7533 O   0  0  0  0  0  0  0  0  0  0  0  0
  -31.1547   -2.2455   31.0628 C   0  0  0  0  0  0  0  0  0  0  0  0
  -32.4548   -1.8141   30.9393 C   0  0  0  0  0  0  0  0  0  0  0  0
  -32.7641   -0.6564   30.1596 C   0  0  0  0  0  0  0  0  0  0  0  0
  -34.1027   -0.2245   30.0667 C   0  0  0  0  0  0  0  0  0  0  0  0
  -35.0672   -0.9812   30.6468 C   0  0  0  0  0  0  0  0  0  0  0  0
  -34.8689   -2.0846   31.3405 C   0  0  0  0  0  0  0  0  0  0  0  0
  -33.5715   -2.4905   31.5037 C   0  0  0  0  0  0  0  0  0  0  0  0
  -36.4096   -0.5202   30.5227 O   0  0  0  0  0  0  0  0  0  0  0  0
  -36.9065    0.2748   31.4211 C   0  0  0  0  0  0  0  0  0  0  0  0
  -38.0542    0.5251   31.3542 C   0  0  0  0  0  0  0  0  0  0  0  0
  -38.6939    1.4075   32.3928 C   0  0  0  0  0  0  0  0  0  0  0  0
  -37.8784    1.8988   33.4163 C   0  0  0  0  0  0  0  0  0  0  0  0
  -36.5295    1.5429   33.4105 C   0  0  0  0  0  0  0  0  0  0  0  0
  -35.9984    0.7571   32.4853 C   0  0  0  0  0  0  0  0  0  0  0  0
  -39.9993    1.8006   32.5133 N   0  0  0  0  0  0  0  0  0  0  0  0
  -40.8029    1.5648   31.6035 C   0  0  0  0  0  0  0  0  0  0  0  0
  -40.5886    0.9836   30.6264 F   0  0  0  0  0  0  0  0  0  0  0  0
  -42.0390    1.9375   31.8167 F   0  0  0  0  0  0  0  0  0  0  0  0
  -30.9868   -3.7406   30.6544 C   0  0  0  0  0  0  0  0  0  0  0  0
  -31.7360   -4.6391   31.3437 C   0  0  0  0  0  0  0  0  0  0  0  0
  -33.0872   -4.7587   31.4353 C   0  0  0  0  0  0  0  0  0  0  0  0
  -33.5669   -3.7397   32.1397 C   0  0  0  0  0  0  0  0  0  0  0  0
  1  6  1  0
  6  8  1  0
  6  9  2  0
  8 10  1  0
  5 11  1  0
 11 12  2  0
 11 13  1  0
 10 14  2  3
 14 15  1  0
 18 21  1  0
 21 22  1  0
 24 28  1  0
 28 29  2  3
 29 30  1  0
 29 31  1  0
 14 32  1  0
 32 33  2  0
 33 34  1  0
 20 35  1  0
 34 35  2  0
 15 16  2  0
 16 17  1  0
 17 18  2  0
 18 19  1  0
 19 20  2  0
 20 15  1  0
 22 23  2  0
 23 24  1  0
 24 25  2  0
 25 26  1  0
 26 27  2  0
 27 22  1  0
  1  2  2  0
  2  3  1  0
  3  4  2  0
  4  5  1  0
  5  7  2  0
  7  1  1  0
M  END

$$$$
