No_14-gen_results/8p0m/2024-11-27-11-27-31/
     RDKit          3D

 22 24  0  0  0  0  0  0  0  0999 V2000
  -28.0544   -1.0498   28.7246 N   0  0  0  0  0  0  0  0  0  0  0  0
  -27.7460   -0.0733   29.0098 C   0  0  0  0  0  0  0  0  0  0  0  0
  -27.5667    0.3853   30.3401 C   0  0  0  0  0  0  0  0  0  0  0  0
  -27.8875   -0.5283   31.3869 C   0  0  0  0  0  0  0  0  0  0  0  0
  -28.2832   -1.7872   31.0061 C   0  0  0  0  0  0  0  0  0  0  0  0
  -28.3465   -2.0983   29.6834 C   0  0  0  0  0  0  0  0  0  0  0  0
  -27.3505    0.9520   27.9855 C   0  0  0  0  0  0  0  0  0  0  0  0
  -26.2507    0.7056   27.2579 C   0  0  0  0  0  0  0  0  0  0  0  0
  -25.1235    0.1776   27.8059 C   0  0  0  0  0  0  0  0  0  0  0  0
  -24.9445   -0.1586   29.0560 C   0  0  0  0  0  0  0  0  0  0  0  0
  -23.7670   -0.3146   29.5863 C   0  0  0  0  0  0  0  0  0  0  0  0
  -22.6046   -0.2756   28.7440 C   0  0  0  0  0  0  0  0  0  0  0  0
  -22.6876    0.2271   27.4893 C   0  0  0  0  0  0  0  0  0  0  0  0
  -23.9170    0.5196   27.0368 C   0  0  0  0  0  0  0  0  0  0  0  0
  -26.4736    0.6245   25.8078 C   0  0  0  0  0  0  0  0  0  0  0  0
  -28.1942    2.0881   27.8249 C   0  0  0  0  0  0  0  0  0  0  0  0
  -29.0522    2.0188   26.7665 C   0  0  0  0  0  0  0  0  0  0  0  0
  -28.5206    2.0104   25.4144 C   0  0  0  0  0  0  0  0  0  0  0  0
  -27.5738    0.9666   25.0025 C   0  0  0  0  0  0  0  0  0  0  0  0
  -27.0672    1.7307   30.7732 C   0  0  0  0  0  0  0  0  0  0  0  0
  -27.7147    2.7465   30.7158 C   0  0  0  0  0  0  0  0  0  0  0  0
  -27.2633    4.0007   31.1965 C   0  0  0  0  0  0  0  0  0  0  0  0
  2  7  1  0
  7  8  1  0
  8 15  1  0
  7 16  1  0
 16 17  1  0
 17 18  2  0
 15 19  2  0
 18 19  1  0
  3 20  1  0
 20 21  2  3
 21 22  1  0
  8  9  1  0
  1  2  2  0
  2  3  1  0
  3  4  2  0
  4  5  1  0
  5  6  2  0
  6  1  1  0
  9 10  2  0
 10 11  1  0
 11 12  2  0
 12 13  1  0
 13 14  2  0
 14  9  1  0
M  END

$$$$
