No_1750-gen_results/8p0m/2024-11-27-11-27-31/
     RDKit          3D

 23 24  0  0  0  0  0  0  0  0999 V2000
  -28.1229   -1.3353   28.4874 O   0  0  0  0  0  0  0  0  0  0  0  0
  -28.5208   -0.4363   29.0779 C   0  0  0  0  0  0  0  0  0  0  0  0
  -27.6655    0.1129   30.0346 C   0  0  0  0  0  0  0  0  0  0  0  0
  -29.7419    0.1102   28.8873 N   0  0  0  0  0  0  0  0  0  0  0  0
  -26.4110    0.2880   29.8706 C   0  0  0  0  0  0  0  0  0  0  0  0
  -25.5743   -0.7877   30.1070 C   0  0  0  0  0  0  0  0  0  0  0  0
  -24.0951   -0.7233   29.8866 C   0  0  0  0  0  0  0  0  0  0  0  0
  -23.5459    0.5471   29.5691 C   0  0  0  0  0  0  0  0  0  0  0  0
  -24.4227    1.6377   29.4408 C   0  0  0  0  0  0  0  0  0  0  0  0
  -25.7377    1.5152   29.6424 C   0  0  0  0  0  0  0  0  0  0  0  0
  -30.5118    0.1310   28.1275 C   0  0  0  0  0  0  0  0  0  0  0  0
  -31.6711    0.3886   28.1390 O   0  0  0  0  0  0  0  0  0  0  0  0
  -30.0170    0.1646   26.8098 O   0  0  0  0  0  0  0  0  0  0  0  0
  -22.2352    0.6187   29.4994 F   0  0  0  0  0  0  0  0  0  0  0  0
  -26.5206    2.7880   29.4833 C   0  0  0  0  0  0  0  0  0  0  0  0
  -26.7432    3.5048   30.4302 N   0  0  0  0  0  0  0  0  0  0  0  0
  -27.5038    4.6360   30.4167 C   0  0  0  0  0  0  0  0  0  0  0  0
  -27.3519    2.8342   28.4372 O   0  0  0  0  0  0  0  0  0  0  0  0
  -25.8531    3.3931   31.6519 C   0  0  0  0  0  0  0  0  0  0  0  0
  -28.1397    4.8980   31.4489 C   0  0  0  0  0  0  0  0  0  0  0  0
  -25.0598    2.7711   32.0224 C   0  0  0  0  0  0  0  0  0  0  0  0
  -26.3946    4.4080   32.7378 C   0  0  0  0  0  0  0  0  0  0  0  0
  -27.5071    5.0953   32.6891 C   0  0  0  0  0  0  0  0  0  0  0  0
  1  2  2  0
  2  3  1  0
  2  4  1  0
  3  5  1  0
  4 11  1  0
 11 12  2  0
 11 13  1  0
  8 14  1  0
 10 15  1  0
 15 16  1  0
 16 17  1  0
 15 18  2  0
 16 19  1  0
 19 21  1  0
 19 22  1  0
 20 23  1  0
 17 20  1  0
 23 22  1  0
  5  6  2  0
  6  7  1  0
  7  8  2  0
  8  9  1  0
  9 10  2  0
 10  5  1  0
M  END

$$$$
