No_1502-gen_results/8p0m/2024-11-27-11-27-31/
     RDKit          3D

 13 13  0  0  0  0  0  0  0  0999 V2000
  -28.0162   -0.8135   28.8779 C   0  0  0  0  0  0  0  0  0  0  0  0
  -27.0636   -0.1189   28.6079 C   0  0  0  0  0  0  0  0  0  0  0  0
  -27.0010    0.6913   27.4910 C   0  0  0  0  0  0  0  0  0  0  0  0
  -28.1373    0.7363   26.6350 C   0  0  0  0  0  0  0  0  0  0  0  0
  -29.2360    0.0765   27.0690 C   0  0  0  0  0  0  0  0  0  0  0  0
  -29.2177   -0.6429   28.1747 C   0  0  0  0  0  0  0  0  0  0  0  0
  -30.3423    0.1617   26.2790 O   0  0  0  0  0  0  0  0  0  0  0  0
  -25.8878   -0.2685   29.5765 C   0  0  0  0  0  0  0  0  0  0  0  0
  -24.9076    0.5403   29.7632 N   0  0  0  0  0  0  0  0  0  0  0  0
  -23.7427    0.2261   30.2767 C   0  0  0  0  0  0  0  0  0  0  0  0
  -22.6069    1.0537   30.1351 C   0  0  0  0  0  0  0  0  0  0  0  0
  -23.6176   -0.9876   31.0859 C   0  0  0  0  0  0  0  0  0  0  0  0
  -25.6738   -1.5803   29.9357 O   0  0  0  0  0  0  0  0  0  0  0  0
  5  7  1  0
  2  8  1  0
  8  9  1  0
  9 10  2  3
 10 11  1  0
 10 12  1  0
  8 13  2  0
  1  2  2  0
  2  3  1  0
  3  4  2  0
  4  5  1  0
  5  6  2  0
  6  1  1  0
M  END

$$$$
