No_1821-gen_results/8p0m/2024-11-27-11-27-31/
     RDKit          3D

 24 25  0  0  0  0  0  0  0  0999 V2000
  -28.0162   -0.8135   28.8779 C   0  0  0  0  0  0  0  0  0  0  0  0
  -28.4690   -0.7850   29.8287 C   0  0  0  0  0  0  0  0  0  0  0  0
  -27.0871    0.2903   28.6377 C   0  0  0  0  0  0  0  0  0  0  0  0
  -26.8317    1.2487   29.5869 C   0  0  0  0  0  0  0  0  0  0  0  0
  -28.3914    0.0801   31.0065 C   0  0  0  0  0  0  0  0  0  0  0  0
  -27.4940    1.1521   30.7841 C   0  0  0  0  0  0  0  0  0  0  0  0
  -26.3172    0.3994   27.3653 C   0  0  0  0  0  0  0  0  0  0  0  0
  -25.8454    1.5466   27.3810 F   0  0  0  0  0  0  0  0  0  0  0  0
  -25.3610   -0.5208   27.3228 F   0  0  0  0  0  0  0  0  0  0  0  0
  -27.2644    0.1498   26.3715 F   0  0  0  0  0  0  0  0  0  0  0  0
  -29.4503   -2.0150   30.2394 C   0  0  0  0  0  0  0  0  0  0  0  0
  -30.6134   -1.8788   29.9696 N   0  0  0  0  0  0  0  0  0  0  0  0
  -28.9001   -3.2126   30.4056 O   0  0  0  0  0  0  0  0  0  0  0  0
  -31.5919   -2.9307   30.1102 C   0  0  0  0  0  0  0  0  0  0  0  0
  -31.2671   -0.5785   29.6172 C   0  0  0  0  0  0  0  0  0  0  0  0
  -32.1994   -0.6748   28.5768 C   0  0  0  0  0  0  0  0  0  0  0  0
  -33.1127   -1.6060   28.7092 C   0  0  0  0  0  0  0  0  0  0  0  0
  -32.6097   -2.9793   29.0515 C   0  0  0  0  0  0  0  0  0  0  0  0
  -32.7943    0.7656   28.3720 C   0  0  0  0  0  0  0  0  0  0  0  0
  -32.0934    1.6513   27.9411 N   0  0  0  0  0  0  0  0  0  0  0  0
  -32.3992    2.6828   27.5384 C   0  0  0  0  0  0  0  0  0  0  0  0
  -31.3976    3.7089   27.2195 C   0  0  0  0  0  0  0  0  0  0  0  0
  -30.0339    3.2809   27.2036 C   0  0  0  0  0  0  0  0  0  0  0  0
  -29.6960    2.0366   27.6478 C   0  0  0  0  0  0  0  0  0  0  0  0
  3  7  1  0
  7  8  1  0
  7  9  1  0
  7 10  1  0
  2 11  1  0
 11 12  1  0
 11 13  2  0
 12 14  1  0
 12 15  1  0
 15 16  1  0
 16 17  1  0
 14 18  1  0
 17 18  1  0
 16 19  1  0
 19 20  1  0
 20 21  2  3
 21 22  1  0
 22 23  2  3
 23 24  1  0
  1  2  2  0
  2  5  1  0
  5  6  2  0
  6  4  1  0
  4  3  2  0
  3  1  1  0
M  END

$$$$
