No_12-gen_results/8p0m/2024-11-27-11-27-31/
     RDKit          3D

 13 14  0  0  0  0  0  0  0  0999 V2000
  -28.0162   -0.8135   28.8779 C   0  0  0  0  0  0  0  0  0  0  0  0
  -27.0636   -0.1190   28.6079 C   0  0  0  0  0  0  0  0  0  0  0  0
  -25.7923   -0.4302   29.0761 C   0  0  0  0  0  0  0  0  0  0  0  0
  -25.5314   -1.5876   29.6105 C   0  0  0  0  0  0  0  0  0  0  0  0
  -26.6366   -2.4336   29.9654 C   0  0  0  0  0  0  0  0  0  0  0  0
  -26.3845   -3.6983   30.5363 C   0  0  0  0  0  0  0  0  0  0  0  0
  -27.8983   -2.0811   29.5561 C   0  0  0  0  0  0  0  0  0  0  0  0
  -27.1887    1.2715   27.9623 C   0  0  0  0  0  0  0  0  0  0  0  0
  -26.4043    1.5586   26.9792 C   0  0  0  0  0  0  0  0  0  0  0  0
  -25.2352    0.8338   26.6654 C   0  0  0  0  0  0  0  0  0  0  0  0
  -24.7365   -0.0416   27.8136 C   0  0  0  0  0  0  0  0  0  0  0  0
  -26.1177   -4.7192   29.3940 C   0  0  0  0  0  0  0  0  0  0  0  0
  -29.2933   -0.4934   28.6871 O   0  0  0  0  0  0  0  0  0  0  0  0
  1  2  1  0
  4  5  1  0
  5  6  1  0
  1  7  1  0
  5  7  1  0
  6 12  1  0
  1 13  2  0
  3  4  1  0
  2  3  2  0
  3 11  1  0
 11 10  2  0
 10  9  1  0
  9  8  2  0
  8  2  1  0
M  END

$$$$
