No_1253-gen_results/8p0m/2024-11-27-11-27-31/
     RDKit          3D

 27 29  0  0  0  0  0  0  0  0999 V2000
  -28.0162   -0.8135   28.8779 C   0  0  0  0  0  0  0  0  0  0  0  0
  -27.0636   -0.1190   28.6079 C   0  0  0  0  0  0  0  0  0  0  0  0
  -27.0010    0.6913   27.4910 C   0  0  0  0  0  0  0  0  0  0  0  0
  -25.8548    1.4825   27.0830 C   0  0  0  0  0  0  0  0  0  0  0  0
  -24.6901    1.4526   27.8807 C   0  0  0  0  0  0  0  0  0  0  0  0
  -24.7379    0.6010   29.0416 C   0  0  0  0  0  0  0  0  0  0  0  0
  -25.8234   -0.1688   29.3887 C   0  0  0  0  0  0  0  0  0  0  0  0
  -29.2075   -0.1514   29.0660 N   0  0  0  0  0  0  0  0  0  0  0  0
  -29.7474    0.5548   28.4314 C   0  0  0  0  0  0  0  0  0  0  0  0
  -30.7406    0.2931   27.6888 C   0  0  0  0  0  0  0  0  0  0  0  0
  -31.3545    1.1438   26.7013 C   0  0  0  0  0  0  0  0  0  0  0  0
  -30.8023    2.4480   26.6481 C   0  0  0  0  0  0  0  0  0  0  0  0
  -29.7373    2.8352   27.3797 C   0  0  0  0  0  0  0  0  0  0  0  0
  -29.1787    1.9395   28.2255 C   0  0  0  0  0  0  0  0  0  0  0  0
  -30.0525   -0.5811   30.3101 C   0  0  0  0  0  0  0  0  0  0  0  0
  -23.4760    2.1397   27.5216 C   0  0  0  0  0  0  0  0  0  0  0  0
  -22.5342    1.9136   27.2379 N   0  0  0  0  0  0  0  0  0  0  0  0
  -23.7911    3.5231   27.4236 O   0  0  0  0  0  0  0  0  0  0  0  0
  -27.8200   -1.8730   29.6033 O   0  0  0  0  0  0  0  0  0  0  0  0
  -29.7059   -0.0028   31.4257 C   0  0  0  0  0  0  0  0  0  0  0  0
  -29.4894    1.1073   31.6941 C   0  0  0  0  0  0  0  0  0  0  0  0
  -29.1672    1.7230   32.9693 C   0  0  0  0  0  0  0  0  0  0  0  0
  -29.1137    0.8049   34.0189 C   0  0  0  0  0  0  0  0  0  0  0  0
  -29.6619   -0.9914   32.5885 C   0  0  0  0  0  0  0  0  0  0  0  0
  -29.3392   -0.5208   33.8557 C   0  0  0  0  0  0  0  0  0  0  0  0
  -30.9146   -1.5509   30.1485 O   0  0  0  0  0  0  0  0  0  0  0  0
  -21.4600    1.1681   28.0308 C   0  0  0  0  0  0  0  0  0  0  0  0
  1  2  1  0
  1  8  1  0
  8  9  1  0
  8 15  1  0
  5 16  1  0
 16 17  1  0
 16 18  2  0
  1 19  2  0
 15 20  1  0
 15 26  2  0
 17 27  1  0
  2  3  2  0
  3  4  1  0
  4  5  2  0
  5  6  1  0
  6  7  2  0
  7  2  1  0
 20 21  2  0
 21 22  1  0
 22 23  2  0
 23 25  1  0
 25 24  2  0
 24 20  1  0
  9 10  2  0
 10 11  1  0
 11 12  2  0
 12 13  1  0
 13 14  2  0
 14  9  1  0
M  END

$$$$
