No_1801-gen_results/8p0m/2024-11-27-11-27-31/
     RDKit          3D

  9  9  0  0  0  0  0  0  0  0999 V2000
  -28.0162   -0.8135   28.8779 C   0  0  0  0  0  0  0  0  0  0  0  0
  -28.4690   -0.7850   29.8287 C   0  0  0  0  0  0  0  0  0  0  0  0
  -26.6028   -1.0596   28.5384 C   0  0  0  0  0  0  0  0  0  0  0  0
  -25.7969   -1.4490   29.7273 C   0  0  0  0  0  0  0  0  0  0  0  0
  -24.3895   -1.6940   29.5924 C   0  0  0  0  0  0  0  0  0  0  0  0
  -27.8326   -1.2167   31.1327 C   0  0  0  0  0  0  0  0  0  0  0  0
  -26.4456   -1.5446   31.0163 C   0  0  0  0  0  0  0  0  0  0  0  0
  -23.5414   -0.6475   29.6923 C   0  0  0  0  0  0  0  0  0  0  0  0
  -23.7622    0.5483   30.2659 C   0  0  0  0  0  0  0  0  0  0  0  0
  1  2  3  0
  1  3  1  0
  3  4  1  0
  4  5  2  3
  2  6  1  0
  4  7  1  0
  6  7  1  0
  5  8  1  0
  8  9  1  0
M  END

$$$$
