No_128-gen_results/8p0m/2024-11-27-11-27-31/
     RDKit          3D

  7  6  0  0  0  0  0  0  0  0999 V2000
  -28.1493   -0.8198   28.9079 Cl  0  0  0  0  0  0  0  0  0  0  0  0
  -27.8339    0.4961   29.0598 C   0  0  0  0  0  0  0  0  0  0  0  0
  -27.6022    1.0128   30.2974 C   0  0  0  0  0  0  0  0  0  0  0  0
  -27.5166    0.6576   31.2453 F   0  0  0  0  0  0  0  0  0  0  0  0
  -27.2344    2.5609   30.2752 C   0  0  0  0  0  0  0  0  0  0  0  0
  -27.4138    3.1042   31.3244 F   0  0  0  0  0  0  0  0  0  0  0  0
  -25.8168    2.8148   29.8746 C   0  0  0  0  0  0  0  0  0  0  0  0
  1  2  1  0
  2  3  1  0
  3  4  1  0
  3  5  1  0
  5  6  1  0
  5  7  1  0
M  END

$$$$
