No_1186-gen_results/8p0m/2024-11-27-11-27-31/
     RDKit          3D

 27 28  0  0  0  0  0  0  0  0999 V2000
  -28.0162   -0.8135   28.8779 C   0  0  0  0  0  0  0  0  0  0  0  0
  -28.4690   -0.7850   29.8287 C   0  0  0  0  0  0  0  0  0  0  0  0
  -26.5042   -0.7777   28.8766 C   0  0  0  0  0  0  0  0  0  0  0  0
  -25.8305   -1.6808   29.6849 C   0  0  0  0  0  0  0  0  0  0  0  0
  -28.1490   -1.8854   30.9031 C   0  0  0  0  0  0  0  0  0  0  0  0
  -27.4248   -2.6437   30.5774 N   0  0  0  0  0  0  0  0  0  0  0  0
  -26.1211   -2.6911   30.3877 C   0  0  0  0  0  0  0  0  0  0  0  0
  -28.1078   -3.9713   29.9699 C   0  0  0  0  0  0  0  0  0  0  0  0
  -25.7329    0.1109   27.9551 C   0  0  0  0  0  0  0  0  0  0  0  0
  -26.1740    0.5825   26.8412 C   0  0  0  0  0  0  0  0  0  0  0  0
  -24.3303    0.4230   28.3024 C   0  0  0  0  0  0  0  0  0  0  0  0
  -23.5739    1.2904   27.5132 C   0  0  0  0  0  0  0  0  0  0  0  0
  -25.4421    1.4116   25.9631 C   0  0  0  0  0  0  0  0  0  0  0  0
  -22.2119    1.7687   27.8690 C   0  0  0  0  0  0  0  0  0  0  0  0
  -24.1067    1.8343   26.3017 C   0  0  0  0  0  0  0  0  0  0  0  0
  -21.2252    1.5905   27.1006 O   0  0  0  0  0  0  0  0  0  0  0  0
  -22.2366    2.7052   28.8919 O   0  0  0  0  0  0  0  0  0  0  0  0
  -29.7448    0.0140   30.1330 C   0  0  0  0  0  0  0  0  0  0  0  0
  -29.7726    0.8485   30.8643 O   0  0  0  0  0  0  0  0  0  0  0  0
  -30.8074   -0.5661   29.6354 O   0  0  0  0  0  0  0  0  0  0  0  0
  -29.4329   -4.2346   30.5924 C   0  0  0  0  0  0  0  0  0  0  0  0
  -30.2588   -4.9749   29.8659 C   0  0  0  0  0  0  0  0  0  0  0  0
  -30.4751   -5.2160   28.7847 C   0  0  0  0  0  0  0  0  0  0  0  0
  -31.4170   -6.0617   28.0719 C   0  0  0  0  0  0  0  0  0  0  0  0
  -31.5298   -6.1240   26.7170 C   0  0  0  0  0  0  0  0  0  0  0  0
  -31.2536   -5.8150   30.7862 C   0  0  0  0  0  0  0  0  0  0  0  0
  -32.1838   -6.6752   30.2343 C   0  0  0  0  0  0  0  0  0  0  0  0
  1  2  1  0
  1  3  1  0
  3  4  1  0
  2  5  1  0
  5  6  1  0
  4  7  1  0
  6  7  1  0
  6  8  1  0
  3  9  1  0
 12 14  1  0
 14 16  2  0
 14 17  1  0
  2 18  1  0
 18 19  2  0
 18 20  1  0
  8 21  1  0
 21 22  1  0
 22 23  2  3
 23 24  1  0
 24 25  2  0
 22 26  1  0
 26 27  2  0
  9 10  2  0
 10 13  1  0
 13 15  2  0
 15 12  1  0
 12 11  2  0
 11  9  1  0
M  END

$$$$
