No_1895-gen_results/8p0m/2024-11-27-11-27-31/
     RDKit          3D

  9  9  0  0  0  0  0  0  0  0999 V2000
  -28.0162   -0.8135   28.8779 C   0  0  0  0  0  0  0  0  0  0  0  0
  -28.4690   -0.7850   29.8287 C   0  0  0  0  0  0  0  0  0  0  0  0
  -26.5042   -0.7777   28.8766 C   0  0  0  0  0  0  0  0  0  0  0  0
  -25.7622   -0.0022   27.9705 C   0  0  0  0  0  0  0  0  0  0  0  0
  -24.3914    0.1198   28.1381 C   0  0  0  0  0  0  0  0  0  0  0  0
  -23.7115   -0.7200   29.0863 C   0  0  0  0  0  0  0  0  0  0  0  0
  -24.4207   -1.5358   29.9161 C   0  0  0  0  0  0  0  0  0  0  0  0
  -25.8017   -1.5837   29.8123 C   0  0  0  0  0  0  0  0  0  0  0  0
  -28.1659   -1.8937   30.8865 C   0  0  0  0  0  0  0  0  0  0  0  0
  1  2  1  0
  1  3  1  0
  2  9  2  0
  3  4  2  0
  4  5  1  0
  5  6  2  0
  6  7  1  0
  7  8  2  0
  8  3  1  0
M  END

$$$$
