No_1449-gen_results/8p0m/2024-11-27-11-27-31/
     RDKit          3D

 20 21  0  0  0  0  0  0  0  0999 V2000
  -28.0162   -0.8135   28.8779 C   0  0  0  0  0  0  0  0  0  0  0  0
  -28.4690   -0.7850   29.8287 C   0  0  0  0  0  0  0  0  0  0  0  0
  -26.5042   -0.7777   28.8766 C   0  0  0  0  0  0  0  0  0  0  0  0
  -25.8103   -0.8531   30.1028 C   0  0  0  0  0  0  0  0  0  0  0  0
  -27.9906   -0.8916   31.2257 C   0  0  0  0  0  0  0  0  0  0  0  0
  -26.6042   -0.8676   31.2652 C   0  0  0  0  0  0  0  0  0  0  0  0
  -24.3894   -0.8049   30.1638 C   0  0  0  0  0  0  0  0  0  0  0  0
  -23.8172    0.4762   29.9118 C   0  0  0  0  0  0  0  0  0  0  0  0
  -22.5010    0.5449   29.4097 C   0  0  0  0  0  0  0  0  0  0  0  0
  -21.7696   -0.6524   29.2129 C   0  0  0  0  0  0  0  0  0  0  0  0
  -23.6939   -1.8206   29.2518 C   0  0  0  0  0  0  0  0  0  0  0  0
  -22.3271   -1.7235   29.1652 N   0  0  0  0  0  0  0  0  0  0  0  0
  -23.8349   -1.2597   31.6631 C   0  0  0  0  0  0  0  0  0  0  0  0
  -24.4586    1.7298   30.3191 C   0  0  0  0  0  0  0  0  0  0  0  0
  -24.9174    2.4825   29.3955 O   0  0  0  0  0  0  0  0  0  0  0  0
  -24.5911    2.0159   31.6070 O   0  0  0  0  0  0  0  0  0  0  0  0
  -30.0770   -0.8418   29.8030 C   0  0  0  0  0  0  0  0  0  0  0  0
  -30.7413   -1.6299   30.2978 O   0  0  0  0  0  0  0  0  0  0  0  0
  -30.6278    0.1364   29.1263 O   0  0  0  0  0  0  0  0  0  0  0  0
  -20.4610   -0.4419   28.7493 N   0  0  0  0  0  0  0  0  0  0  0  0
  4  7  1  0
  7  8  1  0
  9 10  1  0
  7 11  1  0
 10 12  1  0
 11 12  1  0
  7 13  1  0
  8 14  1  0
 14 15  2  0
 14 16  1  0
  2 17  1  0
 17 18  2  0
 17 19  1  0
 10 20  1  0
  8  9  1  0
  1  2  2  0
  2  5  1  0
  5  6  2  0
  6  4  1  0
  4  3  2  0
  3  1  1  0
M  END

$$$$
