No_1800-gen_results/8p0m/2024-11-27-11-27-31/
     RDKit          3D

 26 29  0  0  0  0  0  0  0  0999 V2000
  -28.0162   -0.8135   28.8779 C   0  0  0  0  0  0  0  0  0  0  0  0
  -27.0636   -0.1190   28.6079 C   0  0  0  0  0  0  0  0  0  0  0  0
  -26.9716    0.7139   27.5060 C   0  0  0  0  0  0  0  0  0  0  0  0
  -28.1053    0.7744   26.6421 C   0  0  0  0  0  0  0  0  0  0  0  0
  -29.2041    0.1179   27.0477 C   0  0  0  0  0  0  0  0  0  0  0  0
  -29.2127   -0.6088   28.1281 C   0  0  0  0  0  0  0  0  0  0  0  0
  -25.7106    1.4518   27.1380 C   0  0  0  0  0  0  0  0  0  0  0  0
  -24.6052    0.9253   27.6902 C   0  0  0  0  0  0  0  0  0  0  0  0
  -23.3376    1.6509   27.5495 C   0  0  0  0  0  0  0  0  0  0  0  0
  -22.1759    1.2277   28.2868 C   0  0  0  0  0  0  0  0  0  0  0  0
  -22.1814    0.0854   29.0261 C   0  0  0  0  0  0  0  0  0  0  0  0
  -23.3607   -0.6935   29.1008 C   0  0  0  0  0  0  0  0  0  0  0  0
  -24.5305   -0.2411   28.4874 C   0  0  0  0  0  0  0  0  0  0  0  0
  -25.7622   -0.5962   29.1158 N   0  0  0  0  0  0  0  0  0  0  0  0
  -25.7375   -1.5621   30.1696 C   0  0  0  0  0  0  0  0  0  0  0  0
  -25.7443    2.5035   26.1957 C   0  0  0  0  0  0  0  0  0  0  0  0
  -30.3265    0.3172   26.3350 O   0  0  0  0  0  0  0  0  0  0  0  0
  -25.5050   -2.8729   29.6028 C   0  0  0  0  0  0  0  0  0  0  0  0
  -24.2694   -3.2621   29.1094 C   0  0  0  0  0  0  0  0  0  0  0  0
  -23.2860   -2.1574   28.7305 C   0  0  0  0  0  0  0  0  0  0  0  0
  -26.6937   -4.0704   29.7450 Cl  0  0  0  0  0  0  0  0  0  0  0  0
  -31.4265    0.6803   26.8168 C   0  0  0  0  0  0  0  0  0  0  0  0
  -32.4035   -0.0307   26.6013 C   0  0  0  0  0  0  0  0  0  0  0  0
  -32.3878   -1.0189   25.6931 C   0  0  0  0  0  0  0  0  0  0  0  0
  -31.9546   -2.0099   25.8664 C   0  0  0  0  0  0  0  0  0  0  0  0
  -31.8194   -3.1567   24.8224 C   0  0  0  0  0  0  0  0  0  0  0  0
  3  7  1  0
  7  8  1  0
  2 14  1  0
 13 14  1  0
 14 15  1  0
  7 16  1  0
  5 17  1  0
 15 18  1  0
 18 19  2  0
 12 20  1  0
 19 20  1  0
 18 21  1  0
 17 22  1  0
 22 23  2  3
 23 24  1  0
 24 25  2  3
 25 26  1  0
  1  2  2  0
  2  3  1  0
  3  4  2  0
  4  5  1  0
  5  6  2  0
  6  1  1  0
  8  9  2  0
  9 10  1  0
 10 11  2  0
 11 12  1  0
 12 13  2  0
 13  8  1  0
M  END

$$$$
