No_1998-gen_results/8p0m/2024-11-27-11-27-31/
     RDKit          3D

 15 16  0  0  0  0  0  0  0  0999 V2000
  -28.0162   -0.8135   28.8779 C   0  0  0  0  0  0  0  0  0  0  0  0
  -28.4690   -0.7850   29.8287 C   0  0  0  0  0  0  0  0  0  0  0  0
  -27.0871    0.2903   28.6377 C   0  0  0  0  0  0  0  0  0  0  0  0
  -26.8317    1.2487   29.5869 C   0  0  0  0  0  0  0  0  0  0  0  0
  -28.3914    0.0801   31.0065 C   0  0  0  0  0  0  0  0  0  0  0  0
  -27.4940    1.1521   30.7841 C   0  0  0  0  0  0  0  0  0  0  0  0
  -26.3172    0.3994   27.3653 C   0  0  0  0  0  0  0  0  0  0  0  0
  -26.8815    0.9711   26.3721 C   0  0  0  0  0  0  0  0  0  0  0  0
  -26.1465    0.9703   25.0973 C   0  0  0  0  0  0  0  0  0  0  0  0
  -24.9586    0.5816   25.0940 C   0  0  0  0  0  0  0  0  0  0  0  0
  -25.0239   -0.1275   27.2510 C   0  0  0  0  0  0  0  0  0  0  0  0
  -24.3310   -0.0243   26.1656 C   0  0  0  0  0  0  0  0  0  0  0  0
  -24.5529   -0.6605   28.5588 C   0  0  0  0  0  0  0  0  0  0  0  0
  -24.6926   -1.9446   29.0268 C   0  0  0  0  0  0  0  0  0  0  0  0
  -24.0865   -2.3691   30.1819 C   0  0  0  0  0  0  0  0  0  0  0  0
  3  7  1  0
 11 13  1  0
 13 14  2  3
 14 15  1  0
  7  8  2  0
  8  9  1  0
  9 10  2  0
 10 12  1  0
 12 11  2  0
 11  7  1  0
  1  2  2  0
  2  5  1  0
  5  6  2  0
  6  4  1  0
  4  3  2  0
  3  1  1  0
M  END

$$$$
