No_1823-gen_results/8p0m/2024-11-27-11-27-31/
     RDKit          3D

 15 17  0  0  0  0  0  0  0  0999 V2000
  -28.0162   -0.8135   28.8779 C   0  0  0  0  0  0  0  0  0  0  0  0
  -28.4690   -0.7850   29.8287 C   0  0  0  0  0  0  0  0  0  0  0  0
  -27.1356    0.2359   28.5352 C   0  0  0  0  0  0  0  0  0  0  0  0
  -26.3351    0.2900   27.2835 C   0  0  0  0  0  0  0  0  0  0  0  0
  -28.3692    0.1957   30.9236 C   0  0  0  0  0  0  0  0  0  0  0  0
  -27.5158    1.2655   30.6540 C   0  0  0  0  0  0  0  0  0  0  0  0
  -26.8411    1.2942   29.4761 C   0  0  0  0  0  0  0  0  0  0  0  0
  -25.6774    1.5198   26.9774 C   0  0  0  0  0  0  0  0  0  0  0  0
  -25.4319    2.5017   27.9539 C   0  0  0  0  0  0  0  0  0  0  0  0
  -26.0988    2.4610   29.1572 C   0  0  0  0  0  0  0  0  0  0  0  0
  -24.5862    3.6665   27.5007 C   0  0  0  0  0  0  0  0  0  0  0  0
  -23.9887    3.5238   26.2455 N   0  0  0  0  0  0  0  0  0  0  0  0
  -23.9906    2.4174   25.5156 C   0  0  0  0  0  0  0  0  0  0  0  0
  -24.8734    1.4204   25.8009 C   0  0  0  0  0  0  0  0  0  0  0  0
  -25.8520    3.4256   30.0688 O   0  0  0  0  0  0  0  0  0  0  0  0
  3  4  1  0
  7 10  1  0
  9 10  1  0
 10 15  2  0
  4  8  1  0
  8  9  2  0
  9 11  1  0
 11 12  2  0
 12 13  1  0
 13 14  2  0
 14  8  1  0
  1  2  2  0
  2  5  1  0
  5  6  2  0
  6  7  1  0
  7  3  2  0
  3  1  1  0
M  END

$$$$
