No_1506-gen_results/8p0m/2024-11-27-11-27-31/
     RDKit          3D

 22 25  0  0  0  0  0  0  0  0999 V2000
  -28.0162   -0.8135   28.8779 C   0  0  0  0  0  0  0  0  0  0  0  0
  -27.0636   -0.1189   28.6079 C   0  0  0  0  0  0  0  0  0  0  0  0
  -26.9287    1.1713   29.0083 C   0  0  0  0  0  0  0  0  0  0  0  0
  -25.7702    2.0341   28.6884 C   0  0  0  0  0  0  0  0  0  0  0  0
  -24.7141    1.4431   27.9188 C   0  0  0  0  0  0  0  0  0  0  0  0
  -24.8590    0.0783   27.5836 C   0  0  0  0  0  0  0  0  0  0  0  0
  -25.9647   -0.6606   27.9164 C   0  0  0  0  0  0  0  0  0  0  0  0
  -29.1701   -0.2984   28.9471 N   0  0  0  0  0  0  0  0  0  0  0  0
  -30.1841   -0.8920   29.7048 C   0  0  0  0  0  0  0  0  0  0  0  0
  -23.5181    2.1584   27.5785 C   0  0  0  0  0  0  0  0  0  0  0  0
  -23.3694    2.8211   26.7301 F   0  0  0  0  0  0  0  0  0  0  0  0
  -22.3783    1.6739   28.2017 F   0  0  0  0  0  0  0  0  0  0  0  0
  -29.8637   -2.0677   30.3646 C   0  0  0  0  0  0  0  0  0  0  0  0
  -28.6043   -2.6124   30.4119 C   0  0  0  0  0  0  0  0  0  0  0  0
  -27.6297   -1.9013   29.8350 C   0  0  0  0  0  0  0  0  0  0  0  0
  -29.5295    0.7941   28.1502 C   0  0  0  0  0  0  0  0  0  0  0  0
  -30.6186    0.6146   27.2927 C   0  0  0  0  0  0  0  0  0  0  0  0
  -30.6360    0.9901   26.2770 C   0  0  0  0  0  0  0  0  0  0  0  0
  -29.8197    2.1366   25.7903 C   0  0  0  0  0  0  0  0  0  0  0  0
  -28.7748    2.5008   26.6327 C   0  0  0  0  0  0  0  0  0  0  0  0
  -28.5916    1.7662   27.7476 C   0  0  0  0  0  0  0  0  0  0  0  0
  -27.5058    2.0225   28.5144 N   0  0  0  0  0  0  0  0  0  0  0  0
  1  2  1  0
  1  8  1  0
  8  9  1  0
  5 10  1  0
 10 11  1  0
 10 12  1  0
 13 14  1  0
  1 15  1  0
 14 15  1  0
  8 16  1  0
  3 22  1  0
 21 22  1  0
 13  9  1  0
  2  3  1  0
  3  4  2  0
  4  5  1  0
  5  6  2  0
  6  7  1  0
  7  2  2  0
 16 17  2  0
 17 18  1  0
 18 19  2  0
 19 20  1  0
 20 21  2  0
 21 16  1  0
M  END

$$$$
