No_1464-gen_results/8p0m/2024-11-27-11-27-31/
     RDKit          3D

 35 38  0  0  0  0  0  0  0  0999 V2000
  -28.0162   -0.8135   28.8779 C   0  0  0  0  0  0  0  0  0  0  0  0
  -28.4690   -0.7850   29.8287 C   0  0  0  0  0  0  0  0  0  0  0  0
  -26.5455   -0.8762   28.8500 C   0  0  0  0  0  0  0  0  0  0  0  0
  -25.6825   -0.7773   27.6829 C   0  0  0  0  0  0  0  0  0  0  0  0
  -27.9181   -1.0034   31.1877 C   0  0  0  0  0  0  0  0  0  0  0  0
  -26.5308   -1.0794   31.2463 C   0  0  0  0  0  0  0  0  0  0  0  0
  -25.7798   -1.0462   30.0905 C   0  0  0  0  0  0  0  0  0  0  0  0
  -24.3676   -0.2501   27.7917 C   0  0  0  0  0  0  0  0  0  0  0  0
  -23.9139    0.2901   28.6370 C   0  0  0  0  0  0  0  0  0  0  0  0
  -24.3613   -0.1243   30.0790 C   0  0  0  0  0  0  0  0  0  0  0  0
  -22.4686    0.7702   28.8323 C   0  0  0  0  0  0  0  0  0  0  0  0
  -21.4843    0.1834   29.0963 N   0  0  0  0  0  0  0  0  0  0  0  0
  -22.3799    2.0838   28.5074 O   0  0  0  0  0  0  0  0  0  0  0  0
  -30.2808   -1.0389   29.8705 Cl  0  0  0  0  0  0  0  0  0  0  0  0
  -21.3351   -1.2429   29.2163 C   0  0  0  0  0  0  0  0  0  0  0  0
  -23.7060    0.0663   31.3419 C   0  0  0  0  0  0  0  0  0  0  0  0
  -28.6356   -1.2546   32.2947 O   0  0  0  0  0  0  0  0  0  0  0  0
  -28.4203   -0.4164   33.3168 C   0  0  0  0  0  0  0  0  0  0  0  0
  -28.5313   -1.0264   34.5377 C   0  0  0  0  0  0  0  0  0  0  0  0
  -27.6696   -0.7041   35.4697 C   0  0  0  0  0  0  0  0  0  0  0  0
  -26.6398   -0.3480   35.3558 C   0  0  0  0  0  0  0  0  0  0  0  0
  -26.3264    0.4930   34.1585 C   0  0  0  0  0  0  0  0  0  0  0  0
  -27.3270    0.6449   33.3690 C   0  0  0  0  0  0  0  0  0  0  0  0
  -27.6368    1.8189   32.5380 C   0  0  0  0  0  0  0  0  0  0  0  0
  -27.7475    2.9890   33.2011 C   0  0  0  0  0  0  0  0  0  0  0  0
  -27.8932    4.0148   32.8905 C   0  0  0  0  0  0  0  0  0  0  0  0
  -28.0503    4.3516   31.5162 C   0  0  0  0  0  0  0  0  0  0  0  0
  -27.9738    3.1986   30.6378 C   0  0  0  0  0  0  0  0  0  0  0  0
  -27.7257    1.9630   31.2002 C   0  0  0  0  0  0  0  0  0  0  0  0
  -28.1059    3.3953   29.1857 C   0  0  0  0  0  0  0  0  0  0  0  0
  -26.9920    3.2598   28.4651 C   0  0  0  0  0  0  0  0  0  0  0  0
  -25.8517    3.7531   28.7834 C   0  0  0  0  0  0  0  0  0  0  0  0
  -24.7009    3.7490   27.8548 C   0  0  0  0  0  0  0  0  0  0  0  0
  -24.9407    3.3027   26.5358 C   0  0  0  0  0  0  0  0  0  0  0  0
  -27.1640    2.8951   27.0384 C   0  0  0  0  0  0  0  0  0  0  0  0
  9 11  1  0
 11 12  1  0
 11 13  2  0
  2 14  1  0
 12 15  1  0
 10 16  1  0
  5 17  1  0
 17 18  1  0
 23 24  1  0
 28 30  1  0
 30 31  1  0
 31 32  2  3
 32 33  1  0
 33 34  2  0
 31 35  1  0
 18 19  2  0
 19 20  1  0
 20 21  2  0
 21 22  1  0
 22 23  2  0
 23 18  1  0
 24 25  2  0
 25 26  1  0
 26 27  2  0
 27 28  1  0
 28 29  2  0
 29 24  1  0
  1  2  2  0
  2  5  1  0
  5  6  2  0
  6  7  1  0
  3  1  1  0
  3  4  2  0
  4  8  1  0
  8  9  2  0
  9 10  1  0
 10  7  2  0
  7  3  1  0
M  END

$$$$
