No_1734-gen_results/8p0m/2024-11-27-11-27-31/
     RDKit          3D

 23 27  0  0  0  0  0  0  0  0999 V2000
  -28.0162   -0.8135   28.8779 C   0  0  0  0  0  0  0  0  0  0  0  0
  -28.4690   -0.7850   29.8287 C   0  0  0  0  0  0  0  0  0  0  0  0
  -26.5455   -0.8762   28.8500 C   0  0  0  0  0  0  0  0  0  0  0  0
  -25.8041   -1.0324   30.0571 C   0  0  0  0  0  0  0  0  0  0  0  0
  -27.9437   -0.9869   31.2075 C   0  0  0  0  0  0  0  0  0  0  0  0
  -26.5825   -1.0386   31.2231 C   0  0  0  0  0  0  0  0  0  0  0  0
  -30.0279   -0.6588   29.6965 C   0  0  0  0  0  0  0  0  0  0  0  0
  -30.7763   -1.4156   30.1892 O   0  0  0  0  0  0  0  0  0  0  0  0
  -30.4421    0.3970   28.9785 N   0  0  0  0  0  0  0  0  0  0  0  0
  -31.4906    0.6948   28.6323 C   0  0  0  0  0  0  0  0  0  0  0  0
  -31.6853    1.5364   27.7202 C   0  0  0  0  0  0  0  0  0  0  0  0
  -30.5514    2.2473   27.1808 C   0  0  0  0  0  0  0  0  0  0  0  0
  -29.2895    1.9231   27.5261 C   0  0  0  0  0  0  0  0  0  0  0  0
  -29.1724    0.9698   28.3937 C   0  0  0  0  0  0  0  0  0  0  0  0
  -27.8860    0.3845   28.4265 C   0  0  0  0  0  0  0  0  0  0  0  0
  -25.7126   -0.8429   27.6361 C   0  0  0  0  0  0  0  0  0  0  0  0
  -24.3094   -0.7281   27.9437 C   0  0  0  0  0  0  0  0  0  0  0  0
  -26.7255    1.2512   28.1115 C   0  0  0  0  0  0  0  0  0  0  0  0
  -24.4725   -1.2193   30.0525 C   0  0  0  0  0  0  0  0  0  0  0  0
  -23.6518   -1.1770   28.9981 C   0  0  0  0  0  0  0  0  0  0  0  0
  -26.1218    0.3041   26.7949 C   0  0  0  0  0  0  0  0  0  0  0  0
  -25.0390    1.0754   26.0982 C   0  0  0  0  0  0  0  0  0  0  0  0
  -27.0572   -0.0430   25.6651 C   0  0  0  0  0  0  0  0  0  0  0  0
  2  7  1  0
  7  8  2  0
  7  9  1  0
  9 10  1  0
 11 12  1  0
  9 14  1  0
 13 14  1  0
  1 15  1  0
 14 15  1  0
 15 18  1  0
 16 21  1  0
 18 21  1  0
 21 22  1  0
 21 23  1  0
 10 11  1  0
 12 13  1  0
  1  3  1  0
  4  6  1  0
  6  5  2  0
  5  2  1  0
  2  1  2  0
  3  4  2  0
  4 19  1  0
 19 20  2  0
 20 17  1  0
 17 16  2  0
 16  3  1  0
M  END

$$$$
