No_1763-gen_results/8p0m/2024-11-27-11-27-31/
     RDKit          3D

 35 38  0  0  0  0  0  0  0  0999 V2000
  -28.0162   -0.8135   28.8779 C   0  0  0  0  0  0  0  0  0  0  0  0
  -27.0636   -0.1189   28.6079 C   0  0  0  0  0  0  0  0  0  0  0  0
  -26.9287    1.1713   29.0083 C   0  0  0  0  0  0  0  0  0  0  0  0
  -27.9560    1.7411   29.7840 C   0  0  0  0  0  0  0  0  0  0  0  0
  -29.0569   -0.3271   29.7466 C   0  0  0  0  0  0  0  0  0  0  0  0
  -28.9828    0.9722   30.1516 C   0  0  0  0  0  0  0  0  0  0  0  0
  -25.8907   -0.6263   27.7857 C   0  0  0  0  0  0  0  0  0  0  0  0
  -25.4633    0.1123   26.6815 C   0  0  0  0  0  0  0  0  0  0  0  0
  -24.6097   -0.9583   28.5937 C   0  0  0  0  0  0  0  0  0  0  0  0
  -23.5023   -0.1957   28.6722 C   0  0  0  0  0  0  0  0  0  0  0  0
  -23.1432    0.4865   27.4282 C   0  0  0  0  0  0  0  0  0  0  0  0
  -24.2253    0.8026   26.5826 C   0  0  0  0  0  0  0  0  0  0  0  0
  -21.9157    1.2958   27.4853 C   0  0  0  0  0  0  0  0  0  0  0  0
  -20.9375    0.8420   28.2532 N   0  0  0  0  0  0  0  0  0  0  0  0
  -21.8232    2.3565   26.6745 N   0  0  0  0  0  0  0  0  0  0  0  0
  -27.8342    3.1979   30.1990 C   0  0  0  0  0  0  0  0  0  0  0  0
  -27.4719    4.1430   29.8678 C   0  0  0  0  0  0  0  0  0  0  0  0
  -27.3131    5.4418   30.4801 C   0  0  0  0  0  0  0  0  0  0  0  0
  -27.8263    5.5424   31.7562 C   0  0  0  0  0  0  0  0  0  0  0  0
  -28.2858    4.4115   32.3640 C   0  0  0  0  0  0  0  0  0  0  0  0
  -28.2737    3.1869   31.7725 C   0  0  0  0  0  0  0  0  0  0  0  0
  -30.1895   -1.1856   30.0740 C   0  0  0  0  0  0  0  0  0  0  0  0
  -31.0880   -1.2194   29.3095 O   0  0  0  0  0  0  0  0  0  0  0  0
  -30.3010   -1.6018   31.3015 O   0  0  0  0  0  0  0  0  0  0  0  0
  -26.7835    6.6087   29.7408 C   0  0  0  0  0  0  0  0  0  0  0  0
  -25.8863    7.3386   30.2468 C   0  0  0  0  0  0  0  0  0  0  0  0
  -25.2202    7.0920   31.3816 C   0  0  0  0  0  0  0  0  0  0  0  0
  -24.7326    6.0754   31.8054 C   0  0  0  0  0  0  0  0  0  0  0  0
  -23.8735    6.0834   32.9926 N   0  0  0  0  0  0  0  0  0  0  0  0
  -23.7525    7.4303   33.1540 C   0  0  0  0  0  0  0  0  0  0  0  0
  -24.4338    8.1545   32.1944 C   0  0  0  0  0  0  0  0  0  0  0  0
  -27.3115    6.7328   28.5751 F   0  0  0  0  0  0  0  0  0  0  0  0
  -25.4460    8.5983   29.4248 C   0  0  0  0  0  0  0  0  0  0  0  0
  -25.4385    9.7589   29.2461 C   0  0  0  0  0  0  0  0  0  0  0  0
  -24.4100    8.0216   28.2600 C   0  0  0  0  0  0  0  0  0  0  0  0
  2  7  1  0
 11 13  1  0
 13 14  2  0
 13 15  1  0
  4 16  1  0
  5 22  1  0
 22 23  2  0
 22 24  1  0
 18 25  1  0
 25 26  1  0
 26 27  1  0
 27 28  2  0
 28 29  1  0
 29 30  2  0
 27 31  1  0
 30 31  1  0
 25 32  1  0
 26 33  1  0
 33 34  2  0
 33 35  1  0
  1  2  2  0
  2  3  1  0
  3  4  2  0
  4  6  1  0
  6  5  2  0
  5  1  1  0
  7  8  2  0
  8 12  1  0
 12 11  2  0
 11 10  1  0
 10  9  2  0
  9  7  1  0
 16 17  2  0
 17 18  1  0
 18 19  2  0
 19 20  1  0
 20 21  2  0
 21 16  1  0
M  END

$$$$
