No_184-gen_results/8p0m/2024-11-27-11-27-31/
     RDKit          3D

 15 16  0  0  0  0  0  0  0  0999 V2000
  -28.0162   -0.8135   28.8779 C   0  0  0  0  0  0  0  0  0  0  0  0
  -27.0636   -0.1189   28.6079 C   0  0  0  0  0  0  0  0  0  0  0  0
  -25.7923   -0.4302   29.0761 C   0  0  0  0  0  0  0  0  0  0  0  0
  -25.5756   -1.5654   29.9363 C   0  0  0  0  0  0  0  0  0  0  0  0
  -26.7354   -2.3004   30.2173 C   0  0  0  0  0  0  0  0  0  0  0  0
  -27.9184   -1.9537   29.7629 C   0  0  0  0  0  0  0  0  0  0  0  0
  -28.9516   -2.8779   30.2436 C   0  0  0  0  0  0  0  0  0  0  0  0
  -30.4836   -2.5178   29.9300 Cl  0  0  0  0  0  0  0  0  0  0  0  0
  -28.6517   -4.0012   30.7943 O   0  0  0  0  0  0  0  0  0  0  0  0
  -27.1122    1.1055   27.7509 C   0  0  0  0  0  0  0  0  0  0  0  0
  -27.9862    1.7162   27.5512 C   0  0  0  0  0  0  0  0  0  0  0  0
  -28.0766    2.8869   26.6315 C   0  0  0  0  0  0  0  0  0  0  0  0
  -26.9343    3.2255   25.9330 C   0  0  0  0  0  0  0  0  0  0  0  0
  -25.7779    2.4810   26.1454 C   0  0  0  0  0  0  0  0  0  0  0  0
  -25.7754    1.4654   27.0297 C   0  0  0  0  0  0  0  0  0  0  0  0
  6  7  1  0
  7  8  1  0
  7  9  2  0
  2 10  1  0
  1  2  2  0
  2  3  1  0
  3  4  2  0
  4  5  1  0
  5  6  2  0
  6  1  1  0
 10 11  2  0
 11 12  1  0
 12 13  2  0
 13 14  1  0
 14 15  2  0
 15 10  1  0
M  END

$$$$
