No_1315-gen_results/8p0m/2024-11-27-11-27-31/
     RDKit          3D

 35 38  0  0  0  0  0  0  0  0999 V2000
  -28.0162   -0.8135   28.8779 C   0  0  0  0  0  0  0  0  0  0  0  0
  -28.4690   -0.7850   29.8287 C   0  0  0  0  0  0  0  0  0  0  0  0
  -28.1816    0.4277   28.1134 C   0  0  0  0  0  0  0  0  0  0  0  0
  -27.4498    0.6435   26.8500 C   0  0  0  0  0  0  0  0  0  0  0  0
  -26.1815    0.0357   26.7145 C   0  0  0  0  0  0  0  0  0  0  0  0
  -25.7530   -0.9101   27.6815 C   0  0  0  0  0  0  0  0  0  0  0  0
  -26.5502   -1.2250   28.7228 C   0  0  0  0  0  0  0  0  0  0  0  0
  -29.5916   -0.3127   30.1968 N   0  0  0  0  0  0  0  0  0  0  0  0
  -28.0122   -1.6543   30.8507 O   0  0  0  0  0  0  0  0  0  0  0  0
  -30.2713    0.6145   29.4530 C   0  0  0  0  0  0  0  0  0  0  0  0
  -29.4644    1.0274   28.2253 C   0  0  0  0  0  0  0  0  0  0  0  0
  -31.4172    0.9046   29.6413 O   0  0  0  0  0  0  0  0  0  0  0  0
  -29.9154    1.8965   27.4089 O   0  0  0  0  0  0  0  0  0  0  0  0
  -25.4061    0.5846   25.6222 C   0  0  0  0  0  0  0  0  0  0  0  0
  -24.4355    1.2636   25.8444 F   0  0  0  0  0  0  0  0  0  0  0  0
  -26.2652    1.1483   24.7091 F   0  0  0  0  0  0  0  0  0  0  0  0
  -24.9908   -0.5693   24.8472 F   0  0  0  0  0  0  0  0  0  0  0  0
  -30.3586   -0.6073   31.5086 C   0  0  0  0  0  0  0  0  0  0  0  0
  -26.0476   -2.2021   29.4597 O   0  0  0  0  0  0  0  0  0  0  0  0
  -24.6384   -2.3046   29.5759 C   0  0  0  0  0  0  0  0  0  0  0  0
  -23.9292   -1.3994   30.4003 C   0  0  0  0  0  0  0  0  0  0  0  0
  -24.3698   -1.0301   31.6155 C   0  0  0  0  0  0  0  0  0  0  0  0
  -24.4426    0.0912   32.0269 C   0  0  0  0  0  0  0  0  0  0  0  0
  -23.9400    1.2487   31.2219 C   0  0  0  0  0  0  0  0  0  0  0  0
  -23.3043    0.8425   30.0469 C   0  0  0  0  0  0  0  0  0  0  0  0
  -23.4371   -0.3985   29.5777 C   0  0  0  0  0  0  0  0  0  0  0  0
  -22.7758    1.8805   29.3055 O   0  0  0  0  0  0  0  0  0  0  0  0
  -22.2529    1.6199   28.0466 C   0  0  0  0  0  0  0  0  0  0  0  0
  -22.5601   -0.9155   28.5320 C   0  0  0  0  0  0  0  0  0  0  0  0
  -21.8113    0.2532   27.7884 C   0  0  0  0  0  0  0  0  0  0  0  0
  -30.9975   -1.7929   31.5076 C   0  0  0  0  0  0  0  0  0  0  0  0
  -30.9463   -2.4610   32.4850 C   0  0  0  0  0  0  0  0  0  0  0  0
  -31.4461   -3.8917   32.5437 C   0  0  0  0  0  0  0  0  0  0  0  0
  -32.0323   -4.3868   31.3595 C   0  0  0  0  0  0  0  0  0  0  0  0
  -32.0036   -3.5963   30.2138 C   0  0  0  0  0  0  0  0  0  0  0  0
  1  2  1  0
  2  8  1  0
  2  9  2  0
  8 10  1  0
  3 11  1  0
 10 11  1  0
 10 12  2  0
 11 13  2  0
  5 14  1  0
 14 15  1  0
 14 16  1  0
 14 17  1  0
  8 18  1  0
  7 19  1  0
 19 20  1  0
 20 21  1  0
 25 27  1  0
 27 28  1  0
 26 29  1  0
 28 30  1  0
 29 30  2  0
 18 31  1  0
 31 32  2  3
 32 33  1  0
 33 34  2  3
 34 35  1  0
 21 22  2  0
 22 23  1  0
 23 24  2  0
 24 25  1  0
 25 26  2  0
 26 21  1  0
  1  7  2  0
  7  6  1  0
  6  5  2  0
  5  4  1  0
  4  3  2  0
  3  1  1  0
M  END

$$$$
