No_1460-gen_results/8p0m/2024-11-27-11-27-31/
     RDKit          3D

 24 26  0  0  0  0  0  0  0  0999 V2000
  -28.0162   -0.8135   28.8779 C   0  0  0  0  0  0  0  0  0  0  0  0
  -27.0636   -0.1189   28.6079 C   0  0  0  0  0  0  0  0  0  0  0  0
  -25.7923   -0.4302   29.0761 C   0  0  0  0  0  0  0  0  0  0  0  0
  -24.5456    0.3494   28.8225 C   0  0  0  0  0  0  0  0  0  0  0  0
  -24.6586    1.4196   27.8878 C   0  0  0  0  0  0  0  0  0  0  0  0
  -23.5403    2.1791   27.5500 C   0  0  0  0  0  0  0  0  0  0  0  0
  -22.2925    1.7429   28.0473 C   0  0  0  0  0  0  0  0  0  0  0  0
  -22.1712    0.7080   28.9284 C   0  0  0  0  0  0  0  0  0  0  0  0
  -23.3345   -0.0624   29.3081 C   0  0  0  0  0  0  0  0  0  0  0  0
  -27.9466   -1.8823   29.8708 C   0  0  0  0  0  0  0  0  0  0  0  0
  -26.7159   -2.3287   30.3060 C   0  0  0  0  0  0  0  0  0  0  0  0
  -25.5921   -1.5643   29.9672 C   0  0  0  0  0  0  0  0  0  0  0  0
  -29.1228   -2.6879   30.2451 C   0  0  0  0  0  0  0  0  0  0  0  0
  -29.0213   -3.9794   30.3949 N   0  0  0  0  0  0  0  0  0  0  0  0
  -30.2387   -2.1505   30.4313 O   0  0  0  0  0  0  0  0  0  0  0  0
  -30.0892   -4.8865   30.7117 C   0  0  0  0  0  0  0  0  0  0  0  0
  -30.8446   -5.2110   29.6059 C   0  0  0  0  0  0  0  0  0  0  0  0
  -32.1164   -4.8448   29.6389 C   0  0  0  0  0  0  0  0  0  0  0  0
  -32.3873   -3.7839   30.3159 C   0  0  0  0  0  0  0  0  0  0  0  0
  -31.4252   -3.8582   31.4450 C   0  0  0  0  0  0  0  0  0  0  0  0
  -29.8920   -5.8465   31.7987 C   0  0  0  0  0  0  0  0  0  0  0  0
  -29.6815   -5.5543   32.9657 O   0  0  0  0  0  0  0  0  0  0  0  0
  -29.5169   -7.0893   31.3963 O   0  0  0  0  0  0  0  0  0  0  0  0
  -23.6481    3.1718   26.6961 O   0  0  0  0  0  0  0  0  0  0  0  0
  3  4  1  0
 10 13  1  0
 13 14  1  0
 13 15  2  0
 14 16  1  0
 16 17  1  0
 17 18  1  0
 18 19  2  0
 16 20  1  0
 19 20  1  0
 16 21  1  0
 21 22  2  0
 21 23  1  0
  6 24  1  0
  1  2  2  0
  2  3  1  0
  3 12  2  0
 12 11  1  0
 11 10  2  0
 10  1  1  0
  4  5  2  0
  5  6  1  0
  6  7  2  0
  7  8  1  0
  8  9  2  0
  9  4  1  0
M  END

$$$$
