No_1937-gen_results/8p0m/2024-11-27-11-27-31/
     RDKit          3D

 20 22  0  0  0  0  0  0  0  0999 V2000
  -28.0162   -0.8135   28.8779 C   0  0  0  0  0  0  0  0  0  0  0  0
  -27.0636   -0.1189   28.6079 C   0  0  0  0  0  0  0  0  0  0  0  0
  -25.7647   -0.3897   29.0360 C   0  0  0  0  0  0  0  0  0  0  0  0
  -25.5296   -1.5302   29.9014 C   0  0  0  0  0  0  0  0  0  0  0  0
  -26.6577   -2.2915   30.2035 C   0  0  0  0  0  0  0  0  0  0  0  0
  -27.8548   -1.9555   29.7630 C   0  0  0  0  0  0  0  0  0  0  0  0
  -24.5441    0.4126   28.7379 C   0  0  0  0  0  0  0  0  0  0  0  0
  -24.4731    1.2065   27.7114 C   0  0  0  0  0  0  0  0  0  0  0  0
  -23.2779    1.8420   27.3661 C   0  0  0  0  0  0  0  0  0  0  0  0
  -22.1821    1.5539   28.0423 C   0  0  0  0  0  0  0  0  0  0  0  0
  -23.3822    0.3526   29.6390 C   0  0  0  0  0  0  0  0  0  0  0  0
  -22.1679    0.8728   29.2085 C   0  0  0  0  0  0  0  0  0  0  0  0
  -29.0251   -2.7823   30.1644 C   0  0  0  0  0  0  0  0  0  0  0  0
  -29.3619   -2.7284   31.3383 N   0  0  0  0  0  0  0  0  0  0  0  0
  -29.8931   -3.7466   31.9877 C   0  0  0  0  0  0  0  0  0  0  0  0
  -29.2633   -1.5584   32.0575 C   0  0  0  0  0  0  0  0  0  0  0  0
  -29.6950   -1.4977   33.4079 C   0  0  0  0  0  0  0  0  0  0  0  0
  -30.3188   -3.7733   33.3993 C   0  0  0  0  0  0  0  0  0  0  0  0
  -30.1904   -2.5850   34.0690 C   0  0  0  0  0  0  0  0  0  0  0  0
  -29.5283   -3.5228   29.3659 O   0  0  0  0  0  0  0  0  0  0  0  0
  3  7  1  0
  6 13  1  0
 13 14  1  0
 14 15  1  0
 14 16  1  0
 17 19  1  0
 18 19  1  0
 13 20  2  0
 15 18  1  0
 17 16  1  0
  7  8  2  0
  8  9  1  0
  9 10  2  0
 10 12  1  0
 12 11  2  0
 11  7  1  0
  1  2  2  0
  2  3  1  0
  3  4  2  0
  4  5  1  0
  5  6  2  0
  6  1  1  0
M  END

$$$$
