No_146-gen_results/8p0m/2024-11-27-11-27-31/
     RDKit          3D

 33 36  0  0  0  0  0  0  0  0999 V2000
  -28.0162   -0.8135   28.8779 C   0  0  0  0  0  0  0  0  0  0  0  0
  -27.0636   -0.1189   28.6079 C   0  0  0  0  0  0  0  0  0  0  0  0
  -25.7923   -0.4302   29.0761 C   0  0  0  0  0  0  0  0  0  0  0  0
  -24.5456    0.3494   28.8225 C   0  0  0  0  0  0  0  0  0  0  0  0
  -24.6586    1.4196   27.8878 C   0  0  0  0  0  0  0  0  0  0  0  0
  -25.9471    1.6811   27.3792 C   0  0  0  0  0  0  0  0  0  0  0  0
  -27.0439    0.9739   27.6871 C   0  0  0  0  0  0  0  0  0  0  0  0
  -29.1882   -0.1472   29.0918 N   0  0  0  0  0  0  0  0  0  0  0  0
  -29.6010    0.1627   30.3266 C   0  0  0  0  0  0  0  0  0  0  0  0
  -30.2668   -0.6190   28.1881 C   0  0  0  0  0  0  0  0  0  0  0  0
  -23.6344    2.3475   27.6385 C   0  0  0  0  0  0  0  0  0  0  0  0
  -23.5722    3.0521   26.5338 N   0  0  0  0  0  0  0  0  0  0  0  0
  -22.4300    2.2070   28.1899 O   0  0  0  0  0  0  0  0  0  0  0  0
  -27.8413   -1.8353   29.6802 O   0  0  0  0  0  0  0  0  0  0  0  0
  -30.6470    0.3671   27.2160 C   0  0  0  0  0  0  0  0  0  0  0  0
  -30.9740   -0.1047   25.9660 C   0  0  0  0  0  0  0  0  0  0  0  0
  -30.7650    1.7048   27.4667 C   0  0  0  0  0  0  0  0  0  0  0  0
  -31.1707    0.7079   24.8308 C   0  0  0  0  0  0  0  0  0  0  0  0
  -31.0423    2.6024   26.4179 C   0  0  0  0  0  0  0  0  0  0  0  0
  -31.3171    2.0861   25.1026 C   0  0  0  0  0  0  0  0  0  0  0  0
  -29.2468    1.4090   30.8042 C   0  0  0  0  0  0  0  0  0  0  0  0
  -29.5033    1.7931   32.0663 C   0  0  0  0  0  0  0  0  0  0  0  0
  -30.2351    0.9358   32.8873 C   0  0  0  0  0  0  0  0  0  0  0  0
  -30.5862   -0.3069   32.4264 C   0  0  0  0  0  0  0  0  0  0  0  0
  -30.2836   -0.6792   31.1522 C   0  0  0  0  0  0  0  0  0  0  0  0
  -30.8938   -1.3889   25.6421 F   0  0  0  0  0  0  0  0  0  0  0  0
  -29.1274    3.1807   32.5901 C   0  0  0  0  0  0  0  0  0  0  0  0
  -28.5924    4.0390   32.3019 C   0  0  0  0  0  0  0  0  0  0  0  0
  -28.3143    5.2829   32.9580 C   0  0  0  0  0  0  0  0  0  0  0  0
  -28.8513    5.3953   34.2407 C   0  0  0  0  0  0  0  0  0  0  0  0
  -29.5284    4.3664   34.7587 C   0  0  0  0  0  0  0  0  0  0  0  0
  -29.7181    3.2072   34.0719 C   0  0  0  0  0  0  0  0  0  0  0  0
  -29.9889    4.4226   36.0234 F   0  0  0  0  0  0  0  0  0  0  0  0
  1  2  1  0
  1  8  1  0
  8  9  1  0
  8 10  1  0
  5 11  1  0
 11 12  2  0
 11 13  1  0
  1 14  2  0
 10 15  1  0
 16 26  1  0
 22 27  1  0
 31 33  1  0
  2  3  2  0
  3  4  1  0
  4  5  2  0
  5  6  1  0
  6  7  2  0
  7  2  1  0
 27 28  2  0
 28 29  1  0
 29 30  2  0
 30 31  1  0
 31 32  2  0
 32 27  1  0
 15 16  2  0
 16 18  1  0
 18 20  2  0
 20 19  1  0
 19 17  2  0
 17 15  1  0
  9 21  2  0
 21 22  1  0
 22 23  2  0
 23 24  1  0
 24 25  2  0
 25  9  1  0
M  END

$$$$
