No_1799-gen_results/8p0m/2024-11-27-11-27-31/
     RDKit          3D

 18 19  0  0  0  0  0  0  0  0999 V2000
  -28.1493   -0.8198   28.9079 Cl  0  0  0  0  0  0  0  0  0  0  0  0
  -26.9116   -0.0797   28.9452 C   0  0  0  0  0  0  0  0  0  0  0  0
  -26.7384    1.0439   29.2534 C   0  0  0  0  0  0  0  0  0  0  0  0
  -25.4392    1.7115   29.2755 C   0  0  0  0  0  0  0  0  0  0  0  0
  -24.2812    0.9888   28.8542 C   0  0  0  0  0  0  0  0  0  0  0  0
  -24.4868   -0.3041   28.4957 C   0  0  0  0  0  0  0  0  0  0  0  0
  -25.7046   -0.8667   28.5244 C   0  0  0  0  0  0  0  0  0  0  0  0
  -22.9617    1.6322   28.7948 C   0  0  0  0  0  0  0  0  0  0  0  0
  -21.8824    0.9133   28.4730 N   0  0  0  0  0  0  0  0  0  0  0  0
  -22.7302    2.7489   29.1503 O   0  0  0  0  0  0  0  0  0  0  0  0
  -21.8079   -0.4609   28.2237 C   0  0  0  0  0  0  0  0  0  0  0  0
  -23.1185   -1.1107   28.3210 C   0  0  0  0  0  0  0  0  0  0  0  0
  -27.8601    1.9816   29.6636 C   0  0  0  0  0  0  0  0  0  0  0  0
  -28.6182    2.5585   28.7421 C   0  0  0  0  0  0  0  0  0  0  0  0
  -29.8732    2.9396   29.1249 C   0  0  0  0  0  0  0  0  0  0  0  0
  -30.7584    3.4745   28.1422 C   0  0  0  0  0  0  0  0  0  0  0  0
  -30.2620    3.6434   26.7886 C   0  0  0  0  0  0  0  0  0  0  0  0
  -28.9745    3.2780   26.4373 C   0  0  0  0  0  0  0  0  0  0  0  0
  1  2  1  0
  5  8  1  0
  8  9  1  0
  8 10  2  0
  9 11  1  0
  6 12  1  0
 11 12  1  0
  3 13  1  0
 13 14  3  0
 14 15  1  0
 15 16  2  3
 16 17  1  0
 17 18  2  0
  2  3  2  0
  3  4  1  0
  4  5  2  0
  5  6  1  0
  6  7  2  0
  7  2  1  0
M  END

$$$$
