No_1280-gen_results/8p0m/2024-11-27-11-27-31/
     RDKit          3D

 35 38  0  0  0  0  0  0  0  0999 V2000
  -28.0162   -0.8135   28.8779 C   0  0  0  0  0  0  0  0  0  0  0  0
  -27.0636   -0.1190   28.6079 C   0  0  0  0  0  0  0  0  0  0  0  0
  -26.9287    1.1713   29.0083 C   0  0  0  0  0  0  0  0  0  0  0  0
  -25.7702    2.0341   28.6884 C   0  0  0  0  0  0  0  0  0  0  0  0
  -24.7141    1.4431   27.9188 C   0  0  0  0  0  0  0  0  0  0  0  0
  -24.8590    0.0783   27.5836 C   0  0  0  0  0  0  0  0  0  0  0  0
  -25.9647   -0.6606   27.9164 C   0  0  0  0  0  0  0  0  0  0  0  0
  -27.9821   -1.6367   30.0748 N   0  0  0  0  0  0  0  0  0  0  0  0
  -29.0318   -0.7819   28.3705 O   0  0  0  0  0  0  0  0  0  0  0  0
  -29.0339   -2.5382   30.5034 C   0  0  0  0  0  0  0  0  0  0  0  0
  -27.2738   -1.1248   31.2662 C   0  0  0  0  0  0  0  0  0  0  0  0
  -23.5078    2.1474   27.5433 C   0  0  0  0  0  0  0  0  0  0  0  0
  -22.4006    1.6907   27.2300 N   0  0  0  0  0  0  0  0  0  0  0  0
  -23.7024    3.4406   27.3836 O   0  0  0  0  0  0  0  0  0  0  0  0
  -29.6006   -2.3727   31.7393 C   0  0  0  0  0  0  0  0  0  0  0  0
  -30.5201   -3.4322   32.0346 C   0  0  0  0  0  0  0  0  0  0  0  0
  -30.8212   -4.1822   31.0639 C   0  0  0  0  0  0  0  0  0  0  0  0
  -29.6149   -3.6453   29.8822 C   0  0  0  0  0  0  0  0  0  0  0  0
  -31.4728   -5.3816   30.7749 C   0  0  0  0  0  0  0  0  0  0  0  0
  -31.9498   -5.9906   31.4794 C   0  0  0  0  0  0  0  0  0  0  0  0
  -31.8528   -5.6554   32.9322 C   0  0  0  0  0  0  0  0  0  0  0  0
  -31.4632   -4.6222   33.7407 C   0  0  0  0  0  0  0  0  0  0  0  0
  -30.8246   -3.6340   33.4014 C   0  0  0  0  0  0  0  0  0  0  0  0
  -25.9214   -1.5890   31.2815 C   0  0  0  0  0  0  0  0  0  0  0  0
  -24.9385   -0.4339   31.1617 C   0  0  0  0  0  0  0  0  0  0  0  0
  -24.8304    0.3787   32.3537 C   0  0  0  0  0  0  0  0  0  0  0  0
  -24.6833    1.8181   32.0673 C   0  0  0  0  0  0  0  0  0  0  0  0
  -23.8385    2.2390   31.1077 C   0  0  0  0  0  0  0  0  0  0  0  0
  -23.3907    1.1817   30.1495 C   0  0  0  0  0  0  0  0  0  0  0  0
  -24.1489   -0.0758   30.1501 C   0  0  0  0  0  0  0  0  0  0  0  0
  -23.4370   -1.2355   29.5753 C   0  0  0  0  0  0  0  0  0  0  0  0
  -30.4187   -2.6518   34.4079 C   0  0  0  0  0  0  0  0  0  0  0  0
  -29.2340   -2.4090   34.8202 C   0  0  0  0  0  0  0  0  0  0  0  0
  -28.8244   -1.4318   35.7299 C   0  0  0  0  0  0  0  0  0  0  0  0
  -29.7043   -0.5732   36.1605 C   0  0  0  0  0  0  0  0  0  0  0  0
  1  2  1  0
  1  8  1  0
  1  9  2  0
  8 10  1  0
  8 11  1  0
  5 12  1  0
 12 13  1  0
 12 14  2  0
 10 15  1  0
 15 16  1  0
 16 17  2  0
 10 18  1  0
 17 18  1  0
 17 19  1  0
 19 20  2  0
 20 21  1  0
 21 22  2  0
 16 23  1  0
 22 23  1  0
 11 24  1  0
 24 25  1  0
 30 31  1  0
 23 32  1  0
 32 33  2  3
 33 34  1  0
 34 35  2  0
  2  3  2  0
  3  4  1  0
  4  5  2  0
  5  6  1  0
  6  7  2  0
  7  2  1  0
 25 26  2  0
 26 27  1  0
 27 28  2  0
 28 29  1  0
 29 30  2  0
 30 25  1  0
M  END

$$$$
