No_1176-gen_results/8p0m/2024-11-27-11-27-31/
     RDKit          3D

 34 36  0  0  0  0  0  0  0  0999 V2000
  -28.0162   -0.8135   28.8779 C   0  0  0  0  0  0  0  0  0  0  0  0
  -28.4690   -0.7850   29.8287 C   0  0  0  0  0  0  0  0  0  0  0  0
  -26.5455   -0.8762   28.8500 C   0  0  0  0  0  0  0  0  0  0  0  0
  -25.8974   -0.8267   29.8894 C   0  0  0  0  0  0  0  0  0  0  0  0
  -27.9129   -0.8385   31.1942 C   0  0  0  0  0  0  0  0  0  0  0  0
  -26.5519   -0.8324   31.1775 C   0  0  0  0  0  0  0  0  0  0  0  0
  -30.0594   -0.8573   30.0997 C   0  0  0  0  0  0  0  0  0  0  0  0
  -30.6367   -1.8274   30.3170 O   0  0  0  0  0  0  0  0  0  0  0  0
  -30.7302    0.3137   29.7679 N   0  0  0  0  0  0  0  0  0  0  0  0
  -32.1447    0.3246   29.7712 C   0  0  0  0  0  0  0  0  0  0  0  0
  -30.0293    1.5588   29.4609 C   0  0  0  0  0  0  0  0  0  0  0  0
  -30.1003    2.5052   30.5080 C   0  0  0  0  0  0  0  0  0  0  0  0
  -29.9121    3.5573   30.4271 C   0  0  0  0  0  0  0  0  0  0  0  0
  -29.3336    4.1162   29.1307 C   0  0  0  0  0  0  0  0  0  0  0  0
  -29.5673    1.8918   28.2154 C   0  0  0  0  0  0  0  0  0  0  0  0
  -29.1770    3.2461   28.0543 C   0  0  0  0  0  0  0  0  0  0  0  0
  -25.7815   -0.7847   27.5249 C   0  0  0  0  0  0  0  0  0  0  0  0
  -25.3621    0.5767   27.1382 C   0  0  0  0  0  0  0  0  0  0  0  0
  -24.2056    0.9870   27.6222 C   0  0  0  0  0  0  0  0  0  0  0  0
  -23.4074    0.5921   28.6417 C   0  0  0  0  0  0  0  0  0  0  0  0
  -22.0993    0.4427   28.6157 C   0  0  0  0  0  0  0  0  0  0  0  0
  -21.3492    1.2936   27.7290 C   0  0  0  0  0  0  0  0  0  0  0  0
  -23.6306    2.2853   27.1156 C   0  0  0  0  0  0  0  0  0  0  0  0
  -22.1525    2.2581   27.0200 C   0  0  0  0  0  0  0  0  0  0  0  0
  -28.6193    3.7263   26.7878 C   0  0  0  0  0  0  0  0  0  0  0  0
  -25.5402    0.7610   25.6123 C   0  0  0  0  0  0  0  0  0  0  0  0
  -26.4739    1.6824   27.6830 C   0  0  0  0  0  0  0  0  0  0  0  0
  -32.6816    0.1702   28.4977 C   0  0  0  0  0  0  0  0  0  0  0  0
  -32.1372   -0.3812   27.6002 F   0  0  0  0  0  0  0  0  0  0  0  0
  -32.9505    1.4819   28.0045 F   0  0  0  0  0  0  0  0  0  0  0  0
  -33.9347   -0.3779   28.5070 F   0  0  0  0  0  0  0  0  0  0  0  0
  -26.7449    0.9005   25.0693 C   0  0  0  0  0  0  0  0  0  0  0  0
  -29.0678    3.2662   25.6875 C   0  0  0  0  0  0  0  0  0  0  0  0
  -27.4899    4.6000   26.8920 C   0  0  0  0  0  0  0  0  0  0  0  0
  2  7  1  0
  7  8  2  0
  7  9  1  0
  9 10  1  0
  9 11  1  0
  3 17  1  0
 17 18  1  0
 18 19  1  0
 16 25  1  0
 18 26  1  0
 18 27  1  0
 10 28  1  0
 28 29  1  0
 28 30  1  0
 28 31  1  0
 26 32  1  0
 25 33  1  0
 25 34  1  0
 11 12  2  0
 12 13  1  0
 13 14  2  0
 14 16  1  0
 16 15  2  0
 15 11  1  0
  1  2  2  0
  2  5  1  0
  5  6  2  0
  6  4  1  0
  4  3  2  0
  3  1  1  0
 19 20  2  0
 20 21  1  0
 21 22  2  0
 22 24  1  0
 24 23  2  0
 23 19  1  0
M  END

$$$$
