No_1418-gen_results/8p0m/2024-11-27-11-27-31/
     RDKit          3D

 25 27  0  0  0  0  0  0  0  0999 V2000
  -28.0162   -0.8135   28.8779 C   0  0  0  0  0  0  0  0  0  0  0  0
  -28.4690   -0.7850   29.8287 C   0  0  0  0  0  0  0  0  0  0  0  0
  -28.1960    0.3478   28.0550 C   0  0  0  0  0  0  0  0  0  0  0  0
  -29.0191    1.3501   28.3782 C   0  0  0  0  0  0  0  0  0  0  0  0
  -29.4107    0.1803   30.3782 C   0  0  0  0  0  0  0  0  0  0  0  0
  -29.6059    1.2495   29.6193 C   0  0  0  0  0  0  0  0  0  0  0  0
  -27.3362    0.3775   26.5214 Cl  0  0  0  0  0  0  0  0  0  0  0  0
  -30.1362   -0.0582   31.9825 S   0  0  0  0  0  0  0  0  0  0  0  0
  -29.8535    0.7958   32.7483 O   0  0  0  0  0  0  0  0  0  0  0  0
  -31.6274   -0.1954   31.6807 O   0  0  0  0  0  0  0  0  0  0  0  0
  -29.6359   -1.5240   32.5088 N   0  0  0  0  0  0  0  0  0  0  0  0
  -28.5793   -1.6229   33.1806 C   0  0  0  0  0  0  0  0  0  0  0  0
  -30.3673   -2.7286   32.2371 C   0  0  0  0  0  0  0  0  0  0  0  0
  -30.3033   -3.6323   33.0205 C   0  0  0  0  0  0  0  0  0  0  0  0
  -30.8861   -3.8610   33.8155 C   0  0  0  0  0  0  0  0  0  0  0  0
  -32.0141   -2.9760   34.1618 C   0  0  0  0  0  0  0  0  0  0  0  0
  -33.0391   -3.1469   33.2772 C   0  0  0  0  0  0  0  0  0  0  0  0
  -34.1082   -2.2117   33.4592 C   0  0  0  0  0  0  0  0  0  0  0  0
  -35.1762   -2.1442   32.4950 C   0  0  0  0  0  0  0  0  0  0  0  0
  -36.2143   -1.2478   32.6247 C   0  0  0  0  0  0  0  0  0  0  0  0
  -36.2110   -0.3539   33.7133 C   0  0  0  0  0  0  0  0  0  0  0  0
  -35.1859   -0.3711   34.6345 C   0  0  0  0  0  0  0  0  0  0  0  0
  -34.1485   -1.2459   34.4864 C   0  0  0  0  0  0  0  0  0  0  0  0
  -32.0788   -2.2141   35.3493 C   0  0  0  0  0  0  0  0  0  0  0  0
  -33.0733   -1.3082   35.4523 C   0  0  0  0  0  0  0  0  0  0  0  0
  3  7  1  0
  5  8  1  0
  8  9  2  0
  8 10  2  0
  8 11  1  0
 11 12  1  0
 11 13  1  0
 13 14  2  3
 14 15  1  0
 15 16  1  0
 18 19  2  0
 19 20  1  0
 20 21  2  0
 21 22  1  0
 22 23  2  0
  1  2  2  0
  2  5  1  0
  5  6  2  0
  6  4  1  0
  4  3  2  0
  3  1  1  0
 16 17  2  0
 17 18  1  0
 18 23  1  0
 23 25  1  0
 25 24  2  0
 24 16  1  0
M  END

$$$$
