No_173-gen_results/8p0m/2024-11-27-11-27-31/
     RDKit          3D

 35 39  0  0  0  0  0  0  0  0999 V2000
  -28.0162   -0.8135   28.8779 C   0  0  0  0  0  0  0  0  0  0  0  0
  -28.4690   -0.7850   29.8287 C   0  0  0  0  0  0  0  0  0  0  0  0
  -28.1960    0.3478   28.0550 C   0  0  0  0  0  0  0  0  0  0  0  0
  -29.0191    1.3501   28.3782 C   0  0  0  0  0  0  0  0  0  0  0  0
  -28.3170   -1.9812   30.8560 C   0  0  0  0  0  0  0  0  0  0  0  0
  -29.1691    2.4760   27.5383 C   0  0  0  0  0  0  0  0  0  0  0  0
  -29.0666   -2.0859   32.0478 C   0  0  0  0  0  0  0  0  0  0  0  0
  -28.5152    2.4964   26.2403 C   0  0  0  0  0  0  0  0  0  0  0  0
  -27.7405    1.4376   25.8539 C   0  0  0  0  0  0  0  0  0  0  0  0
  -27.5156    0.3287   26.7198 C   0  0  0  0  0  0  0  0  0  0  0  0
  -29.8426   -0.9748   32.3972 C   0  0  0  0  0  0  0  0  0  0  0  0
  -29.9417    0.1038   31.6012 C   0  0  0  0  0  0  0  0  0  0  0  0
  -29.3084    0.1831   30.4263 C   0  0  0  0  0  0  0  0  0  0  0  0
  -29.5149    1.2891   29.5675 C   0  0  0  0  0  0  0  0  0  0  0  0
  -27.3099   -3.2989   30.4195 Cl  0  0  0  0  0  0  0  0  0  0  0  0
  -27.0263    1.4151   24.5720 C   0  0  0  0  0  0  0  0  0  0  0  0
  -25.8318    0.7443   24.5515 C   0  0  0  0  0  0  0  0  0  0  0  0
  -25.1113    0.6600   25.8746 C   0  0  0  0  0  0  0  0  0  0  0  0
  -25.8885    0.0187   26.8831 C   0  0  0  0  0  0  0  0  0  0  0  0
  -30.1235    3.5491   27.8450 C   0  0  0  0  0  0  0  0  0  0  0  0
  -25.2317    0.3018   28.1650 C   0  0  0  0  0  0  0  0  0  0  0  0
  -24.7834    1.3730   28.5155 C   0  0  0  0  0  0  0  0  0  0  0  0
  -24.2227    1.5599   29.8629 C   0  0  0  0  0  0  0  0  0  0  0  0
  -23.9506    0.4501   30.6382 C   0  0  0  0  0  0  0  0  0  0  0  0
  -25.0166   -0.7977   29.1320 C   0  0  0  0  0  0  0  0  0  0  0  0
  -24.4828   -0.7139   30.2887 C   0  0  0  0  0  0  0  0  0  0  0  0
  -24.8527    2.7191   27.7755 C   0  0  0  0  0  0  0  0  0  0  0  0
  -25.6867    3.5116   27.9602 O   0  0  0  0  0  0  0  0  0  0  0  0
  -23.6318    3.1149   27.1867 N   0  0  0  0  0  0  0  0  0  0  0  0
  -31.0628    3.5399   28.4001 O   0  0  0  0  0  0  0  0  0  0  0  0
  -29.4071    4.7747   27.8311 O   0  0  0  0  0  0  0  0  0  0  0  0
  -29.7865    5.7875   28.6461 C   0  0  0  0  0  0  0  0  0  0  0  0
  -24.2812   -1.8799   31.1856 C   0  0  0  0  0  0  0  0  0  0  0  0
  -30.4130    6.7142   28.2381 C   0  0  0  0  0  0  0  0  0  0  0  0
  -30.8032    7.8351   29.0441 C   0  0  0  0  0  0  0  0  0  0  0  0
  5 15  1  0
  9 16  1  0
 16 17  1  0
 17 18  1  0
 10 19  1  0
 18 19  1  0
  6 20  1  0
 19 21  1  0
 22 27  1  0
 27 28  2  0
 27 29  1  0
 20 30  2  0
 20 31  1  0
 31 32  1  0
 26 33  1  0
 32 34  2  3
 34 35  1  0
  4  6  2  0
  6  8  1  0
  8  9  2  0
  9 10  1  0
 10  3  2  0
 21 22  2  0
 22 23  1  0
 23 24  2  0
 24 26  1  0
 26 25  2  0
 25 21  1  0
  2  5  1  0
  5  7  2  0
  7 11  1  0
 11 12  2  0
 12 13  1  0
  1  2  2  0
  2 13  1  0
 13 14  2  0
 14  4  1  0
  4  3  1  0
  3  1  1  0
M  END

$$$$
