No_1463-gen_results/8p0m/2024-11-27-11-27-31/
     RDKit          3D

 12 13  0  0  0  0  0  0  0  0999 V2000
  -28.0162   -0.8135   28.8779 C   0  0  0  0  0  0  0  0  0  0  0  0
  -27.1876   -0.3590   28.4524 N   0  0  0  0  0  0  0  0  0  0  0  0
  -27.8000   -1.6611   30.0802 C   0  0  0  0  0  0  0  0  0  0  0  0
  -26.4708   -2.0063   30.4183 C   0  0  0  0  0  0  0  0  0  0  0  0
  -25.4072   -1.4057   29.7195 C   0  0  0  0  0  0  0  0  0  0  0  0
  -25.8163   -0.5221   28.6932 C   0  0  0  0  0  0  0  0  0  0  0  0
  -24.7974    0.0864   27.9894 N   0  0  0  0  0  0  0  0  0  0  0  0
  -23.5220    0.1161   28.3829 C   0  0  0  0  0  0  0  0  0  0  0  0
  -22.6165    1.0683   27.7824 C   0  0  0  0  0  0  0  0  0  0  0  0
  -23.1056    1.8104   26.6971 C   0  0  0  0  0  0  0  0  0  0  0  0
  -24.9759    1.1086   26.9690 C   0  0  0  0  0  0  0  0  0  0  0  0
  -24.2456    1.8780   26.3827 C   0  0  0  0  0  0  0  0  0  0  0  0
  6  7  1  0
  7  8  1  0
  9 10  1  0
  7 11  1  0
  8  9  1  0
 10 12  1  0
 12 11  1  0
  1  2  2  0
  2  6  1  0
  6  5  2  0
  5  4  1  0
  4  3  2  0
  3  1  1  0
M  END

$$$$
