No_1550-gen_results/8p0m/2024-11-27-11-27-31/
     RDKit          3D

 17 18  0  0  0  0  0  0  0  0999 V2000
  -28.0162   -0.8135   28.8779 C   0  0  0  0  0  0  0  0  0  0  0  0
  -27.0636   -0.1190   28.6079 C   0  0  0  0  0  0  0  0  0  0  0  0
  -26.8756    1.1325   28.9134 C   0  0  0  0  0  0  0  0  0  0  0  0
  -25.6883    1.9515   28.5672 C   0  0  0  0  0  0  0  0  0  0  0  0
  -24.6394    1.2834   27.8753 C   0  0  0  0  0  0  0  0  0  0  0  0
  -24.8181   -0.0802   27.6166 C   0  0  0  0  0  0  0  0  0  0  0  0
  -25.9311   -0.7717   27.9696 C   0  0  0  0  0  0  0  0  0  0  0  0
  -29.2149   -0.1385   29.0986 C   0  0  0  0  0  0  0  0  0  0  0  0
  -29.2032    1.2244   29.3900 C   0  0  0  0  0  0  0  0  0  0  0  0
  -28.0353    1.9224   29.1787 C   0  0  0  0  0  0  0  0  0  0  0  0
  -23.3504    1.8716   27.5974 C   0  0  0  0  0  0  0  0  0  0  0  0
  -22.2517    1.6114   28.0701 O   0  0  0  0  0  0  0  0  0  0  0  0
  -23.3728    2.6592   26.4503 O   0  0  0  0  0  0  0  0  0  0  0  0
  -25.4923    3.3782   28.8811 C   0  0  0  0  0  0  0  0  0  0  0  0
  -25.8827    4.0771   29.5037 O   0  0  0  0  0  0  0  0  0  0  0  0
  -24.8051    4.0967   27.7908 O   0  0  0  0  0  0  0  0  0  0  0  0
  -25.3429    5.4274   27.8574 C   0  0  0  0  0  0  0  0  0  0  0  0
  5 11  1  0
 11 12  1  0
 11 13  2  0
  4 14  1  0
 14 15  2  0
 14 16  1  0
 16 17  1  0
  3  4  1  0
  4  5  2  0
  5  6  1  0
  6  7  2  0
  7  2  1  0
  1  2  2  0
  2  3  1  0
  3 10  2  0
 10  9  1  0
  9  8  2  0
  8  1  1  0
M  END

$$$$
