No_1636-gen_results/8p0m/2024-11-27-11-27-31/
     RDKit          3D

 19 21  0  0  0  0  0  0  0  0999 V2000
  -28.0162   -0.8135   28.8779 C   0  0  0  0  0  0  0  0  0  0  0  0
  -27.0636   -0.1189   28.6079 C   0  0  0  0  0  0  0  0  0  0  0  0
  -26.9287    1.1713   29.0083 C   0  0  0  0  0  0  0  0  0  0  0  0
  -27.9560    1.7411   29.7840 C   0  0  0  0  0  0  0  0  0  0  0  0
  -29.0569   -0.3271   29.7466 C   0  0  0  0  0  0  0  0  0  0  0  0
  -28.9828    0.9722   30.1516 C   0  0  0  0  0  0  0  0  0  0  0  0
  -25.8815   -0.6260   27.7945 C   0  0  0  0  0  0  0  0  0  0  0  0
  -24.6972   -1.0572   28.6241 C   0  0  0  0  0  0  0  0  0  0  0  0
  -24.1843   -0.3700   29.5411 C   0  0  0  0  0  0  0  0  0  0  0  0
  -23.1047   -0.3769   30.0504 C   0  0  0  0  0  0  0  0  0  0  0  0
  -22.2372   -1.5089   29.5920 C   0  0  0  0  0  0  0  0  0  0  0  0
  -22.8086   -2.3006   28.6217 C   0  0  0  0  0  0  0  0  0  0  0  0
  -24.0169   -2.1181   28.1246 C   0  0  0  0  0  0  0  0  0  0  0  0
  -30.1399    1.5116   30.9858 C   0  0  0  0  0  0  0  0  0  0  0  0
  -31.1177    1.7361   30.8256 C   0  0  0  0  0  0  0  0  0  0  0  0
  -32.1049    2.2824   31.7597 C   0  0  0  0  0  0  0  0  0  0  0  0
  -29.5696    1.7574   32.4331 C   0  0  0  0  0  0  0  0  0  0  0  0
  -30.4270    2.2701   33.3738 C   0  0  0  0  0  0  0  0  0  0  0  0
  -31.6901    2.5443   33.0340 C   0  0  0  0  0  0  0  0  0  0  0  0
  2  7  1  0
  7  8  1  0
  6 14  1  0
  1  2  2  0
  2  3  1  0
  3  4  2  0
  4  6  1  0
  6  5  2  0
  5  1  1  0
  8  9  2  0
  9 10  1  0
 10 11  2  0
 11 12  1  0
 12 13  2  0
 13  8  1  0
 14 15  2  0
 15 16  1  0
 16 19  2  0
 19 18  1  0
 18 17  2  0
 17 14  1  0
M  END

$$$$
