No_104-gen_results/8p0m/2024-11-27-11-27-31/
     RDKit          3D

 21 23  0  0  0  0  0  0  0  0999 V2000
  -28.0162   -0.8135   28.8779 C   0  0  0  0  0  0  0  0  0  0  0  0
  -27.0636   -0.1189   28.6079 C   0  0  0  0  0  0  0  0  0  0  0  0
  -25.7647   -0.3897   29.0360 C   0  0  0  0  0  0  0  0  0  0  0  0
  -25.5296   -1.5302   29.9014 C   0  0  0  0  0  0  0  0  0  0  0  0
  -26.6577   -2.2915   30.2035 C   0  0  0  0  0  0  0  0  0  0  0  0
  -27.8548   -1.9555   29.7630 C   0  0  0  0  0  0  0  0  0  0  0  0
  -24.5441    0.4126   28.7379 C   0  0  0  0  0  0  0  0  0  0  0  0
  -23.3232    0.0476   29.0499 C   0  0  0  0  0  0  0  0  0  0  0  0
  -23.2018   -1.2373   29.7566 C   0  0  0  0  0  0  0  0  0  0  0  0
  -24.2259   -1.9647   30.2122 C   0  0  0  0  0  0  0  0  0  0  0  0
  -22.1154    0.7752   28.7156 C   0  0  0  0  0  0  0  0  0  0  0  0
  -22.2553    1.8502   28.1594 O   0  0  0  0  0  0  0  0  0  0  0  0
  -20.9515    0.1816   28.7664 O   0  0  0  0  0  0  0  0  0  0  0  0
  -29.0631   -2.5389   30.1102 O   0  0  0  0  0  0  0  0  0  0  0  0
  -29.0333   -3.7606   30.7291 C   0  0  0  0  0  0  0  0  0  0  0  0
  -29.2238   -3.9888   31.9169 C   0  0  0  0  0  0  0  0  0  0  0  0
  -30.5676   -3.7726   32.2981 C   0  0  0  0  0  0  0  0  0  0  0  0
  -30.8972   -3.9978   33.6396 C   0  0  0  0  0  0  0  0  0  0  0  0
  -30.0800   -4.7031   34.3709 C   0  0  0  0  0  0  0  0  0  0  0  0
  -28.8516   -5.2200   33.9201 C   0  0  0  0  0  0  0  0  0  0  0  0
  -28.5475   -4.9262   32.6953 C   0  0  0  0  0  0  0  0  0  0  0  0
  8 11  1  0
 11 12  1  0
 11 13  2  0
  6 14  1  0
 14 15  1  0
 15 16  1  0
  1  2  2  0
  2  3  1  0
  4  5  1  0
  5  6  2  0
  6  1  1  0
  3  4  2  0
  4 10  1  0
 10  9  2  0
  9  8  1  0
  8  7  2  0
  7  3  1  0
 16 17  2  0
 17 18  1  0
 18 19  2  0
 19 20  1  0
 20 21  2  0
 21 16  1  0
M  END

$$$$
