No_1509-gen_results/8p0m/2024-11-27-11-27-31/
     RDKit          3D

 17 17  0  0  0  0  0  0  0  0999 V2000
  -28.0162   -0.8135   28.8779 C   0  0  0  0  0  0  0  0  0  0  0  0
  -27.0636   -0.1190   28.6079 C   0  0  0  0  0  0  0  0  0  0  0  0
  -25.7647   -0.3897   29.0360 C   0  0  0  0  0  0  0  0  0  0  0  0
  -25.5296   -1.5302   29.9014 C   0  0  0  0  0  0  0  0  0  0  0  0
  -26.6577   -2.2915   30.2035 C   0  0  0  0  0  0  0  0  0  0  0  0
  -27.8548   -1.9555   29.7630 C   0  0  0  0  0  0  0  0  0  0  0  0
  -24.5441    0.4126   28.7379 C   0  0  0  0  0  0  0  0  0  0  0  0
  -24.5303    0.9050   27.6108 F   0  0  0  0  0  0  0  0  0  0  0  0
  -23.3835   -0.3814   28.8356 F   0  0  0  0  0  0  0  0  0  0  0  0
  -24.3588    1.3927   29.6617 F   0  0  0  0  0  0  0  0  0  0  0  0
  -29.0331   -2.7718   30.1948 C   0  0  0  0  0  0  0  0  0  0  0  0
  -29.3012   -2.8446   31.4545 N   0  0  0  0  0  0  0  0  0  0  0  0
  -29.4887   -1.8919   32.1565 C   0  0  0  0  0  0  0  0  0  0  0  0
  -29.5377   -0.6473   31.7359 C   0  0  0  0  0  0  0  0  0  0  0  0
  -30.2994   -0.2706   30.8175 C   0  0  0  0  0  0  0  0  0  0  0  0
  -30.4601    1.1136   30.4315 C   0  0  0  0  0  0  0  0  0  0  0  0
  -29.6721    2.0650   31.1131 C   0  0  0  0  0  0  0  0  0  0  0  0
  3  7  1  0
  7  8  1  0
  7  9  1  0
  7 10  1  0
  6 11  1  0
 11 12  1  0
 12 13  1  0
 13 14  2  3
 14 15  1  0
 15 16  2  3
 16 17  1  0
  1  2  2  0
  2  3  1  0
  3  4  2  0
  4  5  1  0
  5  6  2  0
  6  1  1  0
M  END

$$$$
