No_1167-gen_results/8p0m/2024-11-27-11-27-31/
     RDKit          3D

 17 18  0  0  0  0  0  0  0  0999 V2000
  -28.0162   -0.8135   28.8779 C   0  0  0  0  0  0  0  0  0  0  0  0
  -28.4690   -0.7850   29.8287 C   0  0  0  0  0  0  0  0  0  0  0  0
  -27.1356    0.2359   28.5352 C   0  0  0  0  0  0  0  0  0  0  0  0
  -26.8745    1.2825   29.3982 C   0  0  0  0  0  0  0  0  0  0  0  0
  -27.5070    1.2380   30.6295 C   0  0  0  0  0  0  0  0  0  0  0  0
  -29.4093   -1.9436   30.2887 C   0  0  0  0  0  0  0  0  0  0  0  0
  -28.3221    0.1318   30.9672 C   0  0  0  0  0  0  0  0  0  0  0  0
  -29.8160   -1.8818   31.5489 O   0  0  0  0  0  0  0  0  0  0  0  0
  -26.3902    0.3189   27.2045 C   0  0  0  0  0  0  0  0  0  0  0  0
  -25.1698    0.6417   27.0904 C   0  0  0  0  0  0  0  0  0  0  0  0
  -24.6438    1.3874   25.9941 C   0  0  0  0  0  0  0  0  0  0  0  0
  -23.2816    1.8950   25.9925 C   0  0  0  0  0  0  0  0  0  0  0  0
  -22.5185    1.7355   27.1487 C   0  0  0  0  0  0  0  0  0  0  0  0
  -23.1065    1.0542   28.2689 C   0  0  0  0  0  0  0  0  0  0  0  0
  -24.3409    0.5778   28.2663 C   0  0  0  0  0  0  0  0  0  0  0  0
  -27.0935   -0.0016   26.1599 O   0  0  0  0  0  0  0  0  0  0  0  0
  -29.5875   -2.9010   29.6016 O   0  0  0  0  0  0  0  0  0  0  0  0
  2  6  1  0
  6  8  1  0
  3  9  1  0
  9 10  1  0
  9 16  2  0
  6 17  2  0
  1  2  2  0
  2  7  1  0
  7  5  2  0
  5  4  1  0
  4  3  2  0
  3  1  1  0
 10 11  2  0
 11 12  1  0
 12 13  2  0
 13 14  1  0
 14 15  2  0
 15 10  1  0
M  END

$$$$
