No_1322-gen_results/8p0m/2024-11-27-11-27-31/
     RDKit          3D

 20 22  0  0  0  0  0  0  0  0999 V2000
  -28.0162   -0.8135   28.8779 C   0  0  0  0  0  0  0  0  0  0  0  0
  -28.4690   -0.7850   29.8287 C   0  0  0  0  0  0  0  0  0  0  0  0
  -28.1960    0.3478   28.0550 C   0  0  0  0  0  0  0  0  0  0  0  0
  -29.0191    1.3501   28.3782 C   0  0  0  0  0  0  0  0  0  0  0  0
  -29.4107    0.1803   30.3782 C   0  0  0  0  0  0  0  0  0  0  0  0
  -29.6059    1.2495   29.6193 C   0  0  0  0  0  0  0  0  0  0  0  0
  -27.5003    0.3576   26.8164 O   0  0  0  0  0  0  0  0  0  0  0  0
  -26.1366    0.3585   26.7616 C   0  0  0  0  0  0  0  0  0  0  0  0
  -25.4492    1.5001   27.1909 C   0  0  0  0  0  0  0  0  0  0  0  0
  -24.0532    1.4515   27.3601 C   0  0  0  0  0  0  0  0  0  0  0  0
  -23.2987    1.5253   28.2224 C   0  0  0  0  0  0  0  0  0  0  0  0
  -23.7685    1.4149   29.5937 C   0  0  0  0  0  0  0  0  0  0  0  0
  -25.0965    1.9132   29.7631 C   0  0  0  0  0  0  0  0  0  0  0  0
  -26.0922    2.2512   28.3075 C   0  0  0  0  0  0  0  0  0  0  0  0
  -25.7209    2.3809   30.9952 C   0  0  0  0  0  0  0  0  0  0  0  0
  -25.9911    1.3151   31.8680 C   0  0  0  0  0  0  0  0  0  0  0  0
  -26.1024    3.6868   31.1986 C   0  0  0  0  0  0  0  0  0  0  0  0
  -26.8416    4.0198   32.3459 C   0  0  0  0  0  0  0  0  0  0  0  0
  -26.6281    1.7002   33.1150 C   0  0  0  0  0  0  0  0  0  0  0  0
  -27.0263    3.0318   33.3468 C   0  0  0  0  0  0  0  0  0  0  0  0
  3  7  1  0
  7  8  1  0
  8  9  1  0
 13 15  1  0
  9 10  2  0
 10 11  1  0
 11 12  2  0
 12 13  1  0
 13 14  2  0
 14  9  1  0
  1  2  2  0
  2  5  1  0
  5  6  2  0
  6  4  1  0
  4  3  2  0
  3  1  1  0
 15 16  2  0
 16 19  1  0
 19 20  2  0
 20 18  1  0
 18 17  2  0
 17 15  1  0
M  END

$$$$
