No_1134-gen_results/8p0m/2024-11-27-11-27-31/
     RDKit          3D

 26 30  0  0  0  0  0  0  0  0999 V2000
  -28.0544   -1.0498   28.7246 N   0  0  0  0  0  0  0  0  0  0  0  0
  -28.6544   -0.5669   29.5076 C   0  0  0  0  0  0  0  0  0  0  0  0
  -26.7777   -0.5807   28.6029 C   0  0  0  0  0  0  0  0  0  0  0  0
  -26.3749    0.4542   29.4646 C   0  0  0  0  0  0  0  0  0  0  0  0
  -28.5139    0.4315   30.4781 C   0  0  0  0  0  0  0  0  0  0  0  0
  -27.2275    0.9697   30.4013 C   0  0  0  0  0  0  0  0  0  0  0  0
  -30.0273   -1.1745   29.6338 N   0  0  0  0  0  0  0  0  0  0  0  0
  -30.9244   -0.7843   30.4764 C   0  0  0  0  0  0  0  0  0  0  0  0
  -30.6512    0.2277   31.3271 C   0  0  0  0  0  0  0  0  0  0  0  0
  -29.4455    0.8407   31.3677 C   0  0  0  0  0  0  0  0  0  0  0  0
  -25.7860   -1.0003   27.7220 N   0  0  0  0  0  0  0  0  0  0  0  0
  -24.5193   -0.4855   27.7088 C   0  0  0  0  0  0  0  0  0  0  0  0
  -24.1055    0.4815   28.5236 C   0  0  0  0  0  0  0  0  0  0  0  0
  -24.9644    0.9779   29.4033 C   0  0  0  0  0  0  0  0  0  0  0  0
  -22.7139    0.9408   28.3932 C   0  0  0  0  0  0  0  0  0  0  0  0
  -22.4489    1.5775   27.4680 F   0  0  0  0  0  0  0  0  0  0  0  0
  -22.3906    1.7391   29.5568 F   0  0  0  0  0  0  0  0  0  0  0  0
  -21.8733   -0.1159   28.5632 F   0  0  0  0  0  0  0  0  0  0  0  0
  -26.8119    2.0414   31.3442 C   0  0  0  0  0  0  0  0  0  0  0  0
  -25.6857    2.7038   31.2941 C   0  0  0  0  0  0  0  0  0  0  0  0
  -25.5078    3.8083   32.2141 C   0  0  0  0  0  0  0  0  0  0  0  0
  -26.4285    4.0991   33.1567 C   0  0  0  0  0  0  0  0  0  0  0  0
  -27.6017    3.3765   33.2316 C   0  0  0  0  0  0  0  0  0  0  0  0
  -27.8075    2.4053   32.3525 C   0  0  0  0  0  0  0  0  0  0  0  0
  -29.1314    1.8310   32.3046 C   0  0  0  0  0  0  0  0  0  0  0  0
  -30.0239    2.1783   33.1767 O   0  0  0  0  0  0  0  0  0  0  0  0
 13 15  1  0
 15 16  1  0
 15 17  1  0
 15 18  1  0
  6 19  1  0
 10 25  1  0
 24 25  1  0
 25 26  2  0
  4 14  2  0
 14 13  1  0
 13 12  2  0
 12 11  1  0
 11  3  2  0
 19 20  2  0
 20 21  1  0
 21 22  2  0
 22 23  1  0
 23 24  2  0
 24 19  1  0
  5 10  1  0
 10  9  2  0
  9  8  1  0
  8  7  2  0
  7  2  1  0
  1  2  2  0
  2  5  1  0
  5  6  2  0
  6  4  1  0
  4  3  1  0
  3  1  1  0
M  END

$$$$
