No_151-gen_results/8p0m/2024-11-27-11-27-31/
     RDKit          3D

 18 19  0  0  0  0  0  0  0  0999 V2000
  -28.1229   -1.3353   28.4874 O   0  0  0  0  0  0  0  0  0  0  0  0
  -27.4806   -0.4044   28.7094 C   0  0  0  0  0  0  0  0  0  0  0  0
  -27.1904    0.2460   29.5268 C   0  0  0  0  0  0  0  0  0  0  0  0
  -26.6021   -0.1576   27.5515 N   0  0  0  0  0  0  0  0  0  0  0  0
  -25.6421    0.9031   27.5822 C   0  0  0  0  0  0  0  0  0  0  0  0
  -26.2526    1.3734   29.7933 C   0  0  0  0  0  0  0  0  0  0  0  0
  -25.4742    1.6549   28.6932 C   0  0  0  0  0  0  0  0  0  0  0  0
  -27.9717    0.0222   30.7923 F   0  0  0  0  0  0  0  0  0  0  0  0
  -24.6939    1.1880   26.1764 Cl  0  0  0  0  0  0  0  0  0  0  0  0
  -24.4668    2.7283   28.6700 C   0  0  0  0  0  0  0  0  0  0  0  0
  -24.5261    3.6783   29.1358 O   0  0  0  0  0  0  0  0  0  0  0  0
  -23.1914    2.3091   28.3194 O   0  0  0  0  0  0  0  0  0  0  0  0
  -22.4550    1.3620   28.9710 C   0  0  0  0  0  0  0  0  0  0  0  0
  -21.5405    0.6203   28.0736 C   0  0  0  0  0  0  0  0  0  0  0  0
  -21.1002   -0.5957   28.8213 C   0  0  0  0  0  0  0  0  0  0  0  0
  -21.9695   -1.5007   28.9122 O   0  0  0  0  0  0  0  0  0  0  0  0
  -23.2572   -1.0910   29.5394 C   0  0  0  0  0  0  0  0  0  0  0  0
  -23.5072    0.3529   29.4447 O   0  0  0  0  0  0  0  0  0  0  0  0
  1  2  2  0
  2  3  1  0
  2  4  1  0
  3  6  1  0
  5  7  1  0
  3  8  1  0
  5  9  1  0
  7 10  1  0
 10 11  2  0
 10 12  1  0
 12 13  1  0
 13 14  1  0
 14 15  1  0
 15 16  1  0
 16 17  1  0
 13 18  1  0
 17 18  1  0
  6  7  1  0
  5  4  1  0
M  END

$$$$
