No_1994-gen_results/8p0m/2024-11-27-11-27-31/
     RDKit          3D

 20 22  0  0  0  0  0  0  0  0999 V2000
  -28.0162   -0.8135   28.8779 C   0  0  0  0  0  0  0  0  0  0  0  0
  -27.0636   -0.1189   28.6079 C   0  0  0  0  0  0  0  0  0  0  0  0
  -26.9716    0.7139   27.5060 C   0  0  0  0  0  0  0  0  0  0  0  0
  -28.1053    0.7744   26.6421 C   0  0  0  0  0  0  0  0  0  0  0  0
  -28.1273    1.5122   25.5121 C   0  0  0  0  0  0  0  0  0  0  0  0
  -27.9594   -1.6009   30.1427 C   0  0  0  0  0  0  0  0  0  0  0  0
  -29.0303   -2.4739   30.5559 C   0  0  0  0  0  0  0  0  0  0  0  0
  -26.9550    2.2650   25.1407 C   0  0  0  0  0  0  0  0  0  0  0  0
  -25.8331    2.2486   25.9221 C   0  0  0  0  0  0  0  0  0  0  0  0
  -25.8181    1.4494   27.1087 C   0  0  0  0  0  0  0  0  0  0  0  0
  -26.6724   -1.6074   30.7867 C   0  0  0  0  0  0  0  0  0  0  0  0
  -25.5781   -1.0001   30.3980 C   0  0  0  0  0  0  0  0  0  0  0  0
  -25.7013   -0.2073   29.3107 C   0  0  0  0  0  0  0  0  0  0  0  0
  -28.8362   -3.7177   30.8352 N   0  0  0  0  0  0  0  0  0  0  0  0
  -29.7887   -4.6743   31.0225 C   0  0  0  0  0  0  0  0  0  0  0  0
  -29.8084   -5.7172   30.4322 C   0  0  0  0  0  0  0  0  0  0  0  0
  -30.8905   -6.7225   30.5039 C   0  0  0  0  0  0  0  0  0  0  0  0
  -31.8732   -6.4704   31.4419 C   0  0  0  0  0  0  0  0  0  0  0  0
  -30.8394   -4.3424   31.9961 C   0  0  0  0  0  0  0  0  0  0  0  0
  -31.8535   -5.2682   32.1817 C   0  0  0  0  0  0  0  0  0  0  0  0
  2  3  1  0
  7 14  1  0
 14 15  1  0
  7  6  1  0
 15 16  2  0
 16 17  1  0
 17 18  2  0
 18 20  1  0
 20 19  2  0
 19 15  1  0
  1  2  2  0
  2 13  1  0
 13 12  2  0
 12 11  1  0
 11  6  2  0
  6  1  1  0
  3  4  2  0
  4  5  1  0
  5  8  2  0
  8  9  1  0
  9 10  2  0
 10  3  1  0
M  END

$$$$
