No_1079-gen_results/8p0m/2024-11-27-11-27-31/
     RDKit          3D

 34 35  0  0  0  0  0  0  0  0999 V2000
  -28.0162   -0.8135   28.8779 C   0  0  0  0  0  0  0  0  0  0  0  0
  -28.4690   -0.7850   29.8287 C   0  0  0  0  0  0  0  0  0  0  0  0
  -28.1816    0.4277   28.1134 C   0  0  0  0  0  0  0  0  0  0  0  0
  -27.4498    0.6435   26.8500 C   0  0  0  0  0  0  0  0  0  0  0  0
  -26.4529    0.9939   26.6681 C   0  0  0  0  0  0  0  0  0  0  0  0
  -25.1811    0.8624   26.8164 C   0  0  0  0  0  0  0  0  0  0  0  0
  -24.2035    1.0464   27.4866 C   0  0  0  0  0  0  0  0  0  0  0  0
  -29.4367    0.0779   30.4436 C   0  0  0  0  0  0  0  0  0  0  0  0
  -23.2068    1.1720   27.8982 C   0  0  0  0  0  0  0  0  0  0  0  0
  -29.6775    1.1885   29.7341 C   0  0  0  0  0  0  0  0  0  0  0  0
  -29.0585    1.3972   28.5508 C   0  0  0  0  0  0  0  0  0  0  0  0
  -21.9511    1.0728   28.5269 C   0  0  0  0  0  0  0  0  0  0  0  0
  -28.3646    0.2103   25.7067 C   0  0  0  0  0  0  0  0  0  0  0  0
  -29.4398    1.1083   25.4319 C   0  0  0  0  0  0  0  0  0  0  0  0
  -26.4911    2.6330   26.4325 C   0  0  0  0  0  0  0  0  0  0  0  0
  -28.0033   -0.7007   24.7583 C   0  0  0  0  0  0  0  0  0  0  0  0
  -30.2985    0.7792   24.3944 C   0  0  0  0  0  0  0  0  0  0  0  0
  -28.7322   -0.9777   23.6662 C   0  0  0  0  0  0  0  0  0  0  0  0
  -29.9484   -0.2792   23.4923 C   0  0  0  0  0  0  0  0  0  0  0  0
  -20.9360    0.8343   29.3234 C   0  0  0  0  0  0  0  0  0  0  0  0
  -30.6362    2.2559   30.2563 C   0  0  0  0  0  0  0  0  0  0  0  0
  -30.6609    2.7524   31.2331 O   0  0  0  0  0  0  0  0  0  0  0  0
  -31.5374    2.4797   29.3130 O   0  0  0  0  0  0  0  0  0  0  0  0
  -31.5565    1.4683   24.1831 C   0  0  0  0  0  0  0  0  0  0  0  0
  -31.5330    2.5586   23.8039 F   0  0  0  0  0  0  0  0  0  0  0  0
  -32.3145    0.7594   23.2488 F   0  0  0  0  0  0  0  0  0  0  0  0
  -32.3368    1.4897   25.2997 F   0  0  0  0  0  0  0  0  0  0  0  0
  -20.1684   -0.2003   29.3455 N   0  0  0  0  0  0  0  0  0  0  0  0
  -28.2588   -2.0920   30.7959 C   0  0  0  0  0  0  0  0  0  0  0  0
  -27.6170   -2.9881   30.4415 O   0  0  0  0  0  0  0  0  0  0  0  0
  -28.7871   -2.1064   32.0131 O   0  0  0  0  0  0  0  0  0  0  0  0
  -25.7140    2.9501   25.5681 F   0  0  0  0  0  0  0  0  0  0  0  0
  -27.7486    3.0047   26.0469 F   0  0  0  0  0  0  0  0  0  0  0  0
  -26.2152    3.2854   27.5804 F   0  0  0  0  0  0  0  0  0  0  0  0
  3  4  1  0
  4  5  2  3
  5  6  1  0
  6  7  2  3
  7  9  1  0
  9 12  3  0
  4 13  1  0
  5 15  1  0
 12 20  1  0
 10 21  1  0
 21 22  2  0
 21 23  1  0
 17 24  1  0
 24 25  1  0
 24 26  1  0
 24 27  1  0
 20 28  1  0
  2 29  1  0
 29 30  2  0
 29 31  1  0
 15 32  1  0
 15 33  1  0
 15 34  1  0
 13 14  2  0
 14 17  1  0
 17 19  2  0
 19 18  1  0
 18 16  2  0
 16 13  1  0
  1  2  2  0
  2  8  1  0
  8 10  2  0
 10 11  1  0
 11  3  2  0
  3  1  1  0
M  END

$$$$
