No_1426-gen_results/8p0m/2024-11-27-11-27-31/
     RDKit          3D

 15 17  0  0  0  0  0  0  0  0999 V2000
  -28.0162   -0.8135   28.8779 C   0  0  0  0  0  0  0  0  0  0  0  0
  -27.0636   -0.1189   28.6079 C   0  0  0  0  0  0  0  0  0  0  0  0
  -25.7923   -0.4302   29.0761 C   0  0  0  0  0  0  0  0  0  0  0  0
  -25.5756   -1.5654   29.9363 C   0  0  0  0  0  0  0  0  0  0  0  0
  -26.7354   -2.3004   30.2173 C   0  0  0  0  0  0  0  0  0  0  0  0
  -27.9184   -1.9537   29.7629 C   0  0  0  0  0  0  0  0  0  0  0  0
  -27.1057    1.1023   27.7593 C   0  0  0  0  0  0  0  0  0  0  0  0
  -26.2345    1.4562   27.0152 N   0  0  0  0  0  0  0  0  0  0  0  0
  -28.2185    1.7527   27.7182 O   0  0  0  0  0  0  0  0  0  0  0  0
  -24.8600    0.9268   27.0187 C   0  0  0  0  0  0  0  0  0  0  0  0
  -23.8323    1.7388   26.4825 C   0  0  0  0  0  0  0  0  0  0  0  0
  -23.0149    2.5275   27.2216 C   0  0  0  0  0  0  0  0  0  0  0  0
  -22.6510    1.9559   28.4685 C   0  0  0  0  0  0  0  0  0  0  0  0
  -23.3005    0.8677   29.0238 C   0  0  0  0  0  0  0  0  0  0  0  0
  -24.5106    0.4869   28.3536 C   0  0  0  0  0  0  0  0  0  0  0  0
  2  7  1  0
  7  8  1  0
  7  9  2  0
  8 10  1  0
  3 15  1  0
  1  2  2  0
  2  3  1  0
  3  4  2  0
  4  5  1  0
  5  6  2  0
  6  1  1  0
 10 11  2  0
 11 12  1  0
 12 13  2  0
 13 14  1  0
 14 15  2  0
 15 10  1  0
M  END

$$$$
