No_1885-gen_results/8p0m/2024-11-27-11-27-31/
     RDKit          3D

 22 23  0  0  0  0  0  0  0  0999 V2000
  -28.0162   -0.8135   28.8779 C   0  0  0  0  0  0  0  0  0  0  0  0
  -27.0636   -0.1189   28.6079 C   0  0  0  0  0  0  0  0  0  0  0  0
  -25.7647   -0.3897   29.0360 C   0  0  0  0  0  0  0  0  0  0  0  0
  -24.5516    0.4058   28.7646 C   0  0  0  0  0  0  0  0  0  0  0  0
  -24.6957    1.4480   27.7988 C   0  0  0  0  0  0  0  0  0  0  0  0
  -23.5821    2.2166   27.4626 C   0  0  0  0  0  0  0  0  0  0  0  0
  -22.3211    1.8240   27.9807 C   0  0  0  0  0  0  0  0  0  0  0  0
  -22.1777    0.8172   28.8883 C   0  0  0  0  0  0  0  0  0  0  0  0
  -23.3181    0.0418   29.2597 C   0  0  0  0  0  0  0  0  0  0  0  0
  -28.1766   -1.2610   30.0830 C   0  0  0  0  0  0  0  0  0  0  0  0
  -26.9594   -1.7459   30.7698 C   0  0  0  0  0  0  0  0  0  0  0  0
  -25.7039   -1.2492   30.2851 C   0  0  0  0  0  0  0  0  0  0  0  0
  -29.2616   -2.3541   30.3615 C   0  0  0  0  0  0  0  0  0  0  0  0
  -29.1981   -3.4524   30.4620 O   0  0  0  0  0  0  0  0  0  0  0  0
  -30.5028   -1.7179   30.5430 N   0  0  0  0  0  0  0  0  0  0  0  0
  -31.6955   -2.5065   30.8331 C   0  0  0  0  0  0  0  0  0  0  0  0
  -30.6633   -0.2683   30.5233 C   0  0  0  0  0  0  0  0  0  0  0  0
  -31.0174    0.2727   31.7756 C   0  0  0  0  0  0  0  0  0  0  0  0
  -30.7304    1.1397   32.2338 C   0  0  0  0  0  0  0  0  0  0  0  0
  -31.0358    1.6141   33.6521 C   0  0  0  0  0  0  0  0  0  0  0  0
  -31.8932    0.8218   34.3364 C   0  0  0  0  0  0  0  0  0  0  0  0
  -32.2957   -0.3456   33.7757 C   0  0  0  0  0  0  0  0  0  0  0  0
  3  4  1  0
 10 13  1  0
 13 14  2  0
 13 15  1  0
 15 16  1  0
 15 17  1  0
 17 18  2  3
 18 19  1  0
 19 20  1  0
 20 21  2  3
 21 22  1  0
  1  2  2  0
  2  3  1  0
  3 12  2  0
 12 11  1  0
 11 10  2  0
 10  1  1  0
  4  5  2  0
  5  6  1  0
  6  7  2  0
  7  8  1  0
  8  9  2  0
  9  4  1  0
M  END

$$$$
