No_1893-gen_results/8p0m/2024-11-27-11-27-31/
     RDKit          3D

 15 16  0  0  0  0  0  0  0  0999 V2000
  -28.0162   -0.8135   28.8779 C   0  0  0  0  0  0  0  0  0  0  0  0
  -27.0636   -0.1189   28.6079 C   0  0  0  0  0  0  0  0  0  0  0  0
  -26.9716    0.7139   27.5060 C   0  0  0  0  0  0  0  0  0  0  0  0
  -28.1053    0.7744   26.6421 C   0  0  0  0  0  0  0  0  0  0  0  0
  -29.2008    0.1044   27.0527 C   0  0  0  0  0  0  0  0  0  0  0  0
  -29.2096   -0.6029   28.1853 C   0  0  0  0  0  0  0  0  0  0  0  0
  -30.2808    0.2156   26.2913 F   0  0  0  0  0  0  0  0  0  0  0  0
  -25.6150   -0.1122   29.2263 C   0  0  0  0  0  0  0  0  0  0  0  0
  -24.6289    0.5103   28.8226 C   0  0  0  0  0  0  0  0  0  0  0  0
  -24.7024    1.3412   27.6706 C   0  0  0  0  0  0  0  0  0  0  0  0
  -25.7876    1.4206   26.9844 C   0  0  0  0  0  0  0  0  0  0  0  0
  -23.2572    2.2389   27.2373 Cl  0  0  0  0  0  0  0  0  0  0  0  0
  -23.2669    0.4884   29.5970 C   0  0  0  0  0  0  0  0  0  0  0  0
  -23.0466   -0.4929   30.3538 N   0  0  0  0  0  0  0  0  0  0  0  0
  -22.3688    1.2954   29.3424 O   0  0  0  0  0  0  0  0  0  0  0  0
  5  7  1  0
 10 12  1  0
  9 13  1  0
 13 14  1  0
 13 15  2  0
  1  2  2  0
  3  4  2  0
  4  5  1  0
  5  6  2  0
  6  1  1  0
  2  3  1  0
  3 11  1  0
 11 10  2  0
 10  9  1  0
  9  8  2  0
  8  2  1  0
M  END

$$$$
