No_1350-gen_results/8p0m/2024-11-27-11-27-31/
     RDKit          3D

 27 29  0  0  0  0  0  0  0  0999 V2000
  -28.0162   -0.8135   28.8779 C   0  0  0  0  0  0  0  0  0  0  0  0
  -28.4690   -0.7850   29.8287 C   0  0  0  0  0  0  0  0  0  0  0  0
  -26.5042   -0.7777   28.8766 C   0  0  0  0  0  0  0  0  0  0  0  0
  -25.9150   -0.6580   29.9230 C   0  0  0  0  0  0  0  0  0  0  0  0
  -27.9691   -0.7243   31.2047 C   0  0  0  0  0  0  0  0  0  0  0  0
  -26.5847   -0.6393   31.2062 C   0  0  0  0  0  0  0  0  0  0  0  0
  -24.5697   -0.5691   30.0082 F   0  0  0  0  0  0  0  0  0  0  0  0
  -30.0992   -0.8907   29.8973 C   0  0  0  0  0  0  0  0  0  0  0  0
  -30.7595   -0.1605   30.8329 O   0  0  0  0  0  0  0  0  0  0  0  0
  -30.6361   -1.8265   29.3645 O   0  0  0  0  0  0  0  0  0  0  0  0
  -25.8002   -0.7792   27.6784 O   0  0  0  0  0  0  0  0  0  0  0  0
  -25.8300    0.3521   26.9380 C   0  0  0  0  0  0  0  0  0  0  0  0
  -24.7065    1.0973   27.0727 C   0  0  0  0  0  0  0  0  0  0  0  0
  -24.5844    2.0792   27.5025 C   0  0  0  0  0  0  0  0  0  0  0  0
  -23.2843    2.9291   27.6247 C   0  0  0  0  0  0  0  0  0  0  0  0
  -22.1518    2.1797   27.1321 C   0  0  0  0  0  0  0  0  0  0  0  0
  -22.2461    0.8728   26.8592 C   0  0  0  0  0  0  0  0  0  0  0  0
  -23.4343    0.3643   26.7918 C   0  0  0  0  0  0  0  0  0  0  0  0
  -25.7730    3.0294   27.9007 C   0  0  0  0  0  0  0  0  0  0  0  0
  -26.6566    3.3273   26.9640 C   0  0  0  0  0  0  0  0  0  0  0  0
  -26.0407    3.2393   29.3183 C   0  0  0  0  0  0  0  0  0  0  0  0
  -26.5164    4.3965   29.6494 C   0  0  0  0  0  0  0  0  0  0  0  0
  -26.6505    4.6570   31.0341 C   0  0  0  0  0  0  0  0  0  0  0  0
  -26.4115    3.6486   31.9630 C   0  0  0  0  0  0  0  0  0  0  0  0
  -25.8017    2.4707   31.5995 C   0  0  0  0  0  0  0  0  0  0  0  0
  -25.5990    2.2798   30.2458 C   0  0  0  0  0  0  0  0  0  0  0  0
  -26.1584   -0.0363   25.4660 C   0  0  0  0  0  0  0  0  0  0  0  0
  4  7  1  0
  2  8  1  0
  8  9  1  0
  8 10  2  0
  3 11  1  0
 11 12  1  0
 12 13  1  0
 14 19  1  0
 19 20  1  0
 19 21  1  0
 12 27  1  0
 13 14  1  0
 14 15  2  0
 15 16  1  0
 16 17  2  0
 17 18  1  0
 18 13  2  0
  1  2  2  0
  2  5  1  0
  5  6  2  0
  6  4  1  0
  4  3  2  0
  3  1  1  0
 21 22  2  0
 22 23  1  0
 23 24  2  0
 24 25  1  0
 25 26  2  0
 26 21  1  0
M  END

$$$$
