No_1716-gen_results/8p0m/2024-11-27-11-27-31/
     RDKit          3D

 17 19  0  0  0  0  0  0  0  0999 V2000
  -28.1229   -1.3353   28.4874 O   0  0  0  0  0  0  0  0  0  0  0  0
  -28.5208   -0.4363   29.0779 C   0  0  0  0  0  0  0  0  0  0  0  0
  -27.6655    0.1129   30.0346 C   0  0  0  0  0  0  0  0  0  0  0  0
  -29.8108   -0.1163   29.1503 N   0  0  0  0  0  0  0  0  0  0  0  0
  -27.8986    0.9581   30.9114 C   0  0  0  0  0  0  0  0  0  0  0  0
  -30.1981    0.9067   30.0519 C   0  0  0  0  0  0  0  0  0  0  0  0
  -29.3228    1.4499   30.9464 C   0  0  0  0  0  0  0  0  0  0  0  0
  -31.4920    1.2352   30.0316 N   0  0  0  0  0  0  0  0  0  0  0  0
  -31.8466    2.2176   30.7723 C   0  0  0  0  0  0  0  0  0  0  0  0
  -30.9787    2.8119   31.7050 C   0  0  0  0  0  0  0  0  0  0  0  0
  -29.6615    2.4548   31.8345 C   0  0  0  0  0  0  0  0  0  0  0  0
  -33.1786    2.6025   30.7641 N   0  0  0  0  0  0  0  0  0  0  0  0
  -34.0583    2.0844   30.0095 C   0  0  0  0  0  0  0  0  0  0  0  0
  -35.3505    2.5923   30.0328 C   0  0  0  0  0  0  0  0  0  0  0  0
  -33.6354    3.7481   31.5374 C   0  0  0  0  0  0  0  0  0  0  0  0
  -34.8504    4.2003   31.6001 C   0  0  0  0  0  0  0  0  0  0  0  0
  -35.7698    3.6030   30.7810 C   0  0  0  0  0  0  0  0  0  0  0  0
  1  2  2  0
  2  3  1  0
  2  4  1  0
  4  6  1  0
  5  7  1  0
  9 12  1  0
 12 13  1  0
 12 15  1  0
 14 17  1  0
 16 17  1  0
 13 14  1  0
 16 15  1  0
  3  5  1  0
  6  7  2  0
  7 11  1  0
 11 10  2  0
 10  9  1  0
  9  8  2  0
  8  6  1  0
M  END

$$$$
