No_1772-gen_results/8p0m/2024-11-27-11-27-31/
     RDKit          3D

 19 20  0  0  0  0  0  0  0  0999 V2000
  -28.0162   -0.8135   28.8779 C   0  0  0  0  0  0  0  0  0  0  0  0
  -27.0636   -0.1189   28.6079 C   0  0  0  0  0  0  0  0  0  0  0  0
  -26.8756    1.1325   28.9134 C   0  0  0  0  0  0  0  0  0  0  0  0
  -27.9014    1.8066   29.6436 C   0  0  0  0  0  0  0  0  0  0  0  0
  -29.0458   -0.2316   29.7181 C   0  0  0  0  0  0  0  0  0  0  0  0
  -28.9402    1.0517   30.0597 C   0  0  0  0  0  0  0  0  0  0  0  0
  -25.9795   -0.6907   27.8753 O   0  0  0  0  0  0  0  0  0  0  0  0
  -24.9341   -1.2498   28.6642 C   0  0  0  0  0  0  0  0  0  0  0  0
  -23.7622   -0.5357   28.7721 C   0  0  0  0  0  0  0  0  0  0  0  0
  -24.8754   -2.6454   28.9474 C   0  0  0  0  0  0  0  0  0  0  0  0
  -22.6270   -1.1132   29.4383 C   0  0  0  0  0  0  0  0  0  0  0  0
  -23.7629   -3.1888   29.5233 C   0  0  0  0  0  0  0  0  0  0  0  0
  -22.6230   -2.4096   29.7724 C   0  0  0  0  0  0  0  0  0  0  0  0
  -30.1932   -1.1058   30.1385 C   0  0  0  0  0  0  0  0  0  0  0  0
  -30.7877   -0.8096   30.9240 O   0  0  0  0  0  0  0  0  0  0  0  0
  -30.2625   -2.2007   29.4855 O   0  0  0  0  0  0  0  0  0  0  0  0
  -27.7171    3.4621   30.0583 Cl  0  0  0  0  0  0  0  0  0  0  0  0
  -21.4056   -0.4257   29.3628 C   0  0  0  0  0  0  0  0  0  0  0  0
  -21.0108    0.5150   28.0066 Cl  0  0  0  0  0  0  0  0  0  0  0  0
  2  7  1  0
  7  8  1  0
  5 14  1  0
 14 15  1  0
 14 16  2  0
  4 17  1  0
 11 18  1  0
 18 19  1  0
  8  9  2  0
  9 11  1  0
 11 13  2  0
 13 12  1  0
 12 10  2  0
 10  8  1  0
  1  2  2  0
  2  3  1  0
  3  4  2  0
  4  6  1  0
  6  5  2  0
  5  1  1  0
M  END

$$$$
