No_1725-gen_results/8p0m/2024-11-27-11-27-31/
     RDKit          3D

 25 27  0  0  0  0  0  0  0  0999 V2000
  -28.0162   -0.8135   28.8779 C   0  0  0  0  0  0  0  0  0  0  0  0
  -27.0636   -0.1189   28.6079 C   0  0  0  0  0  0  0  0  0  0  0  0
  -25.7923   -0.4302   29.0761 C   0  0  0  0  0  0  0  0  0  0  0  0
  -24.5456    0.3494   28.8225 C   0  0  0  0  0  0  0  0  0  0  0  0
  -23.2409    0.0217   29.3323 C   0  0  0  0  0  0  0  0  0  0  0  0
  -27.8820   -1.8995   29.8633 C   0  0  0  0  0  0  0  0  0  0  0  0
  -26.6706   -2.3272   30.3212 C   0  0  0  0  0  0  0  0  0  0  0  0
  -25.5433   -1.5852   29.9316 C   0  0  0  0  0  0  0  0  0  0  0  0
  -22.1918    0.8302   29.0004 C   0  0  0  0  0  0  0  0  0  0  0  0
  -22.1472    1.7783   28.0287 C   0  0  0  0  0  0  0  0  0  0  0  0
  -24.5322    1.3987   27.8163 C   0  0  0  0  0  0  0  0  0  0  0  0
  -23.3620    2.0694   27.4607 C   0  0  0  0  0  0  0  0  0  0  0  0
  -28.9712   -2.6522   30.2404 O   0  0  0  0  0  0  0  0  0  0  0  0
  -28.8592   -3.9489   30.6442 C   0  0  0  0  0  0  0  0  0  0  0  0
  -30.0864   -4.4478   31.2810 C   0  0  0  0  0  0  0  0  0  0  0  0
  -30.1392   -5.7538   31.4526 C   0  0  0  0  0  0  0  0  0  0  0  0
  -31.0959   -3.6193   31.6218 C   0  0  0  0  0  0  0  0  0  0  0  0
  -31.0268   -2.3073   31.4701 N   0  0  0  0  0  0  0  0  0  0  0  0
  -30.3920   -1.5545   32.4067 C   0  0  0  0  0  0  0  0  0  0  0  0
  -30.2503   -0.1165   32.1845 C   0  0  0  0  0  0  0  0  0  0  0  0
  -29.1809    0.6106   32.6800 C   0  0  0  0  0  0  0  0  0  0  0  0
  -28.2351   -0.0706   33.5261 C   0  0  0  0  0  0  0  0  0  0  0  0
  -28.3509   -1.4651   33.6688 C   0  0  0  0  0  0  0  0  0  0  0  0
  -30.1077   -1.8090   33.7566 C   0  0  0  0  0  0  0  0  0  0  0  0
  -32.0968   -4.0728   32.1674 O   0  0  0  0  0  0  0  0  0  0  0  0
  3  4  1  0
  6 13  1  0
 13 14  1  0
 14 15  1  0
 15 16  2  0
 15 17  1  0
 17 18  1  0
 18 19  1  0
 17 25  2  0
  1  2  2  0
  2  3  1  0
  3  8  2  0
  8  7  1  0
  7  6  2  0
  6  1  1  0
 19 20  2  0
 20 21  1  0
 21 22  2  0
 22 23  1  0
 23 24  2  0
 24 19  1  0
  4  5  2  0
  5  9  1  0
  9 10  2  0
 10 12  1  0
 12 11  2  0
 11  4  1  0
M  END

$$$$
