No_1478-gen_results/8p0m/2024-11-27-11-27-31/
     RDKit          3D

 20 23  0  0  0  0  0  0  0  0999 V2000
  -28.0162   -0.8135   28.8779 C   0  0  0  0  0  0  0  0  0  0  0  0
  -28.4690   -0.7850   29.8287 C   0  0  0  0  0  0  0  0  0  0  0  0
  -27.0871    0.2903   28.6377 C   0  0  0  0  0  0  0  0  0  0  0  0
  -26.2516    0.4114   27.4223 C   0  0  0  0  0  0  0  0  0  0  0  0
  -29.4309   -1.9307   30.2714 C   0  0  0  0  0  0  0  0  0  0  0  0
  -25.1465    1.2405   27.3564 C   0  0  0  0  0  0  0  0  0  0  0  0
  -24.7814    1.9840   28.5026 C   0  0  0  0  0  0  0  0  0  0  0  0
  -25.4736    1.8471   29.6355 C   0  0  0  0  0  0  0  0  0  0  0  0
  -26.5034    1.0016   29.7688 C   0  0  0  0  0  0  0  0  0  0  0  0
  -30.2094   -1.9271   31.3829 C   0  0  0  0  0  0  0  0  0  0  0  0
  -29.9966   -0.8758   32.3192 C   0  0  0  0  0  0  0  0  0  0  0  0
  -29.1561    0.1225   32.0746 C   0  0  0  0  0  0  0  0  0  0  0  0
  -28.4668    0.1976   30.9561 C   0  0  0  0  0  0  0  0  0  0  0  0
  -27.3608    1.0778   30.7354 C   0  0  0  0  0  0  0  0  0  0  0  0
  -24.3610    1.3716   26.1107 C   0  0  0  0  0  0  0  0  0  0  0  0
  -23.6573    2.0939   25.8323 C   0  0  0  0  0  0  0  0  0  0  0  0
  -23.0458    2.9322   27.0196 C   0  0  0  0  0  0  0  0  0  0  0  0
  -23.6545    2.8783   28.2271 C   0  0  0  0  0  0  0  0  0  0  0  0
  -24.9709    2.5508   30.7065 O   0  0  0  0  0  0  0  0  0  0  0  0
  -26.6804   -0.2384   26.4184 O   0  0  0  0  0  0  0  0  0  0  0  0
  3  4  1  0
  4  6  1  0
  7  8  1  0
  8  9  1  0
  8 19  2  0
  4 20  2  0
  1  2  2  0
 13 14  2  0
 14  9  1  0
  9  3  2  0
  3  1  1  0
  2  5  1  0
  5 10  2  0
 10 11  1  0
 11 12  2  0
 12 13  1  0
 13  2  1  0
  6 15  2  0
 15 16  1  0
 16 17  2  0
 17 18  1  0
 18  7  2  0
  7  6  1  0
M  END

$$$$
