No_1243-gen_results/8p0m/2024-11-27-11-27-31/
     RDKit          3D

 35 39  0  0  0  0  0  0  0  0999 V2000
  -28.0162   -0.8135   28.8779 C   0  0  0  0  0  0  0  0  0  0  0  0
  -28.4690   -0.7850   29.8287 C   0  0  0  0  0  0  0  0  0  0  0  0
  -28.1816    0.4277   28.1134 C   0  0  0  0  0  0  0  0  0  0  0  0
  -28.9841    1.4155   28.5154 C   0  0  0  0  0  0  0  0  0  0  0  0
  -29.3802    0.1384   30.4612 C   0  0  0  0  0  0  0  0  0  0  0  0
  -29.5415    1.2736   29.7242 C   0  0  0  0  0  0  0  0  0  0  0  0
  -27.4452    0.4872   26.7726 C   0  0  0  0  0  0  0  0  0  0  0  0
  -27.8631    0.8051   25.7558 C   0  0  0  0  0  0  0  0  0  0  0  0
  -27.0800    0.7678   24.5001 C   0  0  0  0  0  0  0  0  0  0  0  0
  -26.0298    0.1277   26.8193 C   0  0  0  0  0  0  0  0  0  0  0  0
  -25.1554    0.2124   25.7637 C   0  0  0  0  0  0  0  0  0  0  0  0
  -25.7356    0.4877   24.5729 C   0  0  0  0  0  0  0  0  0  0  0  0
  -30.4278    2.3025   30.2153 N   0  0  0  0  0  0  0  0  0  0  0  0
  -30.6186    2.5972   31.3763 C   0  0  0  0  0  0  0  0  0  0  0  0
  -30.0827    2.0757   32.2849 O   0  0  0  0  0  0  0  0  0  0  0  0
  -31.8727    3.3103   31.5773 C   0  0  0  0  0  0  0  0  0  0  0  0
  -32.3927    3.9191   30.9298 N   0  0  0  0  0  0  0  0  0  0  0  0
  -32.4785    2.9474   32.7651 O   0  0  0  0  0  0  0  0  0  0  0  0
  -33.6870    4.6989   31.0764 C   0  0  0  0  0  0  0  0  0  0  0  0
  -34.3428    4.9750   30.0653 C   0  0  0  0  0  0  0  0  0  0  0  0
  -34.2395    4.5108   29.0407 C   0  0  0  0  0  0  0  0  0  0  0  0
  -32.9849    3.8020   28.6052 C   0  0  0  0  0  0  0  0  0  0  0  0
  -32.3348    3.1966   29.6392 C   0  0  0  0  0  0  0  0  0  0  0  0
  -30.9162    2.8889   29.5130 C   0  0  0  0  0  0  0  0  0  0  0  0
  -32.8078    3.3785   27.2165 C   0  0  0  0  0  0  0  0  0  0  0  0
  -33.7550    3.3079   26.3988 C   0  0  0  0  0  0  0  0  0  0  0  0
  -34.9588    4.1030   26.6481 C   0  0  0  0  0  0  0  0  0  0  0  0
  -35.0941    4.7199   27.7942 C   0  0  0  0  0  0  0  0  0  0  0  0
  -29.3140    1.1302   25.4047 C   0  0  0  0  0  0  0  0  0  0  0  0
  -30.1494    0.3504   24.9434 C   0  0  0  0  0  0  0  0  0  0  0  0
  -29.4278    2.4877   25.1355 C   0  0  0  0  0  0  0  0  0  0  0  0
  -30.9829   -0.2270   25.7889 C   0  0  0  0  0  0  0  0  0  0  0  0
  -31.9772   -1.2134   25.5083 C   0  0  0  0  0  0  0  0  0  0  0  0
  -30.3616   -0.0625   23.6376 C   0  0  0  0  0  0  0  0  0  0  0  0
  -31.2216   -1.0459   23.2529 C   0  0  0  0  0  0  0  0  0  0  0  0
  3  7  1  0
  6 13  1  0
 13 14  1  0
 14 15  2  0
 14 16  1  0
 16 17  1  0
 16 18  2  0
 17 19  1  0
 20 21  1  0
 17 23  1  0
 22 23  1  0
 13 24  1  0
 23 24  1  0
  8 29  1  0
 29 30  1  0
 29 31  1  0
 30 32  1  0
 32 33  2  0
 30 34  1  0
 34 35  2  0
 19 20  1  0
 21 28  2  0
 28 27  1  0
 27 26  2  0
 26 25  1  0
 25 22  2  0
 22 21  1  0
  7  8  2  0
  8  9  1  0
  9 12  2  0
 12 11  1  0
 11 10  2  0
 10  7  1  0
  1  2  2  0
  2  5  1  0
  5  6  2  0
  6  4  1  0
  4  3  2  0
  3  1  1  0
M  END

$$$$
