No_134-gen_results/8p0m/2024-11-27-11-27-31/
     RDKit          3D

 22 24  0  0  0  0  0  0  0  0999 V2000
  -28.0162   -0.8135   28.8779 C   0  0  0  0  0  0  0  0  0  0  0  0
  -27.0636   -0.1189   28.6079 C   0  0  0  0  0  0  0  0  0  0  0  0
  -25.7647   -0.3897   29.0360 C   0  0  0  0  0  0  0  0  0  0  0  0
  -25.5296   -1.5302   29.9014 C   0  0  0  0  0  0  0  0  0  0  0  0
  -26.6888   -2.2893   30.1810 C   0  0  0  0  0  0  0  0  0  0  0  0
  -27.8727   -1.9508   29.7373 C   0  0  0  0  0  0  0  0  0  0  0  0
  -29.0016   -2.8142   30.1793 C   0  0  0  0  0  0  0  0  0  0  0  0
  -30.0502   -2.5349   29.9932 O   0  0  0  0  0  0  0  0  0  0  0  0
  -28.6379   -3.8317   31.0720 N   0  0  0  0  0  0  0  0  0  0  0  0
  -29.6462   -4.7676   31.5905 C   0  0  0  0  0  0  0  0  0  0  0  0
  -24.5392    0.4136   28.6664 C   0  0  0  0  0  0  0  0  0  0  0  0
  -24.5405    1.2309   27.5976 C   0  0  0  0  0  0  0  0  0  0  0  0
  -23.3222    1.9277   27.2694 C   0  0  0  0  0  0  0  0  0  0  0  0
  -22.1364    1.7401   27.9353 C   0  0  0  0  0  0  0  0  0  0  0  0
  -23.3054    0.1836   29.3526 C   0  0  0  0  0  0  0  0  0  0  0  0
  -22.1143    0.8570   28.9923 C   0  0  0  0  0  0  0  0  0  0  0  0
  -30.0357   -5.6035   30.8467 C   0  0  0  0  0  0  0  0  0  0  0  0
  -30.8059   -6.7040   31.2982 C   0  0  0  0  0  0  0  0  0  0  0  0
  -31.2696   -7.7439   30.4259 C   0  0  0  0  0  0  0  0  0  0  0  0
  -31.2492   -7.5105   29.0370 C   0  0  0  0  0  0  0  0  0  0  0  0
  -30.6956   -6.2677   28.5448 C   0  0  0  0  0  0  0  0  0  0  0  0
  -30.0743   -5.4486   29.3143 C   0  0  0  0  0  0  0  0  0  0  0  0
  6  7  1  0
  7  8  2  0
  7  9  1  0
  9 10  1  0
  3 11  1  0
 10 17  1  0
 17 18  2  0
 18 19  1  0
 19 20  2  0
 20 21  1  0
 21 22  2  0
 22 17  1  0
  1  2  2  0
  2  3  1  0
  3  4  2  0
  4  5  1  0
  5  6  2  0
  6  1  1  0
 11 12  2  0
 12 13  1  0
 13 14  2  0
 14 16  1  0
 16 15  2  0
 15 11  1  0
M  END

$$$$
