No_188-gen_results/8p0m/2024-11-27-11-27-31/
     RDKit          3D

 28 31  0  0  0  0  0  0  0  0999 V2000
  -28.0162   -0.8135   28.8779 C   0  0  0  0  0  0  0  0  0  0  0  0
  -27.0636   -0.1190   28.6079 C   0  0  0  0  0  0  0  0  0  0  0  0
  -25.7647   -0.3897   29.0360 C   0  0  0  0  0  0  0  0  0  0  0  0
  -25.5296   -1.5302   29.9014 C   0  0  0  0  0  0  0  0  0  0  0  0
  -26.6888   -2.2893   30.1810 C   0  0  0  0  0  0  0  0  0  0  0  0
  -27.8727   -1.9508   29.7373 C   0  0  0  0  0  0  0  0  0  0  0  0
  -28.9304   -2.7298   30.1154 O   0  0  0  0  0  0  0  0  0  0  0  0
  -24.5394    0.4211   28.7421 C   0  0  0  0  0  0  0  0  0  0  0  0
  -24.5259    1.2743   27.7265 C   0  0  0  0  0  0  0  0  0  0  0  0
  -23.3416    1.9045   27.3361 C   0  0  0  0  0  0  0  0  0  0  0  0
  -22.1280    1.7084   27.9936 C   0  0  0  0  0  0  0  0  0  0  0  0
  -23.2921    0.1076   29.3655 C   0  0  0  0  0  0  0  0  0  0  0  0
  -22.0894    0.7943   29.0137 C   0  0  0  0  0  0  0  0  0  0  0  0
  -28.7847   -3.9986   30.6384 C   0  0  0  0  0  0  0  0  0  0  0  0
  -29.8218   -4.2868   31.6152 C   0  0  0  0  0  0  0  0  0  0  0  0
  -30.2907   -3.3050   32.2332 C   0  0  0  0  0  0  0  0  0  0  0  0
  -30.8540   -5.1011   30.9016 O   0  0  0  0  0  0  0  0  0  0  0  0
  -31.6310   -3.0641   32.1107 C   0  0  0  0  0  0  0  0  0  0  0  0
  -32.0964   -4.1830   31.2857 C   0  0  0  0  0  0  0  0  0  0  0  0
  -32.3901   -3.0564   33.3098 O   0  0  0  0  0  0  0  0  0  0  0  0
  -29.9273   -3.3498   33.7063 O   0  0  0  0  0  0  0  0  0  0  0  0
  -32.9432   -4.1725   30.1262 C   0  0  0  0  0  0  0  0  0  0  0  0
  -33.1116   -5.0851   29.4574 C   0  0  0  0  0  0  0  0  0  0  0  0
  -32.5821   -5.0732   28.2265 C   0  0  0  0  0  0  0  0  0  0  0  0
  -32.3554   -6.2913   27.3753 C   0  0  0  0  0  0  0  0  0  0  0  0
  -32.0678   -7.4135   27.9820 C   0  0  0  0  0  0  0  0  0  0  0  0
  -32.4901   -7.5564   29.3380 C   0  0  0  0  0  0  0  0  0  0  0  0
  -32.2823   -6.3320   30.1490 C   0  0  0  0  0  0  0  0  0  0  0  0
  6  7  1  0
  3  8  1  0
  7 14  1  0
 14 15  1  0
 15 16  1  0
 15 17  1  0
 16 18  1  0
 17 19  1  0
 18 19  1  0
 18 20  1  0
 16 21  1  0
 19 22  1  0
 22 23  1  0
  1  2  2  0
  2  3  1  0
  3  4  2  0
  4  5  1  0
  5  6  2  0
  6  1  1  0
 23 24  2  0
 24 25  1  0
 25 26  2  0
 26 27  1  0
 27 28  2  0
 28 23  1  0
  8  9  2  0
  9 10  1  0
 10 11  2  0
 11 13  1  0
 13 12  2  0
 12  8  1  0
M  END

$$$$
