No_1672-gen_results/8p0m/2024-11-27-11-27-31/
     RDKit          3D

 23 25  0  0  0  0  0  0  0  0999 V2000
  -28.0162   -0.8135   28.8779 C   0  0  0  0  0  0  0  0  0  0  0  0
  -28.4690   -0.7850   29.8287 C   0  0  0  0  0  0  0  0  0  0  0  0
  -26.5455   -0.8762   28.8500 C   0  0  0  0  0  0  0  0  0  0  0  0
  -25.8974   -0.8267   29.8894 C   0  0  0  0  0  0  0  0  0  0  0  0
  -27.9129   -0.8385   31.1942 C   0  0  0  0  0  0  0  0  0  0  0  0
  -26.5519   -0.8324   31.1775 C   0  0  0  0  0  0  0  0  0  0  0  0
  -30.0723   -0.7940   29.9383 C   0  0  0  0  0  0  0  0  0  0  0  0
  -30.7088   -0.3443   29.2152 O   0  0  0  0  0  0  0  0  0  0  0  0
  -30.6300   -1.4965   30.9971 O   0  0  0  0  0  0  0  0  0  0  0  0
  -24.3626   -0.8486   29.9442 C   0  0  0  0  0  0  0  0  0  0  0  0
  -23.7656    0.4764   30.0508 C   0  0  0  0  0  0  0  0  0  0  0  0
  -24.1648    1.4087   30.6092 C   0  0  0  0  0  0  0  0  0  0  0  0
  -24.3527    2.6248   30.4544 C   0  0  0  0  0  0  0  0  0  0  0  0
  -25.2769    3.4993   31.2302 C   0  0  0  0  0  0  0  0  0  0  0  0
  -25.8626    2.8753   32.3410 C   0  0  0  0  0  0  0  0  0  0  0  0
  -25.5406    1.6423   32.7528 C   0  0  0  0  0  0  0  0  0  0  0  0
  -24.8267    0.8780   31.9656 C   0  0  0  0  0  0  0  0  0  0  0  0
  -22.5940    0.6402   29.1044 C   0  0  0  0  0  0  0  0  0  0  0  0
  -21.6160   -0.1228   29.1840 O   0  0  0  0  0  0  0  0  0  0  0  0
  -22.5898    1.6201   28.1930 N   0  0  0  0  0  0  0  0  0  0  0  0
  -21.4965    1.8660   27.2624 C   0  0  0  0  0  0  0  0  0  0  0  0
  -25.0625   -0.5633   31.9616 C   0  0  0  0  0  0  0  0  0  0  0  0
  -25.7901   -0.8364   27.2530 Cl  0  0  0  0  0  0  0  0  0  0  0  0
  2  7  1  0
  7  8  2  0
  7  9  1  0
  4 10  1  0
 10 11  1  0
 11 18  1  0
 18 19  2  0
 18 20  1  0
 20 21  1  0
  6 22  1  0
 17 22  1  0
  3 23  1  0
 11 12  1  0
 12 13  2  0
 13 14  1  0
 14 15  2  0
 15 16  1  0
 16 17  2  0
 17 12  1  0
  1  2  2  0
  2  5  1  0
  5  6  2  0
  6  4  1  0
  4  3  2  0
  3  1  1  0
M  END

$$$$
