No_1658-gen_results/8p0m/2024-11-27-11-27-31/
     RDKit          3D

 27 29  0  0  0  0  0  0  0  0999 V2000
  -28.0162   -0.8135   28.8779 C   0  0  0  0  0  0  0  0  0  0  0  0
  -27.0636   -0.1189   28.6079 C   0  0  0  0  0  0  0  0  0  0  0  0
  -25.7647   -0.3897   29.0360 C   0  0  0  0  0  0  0  0  0  0  0  0
  -25.4887   -1.1536   29.7171 C   0  0  0  0  0  0  0  0  0  0  0  0
  -27.7606   -1.9034   29.8572 C   0  0  0  0  0  0  0  0  0  0  0  0
  -26.4781   -2.1057   30.2362 C   0  0  0  0  0  0  0  0  0  0  0  0
  -28.6863   -2.7158   30.2450 F   0  0  0  0  0  0  0  0  0  0  0  0
  -24.8187    0.7714   28.4684 C   0  0  0  0  0  0  0  0  0  0  0  0
  -24.8098    2.0132   28.9552 C   0  0  0  0  0  0  0  0  0  0  0  0
  -23.9011    2.9741   28.4612 C   0  0  0  0  0  0  0  0  0  0  0  0
  -23.0347    2.5997   27.4074 C   0  0  0  0  0  0  0  0  0  0  0  0
  -22.9507    1.2932   26.9858 C   0  0  0  0  0  0  0  0  0  0  0  0
  -23.8162    0.3959   27.4680 C   0  0  0  0  0  0  0  0  0  0  0  0
  -25.6096    2.4183   29.8903 O   0  0  0  0  0  0  0  0  0  0  0  0
  -26.1874    3.5968   29.9394 C   0  0  0  0  0  0  0  0  0  0  0  0
  -27.4872    3.4420   30.4487 C   0  0  0  0  0  0  0  0  0  0  0  0
  -27.7387    2.7638   31.3277 O   0  0  0  0  0  0  0  0  0  0  0  0
  -28.4841    4.1479   29.7933 N   0  0  0  0  0  0  0  0  0  0  0  0
  -29.8963    3.9990   30.1569 C   0  0  0  0  0  0  0  0  0  0  0  0
  -28.2460    5.1064   28.7100 C   0  0  0  0  0  0  0  0  0  0  0  0
  -30.4994    3.2748   29.7150 O   0  0  0  0  0  0  0  0  0  0  0  0
  -30.3046    4.9052   31.2800 C   0  0  0  0  0  0  0  0  0  0  0  0
  -31.3679    4.6140   31.7531 C   0  0  0  0  0  0  0  0  0  0  0  0
  -29.4427    5.9732   31.6582 C   0  0  0  0  0  0  0  0  0  0  0  0
  -29.9695    6.8026   32.7190 C   0  0  0  0  0  0  0  0  0  0  0  0
  -31.9131    5.5015   32.8643 C   0  0  0  0  0  0  0  0  0  0  0  0
  -31.1441    6.5676   33.2999 C   0  0  0  0  0  0  0  0  0  0  0  0
  5  7  1  0
  3  8  1  0
  9 14  1  0
 14 15  1  0
 15 16  1  0
 16 17  2  0
 16 18  1  0
 18 19  1  0
 18 20  1  0
 19 21  2  0
 19 22  1  0
  1  2  2  0
  2  3  1  0
  3  4  2  0
  4  6  1  0
  6  5  2  0
  5  1  1  0
  8  9  1  0
  9 10  2  0
 10 11  1  0
 11 12  2  0
 12 13  1  0
 13  8  2  0
 22 23  2  0
 23 26  1  0
 26 27  2  0
 27 25  1  0
 25 24  2  0
 24 22  1  0
M  END

$$$$
