No_1781-gen_results/8p0m/2024-11-27-11-27-31/
     RDKit          3D

 25 27  0  0  0  0  0  0  0  0999 V2000
  -28.0162   -0.8135   28.8779 C   0  0  0  0  0  0  0  0  0  0  0  0
  -28.4690   -0.7850   29.8287 C   0  0  0  0  0  0  0  0  0  0  0  0
  -26.5042   -0.7777   28.8766 C   0  0  0  0  0  0  0  0  0  0  0  0
  -25.8103   -0.8531   30.1028 C   0  0  0  0  0  0  0  0  0  0  0  0
  -27.9906   -0.8916   31.2257 C   0  0  0  0  0  0  0  0  0  0  0  0
  -26.6042   -0.8676   31.2652 C   0  0  0  0  0  0  0  0  0  0  0  0
  -24.3894   -0.8050   30.1639 C   0  0  0  0  0  0  0  0  0  0  0  0
  -23.8172    0.4762   29.9118 C   0  0  0  0  0  0  0  0  0  0  0  0
  -23.2476    0.8215   28.7226 C   0  0  0  0  0  0  0  0  0  0  0  0
  -23.5684    2.0468   28.0656 C   0  0  0  0  0  0  0  0  0  0  0  0
  -24.6789    2.7146   28.5283 C   0  0  0  0  0  0  0  0  0  0  0  0
  -25.0888    2.6287   29.8690 C   0  0  0  0  0  0  0  0  0  0  0  0
  -25.0841    1.3820   30.3229 C   0  0  0  0  0  0  0  0  0  0  0  0
  -25.9574    3.6412   30.4293 C   0  0  0  0  0  0  0  0  0  0  0  0
  -26.6629    3.3827   31.3719 O   0  0  0  0  0  0  0  0  0  0  0  0
  -25.9387    4.7829   29.9121 O   0  0  0  0  0  0  0  0  0  0  0  0
  -25.7992   -0.7081   27.7218 N   0  0  0  0  0  0  0  0  0  0  0  0
  -22.8099    0.8593   31.1307 C   0  0  0  0  0  0  0  0  0  0  0  0
  -23.7786   -1.8256   29.1956 C   0  0  0  0  0  0  0  0  0  0  0  0
  -26.0232   -0.2055   26.5487 C   0  0  0  0  0  0  0  0  0  0  0  0
  -26.9590    0.8498   26.4365 C   0  0  0  0  0  0  0  0  0  0  0  0
  -27.1566    1.4940   25.2120 C   0  0  0  0  0  0  0  0  0  0  0  0
  -24.3697   -1.4125   27.8652 C   0  0  0  0  0  0  0  0  0  0  0  0
  -23.9086   -1.5783   31.5643 C   0  0  0  0  0  0  0  0  0  0  0  0
  -26.6391    0.7860   24.1406 C   0  0  0  0  0  0  0  0  0  0  0  0
  4  7  1  0
  7  8  1  0
  8  9  1  0
  9 10  1  0
 11 12  1  0
  8 13  1  0
 12 13  1  0
 12 14  1  0
 14 15  2  0
 14 16  1  0
  3 17  1  0
  8 18  1  0
  7 19  1  0
 17 20  1  0
 20 21  2  3
 21 22  1  0
 17 23  1  0
 19 23  1  0
  7 24  1  0
 22 25  2  0
 10 11  1  0
  1  2  2  0
  2  5  1  0
  5  6  2  0
  6  4  1  0
  4  3  2  0
  3  1  1  0
M  END

$$$$
