No_1245-gen_results/8p0m/2024-11-27-11-27-31/
     RDKit          3D

 17 18  0  0  0  0  0  0  0  0999 V2000
  -28.0162   -0.8135   28.8779 C   0  0  0  0  0  0  0  0  0  0  0  0
  -27.0636   -0.1190   28.6079 C   0  0  0  0  0  0  0  0  0  0  0  0
  -26.9287    1.1713   29.0083 C   0  0  0  0  0  0  0  0  0  0  0  0
  -25.7702    2.0341   28.6884 C   0  0  0  0  0  0  0  0  0  0  0  0
  -24.7141    1.4431   27.9188 C   0  0  0  0  0  0  0  0  0  0  0  0
  -24.8590    0.0783   27.5836 C   0  0  0  0  0  0  0  0  0  0  0  0
  -25.9647   -0.6606   27.9164 C   0  0  0  0  0  0  0  0  0  0  0  0
  -29.1778   -0.3051   28.9638 N   0  0  0  0  0  0  0  0  0  0  0  0
  -29.7429    0.3639   28.0669 C   0  0  0  0  0  0  0  0  0  0  0  0
  -31.1662    0.6392   28.1547 C   0  0  0  0  0  0  0  0  0  0  0  0
  -30.0647   -0.6511   30.1265 C   0  0  0  0  0  0  0  0  0  0  0  0
  -31.3740   -0.3363   30.2034 C   0  0  0  0  0  0  0  0  0  0  0  0
  -31.9018    0.4157   29.2087 C   0  0  0  0  0  0  0  0  0  0  0  0
  -23.4907    2.1250   27.5985 C   0  0  0  0  0  0  0  0  0  0  0  0
  -23.1569    2.7934   28.3577 F   0  0  0  0  0  0  0  0  0  0  0  0
  -22.5567    1.1629   27.1698 F   0  0  0  0  0  0  0  0  0  0  0  0
  -23.7591    2.8931   26.5037 F   0  0  0  0  0  0  0  0  0  0  0  0
  1  2  1  0
  1  8  1  0
  8  9  1  0
  8 11  1  0
 10 13  1  0
 12 13  1  0
  5 14  1  0
 14 15  1  0
 14 16  1  0
 14 17  1  0
  9 10  1  0
 12 11  1  0
  2  3  2  0
  3  4  1  0
  4  5  2  0
  5  6  1  0
  6  7  2  0
  7  2  1  0
M  END

$$$$
