No_1802-gen_results/8p0m/2024-11-27-11-27-31/
     RDKit          3D

 18 18  0  0  0  0  0  0  0  0999 V2000
  -28.0727   -1.2542   28.5316 F   0  0  0  0  0  0  0  0  0  0  0  0
  -27.3591   -0.3792   28.7224 C   0  0  0  0  0  0  0  0  0  0  0  0
  -26.3323   -0.6441   29.4520 C   0  0  0  0  0  0  0  0  0  0  0  0
  -25.2562    0.3203   29.7818 C   0  0  0  0  0  0  0  0  0  0  0  0
  -25.4242    1.6275   29.2026 C   0  0  0  0  0  0  0  0  0  0  0  0
  -26.5263    1.8254   28.4032 C   0  0  0  0  0  0  0  0  0  0  0  0
  -27.4513    0.8601   28.1355 C   0  0  0  0  0  0  0  0  0  0  0  0
  -28.5399    1.2022   27.2448 C   0  0  0  0  0  0  0  0  0  0  0  0
  -28.4879    1.9424   26.2706 N   0  0  0  0  0  0  0  0  0  0  0  0
  -29.4719    0.3114   27.1627 O   0  0  0  0  0  0  0  0  0  0  0  0
  -29.5169    2.1858   25.2470 C   0  0  0  0  0  0  0  0  0  0  0  0
  -24.5244    2.5680   29.5074 O   0  0  0  0  0  0  0  0  0  0  0  0
  -26.0481   -1.8159   30.0650 F   0  0  0  0  0  0  0  0  0  0  0  0
  -29.8614    3.0931   24.9883 C   0  0  0  0  0  0  0  0  0  0  0  0
  -30.9408    3.4055   23.9305 C   0  0  0  0  0  0  0  0  0  0  0  0
  -31.5866    4.5562   23.6717 C   0  0  0  0  0  0  0  0  0  0  0  0
  -32.7349    4.4762   22.8844 C   0  0  0  0  0  0  0  0  0  0  0  0
  -32.9479    3.2776   22.0918 C   0  0  0  0  0  0  0  0  0  0  0  0
  1  2  1  0
  7  8  1  0
  8  9  1  0
  8 10  2  0
  9 11  1  0
  5 12  1  0
  3 13  1  0
 11 14  2  3
 14 15  1  0
 15 16  2  3
 16 17  1  0
 17 18  2  0
  2  3  2  0
  3  4  1  0
  4  5  2  0
  5  6  1  0
  6  7  2  0
  7  2  1  0
M  END

$$$$
