No_1580-gen_results/8p0m/2024-11-27-11-27-31/
     RDKit          3D

 19 20  0  0  0  0  0  0  0  0999 V2000
  -28.0162   -0.8135   28.8779 C   0  0  0  0  0  0  0  0  0  0  0  0
  -28.4690   -0.7850   29.8287 C   0  0  0  0  0  0  0  0  0  0  0  0
  -26.5042   -0.7777   28.8766 C   0  0  0  0  0  0  0  0  0  0  0  0
  -25.8103   -0.8531   30.1028 C   0  0  0  0  0  0  0  0  0  0  0  0
  -27.9906   -0.8916   31.2257 C   0  0  0  0  0  0  0  0  0  0  0  0
  -26.6042   -0.8676   31.2652 C   0  0  0  0  0  0  0  0  0  0  0  0
  -30.4622   -0.8398   29.8385 Br  0  0  0  0  0  0  0  0  0  0  0  0
  -24.3620   -0.8196   30.1394 C   0  0  0  0  0  0  0  0  0  0  0  0
  -23.8364    0.5165   30.1186 N   0  0  0  0  0  0  0  0  0  0  0  0
  -24.1176    1.5042   30.7272 C   0  0  0  0  0  0  0  0  0  0  0  0
  -22.6998    0.6628   29.1597 C   0  0  0  0  0  0  0  0  0  0  0  0
  -24.5510    1.4351   31.9253 F   0  0  0  0  0  0  0  0  0  0  0  0
  -24.4870    2.6387   30.0799 N   0  0  0  0  0  0  0  0  0  0  0  0
  -23.8968    2.8714   28.8598 C   0  0  0  0  0  0  0  0  0  0  0  0
  -23.0288    1.8499   28.3155 C   0  0  0  0  0  0  0  0  0  0  0  0
  -25.7362   -0.6375   27.6414 C   0  0  0  0  0  0  0  0  0  0  0  0
  -22.2988    2.0959   27.0925 C   0  0  0  0  0  0  0  0  0  0  0  0
  -22.9613    2.4635   26.0630 O   0  0  0  0  0  0  0  0  0  0  0  0
  -21.0827    1.8161   27.0711 O   0  0  0  0  0  0  0  0  0  0  0  0
  2  7  1  0
  4  8  1  0
  8  9  1  0
  9 10  1  0
  9 11  1  0
 10 12  1  0
 13 14  1  0
 11 15  1  0
  3 16  1  0
 15 17  1  0
 17 18  2  0
 17 19  1  0
 10 13  1  0
 14 15  1  0
  1  2  2  0
  2  5  1  0
  5  6  2  0
  6  4  1  0
  4  3  2  0
  3  1  1  0
M  END

$$$$
