No_1779-gen_results/8p0m/2024-11-27-11-27-31/
     RDKit          3D

 16 17  0  0  0  0  0  0  0  0999 V2000
  -28.0162   -0.8135   28.8779 C   0  0  0  0  0  0  0  0  0  0  0  0
  -28.4690   -0.7850   29.8287 C   0  0  0  0  0  0  0  0  0  0  0  0
  -26.5455   -0.8762   28.8500 C   0  0  0  0  0  0  0  0  0  0  0  0
  -25.8041   -1.0324   30.0571 C   0  0  0  0  0  0  0  0  0  0  0  0
  -27.9437   -0.9869   31.2075 C   0  0  0  0  0  0  0  0  0  0  0  0
  -26.5825   -1.0386   31.2231 C   0  0  0  0  0  0  0  0  0  0  0  0
  -30.0606   -0.7371   29.9024 C   0  0  0  0  0  0  0  0  0  0  0  0
  -30.6056   -0.0348   29.0093 N   0  0  0  0  0  0  0  0  0  0  0  0
  -30.1203    1.0098   28.5447 C   0  0  0  0  0  0  0  0  0  0  0  0
  -29.7779    1.9582   29.2384 C   0  0  0  0  0  0  0  0  0  0  0  0
  -29.2405    3.2445   28.7375 C   0  0  0  0  0  0  0  0  0  0  0  0
  -28.6842    4.2645   29.5734 C   0  0  0  0  0  0  0  0  0  0  0  0
  -28.6413    4.0048   30.9724 C   0  0  0  0  0  0  0  0  0  0  0  0
  -29.0593    2.7829   31.4741 C   0  0  0  0  0  0  0  0  0  0  0  0
  -29.5056    1.8136   30.6904 C   0  0  0  0  0  0  0  0  0  0  0  0
  -31.9172   -0.5823   28.5727 C   0  0  0  0  0  0  0  0  0  0  0  0
  2  7  1  0
  7  8  1  0
  8  9  1  0
  8 16  1  0
  9 10  1  0
  1  2  2  0
  2  5  1  0
  5  6  2  0
  6  4  1  0
  4  3  2  0
  3  1  1  0
 10 11  2  0
 11 12  1  0
 12 13  2  0
 13 14  1  0
 14 15  2  0
 15 10  1  0
M  END

$$$$
