No_1557-gen_results/8p0m/2024-11-27-11-27-31/
     RDKit          3D

 17 18  0  0  0  0  0  0  0  0999 V2000
  -28.0162   -0.8135   28.8779 C   0  0  0  0  0  0  0  0  0  0  0  0
  -28.4690   -0.7850   29.8287 C   0  0  0  0  0  0  0  0  0  0  0  0
  -26.5455   -0.8762   28.8500 C   0  0  0  0  0  0  0  0  0  0  0  0
  -25.8041   -1.0324   30.0571 C   0  0  0  0  0  0  0  0  0  0  0  0
  -27.9437   -0.9869   31.2075 C   0  0  0  0  0  0  0  0  0  0  0  0
  -26.5825   -1.0386   31.2231 C   0  0  0  0  0  0  0  0  0  0  0  0
  -29.9267   -0.7257   29.8772 O   0  0  0  0  0  0  0  0  0  0  0  0
  -30.7101   -1.5564   30.3394 C   0  0  0  0  0  0  0  0  0  0  0  0
  -24.3644   -1.0909   30.0836 C   0  0  0  0  0  0  0  0  0  0  0  0
  -23.7138    0.1382   29.8917 C   0  0  0  0  0  0  0  0  0  0  0  0
  -22.4252    0.1895   29.2545 C   0  0  0  0  0  0  0  0  0  0  0  0
  -21.8161    1.3971   28.9439 C   0  0  0  0  0  0  0  0  0  0  0  0
  -22.4510    1.9904   27.7646 C   0  0  0  0  0  0  0  0  0  0  0  0
  -23.8500    1.8782   27.5659 C   0  0  0  0  0  0  0  0  0  0  0  0
  -24.5548    2.5784   26.6368 C   0  0  0  0  0  0  0  0  0  0  0  0
  -25.8828    2.3362   26.3754 C   0  0  0  0  0  0  0  0  0  0  0  0
  -24.5440    1.0109   28.5965 C   0  0  0  0  0  0  0  0  0  0  0  0
  2  7  1  0
  7  8  1  0
  4  9  1  0
  9 10  1  0
 14 15  1  0
 15 16  2  0
 10 11  2  0
 11 12  1  0
 12 13  2  0
 13 14  1  0
 14 17  2  0
 17 10  1  0
  1  2  2  0
  2  5  1  0
  5  6  2  0
  6  4  1  0
  4  3  2  0
  3  1  1  0
M  END

$$$$
