No_1234-gen_results/8p0m/2024-11-27-11-27-31/
     RDKit          3D

 32 34  0  0  0  0  0  0  0  0999 V2000
  -28.0162   -0.8135   28.8779 C   0  0  0  0  0  0  0  0  0  0  0  0
  -27.0636   -0.1189   28.6079 C   0  0  0  0  0  0  0  0  0  0  0  0
  -26.9287    1.1713   29.0083 C   0  0  0  0  0  0  0  0  0  0  0  0
  -25.7702    2.0341   28.6884 C   0  0  0  0  0  0  0  0  0  0  0  0
  -24.7141    1.4431   27.9188 C   0  0  0  0  0  0  0  0  0  0  0  0
  -24.8590    0.0783   27.5836 C   0  0  0  0  0  0  0  0  0  0  0  0
  -25.9647   -0.6606   27.9164 C   0  0  0  0  0  0  0  0  0  0  0  0
  -28.6510   -0.6086   30.2543 C   0  0  0  0  0  0  0  0  0  0  0  0
  -29.6513   -1.3216   30.5931 C   0  0  0  0  0  0  0  0  0  0  0  0
  -30.4122   -1.3389   31.4422 C   0  0  0  0  0  0  0  0  0  0  0  0
  -30.1262   -0.2443   32.4829 C   0  0  0  0  0  0  0  0  0  0  0  0
  -29.0652    0.5540   32.2860 C   0  0  0  0  0  0  0  0  0  0  0  0
  -28.3134    0.4326   31.1372 C   0  0  0  0  0  0  0  0  0  0  0  0
  -23.5429    2.1580   27.5186 C   0  0  0  0  0  0  0  0  0  0  0  0
  -22.2132    1.7383   27.7582 C   0  0  0  0  0  0  0  0  0  0  0  0
  -23.6707    2.4827   25.9908 C   0  0  0  0  0  0  0  0  0  0  0  0
  -25.6193    3.4093   29.1215 C   0  0  0  0  0  0  0  0  0  0  0  0
  -26.7498    3.9555   29.4074 O   0  0  0  0  0  0  0  0  0  0  0  0
  -24.5727    3.9662   29.0330 O   0  0  0  0  0  0  0  0  0  0  0  0
  -21.9093    1.1768   29.0708 C   0  0  0  0  0  0  0  0  0  0  0  0
  -22.0808   -0.0453   28.9815 O   0  0  0  0  0  0  0  0  0  0  0  0
  -22.9549   -0.8376   29.7246 C   0  0  0  0  0  0  0  0  0  0  0  0
  -23.2100   -2.1399   29.3545 C   0  0  0  0  0  0  0  0  0  0  0  0
  -24.1524   -2.9296   30.0103 C   0  0  0  0  0  0  0  0  0  0  0  0
  -25.0558   -2.2332   30.9381 C   0  0  0  0  0  0  0  0  0  0  0  0
  -24.7771   -0.9307   31.3442 C   0  0  0  0  0  0  0  0  0  0  0  0
  -23.7392   -0.1901   30.6798 C   0  0  0  0  0  0  0  0  0  0  0  0
  -25.6994   -0.1555   32.5413 Cl  0  0  0  0  0  0  0  0  0  0  0  0
  -31.0007   -0.1475   33.7336 C   0  0  0  0  0  0  0  0  0  0  0  0
  -31.6243   -0.9874   33.9452 F   0  0  0  0  0  0  0  0  0  0  0  0
  -31.7618    0.9787   33.5369 F   0  0  0  0  0  0  0  0  0  0  0  0
  -30.1370    0.1691   34.7578 F   0  0  0  0  0  0  0  0  0  0  0  0
  1  2  1  0
  1  8  1  0
  5 14  1  0
 14 15  1  0
 14 16  1  0
  4 17  1  0
 17 18  1  0
 17 19  2  0
 15 20  1  0
 20 21  1  0
 21 22  1  0
 26 28  1  0
 11 29  1  0
 29 30  1  0
 29 31  1  0
 29 32  1  0
  2  3  2  0
  3  4  1  0
  4  5  2  0
  5  6  1  0
  6  7  2  0
  7  2  1  0
 22 23  2  0
 23 24  1  0
 24 25  2  0
 25 26  1  0
 26 27  2  0
 27 22  1  0
  8  9  2  0
  9 10  1  0
 10 11  2  0
 11 12  1  0
 12 13  2  0
 13  8  1  0
M  END

$$$$
