No_1453-gen_results/8p0m/2024-11-27-11-27-31/
     RDKit          3D

 35 39  0  0  0  0  0  0  0  0999 V2000
  -28.0162   -0.8135   28.8779 C   0  0  0  0  0  0  0  0  0  0  0  0
  -28.4690   -0.7850   29.8287 C   0  0  0  0  0  0  0  0  0  0  0  0
  -26.5042   -0.7777   28.8766 C   0  0  0  0  0  0  0  0  0  0  0  0
  -25.8103   -0.8531   30.1028 C   0  0  0  0  0  0  0  0  0  0  0  0
  -27.9906   -0.8916   31.2257 C   0  0  0  0  0  0  0  0  0  0  0  0
  -24.3976   -0.8364   30.1775 C   0  0  0  0  0  0  0  0  0  0  0  0
  -26.5754   -0.8899   31.2661 C   0  0  0  0  0  0  0  0  0  0  0  0
  -23.7964    0.4357   29.9090 C   0  0  0  0  0  0  0  0  0  0  0  0
  -22.4944    0.4757   29.3632 C   0  0  0  0  0  0  0  0  0  0  0  0
  -21.7757   -0.7201   29.1864 C   0  0  0  0  0  0  0  0  0  0  0  0
  -23.7016   -1.8641   29.2768 C   0  0  0  0  0  0  0  0  0  0  0  0
  -22.3502   -1.7886   29.1453 N   0  0  0  0  0  0  0  0  0  0  0  0
  -23.8585   -1.2826   31.6684 C   0  0  0  0  0  0  0  0  0  0  0  0
  -24.4086    1.6837   30.3726 C   0  0  0  0  0  0  0  0  0  0  0  0
  -24.4594    2.1843   31.5723 N   0  0  0  0  0  0  0  0  0  0  0  0
  -25.1421    2.4614   29.4110 C   0  0  0  0  0  0  0  0  0  0  0  0
  -25.7739    3.5325   29.8895 C   0  0  0  0  0  0  0  0  0  0  0  0
  -25.7038    4.0078   31.1646 C   0  0  0  0  0  0  0  0  0  0  0  0
  -24.9091    3.2749   32.0765 C   0  0  0  0  0  0  0  0  0  0  0  0
  -26.6340    4.3323   28.9034 C   0  0  0  0  0  0  0  0  0  0  0  0
  -27.5526    3.6834   28.2723 C   0  0  0  0  0  0  0  0  0  0  0  0
  -28.4078    4.3721   27.3609 C   0  0  0  0  0  0  0  0  0  0  0  0
  -28.1882    5.7550   27.1522 C   0  0  0  0  0  0  0  0  0  0  0  0
  -27.1377    6.4120   27.7861 C   0  0  0  0  0  0  0  0  0  0  0  0
  -26.3699    5.7244   28.7167 C   0  0  0  0  0  0  0  0  0  0  0  0
  -30.0625   -0.7530   29.8242 C   0  0  0  0  0  0  0  0  0  0  0  0
  -30.7551   -1.5119   30.3007 O   0  0  0  0  0  0  0  0  0  0  0  0
  -30.5744    0.3187   29.0958 N   0  0  0  0  0  0  0  0  0  0  0  0
  -31.9976    0.4839   28.9059 C   0  0  0  0  0  0  0  0  0  0  0  0
  -32.3121    1.2767   27.8836 C   0  0  0  0  0  0  0  0  0  0  0  0
  -31.3759    1.9292   27.1242 C   0  0  0  0  0  0  0  0  0  0  0  0
  -30.0382    1.5671   27.1884 C   0  0  0  0  0  0  0  0  0  0  0  0
  -29.6461    0.7977   28.1591 C   0  0  0  0  0  0  0  0  0  0  0  0
  -20.4837   -0.5736   28.6622 N   0  0  0  0  0  0  0  0  0  0  0  0
  -24.3620   -2.8744   28.7966 N   0  0  0  0  0  0  0  0  0  0  0  0
  4  6  1  0
  6  8  1  0
  9 10  1  0
  6 11  1  0
 10 12  1  0
  6 13  1  0
  8 14  1  0
 17 20  1  0
  2 26  1  0
 26 27  2  0
 26 28  1  0
 28 29  1  0
 30 31  1  0
 28 33  1  0
 32 33  1  0
 10 34  1  0
 11 35  1  0
 29 30  1  0
 31 32  1  0
  8  9  1  0
 12 11  1  0
  1  2  2  0
  2  5  1  0
  5  7  2  0
  7  4  1  0
  4  3  2  0
  3  1  1  0
 20 21  2  0
 21 22  1  0
 22 23  2  0
 23 24  1  0
 24 25  2  0
 25 20  1  0
 14 15  2  0
 15 19  1  0
 19 18  2  0
 18 17  1  0
 17 16  2  0
 16 14  1  0
M  END

$$$$
