No_1643-gen_results/8p0m/2024-11-27-11-27-31/
     RDKit          3D

 16 16  0  0  0  0  0  0  0  0999 V2000
  -28.0162   -0.8135   28.8779 C   0  0  0  0  0  0  0  0  0  0  0  0
  -27.0636   -0.1189   28.6079 C   0  0  0  0  0  0  0  0  0  0  0  0
  -27.0010    0.6913   27.4910 C   0  0  0  0  0  0  0  0  0  0  0  0
  -28.1373    0.7363   26.6350 C   0  0  0  0  0  0  0  0  0  0  0  0
  -29.2360    0.0765   27.0690 C   0  0  0  0  0  0  0  0  0  0  0  0
  -29.2177   -0.6429   28.1747 C   0  0  0  0  0  0  0  0  0  0  0  0
  -30.4152    0.1590   26.1820 C   0  0  0  0  0  0  0  0  0  0  0  0
  -31.3727   -0.5052   26.4854 N   0  0  0  0  0  0  0  0  0  0  0  0
  -30.3871    0.8406   25.1078 O   0  0  0  0  0  0  0  0  0  0  0  0
  -32.5900   -0.5930   25.5964 C   0  0  0  0  0  0  0  0  0  0  0  0
  -25.6263   -0.1127   29.2580 C   0  0  0  0  0  0  0  0  0  0  0  0
  -24.6507    0.3117   28.8986 N   0  0  0  0  0  0  0  0  0  0  0  0
  -23.4595    0.1384   29.5467 C   0  0  0  0  0  0  0  0  0  0  0  0
  -22.2174    0.6618   29.0241 C   0  0  0  0  0  0  0  0  0  0  0  0
  -22.3768    1.3340   27.8023 C   0  0  0  0  0  0  0  0  0  0  0  0
  -23.4907    1.6541   27.1509 C   0  0  0  0  0  0  0  0  0  0  0  0
  5  7  1  0
  7  8  1  0
  7  9  2  0
  8 10  1  0
  2 11  1  0
 11 12  2  3
 12 13  1  0
 13 14  2  3
 14 15  1  0
 15 16  2  0
  1  2  2  0
  2  3  1  0
  3  4  2  0
  4  5  1  0
  5  6  2  0
  6  1  1  0
M  END

$$$$
