No_1704-gen_results/8p0m/2024-11-27-11-27-31/
     RDKit          3D

  6  5  0  0  0  0  0  0  0  0999 V2000
  -28.0162   -0.8135   28.8779 C   0  0  0  0  0  0  0  0  0  0  0  0
  -28.4690   -0.7850   29.8287 C   0  0  0  0  0  0  0  0  0  0  0  0
  -26.5042   -0.7777   28.8766 C   0  0  0  0  0  0  0  0  0  0  0  0
  -25.6377   -1.9791   29.5560 Cl  0  0  0  0  0  0  0  0  0  0  0  0
  -28.2976   -1.8921   30.8042 C   0  0  0  0  0  0  0  0  0  0  0  0
  -27.0719   -2.6458   31.0714 C   0  0  0  0  0  0  0  0  0  0  0  0
  1  2  1  0
  1  3  1  0
  3  4  1  0
  2  5  2  3
  5  6  1  0
M  END

$$$$
