No_19-gen_results/8p0m/2024-11-27-11-27-31/
     RDKit          3D

 18 19  0  0  0  0  0  0  0  0999 V2000
  -28.0162   -0.8135   28.8779 C   0  0  0  0  0  0  0  0  0  0  0  0
  -28.4690   -0.7850   29.8287 C   0  0  0  0  0  0  0  0  0  0  0  0
  -28.1960    0.3478   28.0550 C   0  0  0  0  0  0  0  0  0  0  0  0
  -29.0191    1.3501   28.3782 C   0  0  0  0  0  0  0  0  0  0  0  0
  -29.6249    1.2683   29.6012 C   0  0  0  0  0  0  0  0  0  0  0  0
  -29.3821    0.1816   30.4004 C   0  0  0  0  0  0  0  0  0  0  0  0
  -27.4591    0.3787   26.7048 C   0  0  0  0  0  0  0  0  0  0  0  0
  -26.1350    0.3565   26.8181 C   0  0  0  0  0  0  0  0  0  0  0  0
  -25.3867    0.0259   27.9207 C   0  0  0  0  0  0  0  0  0  0  0  0
  -23.9774    0.0245   27.9125 C   0  0  0  0  0  0  0  0  0  0  0  0
  -23.2124   -0.3700   29.0872 C   0  0  0  0  0  0  0  0  0  0  0  0
  -23.8134   -1.1940   30.0208 C   0  0  0  0  0  0  0  0  0  0  0  0
  -25.1798   -1.3032   30.0020 C   0  0  0  0  0  0  0  0  0  0  0  0
  -25.9389   -0.8003   29.0083 C   0  0  0  0  0  0  0  0  0  0  0  0
  -25.9672   -1.9271   28.5917 F   0  0  0  0  0  0  0  0  0  0  0  0
  -28.7222   -1.5759   28.2537 F   0  0  0  0  0  0  0  0  0  0  0  0
  -25.7769   -1.8578   31.0188 F   0  0  0  0  0  0  0  0  0  0  0  0
  -25.9423    0.4716   29.8014 F   0  0  0  0  0  0  0  0  0  0  0  0
  3  7  1  0
  7  8  1  0
  9 10  1  0
 10 11  1  0
 11 12  2  0
 12 13  1  0
  9 14  1  0
 13 14  1  0
 14 15  1  0
  1 16  1  0
 13 17  1  0
 14 18  1  0
  8  9  1  0
  1  2  2  0
  2  6  1  0
  6  5  2  0
  5  4  1  0
  4  3  2  0
  3  1  1  0
M  END

$$$$
