No_1163-gen_results/8p0m/2024-11-27-11-27-31/
     RDKit          3D

 35 38  0  0  0  0  0  0  0  0999 V2000
  -28.0162   -0.8135   28.8779 C   0  0  0  0  0  0  0  0  0  0  0  0
  -28.4690   -0.7850   29.8287 C   0  0  0  0  0  0  0  0  0  0  0  0
  -26.5042   -0.7777   28.8766 C   0  0  0  0  0  0  0  0  0  0  0  0
  -25.8103   -0.8531   30.1028 C   0  0  0  0  0  0  0  0  0  0  0  0
  -27.9906   -0.8916   31.2257 C   0  0  0  0  0  0  0  0  0  0  0  0
  -26.6042   -0.8676   31.2652 C   0  0  0  0  0  0  0  0  0  0  0  0
  -30.0739   -0.8360   29.8615 C   0  0  0  0  0  0  0  0  0  0  0  0
  -30.6825   -0.0696   30.6918 O   0  0  0  0  0  0  0  0  0  0  0  0
  -30.5863   -1.1986   28.8194 O   0  0  0  0  0  0  0  0  0  0  0  0
  -24.3679   -0.8013   30.1447 C   0  0  0  0  0  0  0  0  0  0  0  0
  -23.8059    0.5633   30.1400 C   0  0  0  0  0  0  0  0  0  0  0  0
  -23.3967    1.1380   28.9405 C   0  0  0  0  0  0  0  0  0  0  0  0
  -24.0439    2.2294   28.3142 C   0  0  0  0  0  0  0  0  0  0  0  0
  -25.0620    2.8633   28.9427 C   0  0  0  0  0  0  0  0  0  0  0  0
  -25.1756    2.6844   30.3656 C   0  0  0  0  0  0  0  0  0  0  0  0
  -25.0388    1.4539   30.7775 C   0  0  0  0  0  0  0  0  0  0  0  0
  -23.6105    2.5803   26.9396 C   0  0  0  0  0  0  0  0  0  0  0  0
  -22.7863    1.7926   26.3643 N   0  0  0  0  0  0  0  0  0  0  0  0
  -24.3728    3.3890   26.2691 O   0  0  0  0  0  0  0  0  0  0  0  0
  -25.7443   -0.7131   27.6182 C   0  0  0  0  0  0  0  0  0  0  0  0
  -22.7493    0.6632   31.1304 O   0  0  0  0  0  0  0  0  0  0  0  0
  -24.6145    3.7993   31.0516 C   0  0  0  0  0  0  0  0  0  0  0  0
  -25.5732    4.9049   31.3809 C   0  0  0  0  0  0  0  0  0  0  0  0
  -26.6709    4.8879   31.1570 C   0  0  0  0  0  0  0  0  0  0  0  0
  -27.5529    5.9911   31.3923 C   0  0  0  0  0  0  0  0  0  0  0  0
  -27.0237    7.0972   32.0860 C   0  0  0  0  0  0  0  0  0  0  0  0
  -25.6951    7.1126   32.4939 C   0  0  0  0  0  0  0  0  0  0  0  0
  -24.8780    6.0123   32.1689 C   0  0  0  0  0  0  0  0  0  0  0  0
  -23.5135    5.9984   32.6446 C   0  0  0  0  0  0  0  0  0  0  0  0
  -22.9295    7.2917   32.9471 C   0  0  0  0  0  0  0  0  0  0  0  0
  -22.0190    7.8430   32.1143 C   0  0  0  0  0  0  0  0  0  0  0  0
  -21.9886    9.0357   31.9879 C   0  0  0  0  0  0  0  0  0  0  0  0
  -22.4197   10.0089   32.9410 C   0  0  0  0  0  0  0  0  0  0  0  0
  -23.2855    9.5042   33.9081 C   0  0  0  0  0  0  0  0  0  0  0  0
  -23.5930    8.1055   33.9238 C   0  0  0  0  0  0  0  0  0  0  0  0
  2  7  1  0
  7  8  1  0
  7  9  2  0
  4 10  1  0
 10 11  1  0
 11 12  1  0
 12 13  1  0
 13 14  1  0
 11 16  1  0
 15 16  1  0
 13 17  1  0
 17 18  1  0
 17 19  2  0
  3 20  1  0
 11 21  1  0
 15 22  1  0
 22 23  1  0
 28 29  1  0
 29 30  1  0
 14 15  1  0
 23 24  2  0
 24 25  1  0
 25 26  2  0
 26 27  1  0
 27 28  2  0
 28 23  1  0
 30 31  2  0
 31 32  1  0
 32 33  2  0
 33 34  1  0
 34 35  2  0
 35 30  1  0
  1  2  2  0
  2  5  1  0
  5  6  2  0
  6  4  1  0
  4  3  2  0
  3  1  1  0
M  END

$$$$
