No_1298-gen_results/8p0m/2024-11-27-11-27-31/
     RDKit          3D

 35 38  0  0  0  0  0  0  0  0999 V2000
  -28.0162   -0.8135   28.8779 C   0  0  0  0  0  0  0  0  0  0  0  0
  -28.4690   -0.7850   29.8287 C   0  0  0  0  0  0  0  0  0  0  0  0
  -27.0871    0.2903   28.6377 C   0  0  0  0  0  0  0  0  0  0  0  0
  -26.2516    0.4114   27.4223 C   0  0  0  0  0  0  0  0  0  0  0  0
  -28.3913    0.1041   30.9805 C   0  0  0  0  0  0  0  0  0  0  0  0
  -27.5332    1.1666   30.7866 C   0  0  0  0  0  0  0  0  0  0  0  0
  -26.8281    1.2557   29.6454 C   0  0  0  0  0  0  0  0  0  0  0  0
  -26.2894   -0.3208   26.7008 F   0  0  0  0  0  0  0  0  0  0  0  0
  -24.9065    0.6298   27.8498 F   0  0  0  0  0  0  0  0  0  0  0  0
  -26.5253    1.7003   26.8049 F   0  0  0  0  0  0  0  0  0  0  0  0
  -29.4614   -2.0180   30.2134 C   0  0  0  0  0  0  0  0  0  0  0  0
  -30.4920   -1.8765   29.8137 O   0  0  0  0  0  0  0  0  0  0  0  0
  -28.9889   -3.0995   30.8924 N   0  0  0  0  0  0  0  0  0  0  0  0
  -29.8347   -4.2992   31.0967 C   0  0  0  0  0  0  0  0  0  0  0  0
  -31.0058   -4.0776   31.7034 C   0  0  0  0  0  0  0  0  0  0  0  0
  -31.3190   -3.0762   32.3376 C   0  0  0  0  0  0  0  0  0  0  0  0
  -30.6075   -2.8553   33.4570 C   0  0  0  0  0  0  0  0  0  0  0  0
  -30.8171   -1.6735   34.3372 C   0  0  0  0  0  0  0  0  0  0  0  0
  -31.8362   -0.8096   33.9315 C   0  0  0  0  0  0  0  0  0  0  0  0
  -32.5835   -1.0901   32.8130 C   0  0  0  0  0  0  0  0  0  0  0  0
  -32.3087   -2.1644   32.0392 C   0  0  0  0  0  0  0  0  0  0  0  0
  -29.2171   -5.2864   30.6753 O   0  0  0  0  0  0  0  0  0  0  0  0
  -33.6434   -0.1023   32.4260 C   0  0  0  0  0  0  0  0  0  0  0  0
  -33.6974    0.9240   32.6518 C   0  0  0  0  0  0  0  0  0  0  0  0
  -32.8503    1.4052   33.8847 C   0  0  0  0  0  0  0  0  0  0  0  0
  -31.9660    0.5559   34.4978 C   0  0  0  0  0  0  0  0  0  0  0  0
  -31.9242   -5.1704   31.4453 C   0  0  0  0  0  0  0  0  0  0  0  0
  -32.4403   -5.8772   32.4837 C   0  0  0  0  0  0  0  0  0  0  0  0
  -32.3986   -5.4590   30.1176 C   0  0  0  0  0  0  0  0  0  0  0  0
  -33.4012   -6.8270   32.3736 C   0  0  0  0  0  0  0  0  0  0  0  0
  -33.3267   -6.4768   29.9474 C   0  0  0  0  0  0  0  0  0  0  0  0
  -33.8162   -7.1461   31.0395 C   0  0  0  0  0  0  0  0  0  0  0  0
  -34.9624   -8.3823   30.7584 Cl  0  0  0  0  0  0  0  0  0  0  0  0
  -29.9942   -1.3644   35.5028 C   0  0  0  0  0  0  0  0  0  0  0  0
  -28.8583   -0.7322   35.4413 C   0  0  0  0  0  0  0  0  0  0  0  0
  3  4  1  0
  4  8  1  0
  4  9  1  0
  4 10  1  0
  2 11  1  0
 11 12  2  0
 11 13  1  0
 13 14  1  0
 14 15  1  0
 15 16  1  0
 14 22  2  0
 15 27  1  0
 32 33  1  0
 18 34  1  0
 34 35  1  0
 27 28  2  0
 28 30  1  0
 30 32  2  0
 32 31  1  0
 31 29  2  0
 29 27  1  0
 20 23  1  0
 23 24  2  0
 24 25  1  0
 25 26  2  0
 26 19  1  0
  1  2  2  0
  2  5  1  0
  5  6  2  0
  6  7  1  0
  7  3  2  0
  3  1  1  0
 16 17  2  0
 17 18  1  0
 18 19  2  0
 19 20  1  0
 20 21  2  0
 21 16  1  0
M  END

$$$$
