No_1037-gen_results/8p0m/2024-11-27-11-27-31/
     RDKit          3D

 20 21  0  0  0  0  0  0  0  0999 V2000
  -28.0162   -0.8135   28.8779 C   0  0  0  0  0  0  0  0  0  0  0  0
  -28.4690   -0.7850   29.8287 C   0  0  0  0  0  0  0  0  0  0  0  0
  -26.5455   -0.8762   28.8500 C   0  0  0  0  0  0  0  0  0  0  0  0
  -25.8041   -1.0324   30.0571 C   0  0  0  0  0  0  0  0  0  0  0  0
  -27.9437   -0.9869   31.2075 C   0  0  0  0  0  0  0  0  0  0  0  0
  -26.5825   -1.0386   31.2231 C   0  0  0  0  0  0  0  0  0  0  0  0
  -24.3810   -1.1082   30.0855 C   0  0  0  0  0  0  0  0  0  0  0  0
  -23.7055    0.0955   29.8440 C   0  0  0  0  0  0  0  0  0  0  0  0
  -22.4285    0.1160   29.2171 C   0  0  0  0  0  0  0  0  0  0  0  0
  -21.8149    1.2942   28.8765 C   0  0  0  0  0  0  0  0  0  0  0  0
  -24.1974    1.3766   30.2708 C   0  0  0  0  0  0  0  0  0  0  0  0
  -23.6703    2.5777   29.8431 C   0  0  0  0  0  0  0  0  0  0  0  0
  -22.4202    2.5641   29.1385 C   0  0  0  0  0  0  0  0  0  0  0  0
  -30.0890   -0.7018   29.8678 C   0  0  0  0  0  0  0  0  0  0  0  0
  -30.5064   -0.2374   28.9158 O   0  0  0  0  0  0  0  0  0  0  0  0
  -30.7713   -1.3910   30.7551 O   0  0  0  0  0  0  0  0  0  0  0  0
  -25.8280   -0.7996   27.7165 F   0  0  0  0  0  0  0  0  0  0  0  0
  -20.3411    1.3115   27.9599 Cl  0  0  0  0  0  0  0  0  0  0  0  0
  -23.8581   -2.2790   29.2907 C   0  0  0  0  0  0  0  0  0  0  0  0
  -23.9250   -1.4591   31.6485 C   0  0  0  0  0  0  0  0  0  0  0  0
  4  7  1  0
  7  8  1  0
  2 14  1  0
 14 15  2  0
 14 16  1  0
  3 17  1  0
 10 18  1  0
  7 19  1  0
  7 20  1  0
  8  9  2  0
  9 10  1  0
 10 13  2  0
 13 12  1  0
 12 11  2  0
 11  8  1  0
  1  2  2  0
  2  5  1  0
  5  6  2  0
  6  4  1  0
  4  3  2  0
  3  1  1  0
M  END

$$$$
