No_1573-gen_results/8p0m/2024-11-27-11-27-31/
     RDKit          3D

 32 35  0  0  0  0  0  0  0  0999 V2000
  -28.1229   -1.3353   28.4874 O   0  0  0  0  0  0  0  0  0  0  0  0
  -27.4806   -0.4044   28.7094 C   0  0  0  0  0  0  0  0  0  0  0  0
  -26.3804   -0.0867   27.9394 C   0  0  0  0  0  0  0  0  0  0  0  0
  -27.6664    0.4468   29.8988 N   0  0  0  0  0  0  0  0  0  0  0  0
  -26.4086    0.8567   26.8802 C   0  0  0  0  0  0  0  0  0  0  0  0
  -25.2466    1.1198   26.1102 C   0  0  0  0  0  0  0  0  0  0  0  0
  -23.9991    0.7500   26.5964 C   0  0  0  0  0  0  0  0  0  0  0  0
  -23.9411    0.0388   27.7865 C   0  0  0  0  0  0  0  0  0  0  0  0
  -25.0420   -0.3844   28.4675 C   0  0  0  0  0  0  0  0  0  0  0  0
  -28.7555    0.1052   30.7791 C   0  0  0  0  0  0  0  0  0  0  0  0
  -22.5984   -0.2318   28.3970 C   0  0  0  0  0  0  0  0  0  0  0  0
  -22.5003   -1.1183   29.3646 C   0  0  0  0  0  0  0  0  0  0  0  0
  -21.7607    1.0255   28.6116 C   0  0  0  0  0  0  0  0  0  0  0  0
  -20.5005    0.7204   28.9266 O   0  0  0  0  0  0  0  0  0  0  0  0
  -21.8494    2.0700   27.8058 O   0  0  0  0  0  0  0  0  0  0  0  0
  -29.5246   -0.5975   30.7230 C   0  0  0  0  0  0  0  0  0  0  0  0
  -30.6210   -0.8640   31.6691 C   0  0  0  0  0  0  0  0  0  0  0  0
  -30.6027   -0.0027   32.8097 C   0  0  0  0  0  0  0  0  0  0  0  0
  -29.6069    0.9277   32.9315 C   0  0  0  0  0  0  0  0  0  0  0  0
  -28.6269    1.0869   31.9528 C   0  0  0  0  0  0  0  0  0  0  0  0
  -27.7354    1.1580   26.3130 C   0  0  0  0  0  0  0  0  0  0  0  0
  -28.1678    0.6018   25.1543 C   0  0  0  0  0  0  0  0  0  0  0  0
  -27.5770   -0.3252   24.6095 C   0  0  0  0  0  0  0  0  0  0  0  0
  -28.1984   -0.9148   23.5014 N   0  0  0  0  0  0  0  0  0  0  0  0
  -29.0265    1.1630   24.2942 C   0  0  0  0  0  0  0  0  0  0  0  0
  -29.2053    0.0258   23.3633 C   0  0  0  0  0  0  0  0  0  0  0  0
  -28.5278    2.1433   27.1015 C   0  0  0  0  0  0  0  0  0  0  0  0
  -28.2817    3.5233   26.9964 C   0  0  0  0  0  0  0  0  0  0  0  0
  -29.7771    1.6796   27.6530 C   0  0  0  0  0  0  0  0  0  0  0  0
  -30.5630    2.5870   28.4271 C   0  0  0  0  0  0  0  0  0  0  0  0
  -30.2056    3.9589   28.4534 C   0  0  0  0  0  0  0  0  0  0  0  0
  -29.0552    4.4146   27.7955 C   0  0  0  0  0  0  0  0  0  0  0  0
  1  2  2  0
  2  3  1  0
  2  4  1  0
  4 10  1  0
  8 11  1  0
 11 12  2  0
 11 13  1  0
 13 14  1  0
 13 15  1  0
  5 21  1  0
 21 22  1  0
 22 23  1  0
 23 24  2  0
 22 25  1  0
 24 26  1  0
 25 26  2  0
 21 27  1  0
 10 16  2  0
 16 17  1  0
 17 18  2  0
 18 19  1  0
 19 20  2  0
 20 10  1  0
  3  5  1  0
  5  6  2  0
  6  7  1  0
  7  8  2  0
  8  9  1  0
  9  3  2  0
 27 28  2  0
 28 32  1  0
 32 31  2  0
 31 30  1  0
 30 29  2  0
 29 27  1  0
M  END

$$$$
