No_1498-gen_results/8p0m/2024-11-27-11-27-31/
     RDKit          3D

 28 31  0  0  0  0  0  0  0  0999 V2000
  -28.0162   -0.8135   28.8779 C   0  0  0  0  0  0  0  0  0  0  0  0
  -27.0636   -0.1190   28.6079 C   0  0  0  0  0  0  0  0  0  0  0  0
  -25.7923   -0.4302   29.0761 C   0  0  0  0  0  0  0  0  0  0  0  0
  -25.5756   -1.5654   29.9363 C   0  0  0  0  0  0  0  0  0  0  0  0
  -26.7354   -2.3004   30.2173 C   0  0  0  0  0  0  0  0  0  0  0  0
  -27.9184   -1.9537   29.7629 C   0  0  0  0  0  0  0  0  0  0  0  0
  -29.0001   -2.7012   30.1151 O   0  0  0  0  0  0  0  0  0  0  0  0
  -24.5290    0.3490   28.7998 C   0  0  0  0  0  0  0  0  0  0  0  0
  -24.4808    1.2113   27.7998 C   0  0  0  0  0  0  0  0  0  0  0  0
  -23.2478    1.8974   27.4951 C   0  0  0  0  0  0  0  0  0  0  0  0
  -22.0497    1.5890   28.1642 C   0  0  0  0  0  0  0  0  0  0  0  0
  -23.3072    0.0149   29.4618 C   0  0  0  0  0  0  0  0  0  0  0  0
  -22.0852    0.6899   29.1374 C   0  0  0  0  0  0  0  0  0  0  0  0
  -29.3608   -2.8105   31.4431 C   0  0  0  0  0  0  0  0  0  0  0  0
  -29.7835   -4.1183   31.7502 C   0  0  0  0  0  0  0  0  0  0  0  0
  -30.0421   -4.3588   33.0663 C   0  0  0  0  0  0  0  0  0  0  0  0
  -29.9760   -3.3155   34.0291 C   0  0  0  0  0  0  0  0  0  0  0  0
  -29.5107   -2.0808   33.6717 C   0  0  0  0  0  0  0  0  0  0  0  0
  -29.1559   -1.8203   32.3578 C   0  0  0  0  0  0  0  0  0  0  0  0
  -29.8395   -5.1796   30.7905 C   0  0  0  0  0  0  0  0  0  0  0  0
  -29.5508   -5.0119   29.6911 O   0  0  0  0  0  0  0  0  0  0  0  0
  -29.9631   -6.4084   31.2352 O   0  0  0  0  0  0  0  0  0  0  0  0
  -29.5879   -0.3786   28.3226 Cl  0  0  0  0  0  0  0  0  0  0  0  0
  -29.3874   -0.9897   34.6827 C   0  0  0  0  0  0  0  0  0  0  0  0
  -28.8911   -0.0342   34.5046 N   0  0  0  0  0  0  0  0  0  0  0  0
  -28.3944    0.4643   33.4029 C   0  0  0  0  0  0  0  0  0  0  0  0
  -28.5667   -0.5038   32.1325 C   0  0  0  0  0  0  0  0  0  0  0  0
  -27.8808    1.6091   33.1228 O   0  0  0  0  0  0  0  0  0  0  0  0
  6  7  1  0
  3  8  1  0
  7 14  1  0
 15 20  1  0
 20 21  2  0
 20 22  1  0
  1 23  1  0
 18 24  1  0
 25 26  1  0
 19 27  1  0
 26 27  1  0
 26 28  2  0
 25 24  1  0
  1  2  2  0
  2  3  1  0
  3  4  2  0
  4  5  1  0
  5  6  2  0
  6  1  1  0
 14 15  2  0
 15 16  1  0
 16 17  2  0
 17 18  1  0
 18 19  2  0
 19 14  1  0
  8  9  2  0
  9 10  1  0
 10 11  2  0
 11 13  1  0
 13 12  2  0
 12  8  1  0
M  END

$$$$
