No_1182-gen_results/8p0m/2024-11-27-11-27-31/
     RDKit          3D

 15 15  0  0  0  0  0  0  0  0999 V2000
  -28.0162   -0.8135   28.8779 C   0  0  0  0  0  0  0  0  0  0  0  0
  -28.4690   -0.7850   29.8287 C   0  0  0  0  0  0  0  0  0  0  0  0
  -27.0871    0.2903   28.6377 C   0  0  0  0  0  0  0  0  0  0  0  0
  -26.9102    0.8486   27.4199 C   0  0  0  0  0  0  0  0  0  0  0  0
  -28.5427   -0.0189   30.6168 F   0  0  0  0  0  0  0  0  0  0  0  0
  -29.3192   -2.0937   30.1468 C   0  0  0  0  0  0  0  0  0  0  0  0
  -30.3896   -1.9753   29.7758 O   0  0  0  0  0  0  0  0  0  0  0  0
  -26.1257    1.4860   27.0255 C   0  0  0  0  0  0  0  0  0  0  0  0
  -24.9676    1.9799   27.8497 C   0  0  0  0  0  0  0  0  0  0  0  0
  -24.9722    1.4621   29.1312 C   0  0  0  0  0  0  0  0  0  0  0  0
  -25.9704    0.5602   29.5352 C   0  0  0  0  0  0  0  0  0  0  0  0
  -28.8140   -3.1109   30.7534 F   0  0  0  0  0  0  0  0  0  0  0  0
  -23.9242    2.9083   27.4004 C   0  0  0  0  0  0  0  0  0  0  0  0
  -23.9086    3.2004   26.0792 N   0  0  0  0  0  0  0  0  0  0  0  0
  -22.9039    3.1294   28.0567 O   0  0  0  0  0  0  0  0  0  0  0  0
  1  2  1  0
  1  3  1  0
  2  5  1  0
  2  6  1  0
  6  7  2  0
  6 12  1  0
  9 13  1  0
 13 14  2  0
 13 15  1  0
  3  4  2  0
  4  8  1  0
  8  9  2  0
  9 10  1  0
 10 11  2  0
 11  3  1  0
M  END

$$$$
