No_1877-gen_results/8p0m/2024-11-27-11-27-31/
     RDKit          3D

 30 33  0  0  0  0  0  0  0  0999 V2000
  -28.1229   -1.3353   28.4874 O   0  0  0  0  0  0  0  0  0  0  0  0
  -27.0637   -0.8242   28.8687 C   0  0  0  0  0  0  0  0  0  0  0  0
  -26.9592    0.0926   29.7582 C   0  0  0  0  0  0  0  0  0  0  0  0
  -25.8184   -1.0917   28.1701 N   0  0  0  0  0  0  0  0  0  0  0  0
  -27.8628    0.6578   30.4566 C   0  0  0  0  0  0  0  0  0  0  0  0
  -24.5652   -0.6445   28.5119 C   0  0  0  0  0  0  0  0  0  0  0  0
  -23.4139   -0.9601   27.8711 C   0  0  0  0  0  0  0  0  0  0  0  0
  -24.3844    0.3355   29.5397 C   0  0  0  0  0  0  0  0  0  0  0  0
  -25.5974    0.7164   30.2067 C   0  0  0  0  0  0  0  0  0  0  0  0
  -22.2547   -0.4129   28.4538 C   0  0  0  0  0  0  0  0  0  0  0  0
  -23.0492    0.6038   29.7049 C   0  0  0  0  0  0  0  0  0  0  0  0
  -28.9541    0.6143   30.1761 O   0  0  0  0  0  0  0  0  0  0  0  0
  -27.6223    1.4936   31.5287 O   0  0  0  0  0  0  0  0  0  0  0  0
  -20.9075   -0.2820   28.4433 C   0  0  0  0  0  0  0  0  0  0  0  0
  -28.5840    2.0721   32.2266 C   0  0  0  0  0  0  0  0  0  0  0  0
  -28.0638    3.0696   33.1944 C   0  0  0  0  0  0  0  0  0  0  0  0
  -28.1408    4.1883   33.2426 C   0  0  0  0  0  0  0  0  0  0  0  0
  -27.6496    5.0514   33.4301 C   0  0  0  0  0  0  0  0  0  0  0  0
  -26.4065    5.0127   34.3688 C   0  0  0  0  0  0  0  0  0  0  0  0
  -26.0789    3.6476   34.5248 C   0  0  0  0  0  0  0  0  0  0  0  0
  -26.7797    2.7066   33.8965 C   0  0  0  0  0  0  0  0  0  0  0  0
  -26.4308    1.4185   34.0508 O   0  0  0  0  0  0  0  0  0  0  0  0
  -26.7502    0.6561   35.0894 C   0  0  0  0  0  0  0  0  0  0  0  0
  -27.4316   -0.5050   34.6468 C   0  0  0  0  0  0  0  0  0  0  0  0
  -28.8715   -0.3295   34.6653 C   0  0  0  0  0  0  0  0  0  0  0  0
  -29.4794   -1.3802   35.2395 C   0  0  0  0  0  0  0  0  0  0  0  0
  -30.5305   -1.8492   34.4974 C   0  0  0  0  0  0  0  0  0  0  0  0
  -30.8665   -1.2590   33.4026 C   0  0  0  0  0  0  0  0  0  0  0  0
  -30.1688   -0.1841   32.8617 C   0  0  0  0  0  0  0  0  0  0  0  0
  -29.1534    0.0106   33.2754 O   0  0  0  0  0  0  0  0  0  0  0  0
  1  2  2  0
  2  3  1  0
  2  4  1  0
  3  5  1  0
  6  7  1  0
  6  8  1  0
  3  9  1  0
  8  9  1  0
  7 10  2  0
  8 11  1  0
 10 11  1  0
  5 12  2  0
  5 13  1  0
 10 14  1  0
 13 15  1  0
 15 16  1  0
 21 22  1  0
 22 23  1  0
 23 24  1  0
 24 25  1  0
 25 26  1  0
 26 27  1  0
 27 28  2  0
 28 29  1  0
 25 30  1  0
 29 30  1  0
  6  4  1  0
 16 17  2  0
 17 18  1  0
 18 19  2  0
 19 20  1  0
 20 21  2  0
 21 16  1  0
M  END

$$$$
