No_1904-gen_results/8p0m/2024-11-27-11-27-31/
     RDKit          3D

 17 18  0  0  0  0  0  0  0  0999 V2000
  -28.0162   -0.8135   28.8779 C   0  0  0  0  0  0  0  0  0  0  0  0
  -28.4690   -0.7850   29.8287 C   0  0  0  0  0  0  0  0  0  0  0  0
  -27.1356    0.2359   28.5352 C   0  0  0  0  0  0  0  0  0  0  0  0
  -26.8745    1.2825   29.3982 C   0  0  0  0  0  0  0  0  0  0  0  0
  -28.3613    0.1987   30.9244 C   0  0  0  0  0  0  0  0  0  0  0  0
  -25.9723    2.3852   29.1040 C   0  0  0  0  0  0  0  0  0  0  0  0
  -27.5118    1.2316   30.6323 C   0  0  0  0  0  0  0  0  0  0  0  0
  -25.3009    2.5053   28.0335 C   0  0  0  0  0  0  0  0  0  0  0  0
  -24.4975    3.6545   27.7011 C   0  0  0  0  0  0  0  0  0  0  0  0
  -25.1779    1.3985   27.1079 C   0  0  0  0  0  0  0  0  0  0  0  0
  -24.3522    1.6083   25.9613 C   0  0  0  0  0  0  0  0  0  0  0  0
  -23.6847    2.7337   25.7082 C   0  0  0  0  0  0  0  0  0  0  0  0
  -23.8147    3.8529   26.5911 C   0  0  0  0  0  0  0  0  0  0  0  0
  -25.8457    3.4146   30.2518 C   0  0  0  0  0  0  0  0  0  0  0  0
  -26.2645    4.3278   30.3051 Cl  0  0  0  0  0  0  0  0  0  0  0  0
  -24.9450    2.7604   31.1060 F   0  0  0  0  0  0  0  0  0  0  0  0
  -29.6315   -2.1074   30.4324 Cl  0  0  0  0  0  0  0  0  0  0  0  0
  4  6  1  0
  6 14  1  0
 14 15  1  0
 14 16  1  0
  2 17  1  0
  6  8  1  0
  8  9  2  0
  9 13  1  0
 13 12  2  0
 12 11  1  0
 11 10  2  0
 10  8  1  0
  1  2  2  0
  2  5  1  0
  5  7  2  0
  7  4  1  0
  4  3  2  0
  3  1  1  0
M  END

$$$$
