No_1628-gen_results/8p0m/2024-11-27-11-27-31/
     RDKit          3D

 16 16  0  0  0  0  0  0  0  0999 V2000
  -28.1146   -0.6256   29.0813 Br  0  0  0  0  0  0  0  0  0  0  0  0
  -26.9268    0.4545   28.6846 C   0  0  0  0  0  0  0  0  0  0  0  0
  -26.3163    0.3925   27.4205 C   0  0  0  0  0  0  0  0  0  0  0  0
  -26.8783    0.0210   26.4631 C   0  0  0  0  0  0  0  0  0  0  0  0
  -27.2294    0.8764   25.5849 C   0  0  0  0  0  0  0  0  0  0  0  0
  -28.2585    1.5464   25.7928 C   0  0  0  0  0  0  0  0  0  0  0  0
  -29.0424    2.0670   24.7226 C   0  0  0  0  0  0  0  0  0  0  0  0
  -30.1230    2.9598   24.9772 C   0  0  0  0  0  0  0  0  0  0  0  0
  -30.3551    3.3650   26.2883 C   0  0  0  0  0  0  0  0  0  0  0  0
  -29.5676    2.9704   27.2921 C   0  0  0  0  0  0  0  0  0  0  0  0
  -28.5579    2.1832   27.0790 C   0  0  0  0  0  0  0  0  0  0  0  0
  -24.8327    0.4592   27.5403 C   0  0  0  0  0  0  0  0  0  0  0  0
  -24.1043    1.2782   27.5734 C   0  0  0  0  0  0  0  0  0  0  0  0
  -22.5978    1.2358   27.7783 C   0  0  0  0  0  0  0  0  0  0  0  0
  -22.1081    0.1988   28.5740 C   0  0  0  0  0  0  0  0  0  0  0  0
  -23.0310   -0.8853   28.8107 C   0  0  0  0  0  0  0  0  0  0  0  0
  1  2  1  0
  2  3  1  0
  3  4  1  0
  4  5  1  0
  5  6  1  0
  3 12  1  0
 12 13  2  3
 13 14  1  0
 14 15  2  3
 15 16  1  0
  6  7  2  0
  7  8  1  0
  8  9  2  0
  9 10  1  0
 10 11  2  0
 11  6  1  0
M  END

$$$$
