No_1858-gen_results/8p0m/2024-11-27-11-27-31/
     RDKit          3D

 14 14  0  0  0  0  0  0  0  0999 V2000
  -28.0162   -0.8135   28.8779 C   0  0  0  0  0  0  0  0  0  0  0  0
  -28.4690   -0.7850   29.8287 C   0  0  0  0  0  0  0  0  0  0  0  0
  -26.5455   -0.8762   28.8500 C   0  0  0  0  0  0  0  0  0  0  0  0
  -25.8041   -1.0324   30.0571 C   0  0  0  0  0  0  0  0  0  0  0  0
  -26.5373   -1.0386   31.2171 C   0  0  0  0  0  0  0  0  0  0  0  0
  -27.8843   -0.9532   31.1862 C   0  0  0  0  0  0  0  0  0  0  0  0
  -24.4749   -1.0818   30.0376 O   0  0  0  0  0  0  0  0  0  0  0  0
  -23.7176   -1.3311   29.0603 C   0  0  0  0  0  0  0  0  0  0  0  0
  -30.0728   -0.7172   29.9409 C   0  0  0  0  0  0  0  0  0  0  0  0
  -30.5452   -0.2234   29.1122 O   0  0  0  0  0  0  0  0  0  0  0  0
  -30.7156   -1.2672   31.0239 N   0  0  0  0  0  0  0  0  0  0  0  0
  -32.1526   -1.1967   31.0741 C   0  0  0  0  0  0  0  0  0  0  0  0
  -32.8641   -0.5354   30.7341 C   0  0  0  0  0  0  0  0  0  0  0  0
  -34.3104   -0.5556   30.8548 C   0  0  0  0  0  0  0  0  0  0  0  0
  4  7  1  0
  7  8  1  0
  2  9  1  0
  9 10  2  0
  9 11  1  0
 11 12  1  0
 12 13  2  3
 13 14  1  0
  1  2  2  0
  2  6  1  0
  6  5  2  0
  5  4  1  0
  4  3  2  0
  3  1  1  0
M  END

$$$$
