No_1273-gen_results/8p0m/2024-11-27-11-27-31/
     RDKit          3D

 16 18  0  0  0  0  0  0  0  0999 V2000
  -28.0162   -0.8135   28.8779 C   0  0  0  0  0  0  0  0  0  0  0  0
  -27.0636   -0.1189   28.6079 C   0  0  0  0  0  0  0  0  0  0  0  0
  -26.9287    1.1713   29.0083 C   0  0  0  0  0  0  0  0  0  0  0  0
  -25.7702    2.0341   28.6884 C   0  0  0  0  0  0  0  0  0  0  0  0
  -25.6189    3.3482   29.0918 C   0  0  0  0  0  0  0  0  0  0  0  0
  -28.7620   -0.4733   29.8847 C   0  0  0  0  0  0  0  0  0  0  0  0
  -28.7741    0.7500   30.4631 C   0  0  0  0  0  0  0  0  0  0  0  0
  -27.7191    1.6583   30.0974 C   0  0  0  0  0  0  0  0  0  0  0  0
  -24.8137    1.5825   27.6934 C   0  0  0  0  0  0  0  0  0  0  0  0
  -23.7474    2.4161   27.2771 C   0  0  0  0  0  0  0  0  0  0  0  0
  -24.6732    4.2523   28.4701 C   0  0  0  0  0  0  0  0  0  0  0  0
  -23.7154    3.7255   27.5936 C   0  0  0  0  0  0  0  0  0  0  0  0
  -22.8662    1.9705   26.3353 O   0  0  0  0  0  0  0  0  0  0  0  0
  -30.0619   -1.6107   30.3456 Cl  0  0  0  0  0  0  0  0  0  0  0  0
  -26.1717   -0.4948   27.5693 O   0  0  0  0  0  0  0  0  0  0  0  0
  -25.0620    0.2214   27.1375 C   0  0  0  0  0  0  0  0  0  0  0  0
  3  4  1  0
 10 13  1  0
  6 14  1  0
  2 15  1  0
  9 16  1  0
 15 16  1  0
  1  2  2  0
  2  3  1  0
  3  8  2  0
  8  7  1  0
  7  6  2  0
  6  1  1  0
  4  5  2  0
  5 11  1  0
 11 12  2  0
 12 10  1  0
 10  9  2  0
  9  4  1  0
M  END

$$$$
