No_1886-gen_results/8p0m/2024-11-27-11-27-31/
     RDKit          3D

 17 17  0  0  0  0  0  0  0  0999 V2000
  -28.0162   -0.8135   28.8779 C   0  0  0  0  0  0  0  0  0  0  0  0
  -28.4690   -0.7850   29.8287 C   0  0  0  0  0  0  0  0  0  0  0  0
  -26.5042   -0.7777   28.8766 C   0  0  0  0  0  0  0  0  0  0  0  0
  -25.8103   -0.8531   30.1028 C   0  0  0  0  0  0  0  0  0  0  0  0
  -27.9906   -0.8916   31.2257 C   0  0  0  0  0  0  0  0  0  0  0  0
  -26.6042   -0.8676   31.2652 C   0  0  0  0  0  0  0  0  0  0  0  0
  -30.0739   -0.8360   29.8615 C   0  0  0  0  0  0  0  0  0  0  0  0
  -30.6825   -0.0696   30.6918 O   0  0  0  0  0  0  0  0  0  0  0  0
  -30.6226   -1.5289   29.0126 O   0  0  0  0  0  0  0  0  0  0  0  0
  -25.5344   -0.7210   27.4839 Cl  0  0  0  0  0  0  0  0  0  0  0  0
  -24.5199   -0.7910   30.1722 F   0  0  0  0  0  0  0  0  0  0  0  0
  -31.9922    0.0411   30.7890 C   0  0  0  0  0  0  0  0  0  0  0  0
  -32.7504    0.6719   30.5418 C   0  0  0  0  0  0  0  0  0  0  0  0
  -32.2868    2.0513   30.0929 C   0  0  0  0  0  0  0  0  0  0  0  0
  -31.1970    2.5480   30.6146 C   0  0  0  0  0  0  0  0  0  0  0  0
  -30.6544    3.8627   30.1074 C   0  0  0  0  0  0  0  0  0  0  0  0
  -31.4418    4.5040   29.1482 C   0  0  0  0  0  0  0  0  0  0  0  0
  2  7  1  0
  7  8  1  0
  7  9  2  0
  3 10  1  0
  4 11  1  0
  8 12  1  0
 12 13  1  0
 13 14  2  3
 14 15  1  0
 15 16  2  3
 16 17  1  0
  1  2  2  0
  2  5  1  0
  5  6  2  0
  6  4  1  0
  4  3  2  0
  3  1  1  0
M  END

$$$$
