No_1139-gen_results/8p0m/2024-11-27-11-27-31/
     RDKit          3D

 17 18  0  0  0  0  0  0  0  0999 V2000
  -28.0162   -0.8135   28.8779 C   0  0  0  0  0  0  0  0  0  0  0  0
  -27.0636   -0.1190   28.6079 C   0  0  0  0  0  0  0  0  0  0  0  0
  -26.9287    1.1713   29.0083 C   0  0  0  0  0  0  0  0  0  0  0  0
  -25.7702    2.0341   28.6884 C   0  0  0  0  0  0  0  0  0  0  0  0
  -24.7141    1.4431   27.9188 C   0  0  0  0  0  0  0  0  0  0  0  0
  -24.8590    0.0783   27.5836 C   0  0  0  0  0  0  0  0  0  0  0  0
  -25.9647   -0.6606   27.9164 C   0  0  0  0  0  0  0  0  0  0  0  0
  -29.1701   -0.2984   28.9471 N   0  0  0  0  0  0  0  0  0  0  0  0
  -29.7216    0.3727   28.0429 C   0  0  0  0  0  0  0  0  0  0  0  0
  -31.1479    0.6367   28.1030 C   0  0  0  0  0  0  0  0  0  0  0  0
  -30.0914   -0.6581   30.0740 C   0  0  0  0  0  0  0  0  0  0  0  0
  -31.3996   -0.3575   30.1289 C   0  0  0  0  0  0  0  0  0  0  0  0
  -31.9084    0.3815   29.1151 C   0  0  0  0  0  0  0  0  0  0  0  0
  -23.4929    2.1218   27.5950 C   0  0  0  0  0  0  0  0  0  0  0  0
  -22.3008    1.6513   27.5260 N   0  0  0  0  0  0  0  0  0  0  0  0
  -23.6886    3.3251   27.0706 O   0  0  0  0  0  0  0  0  0  0  0  0
  -27.8381   -1.9799   29.4106 O   0  0  0  0  0  0  0  0  0  0  0  0
  1  2  1  0
  1  8  1  0
  8  9  1  0
  8 11  1  0
 10 13  1  0
 12 13  1  0
  5 14  1  0
 14 15  1  0
 14 16  2  0
  1 17  2  0
  9 10  1  0
 12 11  1  0
  2  3  2  0
  3  4  1  0
  4  5  2  0
  5  6  1  0
  6  7  2  0
  7  2  1  0
M  END

$$$$
