No_124-gen_results/8p0m/2024-11-27-11-27-31/
     RDKit          3D

 34 37  0  0  0  0  0  0  0  0999 V2000
  -28.0162   -0.8135   28.8779 C   0  0  0  0  0  0  0  0  0  0  0  0
  -27.0636   -0.1190   28.6079 C   0  0  0  0  0  0  0  0  0  0  0  0
  -26.9716    0.7139   27.5060 C   0  0  0  0  0  0  0  0  0  0  0  0
  -28.1053    0.7744   26.6421 C   0  0  0  0  0  0  0  0  0  0  0  0
  -29.2008    0.1044   27.0527 C   0  0  0  0  0  0  0  0  0  0  0  0
  -29.2096   -0.6029   28.1853 C   0  0  0  0  0  0  0  0  0  0  0  0
  -30.3749    0.2232   26.1670 C   0  0  0  0  0  0  0  0  0  0  0  0
  -31.3501   -0.3934   26.4333 N   0  0  0  0  0  0  0  0  0  0  0  0
  -30.1475    0.5540   24.9280 O   0  0  0  0  0  0  0  0  0  0  0  0
  -31.6995   -0.9290   27.7304 C   0  0  0  0  0  0  0  0  0  0  0  0
  -30.4723   -1.1914   28.5222 N   0  0  0  0  0  0  0  0  0  0  0  0
  -32.6728   -1.5640   28.0118 F   0  0  0  0  0  0  0  0  0  0  0  0
  -32.6182   -0.4013   25.5539 C   0  0  0  0  0  0  0  0  0  0  0  0
  -25.6548    1.3864   27.1133 C   0  0  0  0  0  0  0  0  0  0  0  0
  -25.1999    2.3936   28.0344 C   0  0  0  0  0  0  0  0  0  0  0  0
  -24.2169    2.8419   28.3763 C   0  0  0  0  0  0  0  0  0  0  0  0
  -26.3906    3.3827   28.3773 C   0  0  0  0  0  0  0  0  0  0  0  0
  -26.1638    4.4928   29.1713 C   0  0  0  0  0  0  0  0  0  0  0  0
  -22.9678    1.9474   28.0901 C   0  0  0  0  0  0  0  0  0  0  0  0
  -26.9292    5.2544   29.4439 N   0  0  0  0  0  0  0  0  0  0  0  0
  -26.7451    6.3127   30.2451 C   0  0  0  0  0  0  0  0  0  0  0  0
  -22.7544    0.8819   29.0072 C   0  0  0  0  0  0  0  0  0  0  0  0
  -21.8803   -0.0822   28.7260 C   0  0  0  0  0  0  0  0  0  0  0  0
  -27.6632    7.2822   30.6896 C   0  0  0  0  0  0  0  0  0  0  0  0
  -25.3812    6.8692   30.0395 C   0  0  0  0  0  0  0  0  0  0  0  0
  -24.9856    7.9679   30.8858 C   0  0  0  0  0  0  0  0  0  0  0  0
  -27.2706    8.3781   31.5123 C   0  0  0  0  0  0  0  0  0  0  0  0
  -25.8580    8.8138   31.4637 C   0  0  0  0  0  0  0  0  0  0  0  0
  -28.3460    5.0780   29.1091 C   0  0  0  0  0  0  0  0  0  0  0  0
  -23.1482    1.0267   30.3579 C   0  0  0  0  0  0  0  0  0  0  0  0
  -23.1317   -0.1679   31.1826 C   0  0  0  0  0  0  0  0  0  0  0  0
  -21.7614   -1.2371   29.5207 C   0  0  0  0  0  0  0  0  0  0  0  0
  -22.2940   -1.1729   30.7960 C   0  0  0  0  0  0  0  0  0  0  0  0
  -28.6419    4.1298   28.3430 O   0  0  0  0  0  0  0  0  0  0  0  0
  5  7  1  0
  7  8  1  0
  7  9  2  0
  8 10  1  0
  6 11  1  0
 10 11  1  0
 10 12  1  0
  8 13  1  0
  3 14  1  0
 14 15  1  0
 15 16  2  3
 15 17  1  0
 17 18  1  0
 16 19  1  0
 18 20  1  0
 20 21  1  0
 19 22  1  0
 20 29  1  0
 29 34  2  0
 21 24  2  0
 24 27  1  0
 27 28  2  0
 28 26  1  0
 26 25  2  0
 25 21  1  0
  1  2  2  0
  2  3  1  0
  3  4  2  0
  4  5  1  0
  5  6  2  0
  6  1  1  0
 22 23  2  0
 23 32  1  0
 32 33  2  0
 33 31  1  0
 31 30  2  0
 30 22  1  0
M  END

$$$$
