No_1713-gen_results/8p0m/2024-11-27-11-27-31/
     RDKit          3D

 15 16  0  0  0  0  0  0  0  0999 V2000
  -28.0544   -1.0498   28.7246 N   0  0  0  0  0  0  0  0  0  0  0  0
  -26.9659   -0.4722   28.7709 C   0  0  0  0  0  0  0  0  0  0  0  0
  -25.9289   -1.0196   29.5059 C   0  0  0  0  0  0  0  0  0  0  0  0
  -24.5844   -0.4437   29.6599 C   0  0  0  0  0  0  0  0  0  0  0  0
  -24.3615    0.7792   28.9691 C   0  0  0  0  0  0  0  0  0  0  0  0
  -25.4238    1.3029   28.1832 C   0  0  0  0  0  0  0  0  0  0  0  0
  -26.6399    0.7108   28.0777 C   0  0  0  0  0  0  0  0  0  0  0  0
  -29.0999   -0.1860   28.8595 C   0  0  0  0  0  0  0  0  0  0  0  0
  -29.2680    0.6529   27.8073 C   0  0  0  0  0  0  0  0  0  0  0  0
  -27.9607    1.4309   27.6556 N   0  0  0  0  0  0  0  0  0  0  0  0
  -27.7691    2.6527   26.9503 C   0  0  0  0  0  0  0  0  0  0  0  0
  -23.0252    1.3299   28.9815 C   0  0  0  0  0  0  0  0  0  0  0  0
  -22.4514    1.3978   30.0721 F   0  0  0  0  0  0  0  0  0  0  0  0
  -23.0072    2.6339   28.5342 F   0  0  0  0  0  0  0  0  0  0  0  0
  -22.1386    0.7089   28.1694 F   0  0  0  0  0  0  0  0  0  0  0  0
  1  2  1  0
  1  8  1  0
  8  9  1  0
  7 10  1  0
  9 10  1  0
 10 11  1  0
  5 12  1  0
 12 13  1  0
 12 14  1  0
 12 15  1  0
  2  3  2  0
  3  4  1  0
  4  5  2  0
  5  6  1  0
  6  7  2  0
  7  2  1  0
M  END

$$$$
