No_1605-gen_results/8p0m/2024-11-27-11-27-31/
     RDKit          3D

  8  8  0  0  0  0  0  0  0  0999 V2000
  -28.0162   -0.8135   28.8779 C   0  0  0  0  0  0  0  0  0  0  0  0
  -28.4690   -0.7850   29.8287 C   0  0  0  0  0  0  0  0  0  0  0  0
  -27.0871    0.2903   28.6377 C   0  0  0  0  0  0  0  0  0  0  0  0
  -26.0238    0.3644   29.2526 C   0  0  0  0  0  0  0  0  0  0  0  0
  -27.5370   -0.6187   31.0883 C   0  0  0  0  0  0  0  0  0  0  0  0
  -26.3844    0.1834   30.8012 C   0  0  0  0  0  0  0  0  0  0  0  0
  -29.5100   -1.6195   30.2653 O   0  0  0  0  0  0  0  0  0  0  0  0
  -29.5455   -2.7400   30.7590 C   0  0  0  0  0  0  0  0  0  0  0  0
  2  7  1  0
  7  8  1  0
  1  2  2  0
  2  5  1  0
  5  6  2  0
  6  4  1  0
  4  3  2  0
  3  1  1  0
M  END

$$$$
