No_117-gen_results/8p0m/2024-11-27-11-27-31/
     RDKit          3D

 21 23  0  0  0  0  0  0  0  0999 V2000
  -28.0727   -1.2542   28.5316 F   0  0  0  0  0  0  0  0  0  0  0  0
  -27.0607   -0.6291   28.8721 C   0  0  0  0  0  0  0  0  0  0  0  0
  -26.1528   -1.1557   29.4537 C   0  0  0  0  0  0  0  0  0  0  0  0
  -24.8777   -0.5788   29.8639 C   0  0  0  0  0  0  0  0  0  0  0  0
  -23.7561   -1.0707   30.5500 C   0  0  0  0  0  0  0  0  0  0  0  0
  -22.6892   -0.2730   30.9473 C   0  0  0  0  0  0  0  0  0  0  0  0
  -22.6177    0.9915   30.4197 C   0  0  0  0  0  0  0  0  0  0  0  0
  -24.5396    0.8221   29.5225 C   0  0  0  0  0  0  0  0  0  0  0  0
  -23.4983    1.5101   29.7663 C   0  0  0  0  0  0  0  0  0  0  0  0
  -27.0138    0.8041   28.4937 C   0  0  0  0  0  0  0  0  0  0  0  0
  -25.7562    1.4972   28.7712 C   0  0  0  0  0  0  0  0  0  0  0  0
  -25.6149    2.9070   28.3465 C   0  0  0  0  0  0  0  0  0  0  0  0
  -26.5091    3.5227   27.5943 N   0  0  0  0  0  0  0  0  0  0  0  0
  -27.3422    4.3971   28.0734 C   0  0  0  0  0  0  0  0  0  0  0  0
  -27.1345    4.8549   29.3323 C   0  0  0  0  0  0  0  0  0  0  0  0
  -27.9760    5.2011   30.2185 C   0  0  0  0  0  0  0  0  0  0  0  0
  -27.6756    5.6868   31.5633 C   0  0  0  0  0  0  0  0  0  0  0  0
  -26.3151    5.8125   31.9379 C   0  0  0  0  0  0  0  0  0  0  0  0
  -25.3385    5.4807   30.9833 C   0  0  0  0  0  0  0  0  0  0  0  0
  -25.7137    5.0213   29.7128 C   0  0  0  0  0  0  0  0  0  0  0  0
  -24.6304    3.5435   28.7389 O   0  0  0  0  0  0  0  0  0  0  0  0
  1  2  1  0
 11 12  1  0
 12 13  1  0
 13 14  1  0
 14 15  1  0
 12 21  2  0
  4  5  2  0
  5  6  1  0
  6  7  2  0
  7  9  1  0
  9  8  2  0
 15 16  2  0
 16 17  1  0
 17 18  2  0
 18 19  1  0
 19 20  2  0
 20 15  1  0
  2  3  2  0
  3  4  1  0
  4  8  1  0
  8 11  1  0
 11 10  2  0
 10  2  1  0
M  END

$$$$
