No_1202-gen_results/8p0m/2024-11-27-11-27-31/
     RDKit          3D

 35 39  0  0  0  0  0  0  0  0999 V2000
  -28.0162   -0.8135   28.8779 C   0  0  0  0  0  0  0  0  0  0  0  0
  -28.4690   -0.7850   29.8287 C   0  0  0  0  0  0  0  0  0  0  0  0
  -26.5455   -0.8762   28.8500 C   0  0  0  0  0  0  0  0  0  0  0  0
  -25.8041   -1.0324   30.0571 C   0  0  0  0  0  0  0  0  0  0  0  0
  -27.9437   -0.9869   31.2075 C   0  0  0  0  0  0  0  0  0  0  0  0
  -26.5825   -1.0386   31.2231 C   0  0  0  0  0  0  0  0  0  0  0  0
  -29.9267   -0.7257   29.8772 O   0  0  0  0  0  0  0  0  0  0  0  0
  -30.7101   -1.5564   30.3394 C   0  0  0  0  0  0  0  0  0  0  0  0
  -24.3644   -1.0909   30.0836 C   0  0  0  0  0  0  0  0  0  0  0  0
  -23.6005   -0.9316   29.0331 C   0  0  0  0  0  0  0  0  0  0  0  0
  -22.1397   -0.7912   29.1339 C   0  0  0  0  0  0  0  0  0  0  0  0
  -23.6450   -0.2309   31.0778 C   0  0  0  0  0  0  0  0  0  0  0  0
  -22.3568   -0.0824   31.1531 N   0  0  0  0  0  0  0  0  0  0  0  0
  -21.6453   -0.0592   30.0663 C   0  0  0  0  0  0  0  0  0  0  0  0
  -31.9222   -1.0471   30.7500 C   0  0  0  0  0  0  0  0  0  0  0  0
  -32.8360   -1.9169   31.2863 C   0  0  0  0  0  0  0  0  0  0  0  0
  -30.2494   -2.4625   31.3104 C   0  0  0  0  0  0  0  0  0  0  0  0
  -31.1745   -3.4655   31.8952 C   0  0  0  0  0  0  0  0  0  0  0  0
  -32.4443   -2.9292   32.1109 C   0  0  0  0  0  0  0  0  0  0  0  0
  -33.4292   -3.8086   32.7758 C   0  0  0  0  0  0  0  0  0  0  0  0
  -33.1068   -4.4021   33.7996 N   0  0  0  0  0  0  0  0  0  0  0  0
  -34.6114   -3.7975   32.3822 O   0  0  0  0  0  0  0  0  0  0  0  0
  -31.7844   -4.4375   34.4580 C   0  0  0  0  0  0  0  0  0  0  0  0
  -30.9933   -5.6054   34.0823 C   0  0  0  0  0  0  0  0  0  0  0  0
  -29.6165   -5.3942   33.9975 C   0  0  0  0  0  0  0  0  0  0  0  0
  -29.0093   -4.2749   34.6266 C   0  0  0  0  0  0  0  0  0  0  0  0
  -29.7626   -3.1826   35.0857 C   0  0  0  0  0  0  0  0  0  0  0  0
  -31.1961   -3.3079   34.8813 C   0  0  0  0  0  0  0  0  0  0  0  0
  -31.9925   -2.1776   35.3749 C   0  0  0  0  0  0  0  0  0  0  0  0
  -32.7491   -2.2019   36.3607 C   0  0  0  0  0  0  0  0  0  0  0  0
  -31.5728   -0.8537   34.8584 C   0  0  0  0  0  0  0  0  0  0  0  0
  -32.3163    0.2859   35.2405 C   0  0  0  0  0  0  0  0  0  0  0  0
  -33.5452   -1.0700   36.7988 C   0  0  0  0  0  0  0  0  0  0  0  0
  -33.2583    0.1871   36.2359 C   0  0  0  0  0  0  0  0  0  0  0  0
  -30.3221   -0.7084   33.8277 Cl  0  0  0  0  0  0  0  0  0  0  0  0
  2  7  1  0
  7  8  1  0
  4  9  1  0
 19 20  1  0
 20 21  1  0
 20 22  2  0
 21 23  1  0
 28 29  1  0
 31 35  1  0
 23 24  2  0
 24 25  1  0
 25 26  2  0
 26 27  1  0
 27 28  2  0
 28 23  1  0
  8 15  2  0
 15 16  1  0
 16 19  2  0
 19 18  1  0
 18 17  2  0
 17  8  1  0
 29 30  2  0
 30 33  1  0
 33 34  2  0
 34 32  1  0
 32 31  2  0
 31 29  1  0
  9 10  2  0
 10 11  1  0
 11 14  2  0
 14 13  1  0
 13 12  2  0
 12  9  1  0
  1  2  2  0
  2  5  1  0
  5  6  2  0
  6  4  1  0
  4  3  2  0
  3  1  1  0
M  END

$$$$
