No_1609-gen_results/8p0m/2024-11-27-11-27-31/
     RDKit          3D

 18 20  0  0  0  0  0  0  0  0999 V2000
  -28.0162   -0.8135   28.8779 C   0  0  0  0  0  0  0  0  0  0  0  0
  -28.4690   -0.7850   29.8287 C   0  0  0  0  0  0  0  0  0  0  0  0
  -28.1960    0.3478   28.0550 C   0  0  0  0  0  0  0  0  0  0  0  0
  -27.4421    0.5100   26.7946 C   0  0  0  0  0  0  0  0  0  0  0  0
  -26.4394    0.8329   26.6142 C   0  0  0  0  0  0  0  0  0  0  0  0
  -25.7573    1.0165   25.3178 C   0  0  0  0  0  0  0  0  0  0  0  0
  -28.2652   -1.9584   30.8645 C   0  0  0  0  0  0  0  0  0  0  0  0
  -27.4035   -2.9619   30.4032 C   0  0  0  0  0  0  0  0  0  0  0  0
  -26.6030   -2.7298   29.3252 C   0  0  0  0  0  0  0  0  0  0  0  0
  -26.7743   -1.5722   28.6013 C   0  0  0  0  0  0  0  0  0  0  0  0
  -24.3876    1.3636   25.2070 C   0  0  0  0  0  0  0  0  0  0  0  0
  -23.5944    1.5754   26.3754 C   0  0  0  0  0  0  0  0  0  0  0  0
  -24.1648    1.3715   27.6242 C   0  0  0  0  0  0  0  0  0  0  0  0
  -25.4480    1.0134   27.7877 C   0  0  0  0  0  0  0  0  0  0  0  0
  -28.3990    0.1907   25.6658 C   0  0  0  0  0  0  0  0  0  0  0  0
  -29.4853    0.0012   25.6806 O   0  0  0  0  0  0  0  0  0  0  0  0
  -27.8363    0.4038   24.4324 N   0  0  0  0  0  0  0  0  0  0  0  0
  -26.5728    0.7789   24.2499 C   0  0  0  0  0  0  0  0  0  0  0  0
  1  3  1  0
  3  4  1  0
 15 16  1  0
  1  2  2  0
  2  7  1  0
  7  8  2  0
  8  9  1  0
  9 10  2  0
 10  1  1  0
  6 11  2  0
 11 12  1  0
 12 13  2  0
 13 14  1  0
 14  5  2  0
  4  5  1  0
  5  6  1  0
  6 18  1  0
 18 17  2  0
 17 15  1  0
 15  4  2  0
M  END

$$$$
