No_1679-gen_results/8p0m/2024-11-27-11-27-31/
     RDKit          3D

 22 24  0  0  0  0  0  0  0  0999 V2000
  -28.0162   -0.8135   28.8779 C   0  0  0  0  0  0  0  0  0  0  0  0
  -27.0636   -0.1190   28.6079 C   0  0  0  0  0  0  0  0  0  0  0  0
  -25.7923   -0.4302   29.0761 C   0  0  0  0  0  0  0  0  0  0  0  0
  -24.5456    0.3494   28.8225 C   0  0  0  0  0  0  0  0  0  0  0  0
  -24.6586    1.4196   27.8878 C   0  0  0  0  0  0  0  0  0  0  0  0
  -25.9471    1.6811   27.3792 C   0  0  0  0  0  0  0  0  0  0  0  0
  -27.0439    0.9739   27.6871 C   0  0  0  0  0  0  0  0  0  0  0  0
  -27.9229   -2.0316   29.0996 F   0  0  0  0  0  0  0  0  0  0  0  0
  -29.2598   -0.4544   28.8119 F   0  0  0  0  0  0  0  0  0  0  0  0
  -23.4622    2.1487   27.6087 C   0  0  0  0  0  0  0  0  0  0  0  0
  -23.4593    3.1504   26.8520 N   0  0  0  0  0  0  0  0  0  0  0  0
  -22.2947    1.7392   28.0052 O   0  0  0  0  0  0  0  0  0  0  0  0
  -24.7345    3.7280   26.3910 C   0  0  0  0  0  0  0  0  0  0  0  0
  -25.8834    2.9356   26.5157 C   0  0  0  0  0  0  0  0  0  0  0  0
  -27.1398    3.4558   25.9474 C   0  0  0  0  0  0  0  0  0  0  0  0
  -27.8894    4.4347   26.5180 N   0  0  0  0  0  0  0  0  0  0  0  0
  -29.1831    4.5881   26.2012 C   0  0  0  0  0  0  0  0  0  0  0  0
  -27.7273    2.5980   25.1292 O   0  0  0  0  0  0  0  0  0  0  0  0
  -27.2831    5.4264   27.3594 C   0  0  0  0  0  0  0  0  0  0  0  0
  -27.8042    6.4961   27.5868 C   0  0  0  0  0  0  0  0  0  0  0  0
  -29.2372    6.7051   27.2802 C   0  0  0  0  0  0  0  0  0  0  0  0
  -29.8409    5.8094   26.4730 C   0  0  0  0  0  0  0  0  0  0  0  0
  1  2  1  0
  1  8  1  0
  1  9  1  0
  5 10  1  0
 10 11  1  0
 10 12  2  0
 11 13  1  0
  6 14  1  0
 14 15  1  0
 15 16  1  0
 16 17  1  0
 15 18  2  0
 16 19  1  0
 20 21  1  0
 17 22  1  0
 22 21  1  0
 20 19  1  0
 14 13  1  0
  2  3  2  0
  3  4  1  0
  4  5  2  0
  5  6  1  0
  6  7  2  0
  7  2  1  0
M  END

$$$$
