No_1993-gen_results/8p0m/2024-11-27-11-27-31/
     RDKit          3D

 13 14  0  0  0  0  0  0  0  0999 V2000
  -28.0162   -0.8135   28.8779 C   0  0  0  0  0  0  0  0  0  0  0  0
  -28.4690   -0.7850   29.8287 C   0  0  0  0  0  0  0  0  0  0  0  0
  -27.0871    0.2903   28.6377 C   0  0  0  0  0  0  0  0  0  0  0  0
  -26.2516    0.4114   27.4223 C   0  0  0  0  0  0  0  0  0  0  0  0
  -28.3913    0.1041   30.9805 C   0  0  0  0  0  0  0  0  0  0  0  0
  -27.5332    1.1666   30.7866 C   0  0  0  0  0  0  0  0  0  0  0  0
  -26.8281    1.2557   29.6454 C   0  0  0  0  0  0  0  0  0  0  0  0
  -24.9667    0.4106   27.5253 C   0  0  0  0  0  0  0  0  0  0  0  0
  -24.2091    0.9177   26.3594 C   0  0  0  0  0  0  0  0  0  0  0  0
  -22.8371    1.3017   26.5567 C   0  0  0  0  0  0  0  0  0  0  0  0
  -22.2459    1.1230   27.8325 C   0  0  0  0  0  0  0  0  0  0  0  0
  -22.9608    0.6100   28.8794 C   0  0  0  0  0  0  0  0  0  0  0  0
  -24.3081    0.2835   28.7564 C   0  0  0  0  0  0  0  0  0  0  0  0
  3  4  1  0
  4  8  1  0
  8  9  2  0
  9 10  1  0
 10 11  2  0
 11 12  1  0
 12 13  2  0
 13  8  1  0
  1  2  2  0
  2  5  1  0
  5  6  2  0
  6  7  1  0
  7  3  2  0
  3  1  1  0
M  END

$$$$
