No_1279-gen_results/8p0m/2024-11-27-11-27-31/
     RDKit          3D

  7  6  0  0  0  0  0  0  0  0999 V2000
  -28.0162   -0.8135   28.8779 C   0  0  0  0  0  0  0  0  0  0  0  0
  -27.0636   -0.1189   28.6079 C   0  0  0  0  0  0  0  0  0  0  0  0
  -27.0425    0.2440   27.4277 F   0  0  0  0  0  0  0  0  0  0  0  0
  -29.5749   -0.0250   29.0803 Cl  0  0  0  0  0  0  0  0  0  0  0  0
  -26.9015    1.0318   29.3634 F   0  0  0  0  0  0  0  0  0  0  0  0
  -27.8476   -1.4838   30.2134 F   0  0  0  0  0  0  0  0  0  0  0  0
  -25.9045   -0.8587   28.7533 F   0  0  0  0  0  0  0  0  0  0  0  0
  1  2  1  0
  2  3  1  0
  1  4  1  0
  2  5  1  0
  1  6  1  0
  2  7  1  0
M  END

$$$$
