No_139-gen_results/8p0m/2024-11-27-11-27-31/
     RDKit          3D

 17 18  0  0  0  0  0  0  0  0999 V2000
  -28.0162   -0.8135   28.8779 C   0  0  0  0  0  0  0  0  0  0  0  0
  -27.0636   -0.1190   28.6079 C   0  0  0  0  0  0  0  0  0  0  0  0
  -26.9716    0.7139   27.5060 C   0  0  0  0  0  0  0  0  0  0  0  0
  -25.8205    1.4909   27.1160 C   0  0  0  0  0  0  0  0  0  0  0  0
  -24.6562    1.4242   27.9180 C   0  0  0  0  0  0  0  0  0  0  0  0
  -24.6847    0.5901   29.0659 C   0  0  0  0  0  0  0  0  0  0  0  0
  -25.8099   -0.1266   29.3338 C   0  0  0  0  0  0  0  0  0  0  0  0
  -28.6040   -0.5746   29.9955 O   0  0  0  0  0  0  0  0  0  0  0  0
  -23.6356    2.3566   27.5608 C   0  0  0  0  0  0  0  0  0  0  0  0
  -22.6265    2.3722   28.2896 O   0  0  0  0  0  0  0  0  0  0  0  0
  -23.5904    2.9430   26.4350 O   0  0  0  0  0  0  0  0  0  0  0  0
  -28.0860    0.7614   26.5655 C   0  0  0  0  0  0  0  0  0  0  0  0
  -27.8287    0.5652   25.2333 N   0  0  0  0  0  0  0  0  0  0  0  0
  -28.8081    0.2582   24.3751 C   0  0  0  0  0  0  0  0  0  0  0  0
  -29.3612    0.9679   26.9077 C   0  0  0  0  0  0  0  0  0  0  0  0
  -30.3952    0.8458   26.0385 C   0  0  0  0  0  0  0  0  0  0  0  0
  -30.1009    0.5024   24.6867 C   0  0  0  0  0  0  0  0  0  0  0  0
  1  2  2  3
  2  3  1  0
  3  4  1  0
  4  5  1  0
  5  6  1  0
  2  7  1  0
  6  7  1  0
  1  8  1  0
  5  9  1  0
  9 10  1  0
  9 11  2  0
  3 12  1  0
 12 13  2  0
 13 14  1  0
 14 17  2  0
 17 16  1  0
 16 15  2  0
 15 12  1  0
M  END

$$$$
