No_1646-gen_results/8p0m/2024-11-27-11-27-31/
     RDKit          3D

 17 18  0  0  0  0  0  0  0  0999 V2000
  -28.0162   -0.8135   28.8779 C   0  0  0  0  0  0  0  0  0  0  0  0
  -28.4690   -0.7850   29.8287 C   0  0  0  0  0  0  0  0  0  0  0  0
  -26.5042   -0.7777   28.8766 C   0  0  0  0  0  0  0  0  0  0  0  0
  -25.6540   -0.6597   27.7191 C   0  0  0  0  0  0  0  0  0  0  0  0
  -27.9180   -0.9374   31.1824 C   0  0  0  0  0  0  0  0  0  0  0  0
  -26.5423   -0.9399   31.2606 C   0  0  0  0  0  0  0  0  0  0  0  0
  -25.7832   -0.8935   30.1201 C   0  0  0  0  0  0  0  0  0  0  0  0
  -25.2134    0.6923   27.3830 C   0  0  0  0  0  0  0  0  0  0  0  0
  -23.9202    0.9215   27.7698 C   0  0  0  0  0  0  0  0  0  0  0  0
  -23.2576    2.1194   27.2629 C   0  0  0  0  0  0  0  0  0  0  0  0
  -23.9322    2.9640   26.4349 C   0  0  0  0  0  0  0  0  0  0  0  0
  -25.8566    1.4747   26.4320 C   0  0  0  0  0  0  0  0  0  0  0  0
  -25.2193    2.6095   25.9797 C   0  0  0  0  0  0  0  0  0  0  0  0
  -30.2748   -0.8011   29.8292 Cl  0  0  0  0  0  0  0  0  0  0  0  0
  -23.0879    0.1255   28.7085 C   0  0  0  0  0  0  0  0  0  0  0  0
  -21.7572    0.3049   28.9139 C   0  0  0  0  0  0  0  0  0  0  0  0
  -21.3372   -0.7500   29.7571 N   0  0  0  0  0  0  0  0  0  0  0  0
  3  4  1  0
  4  8  1  0
  2 14  1  0
  9 15  1  0
 15 16  2  3
 16 17  1  0
  1  2  2  0
  2  5  1  0
  5  6  2  0
  6  7  1  0
  7  3  2  0
  3  1  1  0
  8  9  2  0
  9 10  1  0
 10 11  2  0
 11 13  1  0
 13 12  2  0
 12  8  1  0
M  END

$$$$
