No_1579-gen_results/8p0m/2024-11-27-11-27-31/
     RDKit          3D

 20 22  0  0  0  0  0  0  0  0999 V2000
  -28.0162   -0.8135   28.8779 C   0  0  0  0  0  0  0  0  0  0  0  0
  -27.0636   -0.1190   28.6079 C   0  0  0  0  0  0  0  0  0  0  0  0
  -25.7647   -0.3897   29.0360 C   0  0  0  0  0  0  0  0  0  0  0  0
  -24.5516    0.4058   28.7646 C   0  0  0  0  0  0  0  0  0  0  0  0
  -23.2300    0.1178   29.2575 C   0  0  0  0  0  0  0  0  0  0  0  0
  -23.0942   -1.1309   29.8730 C   0  0  0  0  0  0  0  0  0  0  0  0
  -29.3447   -0.3638   28.7645 C   0  0  0  0  0  0  0  0  0  0  0  0
  -29.5539    0.7832   27.9962 C   0  0  0  0  0  0  0  0  0  0  0  0
  -28.4765    1.5048   27.5499 C   0  0  0  0  0  0  0  0  0  0  0  0
  -27.1351    1.1613   27.9146 C   0  0  0  0  0  0  0  0  0  0  0  0
  -25.3290   -1.6429   29.7172 C   0  0  0  0  0  0  0  0  0  0  0  0
  -24.0825   -1.9597   30.0875 C   0  0  0  0  0  0  0  0  0  0  0  0
  -30.8090    1.1770   27.7460 O   0  0  0  0  0  0  0  0  0  0  0  0
  -30.3499   -1.1208   29.1223 O   0  0  0  0  0  0  0  0  0  0  0  0
  -30.2141   -1.7931   30.3089 C   0  0  0  0  0  0  0  0  0  0  0  0
  -30.0019   -1.2589   31.4331 C   0  0  0  0  0  0  0  0  0  0  0  0
  -29.7278   -2.0002   32.5978 C   0  0  0  0  0  0  0  0  0  0  0  0
  -29.8607   -3.3641   32.5333 C   0  0  0  0  0  0  0  0  0  0  0  0
  -30.2513   -3.2556   30.2627 C   0  0  0  0  0  0  0  0  0  0  0  0
  -30.0242   -3.9655   31.3319 N   0  0  0  0  0  0  0  0  0  0  0  0
  2  3  1  0
  8 13  1  0
  7 14  1  0
 14 15  1  0
 15 16  2  0
 16 17  1  0
 17 18  2  0
 18 20  1  0
 20 19  2  0
 19 15  1  0
  1  2  2  0
  2 10  1  0
 10  9  2  0
  9  8  1  0
  8  7  2  0
  7  1  1  0
  3  4  2  0
  4  5  1  0
  5  6  2  0
  6 12  1  0
 12 11  2  0
 11  3  1  0
M  END

$$$$
