No_1534-gen_results/8p0m/2024-11-27-11-27-31/
     RDKit          3D

  4  3  0  0  0  0  0  0  0  0999 V2000
  -28.1493   -0.8198   28.9079 Cl  0  0  0  0  0  0  0  0  0  0  0  0
  -27.8339    0.4961   29.0598 C   0  0  0  0  0  0  0  0  0  0  0  0
  -27.5750    1.3858   28.2468 Br  0  0  0  0  0  0  0  0  0  0  0  0
  -27.7316    0.8706   30.4033 F   0  0  0  0  0  0  0  0  0  0  0  0
  1  2  1  0
  2  3  1  0
  2  4  1  0
M  END

$$$$
