No_1382-gen_results/8p0m/2024-11-27-11-27-31/
     RDKit          3D

 33 36  0  0  0  0  0  0  0  0999 V2000
  -28.0162   -0.8135   28.8779 C   0  0  0  0  0  0  0  0  0  0  0  0
  -28.4690   -0.7850   29.8287 C   0  0  0  0  0  0  0  0  0  0  0  0
  -27.1356    0.2359   28.5352 C   0  0  0  0  0  0  0  0  0  0  0  0
  -26.8745    1.2825   29.3982 C   0  0  0  0  0  0  0  0  0  0  0  0
  -27.2551    1.2314   30.3655 C   0  0  0  0  0  0  0  0  0  0  0  0
  -28.1836    0.2099   30.8967 C   0  0  0  0  0  0  0  0  0  0  0  0
  -26.4896    0.2375   27.1209 C   0  0  0  0  0  0  0  0  0  0  0  0
  -26.1659    1.3721   26.6585 N   0  0  0  0  0  0  0  0  0  0  0  0
  -24.9474    2.0706   27.0624 C   0  0  0  0  0  0  0  0  0  0  0  0
  -23.8591    1.4134   27.5299 C   0  0  0  0  0  0  0  0  0  0  0  0
  -23.6425    1.2412   28.8823 C   0  0  0  0  0  0  0  0  0  0  0  0
  -22.4350    0.5709   29.3465 C   0  0  0  0  0  0  0  0  0  0  0  0
  -21.4023    0.3274   28.4807 C   0  0  0  0  0  0  0  0  0  0  0  0
  -21.4876    0.8226   27.2021 C   0  0  0  0  0  0  0  0  0  0  0  0
  -22.6550    1.3948   26.7402 C   0  0  0  0  0  0  0  0  0  0  0  0
  -24.8151    3.2770   26.5344 O   0  0  0  0  0  0  0  0  0  0  0  0
  -27.2585    2.2164   26.2208 C   0  0  0  0  0  0  0  0  0  0  0  0
  -27.9446    1.5628   25.1822 C   0  0  0  0  0  0  0  0  0  0  0  0
  -29.0907    2.1393   24.6916 C   0  0  0  0  0  0  0  0  0  0  0  0
  -29.3787    3.5410   25.0733 C   0  0  0  0  0  0  0  0  0  0  0  0
  -28.5319    4.1564   26.0191 C   0  0  0  0  0  0  0  0  0  0  0  0
  -27.3940    3.5095   26.5591 C   0  0  0  0  0  0  0  0  0  0  0  0
  -25.7327   -0.6926   26.7347 O   0  0  0  0  0  0  0  0  0  0  0  0
  -27.0424    2.3674   31.5288 C   0  0  0  0  0  0  0  0  0  0  0  0
  -26.3622    2.3140   32.3437 C   0  0  0  0  0  0  0  0  0  0  0  0
  -25.9910    3.4311   33.3171 C   0  0  0  0  0  0  0  0  0  0  0  0
  -26.4992    4.6860   33.0106 C   0  0  0  0  0  0  0  0  0  0  0  0
  -27.6826    3.6772   31.1129 C   0  0  0  0  0  0  0  0  0  0  0  0
  -28.5585    3.8040   29.9863 C   0  0  0  0  0  0  0  0  0  0  0  0
  -27.3906    4.8257   31.8999 C   0  0  0  0  0  0  0  0  0  0  0  0
  -29.9226    4.0891   30.3862 C   0  0  0  0  0  0  0  0  0  0  0  0
  -30.7559    4.0608   29.4666 O   0  0  0  0  0  0  0  0  0  0  0  0
  -30.2964    4.3401   31.5632 O   0  0  0  0  0  0  0  0  0  0  0  0
  3  7  1  0
  7  8  1  0
  8  9  1  0
  9 10  1  0
  9 16  2  0
  8 17  1  0
  7 23  2  0
  5 24  1  0
 28 29  1  0
 29 31  1  0
 31 32  2  0
 31 33  1  0
 17 18  2  0
 18 19  1  0
 19 20  2  0
 20 21  1  0
 21 22  2  0
 22 17  1  0
  1  2  2  0
  2  6  1  0
  6  5  2  0
  5  4  1  0
  4  3  2  0
  3  1  1  0
 10 11  2  0
 11 12  1  0
 12 13  2  0
 13 14  1  0
 14 15  2  0
 15 10  1  0
 24 25  2  0
 25 26  1  0
 26 27  2  0
 27 30  1  0
 30 28  2  0
 28 24  1  0
M  END

$$$$
