No_1210-gen_results/8p0m/2024-11-27-11-27-31/
     RDKit          3D

 14 16  0  0  0  0  0  0  0  0999 V2000
  -28.0162   -0.8135   28.8779 C   0  0  0  0  0  0  0  0  0  0  0  0
  -27.0636   -0.1189   28.6079 C   0  0  0  0  0  0  0  0  0  0  0  0
  -26.9716    0.7139   27.5060 C   0  0  0  0  0  0  0  0  0  0  0  0
  -28.1053    0.7744   26.6421 C   0  0  0  0  0  0  0  0  0  0  0  0
  -29.2041    0.1179   27.0477 C   0  0  0  0  0  0  0  0  0  0  0  0
  -29.2127   -0.6088   28.1281 C   0  0  0  0  0  0  0  0  0  0  0  0
  -25.7106    1.4518   27.1380 C   0  0  0  0  0  0  0  0  0  0  0  0
  -24.6052    0.9253   27.6902 C   0  0  0  0  0  0  0  0  0  0  0  0
  -24.6227    0.0600   28.8225 C   0  0  0  0  0  0  0  0  0  0  0  0
  -25.7269   -0.4734   29.2409 C   0  0  0  0  0  0  0  0  0  0  0  0
  -23.2721    1.6772   27.4376 C   0  0  0  0  0  0  0  0  0  0  0  0
  -22.0558    1.1594   27.9304 C   0  0  0  0  0  0  0  0  0  0  0  0
  -22.1179    0.1179   28.9237 C   0  0  0  0  0  0  0  0  0  0  0  0
  -23.3581   -0.4059   29.3649 C   0  0  0  0  0  0  0  0  0  0  0  0
  1  2  2  0
  3  4  2  0
  4  5  1  0
  5  6  2  0
  6  1  1  0
  9 14  1  0
 14 13  2  0
 13 12  1  0
 12 11  2  0
 11  8  1  0
  2  3  1  0
  3  7  1  0
  7  8  2  0
  8  9  1  0
  9 10  2  0
 10  2  1  0
M  END

$$$$
