No_1794-gen_results/8p0m/2024-11-27-11-27-31/
     RDKit          3D

 14 15  0  0  0  0  0  0  0  0999 V2000
  -28.0162   -0.8135   28.8779 C   0  0  0  0  0  0  0  0  0  0  0  0
  -28.4690   -0.7850   29.8287 C   0  0  0  0  0  0  0  0  0  0  0  0
  -26.5042   -0.7777   28.8766 C   0  0  0  0  0  0  0  0  0  0  0  0
  -25.8103   -0.8531   30.1028 C   0  0  0  0  0  0  0  0  0  0  0  0
  -27.9906   -0.8916   31.2257 C   0  0  0  0  0  0  0  0  0  0  0  0
  -26.6042   -0.8676   31.2652 C   0  0  0  0  0  0  0  0  0  0  0  0
  -30.0773   -0.8857   30.0240 C   0  0  0  0  0  0  0  0  0  0  0  0
  -30.6406   -1.8993   30.1420 O   0  0  0  0  0  0  0  0  0  0  0  0
  -30.6899    0.3278   30.2049 N   0  0  0  0  0  0  0  0  0  0  0  0
  -32.1049    0.3556   30.2497 C   0  0  0  0  0  0  0  0  0  0  0  0
  -29.9743    1.6026   30.1832 C   0  0  0  0  0  0  0  0  0  0  0  0
  -30.3512    2.3401   29.1904 C   0  0  0  0  0  0  0  0  0  0  0  0
  -31.7879    2.6735   29.1163 C   0  0  0  0  0  0  0  0  0  0  0  0
  -32.5866    1.3732   29.2120 C   0  0  0  0  0  0  0  0  0  0  0  0
  2  7  1  0
  7  8  2  0
  7  9  1  0
  9 10  1  0
  9 11  1  0
 12 13  1  0
 10 14  1  0
 13 14  1  0
 12 11  1  0
  1  2  2  0
  2  5  1  0
  5  6  2  0
  6  4  1  0
  4  3  2  0
  3  1  1  0
M  END

$$$$
