No_1662-gen_results/8p0m/2024-11-27-11-27-31/
     RDKit          3D

 27 29  0  0  0  0  0  0  0  0999 V2000
  -28.1229   -1.3353   28.4874 O   0  0  0  0  0  0  0  0  0  0  0  0
  -27.0637   -0.8242   28.8687 C   0  0  0  0  0  0  0  0  0  0  0  0
  -25.9464   -1.0396   28.8492 C   0  0  0  0  0  0  0  0  0  0  0  0
  -25.3522   -2.2524   28.5471 C   0  0  0  0  0  0  0  0  0  0  0  0
  -27.2898    0.4084   29.7412 N   0  0  0  0  0  0  0  0  0  0  0  0
  -28.5308    0.9464   29.9764 C   0  0  0  0  0  0  0  0  0  0  0  0
  -24.8543   -0.1533   28.6512 C   0  0  0  0  0  0  0  0  0  0  0  0
  -23.4466   -0.3922   28.6830 C   0  0  0  0  0  0  0  0  0  0  0  0
  -23.9857   -2.6927   28.6772 C   0  0  0  0  0  0  0  0  0  0  0  0
  -22.4090    0.6708   28.6636 C   0  0  0  0  0  0  0  0  0  0  0  0
  -23.0348   -1.7550   28.7479 C   0  0  0  0  0  0  0  0  0  0  0  0
  -22.1972    1.1185   29.7455 F   0  0  0  0  0  0  0  0  0  0  0  0
  -22.2718    1.3318   27.8748 F   0  0  0  0  0  0  0  0  0  0  0  0
  -28.5244    1.9048   30.6568 C   0  0  0  0  0  0  0  0  0  0  0  0
  -29.6493    2.7208   30.9929 C   0  0  0  0  0  0  0  0  0  0  0  0
  -30.8829    2.2458   30.4924 C   0  0  0  0  0  0  0  0  0  0  0  0
  -30.8825    1.1160   29.6923 C   0  0  0  0  0  0  0  0  0  0  0  0
  -29.7271    0.4566   29.4108 C   0  0  0  0  0  0  0  0  0  0  0  0
  -32.1503    0.6040   29.1376 C   0  0  0  0  0  0  0  0  0  0  0  0
  -33.2174    0.9503   29.2728 N   0  0  0  0  0  0  0  0  0  0  0  0
  -32.0096   -0.5815   28.5722 O   0  0  0  0  0  0  0  0  0  0  0  0
  -34.4602    0.3991   28.7590 C   0  0  0  0  0  0  0  0  0  0  0  0
  -21.1549   -0.1879   28.6156 F   0  0  0  0  0  0  0  0  0  0  0  0
  -35.5483    1.0823   29.0294 C   0  0  0  0  0  0  0  0  0  0  0  0
  -35.4851    2.1710   29.6628 C   0  0  0  0  0  0  0  0  0  0  0  0
  -34.3898    2.8465   30.1932 C   0  0  0  0  0  0  0  0  0  0  0  0
  -33.2801    2.2731   29.9952 C   0  0  0  0  0  0  0  0  0  0  0  0
  1  2  2  0
  2  3  1  0
  2  5  1  0
  5  6  1  0
  8 10  1  0
 10 12  1  0
 10 13  1  0
 17 19  1  0
 19 20  1  0
 19 21  2  0
 20 22  1  0
 10 23  1  0
 22 24  1  0
 24 25  1  0
 20 27  1  0
 26 27  1  0
 25 26  1  0
  3  4  2  0
  4  9  1  0
  9 11  2  0
 11  8  1  0
  8  7  2  0
  7  3  1  0
  6 14  2  0
 14 15  1  0
 15 16  2  0
 16 17  1  0
 17 18  2  0
 18  6  1  0
M  END

$$$$
