No_1329-gen_results/8p0m/2024-11-27-11-27-31/
     RDKit          3D

 27 30  0  0  0  0  0  0  0  0999 V2000
  -28.0162   -0.8135   28.8779 C   0  0  0  0  0  0  0  0  0  0  0  0
  -27.0636   -0.1190   28.6079 C   0  0  0  0  0  0  0  0  0  0  0  0
  -25.7923   -0.4302   29.0761 C   0  0  0  0  0  0  0  0  0  0  0  0
  -24.5456    0.3494   28.8225 C   0  0  0  0  0  0  0  0  0  0  0  0
  -24.6586    1.4196   27.8878 C   0  0  0  0  0  0  0  0  0  0  0  0
  -25.9471    1.6811   27.3792 C   0  0  0  0  0  0  0  0  0  0  0  0
  -27.0439    0.9739   27.6871 C   0  0  0  0  0  0  0  0  0  0  0  0
  -28.6567   -0.5529   30.0960 N   0  0  0  0  0  0  0  0  0  0  0  0
  -29.6293   -1.2869   30.6343 C   0  0  0  0  0  0  0  0  0  0  0  0
  -30.1911   -2.2456   29.9703 C   0  0  0  0  0  0  0  0  0  0  0  0
  -31.2795   -2.9040   30.6011 C   0  0  0  0  0  0  0  0  0  0  0  0
  -31.7073   -2.5872   31.8226 C   0  0  0  0  0  0  0  0  0  0  0  0
  -31.1298   -1.5727   32.5428 C   0  0  0  0  0  0  0  0  0  0  0  0
  -30.0466   -0.8397   31.9608 C   0  0  0  0  0  0  0  0  0  0  0  0
  -23.3565    1.8444   27.5636 C   0  0  0  0  0  0  0  0  0  0  0  0
  -22.2267    1.4951   28.1547 N   0  0  0  0  0  0  0  0  0  0  0  0
  -22.2444    0.3548   28.7752 C   0  0  0  0  0  0  0  0  0  0  0  0
  -23.3681   -0.2443   29.2577 C   0  0  0  0  0  0  0  0  0  0  0  0
  -28.1404    0.6523   30.8788 C   0  0  0  0  0  0  0  0  0  0  0  0
  -27.4290    1.6521   30.3281 C   0  0  0  0  0  0  0  0  0  0  0  0
  -28.0298    2.6586   29.6734 C   0  0  0  0  0  0  0  0  0  0  0  0
  -27.2848    3.9030   29.5604 C   0  0  0  0  0  0  0  0  0  0  0  0
  -27.8021    5.0163   28.8254 C   0  0  0  0  0  0  0  0  0  0  0  0
  -26.2006    2.0019   30.9185 C   0  0  0  0  0  0  0  0  0  0  0  0
  -25.5048    3.2125   30.9585 C   0  0  0  0  0  0  0  0  0  0  0  0
  -26.0188    4.1423   30.1966 C   0  0  0  0  0  0  0  0  0  0  0  0
  -28.5791    0.7896   32.0996 O   0  0  0  0  0  0  0  0  0  0  0  0
  1  2  1  0
  1  8  1  0
  8  9  1  0
  8 19  1  0
 19 20  1  0
 19 27  2  0
 23 22  1  0
  2  3  2  0
  3  4  1  0
  5  6  1  0
  6  7  2  0
  7  2  1  0
  9 10  2  0
 10 11  1  0
 11 12  2  0
 12 13  1  0
 13 14  2  0
 14  9  1  0
 20 21  2  0
 21 22  1  0
 22 26  2  0
 26 25  1  0
 25 24  2  0
 24 20  1  0
  4  5  2  0
  5 15  1  0
 15 16  2  0
 16 17  1  0
 17 18  2  0
 18  4  1  0
M  END

$$$$
