No_1162-gen_results/8p0m/2024-11-27-11-27-31/
     RDKit          3D

 35 38  0  0  0  0  0  0  0  0999 V2000
  -28.0162   -0.8135   28.8779 C   0  0  0  0  0  0  0  0  0  0  0  0
  -27.0636   -0.1190   28.6079 C   0  0  0  0  0  0  0  0  0  0  0  0
  -25.7923   -0.4302   29.0761 C   0  0  0  0  0  0  0  0  0  0  0  0
  -25.5756   -1.5654   29.9363 C   0  0  0  0  0  0  0  0  0  0  0  0
  -26.7354   -2.3004   30.2173 C   0  0  0  0  0  0  0  0  0  0  0  0
  -27.9184   -1.9537   29.7629 C   0  0  0  0  0  0  0  0  0  0  0  0
  -29.0001   -2.7012   30.1151 O   0  0  0  0  0  0  0  0  0  0  0  0
  -24.5290    0.3490   28.7998 C   0  0  0  0  0  0  0  0  0  0  0  0
  -24.4808    1.2113   27.7998 C   0  0  0  0  0  0  0  0  0  0  0  0
  -23.2478    1.8974   27.4951 C   0  0  0  0  0  0  0  0  0  0  0  0
  -22.0497    1.5890   28.1642 C   0  0  0  0  0  0  0  0  0  0  0  0
  -23.3072    0.0149   29.4618 C   0  0  0  0  0  0  0  0  0  0  0  0
  -22.0852    0.6899   29.1374 C   0  0  0  0  0  0  0  0  0  0  0  0
  -28.8808   -3.9653   30.6064 C   0  0  0  0  0  0  0  0  0  0  0  0
  -30.1311   -4.6678   30.7784 C   0  0  0  0  0  0  0  0  0  0  0  0
  -31.0146   -4.0107   31.4411 C   0  0  0  0  0  0  0  0  0  0  0  0
  -32.1268   -4.4999   31.6490 O   0  0  0  0  0  0  0  0  0  0  0  0
  -29.7773   -5.9263   31.4304 O   0  0  0  0  0  0  0  0  0  0  0  0
  -29.2635   -0.5338   28.4641 O   0  0  0  0  0  0  0  0  0  0  0  0
  -30.1812    0.0851   29.2656 C   0  0  0  0  0  0  0  0  0  0  0  0
  -29.9752    1.2739   29.7074 C   0  0  0  0  0  0  0  0  0  0  0  0
  -30.8032    1.8206   30.6771 C   0  0  0  0  0  0  0  0  0  0  0  0
  -31.4210   -0.6043   29.4746 C   0  0  0  0  0  0  0  0  0  0  0  0
  -32.3273   -0.0662   30.3524 C   0  0  0  0  0  0  0  0  0  0  0  0
  -32.0638    1.2020   30.9274 C   0  0  0  0  0  0  0  0  0  0  0  0
  -33.0610    1.7859   31.8479 C   0  0  0  0  0  0  0  0  0  0  0  0
  -32.8914    2.7582   32.4909 O   0  0  0  0  0  0  0  0  0  0  0  0
  -34.3312    1.2931   31.6748 N   0  0  0  0  0  0  0  0  0  0  0  0
  -35.3940    1.7989   32.4780 C   0  0  0  0  0  0  0  0  0  0  0  0
  -36.5537    1.3291   32.2225 C   0  0  0  0  0  0  0  0  0  0  0  0
  -37.7189    1.7711   32.9422 C   0  0  0  0  0  0  0  0  0  0  0  0
  -37.5267    2.7854   33.9531 C   0  0  0  0  0  0  0  0  0  0  0  0
  -36.2348    3.2428   34.1456 C   0  0  0  0  0  0  0  0  0  0  0  0
  -35.1688    2.7844   33.4461 C   0  0  0  0  0  0  0  0  0  0  0  0
  -38.6950    3.2392   34.6717 C   0  0  0  0  0  0  0  0  0  0  0  0
  6  7  1  0
  3  8  1  0
  7 14  1  0
 14 15  1  0
 15 16  1  0
 16 17  2  0
 15 18  1  0
  1 19  1  0
 19 20  1  0
 25 26  1  0
 26 27  2  0
 26 28  1  0
 28 29  1  0
 32 35  1  0
 29 30  2  0
 30 31  1  0
 31 32  2  0
 32 33  1  0
 33 34  2  0
 34 29  1  0
  1  2  2  0
  2  3  1  0
  3  4  2  0
  4  5  1  0
  5  6  2  0
  6  1  1  0
 20 21  2  0
 21 22  1  0
 22 25  2  0
 25 24  1  0
 24 23  2  0
 23 20  1  0
  8  9  2  0
  9 10  1  0
 10 11  2  0
 11 13  1  0
 13 12  2  0
 12  8  1  0
M  END

$$$$
