No_1546-gen_results/8p0m/2024-11-27-11-27-31/
     RDKit          3D

 12 12  0  0  0  0  0  0  0  0999 V2000
  -28.1229   -1.3353   28.4874 O   0  0  0  0  0  0  0  0  0  0  0  0
  -27.4806   -0.4044   28.7094 C   0  0  0  0  0  0  0  0  0  0  0  0
  -27.1904    0.2460   29.5268 C   0  0  0  0  0  0  0  0  0  0  0  0
  -26.6872   -0.0001   27.4423 N   0  0  0  0  0  0  0  0  0  0  0  0
  -26.3501    1.4331   29.7418 C   0  0  0  0  0  0  0  0  0  0  0  0
  -25.8648    1.0936   27.4148 C   0  0  0  0  0  0  0  0  0  0  0  0
  -25.6589    1.8314   28.5720 C   0  0  0  0  0  0  0  0  0  0  0  0
  -24.7826    2.9683   28.5480 C   0  0  0  0  0  0  0  0  0  0  0  0
  -24.6909    3.6230   29.4784 O   0  0  0  0  0  0  0  0  0  0  0  0
  -24.3690    3.4697   27.4036 O   0  0  0  0  0  0  0  0  0  0  0  0
  -27.8914   -0.1151   30.9436 C   0  0  0  0  0  0  0  0  0  0  0  0
  -28.8791   -0.9129   30.9165 C   0  0  0  0  0  0  0  0  0  0  0  0
  1  2  2  0
  2  3  1  0
  2  4  1  0
  4  6  1  0
  5  7  1  0
  6  7  1  0
  7  8  1  0
  8  9  2  0
  8 10  1  0
  3 11  1  0
 11 12  1  0
  3  5  1  0
M  END

$$$$
