No_1402-gen_results/8p0m/2024-11-27-11-27-31/
     RDKit          3D

 19 20  0  0  0  0  0  0  0  0999 V2000
  -28.0162   -0.8135   28.8779 C   0  0  0  0  0  0  0  0  0  0  0  0
  -28.4690   -0.7850   29.8287 C   0  0  0  0  0  0  0  0  0  0  0  0
  -27.0871    0.2903   28.6377 C   0  0  0  0  0  0  0  0  0  0  0  0
  -26.0239    0.3644   29.2526 C   0  0  0  0  0  0  0  0  0  0  0  0
  -27.5370   -0.6187   31.0883 C   0  0  0  0  0  0  0  0  0  0  0  0
  -26.3844    0.1834   30.8012 C   0  0  0  0  0  0  0  0  0  0  0  0
  -29.5244   -1.6146   30.2656 O   0  0  0  0  0  0  0  0  0  0  0  0
  -30.7330   -1.2675   29.8544 C   0  0  0  0  0  0  0  0  0  0  0  0
  -31.6769   -1.2275   30.8277 C   0  0  0  0  0  0  0  0  0  0  0  0
  -32.9232   -0.7833   30.4519 C   0  0  0  0  0  0  0  0  0  0  0  0
  -33.1490   -0.5803   29.0864 C   0  0  0  0  0  0  0  0  0  0  0  0
  -32.1944   -0.7029   28.1289 C   0  0  0  0  0  0  0  0  0  0  0  0
  -30.9410   -1.0471   28.5141 C   0  0  0  0  0  0  0  0  0  0  0  0
  -32.4592   -0.4186   26.7047 C   0  0  0  0  0  0  0  0  0  0  0  0
  -32.7214   -1.3402   25.9337 O   0  0  0  0  0  0  0  0  0  0  0  0
  -32.3291    0.7595   26.2392 O   0  0  0  0  0  0  0  0  0  0  0  0
  -26.9514    0.7679   27.1592 C   0  0  0  0  0  0  0  0  0  0  0  0
  -25.8729    0.8967   26.5447 C   0  0  0  0  0  0  0  0  0  0  0  0
  -24.5805    0.8542   27.3519 C   0  0  0  0  0  0  0  0  0  0  0  0
  2  7  1  0
  7  8  1  0
 12 14  1  0
 14 15  2  0
 14 16  1  0
  3 17  1  0
 17 18  2  3
 18 19  1  0
  8  9  2  0
  9 10  1  0
 10 11  2  0
 11 12  1  0
 12 13  2  0
 13  8  1  0
  1  2  2  0
  2  5  1  0
  5  6  2  0
  6  4  1  0
  4  3  2  0
  3  1  1  0
M  END

$$$$
