No_1085-gen_results/8p0m/2024-11-27-11-27-31/
     RDKit          3D

 35 37  0  0  0  0  0  0  0  0999 V2000
  -28.0162   -0.8135   28.8779 C   0  0  0  0  0  0  0  0  0  0  0  0
  -28.4690   -0.7850   29.8287 C   0  0  0  0  0  0  0  0  0  0  0  0
  -26.5455   -0.8762   28.8500 C   0  0  0  0  0  0  0  0  0  0  0  0
  -25.8041   -1.0324   30.0571 C   0  0  0  0  0  0  0  0  0  0  0  0
  -27.9437   -0.9869   31.2075 C   0  0  0  0  0  0  0  0  0  0  0  0
  -26.5825   -1.0386   31.2231 C   0  0  0  0  0  0  0  0  0  0  0  0
  -29.9186   -0.6439   29.7328 O   0  0  0  0  0  0  0  0  0  0  0  0
  -30.4381    0.0403   28.8370 C   0  0  0  0  0  0  0  0  0  0  0  0
  -31.0789    1.1541   29.0889 C   0  0  0  0  0  0  0  0  0  0  0  0
  -31.7172    1.9238   28.0430 C   0  0  0  0  0  0  0  0  0  0  0  0
  -31.6645    1.4236   26.7336 C   0  0  0  0  0  0  0  0  0  0  0  0
  -30.9937    0.2534   26.4876 C   0  0  0  0  0  0  0  0  0  0  0  0
  -30.3975   -0.4484   27.4903 C   0  0  0  0  0  0  0  0  0  0  0  0
  -30.9122   -0.2832   25.1071 C   0  0  0  0  0  0  0  0  0  0  0  0
  -31.1301    0.0797   24.1278 O   0  0  0  0  0  0  0  0  0  0  0  0
  -30.7900   -1.7538   25.1908 O   0  0  0  0  0  0  0  0  0  0  0  0
  -24.3769   -1.1487   30.0652 C   0  0  0  0  0  0  0  0  0  0  0  0
  -23.6250   -1.0246   29.0228 C   0  0  0  0  0  0  0  0  0  0  0  0
  -22.1590   -0.9066   29.1223 C   0  0  0  0  0  0  0  0  0  0  0  0
  -21.6518    0.3510   29.0511 C   0  0  0  0  0  0  0  0  0  0  0  0
  -21.9209    1.2288   27.9272 C   0  0  0  0  0  0  0  0  0  0  0  0
  -23.2223    1.1666   27.3839 C   0  0  0  0  0  0  0  0  0  0  0  0
  -24.1673    0.5091   28.4684 C   0  0  0  0  0  0  0  0  0  0  0  0
  -23.7384    2.1576   26.5608 C   0  0  0  0  0  0  0  0  0  0  0  0
  -23.1339    2.1795   25.5266 F   0  0  0  0  0  0  0  0  0  0  0  0
  -25.0733    1.7688   26.2230 F   0  0  0  0  0  0  0  0  0  0  0  0
  -24.0640    3.3345   27.0116 F   0  0  0  0  0  0  0  0  0  0  0  0
  -32.4532    3.1746   28.3541 C   0  0  0  0  0  0  0  0  0  0  0  0
  -32.0973    4.0481   28.9365 O   0  0  0  0  0  0  0  0  0  0  0  0
  -33.7343    3.0144   28.0237 O   0  0  0  0  0  0  0  0  0  0  0  0
  -28.7810   -1.0420   32.3857 C   0  0  0  0  0  0  0  0  0  0  0  0
  -29.8797   -0.4269   32.4793 O   0  0  0  0  0  0  0  0  0  0  0  0
  -29.7410    0.6906   33.3142 C   0  0  0  0  0  0  0  0  0  0  0  0
  -29.0935    1.6027   32.8842 C   0  0  0  0  0  0  0  0  0  0  0  0
  -29.1210    2.7610   33.6088 C   0  0  0  0  0  0  0  0  0  0  0  0
  2  7  1  0
  7  8  1  0
 12 14  1  0
 14 15  2  0
 14 16  1  0
  4 17  1  0
 22 24  1  0
 24 25  1  0
 24 26  1  0
 24 27  1  0
 10 28  1  0
 28 29  2  0
 28 30  1  0
  5 31  1  0
 31 32  1  0
 32 33  1  0
 33 34  1  0
 34 35  2  0
 17 18  1  0
 18 19  2  0
 19 20  1  0
 20 21  2  0
 21 22  1  0
 22 23  2  0
 23 18  1  0
  8  9  2  0
  9 10  1  0
 10 11  2  0
 11 12  1  0
 12 13  2  0
 13  8  1  0
  1  2  2  0
  2  5  1  0
  5  6  2  0
  6  4  1  0
  4  3  2  0
  3  1  1  0
M  END

$$$$
