No_1953-gen_results/8p0m/2024-11-27-11-27-31/
     RDKit          3D

 21 22  0  0  0  0  0  0  0  0999 V2000
  -28.0162   -0.8135   28.8779 C   0  0  0  0  0  0  0  0  0  0  0  0
  -28.4690   -0.7850   29.8287 C   0  0  0  0  0  0  0  0  0  0  0  0
  -26.5455   -0.8762   28.8500 C   0  0  0  0  0  0  0  0  0  0  0  0
  -25.8041   -1.0324   30.0571 C   0  0  0  0  0  0  0  0  0  0  0  0
  -27.9437   -0.9869   31.2075 C   0  0  0  0  0  0  0  0  0  0  0  0
  -26.5825   -1.0386   31.2231 C   0  0  0  0  0  0  0  0  0  0  0  0
  -29.9267   -0.7257   29.8772 O   0  0  0  0  0  0  0  0  0  0  0  0
  -30.5256    0.4218   30.2407 C   0  0  0  0  0  0  0  0  0  0  0  0
  -31.6092    0.5419   29.9850 C   0  0  0  0  0  0  0  0  0  0  0  0
  -32.3220    1.8295   30.2977 C   0  0  0  0  0  0  0  0  0  0  0  0
  -31.5730    2.8330   30.9276 C   0  0  0  0  0  0  0  0  0  0  0  0
  -30.2402    2.5808   31.1918 C   0  0  0  0  0  0  0  0  0  0  0  0
  -29.6450    1.4215   30.8720 C   0  0  0  0  0  0  0  0  0  0  0  0
  -24.3837   -1.1727   30.0601 C   0  0  0  0  0  0  0  0  0  0  0  0
  -23.8127   -0.0452   30.1501 F   0  0  0  0  0  0  0  0  0  0  0  0
  -23.9499   -1.9616   31.0727 F   0  0  0  0  0  0  0  0  0  0  0  0
  -23.7866   -1.9182   28.5777 Cl  0  0  0  0  0  0  0  0  0  0  0  0
  -32.2052    3.9801   31.2780 O   0  0  0  0  0  0  0  0  0  0  0  0
  -31.7956    4.6043   32.3418 C   0  0  0  0  0  0  0  0  0  0  0  0
  -32.5426    5.6438   32.7864 C   0  0  0  0  0  0  0  0  0  0  0  0
  -32.1816    6.3850   33.9914 C   0  0  0  0  0  0  0  0  0  0  0  0
  2  7  1  0
  7  8  1  0
  4 14  1  0
 14 15  1  0
 14 16  1  0
 14 17  1  0
 11 18  1  0
 18 19  1  0
 19 20  2  3
 20 21  1  0
  8  9  2  0
  9 10  1  0
 10 11  2  0
 11 12  1  0
 12 13  2  0
 13  8  1  0
  1  2  2  0
  2  5  1  0
  5  6  2  0
  6  4  1  0
  4  3  2  0
  3  1  1  0
M  END

$$$$
