No_1675-gen_results/8p0m/2024-11-27-11-27-31/
     RDKit          3D

 22 25  0  0  0  0  0  0  0  0999 V2000
  -28.0162   -0.8135   28.8779 C   0  0  0  0  0  0  0  0  0  0  0  0
  -28.4690   -0.7850   29.8287 C   0  0  0  0  0  0  0  0  0  0  0  0
  -27.1356    0.2359   28.5352 C   0  0  0  0  0  0  0  0  0  0  0  0
  -26.8745    1.2825   29.3982 C   0  0  0  0  0  0  0  0  0  0  0  0
  -27.5070    1.2380   30.6295 C   0  0  0  0  0  0  0  0  0  0  0  0
  -28.3293    0.1745   30.9350 C   0  0  0  0  0  0  0  0  0  0  0  0
  -26.4077    0.3070   27.2259 C   0  0  0  0  0  0  0  0  0  0  0  0
  -25.0105    0.3902   27.3228 C   0  0  0  0  0  0  0  0  0  0  0  0
  -26.9486    1.2304   26.2285 C   0  0  0  0  0  0  0  0  0  0  0  0
  -24.2362   -0.3254   28.2425 C   0  0  0  0  0  0  0  0  0  0  0  0
  -22.9278   -0.0713   28.6415 C   0  0  0  0  0  0  0  0  0  0  0  0
  -22.2811    1.0086   27.9171 C   0  0  0  0  0  0  0  0  0  0  0  0
  -23.0219    1.7923   26.9931 C   0  0  0  0  0  0  0  0  0  0  0  0
  -24.3353    1.5431   26.8034 C   0  0  0  0  0  0  0  0  0  0  0  0
  -28.1080    0.7540   25.5985 C   0  0  0  0  0  0  0  0  0  0  0  0
  -25.8989    1.7151   25.3090 C   0  0  0  0  0  0  0  0  0  0  0  0
  -24.8636    2.1555   25.7174 N   0  0  0  0  0  0  0  0  0  0  0  0
  -27.4044    2.6077   26.9707 C   0  0  0  0  0  0  0  0  0  0  0  0
  -28.8157    1.5220   24.5989 C   0  0  0  0  0  0  0  0  0  0  0  0
  -28.3452    3.4882   26.1577 C   0  0  0  0  0  0  0  0  0  0  0  0
  -29.3581    2.7832   25.4133 C   0  0  0  0  0  0  0  0  0  0  0  0
  -26.4184   -1.1401   26.4348 C   0  0  0  0  0  0  0  0  0  0  0  0
  3  7  1  0
  7  8  1  0
  7  9  1  0
  9 15  1  0
  9 16  1  0
 14 17  1  0
 16 17  1  0
  9 18  1  0
 15 19  1  0
 18 20  1  0
 19 21  1  0
 20 21  1  0
  7 22  1  0
  8 10  2  0
 10 11  1  0
 11 12  2  0
 12 13  1  0
 13 14  2  0
 14  8  1  0
  1  2  2  0
  2  6  1  0
  6  5  2  0
  5  4  1  0
  4  3  2  0
  3  1  1  0
M  END

$$$$
