No_1074-gen_results/8p0m/2024-11-27-11-27-31/
     RDKit          3D

 34 38  0  0  0  0  0  0  0  0999 V2000
  -28.0162   -0.8135   28.8779 C   0  0  0  0  0  0  0  0  0  0  0  0
  -28.4690   -0.7850   29.8287 C   0  0  0  0  0  0  0  0  0  0  0  0
  -28.1816    0.4277   28.1134 C   0  0  0  0  0  0  0  0  0  0  0  0
  -27.0280    0.9338   27.5279 C   0  0  0  0  0  0  0  0  0  0  0  0
  -29.8654   -0.6573   30.0468 C   0  0  0  0  0  0  0  0  0  0  0  0
  -27.0821    2.0872   26.7153 C   0  0  0  0  0  0  0  0  0  0  0  0
  -30.3551    0.3177   29.1200 C   0  0  0  0  0  0  0  0  0  0  0  0
  -29.4261    0.9833   28.2132 C   0  0  0  0  0  0  0  0  0  0  0  0
  -25.7428    0.3443   27.5186 C   0  0  0  0  0  0  0  0  0  0  0  0
  -24.6368    0.8866   26.8414 C   0  0  0  0  0  0  0  0  0  0  0  0
  -24.7491    2.0569   26.1380 C   0  0  0  0  0  0  0  0  0  0  0  0
  -25.9584    2.6948   26.1246 C   0  0  0  0  0  0  0  0  0  0  0  0
  -31.5823    0.8687   29.2862 O   0  0  0  0  0  0  0  0  0  0  0  0
  -23.1256    2.7812   25.4858 Br  0  0  0  0  0  0  0  0  0  0  0  0
  -31.8227    1.8209   30.1308 C   0  0  0  0  0  0  0  0  0  0  0  0
  -31.4421    2.0967   31.0702 C   0  0  0  0  0  0  0  0  0  0  0  0
  -32.9034    2.7836   29.4545 C   0  0  0  0  0  0  0  0  0  0  0  0
  -31.7771    3.2037   31.9318 C   0  0  0  0  0  0  0  0  0  0  0  0
  -33.3130    3.8526   30.2491 C   0  0  0  0  0  0  0  0  0  0  0  0
  -32.7608    4.0692   31.4722 C   0  0  0  0  0  0  0  0  0  0  0  0
  -29.8245    1.9472   27.4603 O   0  0  0  0  0  0  0  0  0  0  0  0
  -30.6230   -1.0978   30.9681 O   0  0  0  0  0  0  0  0  0  0  0  0
  -30.6085   -2.3161   31.4709 C   0  0  0  0  0  0  0  0  0  0  0  0
  -31.7603   -2.8139   31.9288 C   0  0  0  0  0  0  0  0  0  0  0  0
  -31.8088   -4.0882   32.3086 C   0  0  0  0  0  0  0  0  0  0  0  0
  -30.5908   -4.9142   32.3093 C   0  0  0  0  0  0  0  0  0  0  0  0
  -29.4221   -4.3878   31.8227 C   0  0  0  0  0  0  0  0  0  0  0  0
  -29.4273   -3.1293   31.3988 C   0  0  0  0  0  0  0  0  0  0  0  0
  -34.2455    4.6736   29.7346 O   0  0  0  0  0  0  0  0  0  0  0  0
  -34.2472    5.9372   30.0393 C   0  0  0  0  0  0  0  0  0  0  0  0
  -34.3684    6.3261   31.1042 C   0  0  0  0  0  0  0  0  0  0  0  0
  -33.5305    6.0868   32.3284 C   0  0  0  0  0  0  0  0  0  0  0  0
  -32.8805    5.1537   32.4045 C   0  0  0  0  0  0  0  0  0  0  0  0
  -32.0857    4.8156   33.5380 N   0  0  0  0  0  0  0  0  0  0  0  0
  1  2  1  0
  1  3  1  0
  3  4  1  0
  5  7  1  0
  3  8  1  0
  7  8  1  0
  7 13  1  0
 11 14  1  0
 13 15  1  0
  8 21  2  0
  5 22  1  0
 22 23  1  0
 19 29  1  0
 29 30  1  0
 30 31  2  0
 31 32  1  0
 20 33  1  0
 32 33  1  0
 33 34  2  0
  2  5  1  0
 23 24  2  0
 24 25  1  0
 25 26  2  0
 26 27  1  0
 27 28  2  0
 28 23  1  0
  4  6  2  0
  6 12  1  0
 12 11  2  0
 11 10  1  0
 10  9  2  0
  9  4  1  0
 15 16  2  0
 16 18  1  0
 18 20  2  0
 20 19  1  0
 19 17  2  0
 17 15  1  0
M  END

$$$$
