No_1367-gen_results/8p0m/2024-11-27-11-27-31/
     RDKit          3D

 25 27  0  0  0  0  0  0  0  0999 V2000
  -28.0162   -0.8135   28.8779 C   0  0  0  0  0  0  0  0  0  0  0  0
  -28.4690   -0.7850   29.8287 C   0  0  0  0  0  0  0  0  0  0  0  0
  -28.1960    0.3478   28.0550 C   0  0  0  0  0  0  0  0  0  0  0  0
  -29.0191    1.3501   28.3782 C   0  0  0  0  0  0  0  0  0  0  0  0
  -29.4107    0.1803   30.3782 C   0  0  0  0  0  0  0  0  0  0  0  0
  -29.2236    2.4924   27.5425 C   0  0  0  0  0  0  0  0  0  0  0  0
  -29.5873    1.2242   29.6185 C   0  0  0  0  0  0  0  0  0  0  0  0
  -29.6214    2.7611   26.5108 C   0  0  0  0  0  0  0  0  0  0  0  0
  -29.7045    4.0306   25.7684 C   0  0  0  0  0  0  0  0  0  0  0  0
  -29.1860    5.1635   26.4111 C   0  0  0  0  0  0  0  0  0  0  0  0
  -28.6218    5.0147   27.6303 C   0  0  0  0  0  0  0  0  0  0  0  0
  -28.5665    3.7934   28.2435 C   0  0  0  0  0  0  0  0  0  0  0  0
  -27.4638    0.3642   26.7155 C   0  0  0  0  0  0  0  0  0  0  0  0
  -26.0277    0.2856   26.7426 C   0  0  0  0  0  0  0  0  0  0  0  0
  -25.3035    0.1463   27.9331 C   0  0  0  0  0  0  0  0  0  0  0  0
  -24.4016    1.0230   28.3535 C   0  0  0  0  0  0  0  0  0  0  0  0
  -23.3184    0.6116   29.1370 C   0  0  0  0  0  0  0  0  0  0  0  0
  -23.3030   -0.6901   29.7068 C   0  0  0  0  0  0  0  0  0  0  0  0
  -24.3085   -1.5703   29.3257 C   0  0  0  0  0  0  0  0  0  0  0  0
  -25.2064   -1.2219   28.4049 C   0  0  0  0  0  0  0  0  0  0  0  0
  -25.3793    0.4627   25.4879 C   0  0  0  0  0  0  0  0  0  0  0  0
  -28.1331    0.4257   25.6915 O   0  0  0  0  0  0  0  0  0  0  0  0
  -28.3000   -2.0576   30.8534 C   0  0  0  0  0  0  0  0  0  0  0  0
  -28.0150   -1.7409   31.9402 O   0  0  0  0  0  0  0  0  0  0  0  0
  -28.7102   -3.2036   30.4590 O   0  0  0  0  0  0  0  0  0  0  0  0
  4  6  1  0
  3 13  1  0
 13 14  1  0
 14 15  1  0
 14 21  1  0
 13 22  2  0
  2 23  1  0
 23 24  2  0
 23 25  1  0
 15 16  2  0
 16 17  1  0
 17 18  2  0
 18 19  1  0
 19 20  2  0
 20 15  1  0
  6  8  2  0
  8  9  1  0
  9 10  2  0
 10 11  1  0
 11 12  2  0
 12  6  1  0
  1  2  2  0
  2  5  1  0
  5  7  2  0
  7  4  1  0
  4  3  2  0
  3  1  1  0
M  END

$$$$
