No_1746-gen_results/8p0m/2024-11-27-11-27-31/
     RDKit          3D

 10 10  0  0  0  0  0  0  0  0999 V2000
  -28.0162   -0.8135   28.8779 C   0  0  0  0  0  0  0  0  0  0  0  0
  -28.4690   -0.7850   29.8287 C   0  0  0  0  0  0  0  0  0  0  0  0
  -27.0871    0.2903   28.6377 C   0  0  0  0  0  0  0  0  0  0  0  0
  -26.8317    1.2487   29.5869 C   0  0  0  0  0  0  0  0  0  0  0  0
  -29.4442   -1.9481   30.1840 C   0  0  0  0  0  0  0  0  0  0  0  0
  -27.4956    1.1303   30.8222 C   0  0  0  0  0  0  0  0  0  0  0  0
  -28.3376    0.0364   31.0331 C   0  0  0  0  0  0  0  0  0  0  0  0
  -29.1546   -3.1425   30.2218 O   0  0  0  0  0  0  0  0  0  0  0  0
  -30.6351   -1.6701   30.8551 N   0  0  0  0  0  0  0  0  0  0  0  0
  -31.5576   -2.7007   31.1924 C   0  0  0  0  0  0  0  0  0  0  0  0
  2  5  1  0
  5  8  2  0
  5  9  1  0
  9 10  1  0
  1  2  2  0
  2  7  1  0
  7  6  2  0
  6  4  1  0
  4  3  2  0
  3  1  1  0
M  END

$$$$
