No_1570-gen_results/8p0m/2024-11-27-11-27-31/
     RDKit          3D

 35 38  0  0  0  0  0  0  0  0999 V2000
  -28.0162   -0.8135   28.8779 C   0  0  0  0  0  0  0  0  0  0  0  0
  -27.0636   -0.1189   28.6079 C   0  0  0  0  0  0  0  0  0  0  0  0
  -26.9287    1.1713   29.0083 C   0  0  0  0  0  0  0  0  0  0  0  0
  -25.7702    2.0341   28.6884 C   0  0  0  0  0  0  0  0  0  0  0  0
  -24.7141    1.4431   27.9188 C   0  0  0  0  0  0  0  0  0  0  0  0
  -24.8590    0.0783   27.5836 C   0  0  0  0  0  0  0  0  0  0  0  0
  -25.9647   -0.6606   27.9164 C   0  0  0  0  0  0  0  0  0  0  0  0
  -29.1778   -0.3051   28.9638 N   0  0  0  0  0  0  0  0  0  0  0  0
  -30.1765   -0.9070   29.7369 C   0  0  0  0  0  0  0  0  0  0  0  0
  -23.5156    2.1616   27.5794 C   0  0  0  0  0  0  0  0  0  0  0  0
  -22.3584    2.0907   28.0229 N   0  0  0  0  0  0  0  0  0  0  0  0
  -23.6976    2.9330   26.2963 C   0  0  0  0  0  0  0  0  0  0  0  0
  -27.8596   -1.8004   29.7151 O   0  0  0  0  0  0  0  0  0  0  0  0
  -29.6170    0.8057   28.1662 C   0  0  0  0  0  0  0  0  0  0  0  0
  -30.7040    0.4795   27.3571 C   0  0  0  0  0  0  0  0  0  0  0  0
  -30.6441    0.6223   26.0578 C   0  0  0  0  0  0  0  0  0  0  0  0
  -29.5528    1.3714   25.5570 C   0  0  0  0  0  0  0  0  0  0  0  0
  -28.5599    1.8489   26.3404 C   0  0  0  0  0  0  0  0  0  0  0  0
  -28.7206    1.7386   27.6918 C   0  0  0  0  0  0  0  0  0  0  0  0
  -30.9196   -0.0807   30.5339 C   0  0  0  0  0  0  0  0  0  0  0  0
  -31.9848   -0.4958   31.1924 C   0  0  0  0  0  0  0  0  0  0  0  0
  -32.2854   -1.8827   31.1312 C   0  0  0  0  0  0  0  0  0  0  0  0
  -31.5436   -2.7350   30.3630 C   0  0  0  0  0  0  0  0  0  0  0  0
  -30.5066   -2.2094   29.6520 C   0  0  0  0  0  0  0  0  0  0  0  0
  -29.2366    3.2809   28.0685 C   0  0  0  0  0  0  0  0  0  0  0  0
  -29.3122    4.1177   27.2847 C   0  0  0  0  0  0  0  0  0  0  0  0
  -29.4069    3.3672   29.5530 C   0  0  0  0  0  0  0  0  0  0  0  0
  -28.5535    4.1145   30.3313 C   0  0  0  0  0  0  0  0  0  0  0  0
  -27.9359    5.1513   29.8806 C   0  0  0  0  0  0  0  0  0  0  0  0
  -28.0061    5.8729   28.6097 C   0  0  0  0  0  0  0  0  0  0  0  0
  -28.3566    5.3963   27.4634 C   0  0  0  0  0  0  0  0  0  0  0  0
  -29.5528    1.5661   24.0502 C   0  0  0  0  0  0  0  0  0  0  0  0
  -21.4086    1.0103   27.9231 C   0  0  0  0  0  0  0  0  0  0  0  0
  -30.3838    4.3871   26.3958 C   0  0  0  0  0  0  0  0  0  0  0  0
  -31.5384    5.1127   26.8143 C   0  0  0  0  0  0  0  0  0  0  0  0
  1  2  1  0
  1  8  1  0
  8  9  1  0
  5 10  1  0
 10 11  1  0
 10 12  1  0
  1 13  2  0
  8 14  1  0
 19 25  1  0
 25 26  1  0
 25 27  1  0
 27 28  1  0
 28 29  2  0
 29 30  1  0
 26 31  1  0
 30 31  2  0
 17 32  1  0
 11 33  1  0
 26 34  1  0
 34 35  2  0
  2  3  2  0
  3  4  1  0
  4  5  2  0
  5  6  1  0
  6  7  2  0
  7  2  1  0
  9 20  2  0
 20 21  1  0
 21 22  2  0
 22 23  1  0
 23 24  2  0
 24  9  1  0
 14 15  2  0
 15 16  1  0
 16 17  2  0
 17 18  1  0
 18 19  2  0
 19 14  1  0
M  END

$$$$
