No_1457-gen_results/8p0m/2024-11-27-11-27-31/
     RDKit          3D

 22 24  0  0  0  0  0  0  0  0999 V2000
  -28.0162   -0.8135   28.8779 C   0  0  0  0  0  0  0  0  0  0  0  0
  -27.0636   -0.1189   28.6079 C   0  0  0  0  0  0  0  0  0  0  0  0
  -25.7923   -0.4302   29.0761 C   0  0  0  0  0  0  0  0  0  0  0  0
  -25.5756   -1.5654   29.9363 C   0  0  0  0  0  0  0  0  0  0  0  0
  -26.7354   -2.3004   30.2173 C   0  0  0  0  0  0  0  0  0  0  0  0
  -27.9184   -1.9537   29.7629 C   0  0  0  0  0  0  0  0  0  0  0  0
  -27.1463    1.2916   27.6407 Cl  0  0  0  0  0  0  0  0  0  0  0  0
  -28.9655   -2.7040   30.0730 F   0  0  0  0  0  0  0  0  0  0  0  0
  -24.5144    0.3687   28.7731 C   0  0  0  0  0  0  0  0  0  0  0  0
  -24.3493    1.0893   27.7255 C   0  0  0  0  0  0  0  0  0  0  0  0
  -23.1479    1.7915   27.4269 C   0  0  0  0  0  0  0  0  0  0  0  0
  -21.9933    1.4970   28.1976 C   0  0  0  0  0  0  0  0  0  0  0  0
  -23.3007   -0.0297   29.4952 C   0  0  0  0  0  0  0  0  0  0  0  0
  -22.0484    0.6242   29.1726 C   0  0  0  0  0  0  0  0  0  0  0  0
  -23.1393    2.6605   26.4134 F   0  0  0  0  0  0  0  0  0  0  0  0
  -29.3029   -0.5466   28.4832 O   0  0  0  0  0  0  0  0  0  0  0  0
  -30.2279   -0.0470   29.2750 C   0  0  0  0  0  0  0  0  0  0  0  0
  -30.9654    0.8864   28.6636 C   0  0  0  0  0  0  0  0  0  0  0  0
  -31.9230    1.4556   29.4621 C   0  0  0  0  0  0  0  0  0  0  0  0
  -32.1794    0.9776   30.7765 C   0  0  0  0  0  0  0  0  0  0  0  0
  -31.3907    0.0110   31.3150 C   0  0  0  0  0  0  0  0  0  0  0  0
  -30.3821   -0.5004   30.6083 C   0  0  0  0  0  0  0  0  0  0  0  0
  2  7  1  0
  6  8  1  0
  3  9  1  0
 11 15  1  0
  1 16  1  0
 16 17  1  0
 17 18  2  0
 18 19  1  0
 19 20  2  0
 20 21  1  0
 21 22  2  0
 22 17  1  0
  1  2  2  0
  2  3  1  0
  3  4  2  0
  4  5  1  0
  5  6  2  0
  6  1  1  0
  9 10  2  0
 10 11  1  0
 11 12  2  0
 12 14  1  0
 14 13  2  0
 13  9  1  0
M  END

$$$$
