No_1653-gen_results/8p0m/2024-11-27-11-27-31/
     RDKit          3D

 11 12  0  0  0  0  0  0  0  0999 V2000
  -28.1229   -1.3353   28.4874 O   0  0  0  0  0  0  0  0  0  0  0  0
  -27.0637   -0.8242   28.8687 C   0  0  0  0  0  0  0  0  0  0  0  0
  -25.9464   -1.0396   28.8492 C   0  0  0  0  0  0  0  0  0  0  0  0
  -24.7602   -0.1562   29.1644 C   0  0  0  0  0  0  0  0  0  0  0  0
  -23.3890   -0.4551   29.0162 C   0  0  0  0  0  0  0  0  0  0  0  0
  -27.1818    0.7101   29.2928 N   0  0  0  0  0  0  0  0  0  0  0  0
  -26.3236    1.5579   29.6078 C   0  0  0  0  0  0  0  0  0  0  0  0
  -25.0029    1.2234   29.5206 C   0  0  0  0  0  0  0  0  0  0  0  0
  -22.3606    0.4639   28.8922 C   0  0  0  0  0  0  0  0  0  0  0  0
  -22.8299    1.8040   29.0793 C   0  0  0  0  0  0  0  0  0  0  0  0
  -23.9733    2.1748   29.5213 C   0  0  0  0  0  0  0  0  0  0  0  0
  1  2  2  0
  2  3  1  0
  3  4  1  0
  2  6  1  0
  7  8  1  0
  7  6  1  0
  4  5  2  0
  5  9  1  0
  9 10  2  0
 10 11  1  0
 11  8  2  0
  8  4  1  0
M  END

$$$$
