No_1705-gen_results/8p0m/2024-11-27-11-27-31/
     RDKit          3D

 35 37  0  0  0  0  0  0  0  0999 V2000
  -28.0162   -0.8135   28.8779 C   0  0  0  0  0  0  0  0  0  0  0  0
  -28.4690   -0.7850   29.8287 C   0  0  0  0  0  0  0  0  0  0  0  0
  -26.5042   -0.7777   28.8766 C   0  0  0  0  0  0  0  0  0  0  0  0
  -25.8305   -1.6807   29.6849 C   0  0  0  0  0  0  0  0  0  0  0  0
  -28.1490   -1.8854   30.9031 C   0  0  0  0  0  0  0  0  0  0  0  0
  -29.1487   -2.1008   32.4440 Br  0  0  0  0  0  0  0  0  0  0  0  0
  -26.5949   -1.9747   30.9746 C   0  0  0  0  0  0  0  0  0  0  0  0
  -28.4321    0.3447   30.7057 O   0  0  0  0  0  0  0  0  0  0  0  0
  -24.6437   -2.2771   29.4020 C   0  0  0  0  0  0  0  0  0  0  0  0
  -23.4790   -1.4442   29.3127 C   0  0  0  0  0  0  0  0  0  0  0  0
  -23.4458   -0.1160   29.7516 C   0  0  0  0  0  0  0  0  0  0  0  0
  -22.6359    0.7974   29.0370 C   0  0  0  0  0  0  0  0  0  0  0  0
  -23.0927    2.0514   28.5518 C   0  0  0  0  0  0  0  0  0  0  0  0
  -23.1742    2.0845   27.0791 C   0  0  0  0  0  0  0  0  0  0  0  0
  -24.4889    2.0462   26.5675 C   0  0  0  0  0  0  0  0  0  0  0  0
  -24.8259    0.8850   25.7706 C   0  0  0  0  0  0  0  0  0  0  0  0
  -24.5568   -3.6995   29.2528 C   0  0  0  0  0  0  0  0  0  0  0  0
  -28.3137    0.3789   28.0449 O   0  0  0  0  0  0  0  0  0  0  0  0
  -26.1577    0.7094   25.4667 C   0  0  0  0  0  0  0  0  0  0  0  0
  -27.0786    1.6750   25.5628 C   0  0  0  0  0  0  0  0  0  0  0  0
  -26.7681    2.8826   26.2205 C   0  0  0  0  0  0  0  0  0  0  0  0
  -25.4604    3.0516   26.7688 C   0  0  0  0  0  0  0  0  0  0  0  0
  -25.3139   -4.4596   29.7234 O   0  0  0  0  0  0  0  0  0  0  0  0
  -23.4122   -4.2465   28.8455 O   0  0  0  0  0  0  0  0  0  0  0  0
  -29.6243    0.6951   27.8283 C   0  0  0  0  0  0  0  0  0  0  0  0
  -30.5710   -0.0719   27.8997 C   0  0  0  0  0  0  0  0  0  0  0  0
  -31.8291    0.3329   27.4130 C   0  0  0  0  0  0  0  0  0  0  0  0
  -31.8635    1.5735   26.8787 C   0  0  0  0  0  0  0  0  0  0  0  0
  -30.8409    2.4401   26.7145 C   0  0  0  0  0  0  0  0  0  0  0  0
  -29.6626    2.0227   27.1930 C   0  0  0  0  0  0  0  0  0  0  0  0
  -29.4959    1.0795   31.0428 C   0  0  0  0  0  0  0  0  0  0  0  0
  -29.3097    2.4389   30.9700 C   0  0  0  0  0  0  0  0  0  0  0  0
  -30.4420    3.3099   31.0232 C   0  0  0  0  0  0  0  0  0  0  0  0
  -31.7025    2.7465   31.2953 C   0  0  0  0  0  0  0  0  0  0  0  0
  -31.8078    1.3715   31.4705 C   0  0  0  0  0  0  0  0  0  0  0  0
  1  2  1  0
  1  3  1  0
  3  4  1  0
  2  5  1  0
  5  6  1  0
  4  7  1  0
  5  7  1  0
  2  8  1  0
  4  9  1  0
  9 10  1  0
 10 11  1  0
 11 12  1  0
 12 13  1  0
 13 14  1  0
 14 15  1  0
  9 17  1  0
  1 18  1  0
 17 23  1  0
 17 24  2  0
 18 25  1  0
  8 31  1  0
 31 32  2  3
 32 33  1  0
 33 34  2  3
 34 35  1  0
 25 26  2  0
 26 27  1  0
 27 28  2  0
 28 29  1  0
 29 30  2  0
 30 25  1  0
 15 16  2  0
 16 19  1  0
 19 20  2  0
 20 21  1  0
 21 22  2  0
 22 15  1  0
M  END

$$$$
