No_1338-gen_results/8p0m/2024-11-27-11-27-31/
     RDKit          3D

 13 14  0  0  0  0  0  0  0  0999 V2000
  -28.0162   -0.8135   28.8779 C   0  0  0  0  0  0  0  0  0  0  0  0
  -27.0636   -0.1189   28.6079 C   0  0  0  0  0  0  0  0  0  0  0  0
  -25.8176   -0.3427   29.0487 N   0  0  0  0  0  0  0  0  0  0  0  0
  -25.6067   -1.4414   29.8929 C   0  0  0  0  0  0  0  0  0  0  0  0
  -26.6760   -2.2193   30.2363 C   0  0  0  0  0  0  0  0  0  0  0  0
  -27.8635   -1.9317   29.7671 C   0  0  0  0  0  0  0  0  0  0  0  0
  -27.1319    1.0287   27.8069 N   0  0  0  0  0  0  0  0  0  0  0  0
  -26.0802    1.8043   27.6077 C   0  0  0  0  0  0  0  0  0  0  0  0
  -25.7143    2.8024   27.4771 C   0  0  0  0  0  0  0  0  0  0  0  0
  -24.3906    3.4387   27.1643 C   0  0  0  0  0  0  0  0  0  0  0  0
  -23.3681    2.5278   26.9757 C   0  0  0  0  0  0  0  0  0  0  0  0
  -23.6759    1.1798   27.0990 C   0  0  0  0  0  0  0  0  0  0  0  0
  -24.8511    0.7882   27.3924 C   0  0  0  0  0  0  0  0  0  0  0  0
  2  7  1  0
  7  8  1  0
  1  2  2  0
  2  3  1  0
  3  4  2  0
  4  5  1  0
  5  6  2  0
  6  1  1  0
  8  9  2  0
  9 10  1  0
 10 11  2  0
 11 12  1  0
 12 13  2  0
 13  8  1  0
M  END

$$$$
