No_1194-gen_results/8p0m/2024-11-27-11-27-31/
     RDKit          3D

 27 27  0  0  0  0  0  0  0  0999 V2000
  -28.0727   -1.2542   28.5316 F   0  0  0  0  0  0  0  0  0  0  0  0
  -28.2662   -0.4214   29.1931 C   0  0  0  0  0  0  0  0  0  0  0  0
  -29.4400   -0.1817   29.3649 F   0  0  0  0  0  0  0  0  0  0  0  0
  -27.6959   -0.7085   30.4324 F   0  0  0  0  0  0  0  0  0  0  0  0
  -27.5418    0.7768   28.6351 C   0  0  0  0  0  0  0  0  0  0  0  0
  -27.1712    1.6999   29.4293 C   0  0  0  0  0  0  0  0  0  0  0  0
  -27.3882    0.8746   27.2654 C   0  0  0  0  0  0  0  0  0  0  0  0
  -26.4303    2.8749   28.9849 C   0  0  0  0  0  0  0  0  0  0  0  0
  -26.6655    2.0250   26.6884 C   0  0  0  0  0  0  0  0  0  0  0  0
  -26.2169    3.0301   27.6037 C   0  0  0  0  0  0  0  0  0  0  0  0
  -25.2799    4.2147   26.9104 Cl  0  0  0  0  0  0  0  0  0  0  0  0
  -25.8845    3.9645   29.8553 C   0  0  0  0  0  0  0  0  0  0  0  0
  -26.7023    4.3277   30.6826 O   0  0  0  0  0  0  0  0  0  0  0  0
  -27.1446    5.7084   31.1850 P   0  0  0  0  0  0  0  0  0  0  0  0
  -27.8239    6.3142   30.3331 O   0  0  0  0  0  0  0  0  0  0  0  0
  -27.7349    5.6523   32.4493 O   0  0  0  0  0  0  0  0  0  0  0  0
  -25.7095    6.4154   31.4094 O   0  0  0  0  0  0  0  0  0  0  0  0
  -25.1750    7.2316   30.5251 C   0  0  0  0  0  0  0  0  0  0  0  0
  -24.4060    8.3933   31.1769 C   0  0  0  0  0  0  0  0  0  0  0  0
  -23.4869    8.1135   32.3663 Cl  0  0  0  0  0  0  0  0  0  0  0  0
  -25.3427    9.4269   31.5269 O   0  0  0  0  0  0  0  0  0  0  0  0
  -25.3727   10.0340   32.3809 C   0  0  0  0  0  0  0  0  0  0  0  0
  -25.1067   11.2234   32.5638 C   0  0  0  0  0  0  0  0  0  0  0  0
  -25.1641   11.9436   33.7942 C   0  0  0  0  0  0  0  0  0  0  0  0
  -24.8071   13.3137   33.9710 C   0  0  0  0  0  0  0  0  0  0  0  0
  -24.3707   13.9832   32.7987 C   0  0  0  0  0  0  0  0  0  0  0  0
  -24.2762   13.3322   31.5942 C   0  0  0  0  0  0  0  0  0  0  0  0
  1  2  1  0
  2  3  1  0
  2  4  1  0
  2  5  1  0
 10 11  1  0
  8 12  1  0
 12 13  1  0
 13 14  1  0
 14 15  2  0
 14 16  1  0
 14 17  1  0
 17 18  1  0
 18 19  1  0
 19 20  1  0
 19 21  1  0
 21 22  1  0
 22 23  2  3
 23 24  1  0
 24 25  2  3
 25 26  1  0
 26 27  2  0
  5  6  2  0
  6  8  1  0
  8 10  2  0
 10  9  1  0
  9  7  2  0
  7  5  1  0
M  END

$$$$
