No_1204-gen_results/8p0m/2024-11-27-11-27-31/
     RDKit          3D

 23 24  0  0  0  0  0  0  0  0999 V2000
  -28.0162   -0.8135   28.8779 C   0  0  0  0  0  0  0  0  0  0  0  0
  -27.0636   -0.1189   28.6079 C   0  0  0  0  0  0  0  0  0  0  0  0
  -27.0010    0.6913   27.4910 C   0  0  0  0  0  0  0  0  0  0  0  0
  -25.8548    1.4825   27.0830 C   0  0  0  0  0  0  0  0  0  0  0  0
  -24.6901    1.4526   27.8807 C   0  0  0  0  0  0  0  0  0  0  0  0
  -24.7379    0.6010   29.0416 C   0  0  0  0  0  0  0  0  0  0  0  0
  -25.8234   -0.1688   29.3887 C   0  0  0  0  0  0  0  0  0  0  0  0
  -29.2252   -0.0469   29.2805 C   0  0  0  0  0  0  0  0  0  0  0  0
  -30.3126   -0.8267   29.7606 C   0  0  0  0  0  0  0  0  0  0  0  0
  -30.0171   -1.9937   30.4009 C   0  0  0  0  0  0  0  0  0  0  0  0
  -28.8125   -2.7071   30.2220 C   0  0  0  0  0  0  0  0  0  0  0  0
  -27.7956   -2.0343   29.6883 C   0  0  0  0  0  0  0  0  0  0  0  0
  -26.6008   -2.5288   29.7455 F   0  0  0  0  0  0  0  0  0  0  0  0
  -31.4660   -0.2137   29.9945 O   0  0  0  0  0  0  0  0  0  0  0  0
  -23.4904    2.1999   27.5417 C   0  0  0  0  0  0  0  0  0  0  0  0
  -23.7286    3.2557   26.9532 F   0  0  0  0  0  0  0  0  0  0  0  0
  -22.7438    2.5108   28.6408 F   0  0  0  0  0  0  0  0  0  0  0  0
  -22.6336    1.4562   26.7791 F   0  0  0  0  0  0  0  0  0  0  0  0
  -32.3621   -0.2557   29.0515 C   0  0  0  0  0  0  0  0  0  0  0  0
  -32.3120    0.6844   28.0617 C   0  0  0  0  0  0  0  0  0  0  0  0
  -32.0623    1.9082   28.4109 C   0  0  0  0  0  0  0  0  0  0  0  0
  -32.3428    2.5485   29.4423 C   0  0  0  0  0  0  0  0  0  0  0  0
  -32.0186    3.9267   29.7653 C   0  0  0  0  0  0  0  0  0  0  0  0
  1  2  1  0
 12 13  1  0
  9 14  1  0
  5 15  1  0
 15 16  1  0
 15 17  1  0
 15 18  1  0
 14 19  1  0
 19 20  2  3
 20 21  1  0
 21 22  2  3
 22 23  1  0
  2  3  2  0
  3  4  1  0
  4  5  2  0
  5  6  1  0
  6  7  2  0
  7  2  1  0
  1  8  2  0
  8  9  1  0
  9 10  2  0
 10 11  1  0
 11 12  2  0
 12  1  1  0
M  END

$$$$
