No_1832-gen_results/8p0m/2024-11-27-11-27-31/
     RDKit          3D

 18 20  0  0  0  0  0  0  0  0999 V2000
  -28.0162   -0.8135   28.8779 C   0  0  0  0  0  0  0  0  0  0  0  0
  -28.4690   -0.7850   29.8287 C   0  0  0  0  0  0  0  0  0  0  0  0
  -27.2166   -0.0832   27.9639 C   0  0  0  0  0  0  0  0  0  0  0  0
  -27.0905    1.2695   28.4177 C   0  0  0  0  0  0  0  0  0  0  0  0
  -27.6655    1.5758   29.6941 C   0  0  0  0  0  0  0  0  0  0  0  0
  -28.3335    0.6031   30.4319 C   0  0  0  0  0  0  0  0  0  0  0  0
  -26.3583    2.2788   27.6965 C   0  0  0  0  0  0  0  0  0  0  0  0
  -24.9676    2.1802   27.8807 C   0  0  0  0  0  0  0  0  0  0  0  0
  -24.1655    1.4126   27.4794 C   0  0  0  0  0  0  0  0  0  0  0  0
  -22.7243    1.4762   27.7746 C   0  0  0  0  0  0  0  0  0  0  0  0
  -21.8763    0.4623   27.9548 C   0  0  0  0  0  0  0  0  0  0  0  0
  -22.5016   -0.7801   28.3620 C   0  0  0  0  0  0  0  0  0  0  0  0
  -23.9088   -0.9155   28.4092 C   0  0  0  0  0  0  0  0  0  0  0  0
  -24.6708    0.2016   27.9988 C   0  0  0  0  0  0  0  0  0  0  0  0
  -25.9210   -0.1156   28.0740 C   0  0  0  0  0  0  0  0  0  0  0  0
  -25.3534   -1.3870   28.3325 N   0  0  0  0  0  0  0  0  0  0  0  0
  -25.4448   -2.4951   28.6635 C   0  0  0  0  0  0  0  0  0  0  0  0
  -23.3760   -2.0346   29.0322 O   0  0  0  0  0  0  0  0  0  0  0  0
  4  7  1  0
  7  8  1  0
  3 15  1  0
 14 15  1  0
 15 16  1  0
 16 17  1  0
 12 18  1  0
  8  9  1  0
  1  2  2  0
  2  6  1  0
  6  5  2  0
  5  4  1  0
  4  3  2  0
  3  1  1  0
  9 10  2  0
 10 11  1  0
 11 12  2  0
 12 13  1  0
 13 14  2  0
 14  9  1  0
M  END

$$$$
