No_1206-gen_results/8p0m/2024-11-27-11-27-31/
     RDKit          3D

 33 36  0  0  0  0  0  0  0  0999 V2000
  -28.0162   -0.8135   28.8779 C   0  0  0  0  0  0  0  0  0  0  0  0
  -28.4690   -0.7850   29.8287 C   0  0  0  0  0  0  0  0  0  0  0  0
  -26.5042   -0.7777   28.8766 C   0  0  0  0  0  0  0  0  0  0  0  0
  -25.8103   -0.8531   30.1028 C   0  0  0  0  0  0  0  0  0  0  0  0
  -27.9906   -0.8916   31.2257 C   0  0  0  0  0  0  0  0  0  0  0  0
  -26.6042   -0.8676   31.2652 C   0  0  0  0  0  0  0  0  0  0  0  0
  -24.3894   -0.8049   30.1638 C   0  0  0  0  0  0  0  0  0  0  0  0
  -23.8172    0.4762   29.9118 C   0  0  0  0  0  0  0  0  0  0  0  0
  -22.5010    0.5449   29.4097 C   0  0  0  0  0  0  0  0  0  0  0  0
  -21.7696   -0.6524   29.2129 C   0  0  0  0  0  0  0  0  0  0  0  0
  -23.6939   -1.8206   29.2518 C   0  0  0  0  0  0  0  0  0  0  0  0
  -22.5825   -1.5695   28.7088 C   0  0  0  0  0  0  0  0  0  0  0  0
  -23.8603   -1.2348   31.6630 C   0  0  0  0  0  0  0  0  0  0  0  0
  -30.2654   -0.6884   29.6517 Cl  0  0  0  0  0  0  0  0  0  0  0  0
  -24.3420   -3.1098   29.0946 C   0  0  0  0  0  0  0  0  0  0  0  0
  -25.3826   -1.9490   30.1812 Cl  0  0  0  0  0  0  0  0  0  0  0  0
  -24.5578   -4.0452   28.6785 O   0  0  0  0  0  0  0  0  0  0  0  0
  -23.0924   -3.4886   29.4188 F   0  0  0  0  0  0  0  0  0  0  0  0
  -25.8694   -0.4145   27.6252 C   0  0  0  0  0  0  0  0  0  0  0  0
  -26.4904    0.4718   26.7240 C   0  0  0  0  0  0  0  0  0  0  0  0
  -27.6057    1.2497   27.0618 C   0  0  0  0  0  0  0  0  0  0  0  0
  -25.6585    0.8193   25.6113 C   0  0  0  0  0  0  0  0  0  0  0  0
  -28.0277    2.2033   26.0612 C   0  0  0  0  0  0  0  0  0  0  0  0
  -29.1634    2.8816   26.3798 C   0  0  0  0  0  0  0  0  0  0  0  0
  -26.1623    1.6999   24.6689 C   0  0  0  0  0  0  0  0  0  0  0  0
  -27.2983    2.3594   24.9571 C   0  0  0  0  0  0  0  0  0  0  0  0
  -29.1567    3.8221   27.2419 C   0  0  0  0  0  0  0  0  0  0  0  0
  -29.6241    4.3466   28.0236 C   0  0  0  0  0  0  0  0  0  0  0  0
  -29.2928    5.4578   28.9459 C   0  0  0  0  0  0  0  0  0  0  0  0
  -28.0059    5.8778   28.8528 C   0  0  0  0  0  0  0  0  0  0  0  0
  -27.1418    5.3432   27.8990 C   0  0  0  0  0  0  0  0  0  0  0  0
  -27.6001    4.2785   27.1357 C   0  0  0  0  0  0  0  0  0  0  0  0
  -30.3952    2.4494   25.8612 C   0  0  0  0  0  0  0  0  0  0  0  0
  1  2  1  0
  1  3  2  0
  3  4  1  0
  2  5  2  0
  4  6  1  0
  5  6  1  0
  4  7  1  0
  7  8  1  0
  9 10  1  0
  7 11  1  0
  7 13  1  0
  2 14  1  0
 11 15  1  0
  4 16  1  0
 15 17  2  0
 15 18  1  0
  3 19  1  0
 23 24  1  0
 24 27  1  0
 24 33  1  0
 19 20  1  0
  8  9  1  0
 10 12  1  0
 12 11  1  0
 20 21  2  0
 21 23  1  0
 23 26  2  0
 26 25  1  0
 25 22  2  0
 22 20  1  0
 27 28  2  0
 28 29  1  0
 29 30  2  0
 30 31  1  0
 31 32  2  0
 32 27  1  0
M  END

$$$$
