No_1312-gen_results/8p0m/2024-11-27-11-27-31/
     RDKit          3D

 13 13  0  0  0  0  0  0  0  0999 V2000
  -28.0162   -0.8135   28.8779 C   0  0  0  0  0  0  0  0  0  0  0  0
  -28.4690   -0.7850   29.8287 C   0  0  0  0  0  0  0  0  0  0  0  0
  -28.1816    0.4277   28.1134 C   0  0  0  0  0  0  0  0  0  0  0  0
  -27.1209    0.8908   27.5024 N   0  0  0  0  0  0  0  0  0  0  0  0
  -29.8210   -0.4377   30.0907 C   0  0  0  0  0  0  0  0  0  0  0  0
  -30.2523    0.6817   29.3392 C   0  0  0  0  0  0  0  0  0  0  0  0
  -29.3294    1.1640   28.3333 C   0  0  0  0  0  0  0  0  0  0  0  0
  -26.0428    1.4741   28.0415 C   0  0  0  0  0  0  0  0  0  0  0  0
  -25.0461    1.7317   27.7924 C   0  0  0  0  0  0  0  0  0  0  0  0
  -24.4007    1.7046   26.4754 C   0  0  0  0  0  0  0  0  0  0  0  0
  -27.1379    1.1394   26.0812 C   0  0  0  0  0  0  0  0  0  0  0  0
  -22.9646    2.1884   26.3008 C   0  0  0  0  0  0  0  0  0  0  0  0
  -22.2375    2.1781   27.4817 C   0  0  0  0  0  0  0  0  0  0  0  0
  3  4  1  0
  4  8  1  0
  8  9  2  3
  9 10  1  0
  4 11  1  0
 10 12  2  3
 12 13  1  0
  1  2  2  0
  2  5  1  0
  5  6  2  0
  6  7  1  0
  7  3  2  0
  3  1  1  0
M  END

$$$$
