No_1384-gen_results/8p0m/2024-11-27-11-27-31/
     RDKit          3D

 19 20  0  0  0  0  0  0  0  0999 V2000
  -28.0162   -0.8135   28.8779 C   0  0  0  0  0  0  0  0  0  0  0  0
  -27.0636   -0.1190   28.6079 C   0  0  0  0  0  0  0  0  0  0  0  0
  -26.9716    0.7139   27.5060 C   0  0  0  0  0  0  0  0  0  0  0  0
  -28.1053    0.7744   26.6421 C   0  0  0  0  0  0  0  0  0  0  0  0
  -29.2041    0.1179   27.0477 C   0  0  0  0  0  0  0  0  0  0  0  0
  -29.2127   -0.6088   28.1281 C   0  0  0  0  0  0  0  0  0  0  0  0
  -25.7106    1.4518   27.1380 C   0  0  0  0  0  0  0  0  0  0  0  0
  -24.6052    0.9253   27.6902 C   0  0  0  0  0  0  0  0  0  0  0  0
  -24.6227    0.0600   28.8225 C   0  0  0  0  0  0  0  0  0  0  0  0
  -25.7269   -0.4734   29.2409 C   0  0  0  0  0  0  0  0  0  0  0  0
  -23.2721    1.6772   27.4376 C   0  0  0  0  0  0  0  0  0  0  0  0
  -22.1650    1.1561   27.7877 O   0  0  0  0  0  0  0  0  0  0  0  0
  -23.2823    2.7942   26.7451 O   0  0  0  0  0  0  0  0  0  0  0  0
  -30.6310    0.3502   26.0965 Cl  0  0  0  0  0  0  0  0  0  0  0  0
  -25.6507   -1.5119   30.2775 C   0  0  0  0  0  0  0  0  0  0  0  0
  -26.3453   -2.3877   30.1717 F   0  0  0  0  0  0  0  0  0  0  0  0
  -24.8543   -1.3239   31.1246 F   0  0  0  0  0  0  0  0  0  0  0  0
  -28.0644    1.6290   25.5928 O   0  0  0  0  0  0  0  0  0  0  0  0
  -27.6580    1.0037   24.4342 C   0  0  0  0  0  0  0  0  0  0  0  0
  8 11  1  0
 11 12  2  0
 11 13  1  0
  5 14  1  0
 10 15  1  0
 15 16  1  0
 15 17  1  0
  4 18  1  0
 18 19  1  0
  1  2  2  0
  3  4  2  0
  4  5  1  0
  5  6  2  0
  6  1  1  0
  2  3  1  0
  3  7  1  0
  7  8  2  0
  8  9  1  0
  9 10  2  0
 10  2  1  0
M  END

$$$$
