No_1172-gen_results/8p0m/2024-11-27-11-27-31/
     RDKit          3D

 35 37  0  0  0  0  0  0  0  0999 V2000
  -28.0162   -0.8135   28.8779 C   0  0  0  0  0  0  0  0  0  0  0  0
  -27.0636   -0.1190   28.6079 C   0  0  0  0  0  0  0  0  0  0  0  0
  -25.7923   -0.4302   29.0761 C   0  0  0  0  0  0  0  0  0  0  0  0
  -25.5756   -1.5654   29.9363 C   0  0  0  0  0  0  0  0  0  0  0  0
  -24.3722   -1.9422   30.4466 C   0  0  0  0  0  0  0  0  0  0  0  0
  -27.9640   -1.9247   29.7899 C   0  0  0  0  0  0  0  0  0  0  0  0
  -26.7624   -2.3055   30.3031 C   0  0  0  0  0  0  0  0  0  0  0  0
  -23.2376   -0.9702   30.2659 C   0  0  0  0  0  0  0  0  0  0  0  0
  -23.3025    0.0027   29.2092 C   0  0  0  0  0  0  0  0  0  0  0  0
  -24.6041    0.3707   28.7568 C   0  0  0  0  0  0  0  0  0  0  0  0
  -24.6099    1.4755   27.8080 C   0  0  0  0  0  0  0  0  0  0  0  0
  -23.6023    1.6531   26.9242 C   0  0  0  0  0  0  0  0  0  0  0  0
  -23.6806    2.7174   26.0340 C   0  0  0  0  0  0  0  0  0  0  0  0
  -24.8936    3.5090   25.9871 C   0  0  0  0  0  0  0  0  0  0  0  0
  -25.6681    2.4145   27.5289 C   0  0  0  0  0  0  0  0  0  0  0  0
  -25.7635    3.3635   26.7664 C   0  0  0  0  0  0  0  0  0  0  0  0
  -29.2810   -0.4418   28.4487 O   0  0  0  0  0  0  0  0  0  0  0  0
  -29.7339    0.8180   28.5402 C   0  0  0  0  0  0  0  0  0  0  0  0
  -31.0985    0.9366   28.6188 C   0  0  0  0  0  0  0  0  0  0  0  0
  -31.5822    2.0056   28.6601 O   0  0  0  0  0  0  0  0  0  0  0  0
  -31.6521   -0.0931   29.0686 O   0  0  0  0  0  0  0  0  0  0  0  0
  -28.9495    1.8092   28.2593 O   0  0  0  0  0  0  0  0  0  0  0  0
  -29.0879   -2.5790   30.1073 O   0  0  0  0  0  0  0  0  0  0  0  0
  -29.1389   -3.3665   31.2668 C   0  0  0  0  0  0  0  0  0  0  0  0
  -29.4030   -4.6906   30.9155 C   0  0  0  0  0  0  0  0  0  0  0  0
  -28.8018   -5.4740   31.7836 F   0  0  0  0  0  0  0  0  0  0  0  0
  -30.7603   -4.9362   30.9802 F   0  0  0  0  0  0  0  0  0  0  0  0
  -30.2192   -2.7964   32.0749 O   0  0  0  0  0  0  0  0  0  0  0  0
  -28.9960   -5.0358   29.6946 F   0  0  0  0  0  0  0  0  0  0  0  0
  -29.9335   -2.2701   33.3840 C   0  0  0  0  0  0  0  0  0  0  0  0
  -30.2966   -3.1220   34.2875 C   0  0  0  0  0  0  0  0  0  0  0  0
  -29.3971   -3.5541   34.9649 O   0  0  0  0  0  0  0  0  0  0  0  0
  -31.5233   -3.1269   34.6982 N   0  0  0  0  0  0  0  0  0  0  0  0
  -31.9991   -4.1067   35.6804 C   0  0  0  0  0  0  0  0  0  0  0  0
  -31.3321   -4.7815   36.2825 C   0  0  0  0  0  0  0  0  0  0  0  0
 10 11  1  0
  1 17  1  0
 17 18  1  0
 18 19  1  0
 19 20  1  0
 19 21  2  0
 18 22  2  0
  6 23  1  0
 23 24  1  0
 24 25  1  0
 25 26  1  0
 25 27  1  0
 24 28  1  0
 25 29  1  0
 28 30  1  0
 30 31  1  0
 31 32  2  0
 31 33  1  0
 33 34  1  0
 34 35  2  0
  4  5  2  0
  5  8  1  0
  8  9  2  0
  9 10  1  0
 10  3  2  0
 11 12  2  0
 12 13  1  0
 13 14  2  0
 14 16  1  0
 16 15  2  0
 15 11  1  0
  1  2  2  0
  2  3  1  0
  3  4  1  0
  4  7  1  0
  7  6  2  0
  6  1  1  0
M  END

$$$$
