No_1386-gen_results/8p0m/2024-11-27-11-27-31/
     RDKit          3D

 22 22  0  0  0  0  0  0  0  0999 V2000
  -28.0162   -0.8135   28.8779 C   0  0  0  0  0  0  0  0  0  0  0  0
  -28.4690   -0.7850   29.8287 C   0  0  0  0  0  0  0  0  0  0  0  0
  -27.1356    0.2359   28.5352 C   0  0  0  0  0  0  0  0  0  0  0  0
  -26.8745    1.2825   29.3982 C   0  0  0  0  0  0  0  0  0  0  0  0
  -28.3613    0.1987   30.9244 C   0  0  0  0  0  0  0  0  0  0  0  0
  -27.5277    1.2234   30.6356 C   0  0  0  0  0  0  0  0  0  0  0  0
  -26.3987    0.2949   27.2279 C   0  0  0  0  0  0  0  0  0  0  0  0
  -26.0303    1.4479   26.7584 N   0  0  0  0  0  0  0  0  0  0  0  0
  -26.1891   -0.7238   26.5721 O   0  0  0  0  0  0  0  0  0  0  0  0
  -25.0939    1.6462   25.9590 C   0  0  0  0  0  0  0  0  0  0  0  0
  -24.1303    0.9041   25.5579 C   0  0  0  0  0  0  0  0  0  0  0  0
  -24.6326    3.1240   25.9160 C   0  0  0  0  0  0  0  0  0  0  0  0
  -23.2342    3.6606   25.2572 Cl  0  0  0  0  0  0  0  0  0  0  0  0
  -25.3668    4.0688   26.8087 C   0  0  0  0  0  0  0  0  0  0  0  0
  -24.7651    4.6449   27.8838 C   0  0  0  0  0  0  0  0  0  0  0  0
  -25.5297    5.5778   28.6966 C   0  0  0  0  0  0  0  0  0  0  0  0
  -25.0195    6.1786   29.8037 C   0  0  0  0  0  0  0  0  0  0  0  0
  -26.7287    4.9030   28.9883 F   0  0  0  0  0  0  0  0  0  0  0  0
  -25.9825    6.5870   27.7537 F   0  0  0  0  0  0  0  0  0  0  0  0
  -25.6213    6.7432   30.7625 N   0  0  0  0  0  0  0  0  0  0  0  0
  -25.1963    7.0213   31.9329 C   0  0  0  0  0  0  0  0  0  0  0  0
  -25.7634    7.4280   32.9619 C   0  0  0  0  0  0  0  0  0  0  0  0
  3  7  1  0
  7  8  1  0
  7  9  2  0
  8 10  1  0
 10 11  1  0
 10 12  1  0
 12 13  1  0
 12 14  1  0
 14 15  2  3
 15 16  1  0
 16 17  1  0
 16 18  1  0
 16 19  1  0
 17 20  1  0
 20 21  1  0
 21 22  2  0
  1  2  2  0
  2  5  1  0
  5  6  2  0
  6  4  1  0
  4  3  2  0
  3  1  1  0
M  END

$$$$
