No_195-gen_results/8p0m/2024-11-27-11-27-31/
     RDKit          3D

 35 40  0  0  0  0  0  0  0  0999 V2000
  -28.0162   -0.8135   28.8779 C   0  0  0  0  0  0  0  0  0  0  0  0
  -27.0636   -0.1189   28.6079 C   0  0  0  0  0  0  0  0  0  0  0  0
  -26.8756    1.1325   28.9134 C   0  0  0  0  0  0  0  0  0  0  0  0
  -27.9014    1.8066   29.6436 C   0  0  0  0  0  0  0  0  0  0  0  0
  -29.0458   -0.2316   29.7181 C   0  0  0  0  0  0  0  0  0  0  0  0
  -28.9402    1.0517   30.0597 C   0  0  0  0  0  0  0  0  0  0  0  0
  -25.5888   -0.8931   27.5976 Br  0  0  0  0  0  0  0  0  0  0  0  0
  -30.0303    1.6950   30.8789 C   0  0  0  0  0  0  0  0  0  0  0  0
  -31.0838    1.4674   30.9040 C   0  0  0  0  0  0  0  0  0  0  0  0
  -32.1198    2.1487   31.7319 C   0  0  0  0  0  0  0  0  0  0  0  0
  -31.6674    3.2158   32.5289 C   0  0  0  0  0  0  0  0  0  0  0  0
  -30.3422    3.5252   32.5052 C   0  0  0  0  0  0  0  0  0  0  0  0
  -29.4353    2.8380   31.7255 C   0  0  0  0  0  0  0  0  0  0  0  0
  -29.7973    4.6346   33.3352 C   0  0  0  0  0  0  0  0  0  0  0  0
  -30.0751    5.2408   34.1101 C   0  0  0  0  0  0  0  0  0  0  0  0
  -29.3664    6.3236   34.8109 C   0  0  0  0  0  0  0  0  0  0  0  0
  -28.0786    6.5765   34.3847 C   0  0  0  0  0  0  0  0  0  0  0  0
  -27.5332    5.8076   33.3674 C   0  0  0  0  0  0  0  0  0  0  0  0
  -28.2914    4.7981   32.7684 C   0  0  0  0  0  0  0  0  0  0  0  0
  -28.1670    3.2983   31.7274 N   0  0  0  0  0  0  0  0  0  0  0  0
  -33.4964    1.7634   31.7711 C   0  0  0  0  0  0  0  0  0  0  0  0
  -33.9695    0.9636   31.1380 N   0  0  0  0  0  0  0  0  0  0  0  0
  -35.2069    0.5529   31.0746 C   0  0  0  0  0  0  0  0  0  0  0  0
  -34.0895    2.1430   32.8167 O   0  0  0  0  0  0  0  0  0  0  0  0
  -35.5551   -0.3934   30.3143 C   0  0  0  0  0  0  0  0  0  0  0  0
  -34.7090   -0.9350   29.3877 C   0  0  0  0  0  0  0  0  0  0  0  0
  -33.3641   -0.5273   29.3281 C   0  0  0  0  0  0  0  0  0  0  0  0
  -33.0167    0.3554   30.1357 C   0  0  0  0  0  0  0  0  0  0  0  0
  -31.6652    0.7245   30.1996 C   0  0  0  0  0  0  0  0  0  0  0  0
  -36.9975   -0.9139   30.1912 C   0  0  0  0  0  0  0  0  0  0  0  0
  -37.4366   -1.7636   29.6126 O   0  0  0  0  0  0  0  0  0  0  0  0
  -37.8848   -0.1615   31.0626 N   0  0  0  0  0  0  0  0  0  0  0  0
  -39.2555   -0.4945   31.1445 C   0  0  0  0  0  0  0  0  0  0  0  0
  -40.0429    0.1089   31.6970 C   0  0  0  0  0  0  0  0  0  0  0  0
  -41.4416   -0.2078   31.8206 C   0  0  0  0  0  0  0  0  0  0  0  0
  2  7  1  0
  6  8  1  0
 12 14  1  0
 13 20  1  0
 19 20  1  0
 10 21  1  0
 21 22  1  0
 22 23  1  0
 21 24  2  0
 25 26  1  0
 22 28  1  0
 27 28  1  0
  9 29  1  0
 28 29  1  0
 25 30  1  0
 30 31  2  0
 30 32  1  0
 32 33  1  0
 33 34  2  3
 34 35  1  0
 23 25  1  0
 26 27  1  0
  8  9  2  0
  9 10  1  0
 10 11  2  0
 11 12  1  0
 12 13  2  0
 13  8  1  0
  1  2  2  0
  2  3  1  0
  3  4  2  0
  4  6  1  0
  6  5  2  0
  5  1  1  0
 14 15  2  0
 15 16  1  0
 16 17  2  0
 17 18  1  0
 18 19  2  0
 19 14  1  0
M  END

$$$$
