No_1853-gen_results/8p0m/2024-11-27-11-27-31/
     RDKit          3D

 20 20  0  0  0  0  0  0  0  0999 V2000
  -28.1229   -1.3353   28.4874 O   0  0  0  0  0  0  0  0  0  0  0  0
  -27.0637   -0.8242   28.8687 C   0  0  0  0  0  0  0  0  0  0  0  0
  -25.9773   -1.1378   28.8137 N   0  0  0  0  0  0  0  0  0  0  0  0
  -25.5373   -2.3638   28.4230 C   0  0  0  0  0  0  0  0  0  0  0  0
  -27.1628    0.7818   29.0832 C   0  0  0  0  0  0  0  0  0  0  0  0
  -26.2847    1.3220   29.5397 C   0  0  0  0  0  0  0  0  0  0  0  0
  -26.2189    2.7639   29.7837 C   0  0  0  0  0  0  0  0  0  0  0  0
  -27.3106    3.4822   29.3772 C   0  0  0  0  0  0  0  0  0  0  0  0
  -28.3755    2.7942   28.8093 C   0  0  0  0  0  0  0  0  0  0  0  0
  -28.3360    1.4276   28.6309 C   0  0  0  0  0  0  0  0  0  0  0  0
  -24.7076   -3.0524   29.6332 C   0  0  0  0  0  0  0  0  0  0  0  0
  -24.4698   -4.2884   29.4233 O   0  0  0  0  0  0  0  0  0  0  0  0
  -24.7270   -2.4357   30.7233 O   0  0  0  0  0  0  0  0  0  0  0  0
  -27.2831    4.9477   29.6068 C   0  0  0  0  0  0  0  0  0  0  0  0
  -26.2382    5.5947   29.4096 C   0  0  0  0  0  0  0  0  0  0  0  0
  -26.0004    6.7700   30.1908 C   0  0  0  0  0  0  0  0  0  0  0  0
  -24.6976    7.4935   30.1583 C   0  0  0  0  0  0  0  0  0  0  0  0
  -24.3370    8.3792   29.8142 C   0  0  0  0  0  0  0  0  0  0  0  0
  -24.9998    9.2698   28.9631 C   0  0  0  0  0  0  0  0  0  0  0  0
  -26.3577    9.0757   28.8759 C   0  0  0  0  0  0  0  0  0  0  0  0
  1  2  2  0
  2  3  1  0
  3  4  1  0
  2  5  1  0
  4 11  1  0
 11 12  2  0
 11 13  1  0
  8 14  1  0
 14 15  1  0
 15 16  2  3
 16 17  1  0
 17 18  2  3
 18 19  1  0
 19 20  2  0
  5  6  2  0
  6  7  1  0
  7  8  2  0
  8  9  1  0
  9 10  2  0
 10  5  1  0
M  END

$$$$
