No_1771-gen_results/8p0m/2024-11-27-11-27-31/
     RDKit          3D

 24 26  0  0  0  0  0  0  0  0999 V2000
  -28.0162   -0.8135   28.8779 C   0  0  0  0  0  0  0  0  0  0  0  0
  -27.0636   -0.1189   28.6079 C   0  0  0  0  0  0  0  0  0  0  0  0
  -26.9287    1.1713   29.0083 C   0  0  0  0  0  0  0  0  0  0  0  0
  -25.7702    2.0341   28.6884 C   0  0  0  0  0  0  0  0  0  0  0  0
  -24.7141    1.4431   27.9188 C   0  0  0  0  0  0  0  0  0  0  0  0
  -24.8590    0.0783   27.5836 C   0  0  0  0  0  0  0  0  0  0  0  0
  -25.9647   -0.6606   27.9164 C   0  0  0  0  0  0  0  0  0  0  0  0
  -28.0422   -1.5426   30.2417 C   0  0  0  0  0  0  0  0  0  0  0  0
  -29.0635   -2.4584   30.5917 C   0  0  0  0  0  0  0  0  0  0  0  0
  -30.3213   -2.0364   30.3596 C   0  0  0  0  0  0  0  0  0  0  0  0
  -31.2811   -2.9649   30.5548 C   0  0  0  0  0  0  0  0  0  0  0  0
  -30.9842   -4.2841   31.0132 C   0  0  0  0  0  0  0  0  0  0  0  0
  -29.6856   -4.6918   31.2675 C   0  0  0  0  0  0  0  0  0  0  0  0
  -28.6548   -3.7547   30.9804 C   0  0  0  0  0  0  0  0  0  0  0  0
  -23.5301    2.1769   27.5648 C   0  0  0  0  0  0  0  0  0  0  0  0
  -22.4118    2.1650   27.8659 N   0  0  0  0  0  0  0  0  0  0  0  0
  -23.8160    2.9811   26.4569 O   0  0  0  0  0  0  0  0  0  0  0  0
  -27.8673   -0.4447   31.3425 C   0  0  0  0  0  0  0  0  0  0  0  0
  -26.7475   -2.1527   30.2798 F   0  0  0  0  0  0  0  0  0  0  0  0
  -28.8002    0.4038   31.6300 C   0  0  0  0  0  0  0  0  0  0  0  0
  -28.6273    1.3237   32.6887 C   0  0  0  0  0  0  0  0  0  0  0  0
  -27.3520    1.4647   33.2238 C   0  0  0  0  0  0  0  0  0  0  0  0
  -26.5393   -0.3374   32.0071 C   0  0  0  0  0  0  0  0  0  0  0  0
  -26.3269    0.6155   32.9595 C   0  0  0  0  0  0  0  0  0  0  0  0
  1  2  1  0
  1  8  1  0
  8  9  1  0
  5 15  1  0
 15 16  1  0
 15 17  2  0
  8 18  1  0
  8 19  1  0
  2  3  2  0
  3  4  1  0
  4  5  2  0
  5  6  1  0
  6  7  2  0
  7  2  1  0
 18 20  2  0
 20 21  1  0
 21 22  2  0
 22 24  1  0
 24 23  2  0
 23 18  1  0
  9 10  2  0
 10 11  1  0
 11 12  2  0
 12 13  1  0
 13 14  2  0
 14  9  1  0
M  END

$$$$
