No_1316-gen_results/8p0m/2024-11-27-11-27-31/
     RDKit          3D

 30 32  0  0  0  0  0  0  0  0999 V2000
  -28.0162   -0.8135   28.8779 C   0  0  0  0  0  0  0  0  0  0  0  0
  -27.0636   -0.1189   28.6079 C   0  0  0  0  0  0  0  0  0  0  0  0
  -25.7923   -0.4302   29.0761 C   0  0  0  0  0  0  0  0  0  0  0  0
  -24.5456    0.3494   28.8225 C   0  0  0  0  0  0  0  0  0  0  0  0
  -24.6586    1.4196   27.8878 C   0  0  0  0  0  0  0  0  0  0  0  0
  -25.9471    1.6811   27.3792 C   0  0  0  0  0  0  0  0  0  0  0  0
  -27.0439    0.9739   27.6871 C   0  0  0  0  0  0  0  0  0  0  0  0
  -29.1882   -0.1472   29.0918 N   0  0  0  0  0  0  0  0  0  0  0  0
  -30.2017   -0.7833   29.7303 C   0  0  0  0  0  0  0  0  0  0  0  0
  -23.4507    2.1524   27.6005 C   0  0  0  0  0  0  0  0  0  0  0  0
  -22.5166    1.8358   27.2546 N   0  0  0  0  0  0  0  0  0  0  0  0
  -23.7355    3.5749   27.4557 N   0  0  0  0  0  0  0  0  0  0  0  0
  -31.5099   -0.4774   29.4468 C   0  0  0  0  0  0  0  0  0  0  0  0
  -29.9916   -1.6695   30.6282 O   0  0  0  0  0  0  0  0  0  0  0  0
  -32.3768   -1.4375   29.3807 C   0  0  0  0  0  0  0  0  0  0  0  0
  -32.3788   -2.3801   30.1660 F   0  0  0  0  0  0  0  0  0  0  0  0
  -33.7101   -0.9200   29.3681 F   0  0  0  0  0  0  0  0  0  0  0  0
  -32.2857   -2.1281   27.9348 C   0  0  0  0  0  0  0  0  0  0  0  0
  -32.1511   -3.3322   27.8864 O   0  0  0  0  0  0  0  0  0  0  0  0
  -32.6693   -1.4463   26.8557 N   0  0  0  0  0  0  0  0  0  0  0  0
  -32.8475   -0.0295   26.7994 C   0  0  0  0  0  0  0  0  0  0  0  0
  -32.6386   -2.1086   25.5476 C   0  0  0  0  0  0  0  0  0  0  0  0
  -32.9643    0.4542   25.5282 C   0  0  0  0  0  0  0  0  0  0  0  0
  -32.9194   -0.7430   24.6918 C   0  0  0  0  0  0  0  0  0  0  0  0
  -31.9954    1.4136   25.0874 N   0  0  0  0  0  0  0  0  0  0  0  0
  -30.8163    1.3628   25.4163 C   0  0  0  0  0  0  0  0  0  0  0  0
  -29.8720    2.4386   25.0125 C   0  0  0  0  0  0  0  0  0  0  0  0
  -32.1594    2.0326   23.7702 C   0  0  0  0  0  0  0  0  0  0  0  0
  -31.4040    3.1976   23.3775 C   0  0  0  0  0  0  0  0  0  0  0  0
  -30.0272    3.0728   23.7600 C   0  0  0  0  0  0  0  0  0  0  0  0
  1  2  1  0
  1  8  1  0
  8  9  1  0
  5 10  1  0
 10 11  2  0
 10 12  1  0
  9 13  1  0
  9 14  2  0
 13 15  1  0
 15 16  1  0
 15 17  1  0
 15 18  1  0
 18 19  2  0
 18 20  1  0
 20 21  1  0
 20 22  1  0
 21 23  2  0
 22 24  1  0
 23 24  1  0
 23 25  1  0
 25 26  1  0
 25 28  1  0
 27 30  1  0
 29 30  1  0
 26 27  1  0
 29 28  1  0
  2  3  2  0
  3  4  1  0
  4  5  2  0
  5  6  1  0
  6  7  2  0
  7  2  1  0
M  END

$$$$
