No_1353-gen_results/8p0m/2024-11-27-11-27-31/
     RDKit          3D

 15 16  0  0  0  0  0  0  0  0999 V2000
  -28.0162   -0.8135   28.8779 C   0  0  0  0  0  0  0  0  0  0  0  0
  -28.4690   -0.7850   29.8287 C   0  0  0  0  0  0  0  0  0  0  0  0
  -26.5042   -0.7777   28.8766 C   0  0  0  0  0  0  0  0  0  0  0  0
  -25.8103   -0.8531   30.1028 C   0  0  0  0  0  0  0  0  0  0  0  0
  -27.9906   -0.8916   31.2257 C   0  0  0  0  0  0  0  0  0  0  0  0
  -26.6042   -0.8676   31.2652 C   0  0  0  0  0  0  0  0  0  0  0  0
  -29.9203   -0.8331   29.8239 F   0  0  0  0  0  0  0  0  0  0  0  0
  -24.5614   -0.9140   30.3140 F   0  0  0  0  0  0  0  0  0  0  0  0
  -25.6768   -0.7710   27.7897 O   0  0  0  0  0  0  0  0  0  0  0  0
  -25.1977    0.4640   27.3333 C   0  0  0  0  0  0  0  0  0  0  0  0
  -25.7461    0.9026   26.1107 C   0  0  0  0  0  0  0  0  0  0  0  0
  -24.1194    1.0561   27.9615 C   0  0  0  0  0  0  0  0  0  0  0  0
  -23.5236    2.1650   27.3459 C   0  0  0  0  0  0  0  0  0  0  0  0
  -25.1468    2.0005   25.5271 C   0  0  0  0  0  0  0  0  0  0  0  0
  -24.0059    2.6430   26.1629 C   0  0  0  0  0  0  0  0  0  0  0  0
  2  7  1  0
  4  8  1  0
  3  9  1  0
  9 10  1  0
 10 11  2  0
 11 14  1  0
 14 15  2  0
 15 13  1  0
 13 12  2  0
 12 10  1  0
  1  2  2  0
  2  5  1  0
  5  6  2  0
  6  4  1  0
  4  3  2  0
  3  1  1  0
M  END

$$$$
