No_1476-gen_results/8p0m/2024-11-27-11-27-31/
     RDKit          3D

 13 13  0  0  0  0  0  0  0  0999 V2000
  -28.0162   -0.8135   28.8779 C   0  0  0  0  0  0  0  0  0  0  0  0
  -28.4690   -0.7850   29.8287 C   0  0  0  0  0  0  0  0  0  0  0  0
  -27.0871    0.2903   28.6377 C   0  0  0  0  0  0  0  0  0  0  0  0
  -26.8317    1.2487   29.5869 C   0  0  0  0  0  0  0  0  0  0  0  0
  -28.3914    0.0801   31.0065 C   0  0  0  0  0  0  0  0  0  0  0  0
  -27.4940    1.1521   30.7841 C   0  0  0  0  0  0  0  0  0  0  0  0
  -26.3172    0.3994   27.3653 C   0  0  0  0  0  0  0  0  0  0  0  0
  -25.4556   -0.3605   27.3147 F   0  0  0  0  0  0  0  0  0  0  0  0
  -25.7398    1.6637   27.2272 F   0  0  0  0  0  0  0  0  0  0  0  0
  -27.3226    0.2497   26.3656 F   0  0  0  0  0  0  0  0  0  0  0  0
  -29.4503   -2.0220   30.2365 C   0  0  0  0  0  0  0  0  0  0  0  0
  -29.0304   -3.1770   30.3804 O   0  0  0  0  0  0  0  0  0  0  0  0
  -30.6696   -1.8164   30.4746 O   0  0  0  0  0  0  0  0  0  0  0  0
  3  7  1  0
  7  8  1  0
  7  9  1  0
  7 10  1  0
  2 11  1  0
 11 12  1  0
 11 13  2  0
  1  2  2  0
  2  5  1  0
  5  6  2  0
  6  4  1  0
  4  3  2  0
  3  1  1  0
M  END

$$$$
