No_1639-gen_results/8p0m/2024-11-27-11-27-31/
     RDKit          3D

 19 19  0  0  0  0  0  0  0  0999 V2000
  -28.0162   -0.8135   28.8779 C   0  0  0  0  0  0  0  0  0  0  0  0
  -27.0636   -0.1189   28.6079 C   0  0  0  0  0  0  0  0  0  0  0  0
  -27.0010    0.6913   27.4910 C   0  0  0  0  0  0  0  0  0  0  0  0
  -28.1373    0.7363   26.6350 C   0  0  0  0  0  0  0  0  0  0  0  0
  -28.1438    1.4322   25.4880 C   0  0  0  0  0  0  0  0  0  0  0  0
  -29.2801   -0.5524   28.2479 C   0  0  0  0  0  0  0  0  0  0  0  0
  -29.2552    0.0950   27.0446 C   0  0  0  0  0  0  0  0  0  0  0  0
  -27.2841    1.1886   24.5425 C   0  0  0  0  0  0  0  0  0  0  0  0
  -29.1941    2.4266   25.2325 C   0  0  0  0  0  0  0  0  0  0  0  0
  -26.2565    0.2922   24.7238 C   0  0  0  0  0  0  0  0  0  0  0  0
  -28.2416   -1.5756   30.1905 C   0  0  0  0  0  0  0  0  0  0  0  0
  -28.8727   -2.6084   30.2484 O   0  0  0  0  0  0  0  0  0  0  0  0
  -27.7717   -1.0405   31.3126 O   0  0  0  0  0  0  0  0  0  0  0  0
  -24.8798    0.6403   25.0656 C   0  0  0  0  0  0  0  0  0  0  0  0
  -24.4990    1.3785   26.1716 C   0  0  0  0  0  0  0  0  0  0  0  0
  -23.2255    1.8534   26.3737 C   0  0  0  0  0  0  0  0  0  0  0  0
  -22.7956    2.2151   27.6531 C   0  0  0  0  0  0  0  0  0  0  0  0
  -23.6458    2.1599   28.7628 C   0  0  0  0  0  0  0  0  0  0  0  0
  -24.9088    1.9192   28.5415 C   0  0  0  0  0  0  0  0  0  0  0  0
  4  5  1  0
  5  8  2  3
  5  9  1  0
  8 10  1  0
  1 11  1  0
 11 12  2  0
 11 13  1  0
 10 14  2  3
 14 15  1  0
 15 16  2  3
 16 17  1  0
 17 18  2  3
 18 19  1  0
  1  2  2  0
  2  3  1  0
  3  4  2  0
  4  7  1  0
  7  6  2  0
  6  1  1  0
M  END

$$$$
