No_1286-gen_results/8p0m/2024-11-27-11-27-31/
     RDKit          3D

 18 20  0  0  0  0  0  0  0  0999 V2000
  -28.0162   -0.8135   28.8779 C   0  0  0  0  0  0  0  0  0  0  0  0
  -27.0636   -0.1190   28.6079 C   0  0  0  0  0  0  0  0  0  0  0  0
  -27.0010    0.6913   27.4910 C   0  0  0  0  0  0  0  0  0  0  0  0
  -25.8548    1.4825   27.0830 C   0  0  0  0  0  0  0  0  0  0  0  0
  -24.6901    1.4526   27.8807 C   0  0  0  0  0  0  0  0  0  0  0  0
  -24.7379    0.6010   29.0416 C   0  0  0  0  0  0  0  0  0  0  0  0
  -25.8234   -0.1688   29.3887 C   0  0  0  0  0  0  0  0  0  0  0  0
  -29.2455   -0.0678   29.1937 C   0  0  0  0  0  0  0  0  0  0  0  0
  -30.2428   -0.7042   29.8595 C   0  0  0  0  0  0  0  0  0  0  0  0
  -30.0569   -2.0600   30.2573 C   0  0  0  0  0  0  0  0  0  0  0  0
  -28.8600   -2.6861   30.1797 C   0  0  0  0  0  0  0  0  0  0  0  0
  -27.8047   -2.0076   29.6720 C   0  0  0  0  0  0  0  0  0  0  0  0
  -26.4599   -2.5680   29.7580 C   0  0  0  0  0  0  0  0  0  0  0  0
  -25.3639   -1.6081   29.6579 C   0  0  0  0  0  0  0  0  0  0  0  0
  -28.1416    0.8496   26.6028 C   0  0  0  0  0  0  0  0  0  0  0  0
  -29.0093    1.6597   26.8311 O   0  0  0  0  0  0  0  0  0  0  0  0
  -28.2054   -0.0006   25.6094 O   0  0  0  0  0  0  0  0  0  0  0  0
  -28.7259   -3.8851   30.7238 O   0  0  0  0  0  0  0  0  0  0  0  0
  1  2  1  0
  8  9  1  0
 10 11  1  0
  1 12  1  0
 11 12  1  0
 12 13  1  0
  7 14  1  0
 13 14  1  0
  3 15  1  0
 15 16  2  0
 15 17  1  0
 11 18  2  0
 10  9  1  0
  8  1  1  0
  2  3  2  0
  3  4  1  0
  4  5  2  0
  5  6  1  0
  6  7  2  0
  7  2  1  0
M  END

$$$$
