No_1736-gen_results/8p0m/2024-11-27-11-27-31/
     RDKit          3D

 19 19  0  0  0  0  0  0  0  0999 V2000
  -28.0162   -0.8135   28.8779 C   0  0  0  0  0  0  0  0  0  0  0  0
  -27.0636   -0.1189   28.6079 C   0  0  0  0  0  0  0  0  0  0  0  0
  -26.9716    0.7139   27.5060 C   0  0  0  0  0  0  0  0  0  0  0  0
  -25.8205    1.4909   27.1160 C   0  0  0  0  0  0  0  0  0  0  0  0
  -24.8579    1.3421   27.6008 C   0  0  0  0  0  0  0  0  0  0  0  0
  -24.6224    0.5295   28.8144 C   0  0  0  0  0  0  0  0  0  0  0  0
  -25.7344   -0.1811   29.1908 C   0  0  0  0  0  0  0  0  0  0  0  0
  -28.6269   -0.4745   30.2487 C   0  0  0  0  0  0  0  0  0  0  0  0
  -29.7287   -1.2771   30.7236 C   0  0  0  0  0  0  0  0  0  0  0  0
  -23.5103    2.1338   27.3073 C   0  0  0  0  0  0  0  0  0  0  0  0
  -22.5333    2.1914   28.1368 N   0  0  0  0  0  0  0  0  0  0  0  0
  -23.5901    3.0428   26.3166 N   0  0  0  0  0  0  0  0  0  0  0  0
  -30.0842   -2.2039   29.9645 C   0  0  0  0  0  0  0  0  0  0  0  0
  -31.2536   -2.9561   30.5020 C   0  0  0  0  0  0  0  0  0  0  0  0
  -31.7046   -4.0568   29.7146 C   0  0  0  0  0  0  0  0  0  0  0  0
  -32.5329   -4.2154   29.0101 C   0  0  0  0  0  0  0  0  0  0  0  0
  -32.7776   -5.3936   28.1170 C   0  0  0  0  0  0  0  0  0  0  0  0
  -31.7890   -6.3641   28.1566 C   0  0  0  0  0  0  0  0  0  0  0  0
  -30.6951   -6.2323   28.9501 C   0  0  0  0  0  0  0  0  0  0  0  0
  1  8  1  0
  8  9  1  0
  5 10  1  0
 10 11  1  0
 10 12  2  0
  9 13  2  3
 13 14  1  0
 14 15  2  3
 15 16  1  0
 16 17  2  3
 17 18  1  0
 18 19  2  0
  1  2  1  0
  2  3  2  0
  3  4  1  0
  4  5  2  0
  5  6  1  0
  6  7  2  0
  7  2  1  0
M  END

$$$$
