No_1640-gen_results/8p0m/2024-11-27-11-27-31/
     RDKit          3D

 10 10  0  0  0  0  0  0  0  0999 V2000
  -28.0162   -0.8135   28.8779 C   0  0  0  0  0  0  0  0  0  0  0  0
  -27.0636   -0.1189   28.6079 C   0  0  0  0  0  0  0  0  0  0  0  0
  -26.9716    0.7139   27.5060 C   0  0  0  0  0  0  0  0  0  0  0  0
  -25.8205    1.4910   27.1160 C   0  0  0  0  0  0  0  0  0  0  0  0
  -24.6562    1.4242   27.9180 C   0  0  0  0  0  0  0  0  0  0  0  0
  -24.6847    0.5901   29.0659 C   0  0  0  0  0  0  0  0  0  0  0  0
  -25.8099   -0.1266   29.3338 C   0  0  0  0  0  0  0  0  0  0  0  0
  -28.0445   -1.5734   30.1690 C   0  0  0  0  0  0  0  0  0  0  0  0
  -29.1245   -2.2374   30.4106 F   0  0  0  0  0  0  0  0  0  0  0  0
  -26.8488   -2.4628   30.3229 C   0  0  0  0  0  0  0  0  0  0  0  0
  1  8  1  0
  8  9  1  0
  8 10  1  0
  1  2  1  0
  2  3  2  0
  3  4  1  0
  4  5  2  0
  5  6  1  0
  6  7  2  0
  7  2  1  0
M  END

$$$$
