No_1048-gen_results/8p0m/2024-11-27-11-27-31/
     RDKit          3D

 16 16  0  0  0  0  0  0  0  0999 V2000
  -28.0162   -0.8135   28.8779 C   0  0  0  0  0  0  0  0  0  0  0  0
  -27.0636   -0.1190   28.6079 C   0  0  0  0  0  0  0  0  0  0  0  0
  -27.0010    0.6913   27.4910 C   0  0  0  0  0  0  0  0  0  0  0  0
  -28.1373    0.7363   26.6350 C   0  0  0  0  0  0  0  0  0  0  0  0
  -29.2360    0.0765   27.0690 C   0  0  0  0  0  0  0  0  0  0  0  0
  -29.2177   -0.6429   28.1747 C   0  0  0  0  0  0  0  0  0  0  0  0
  -30.4152    0.1590   26.1820 C   0  0  0  0  0  0  0  0  0  0  0  0
  -31.2774   -0.5117   26.4083 O   0  0  0  0  0  0  0  0  0  0  0  0
  -30.2201    0.6553   24.9449 O   0  0  0  0  0  0  0  0  0  0  0  0
  -25.7108   -0.1989   29.4316 C   0  0  0  0  0  0  0  0  0  0  0  0
  -25.5855   -0.5878   30.7574 Cl  0  0  0  0  0  0  0  0  0  0  0  0
  -24.4514    0.1318   28.6678 C   0  0  0  0  0  0  0  0  0  0  0  0
  -23.2989   -0.3983   29.2039 C   0  0  0  0  0  0  0  0  0  0  0  0
  -23.1674   -1.5984   29.7163 C   0  0  0  0  0  0  0  0  0  0  0  0
  -22.0755    0.3955   28.8627 C   0  0  0  0  0  0  0  0  0  0  0  0
  -20.9280   -0.2030   28.9610 O   0  0  0  0  0  0  0  0  0  0  0  0
  5  7  1  0
  7  8  1  0
  7  9  2  0
  2 10  1  0
 10 11  1  0
 10 12  1  0
 12 13  1  0
 13 14  1  0
 13 15  1  0
 15 16  2  0
  1  2  2  0
  2  3  1  0
  3  4  2  0
  4  5  1  0
  5  6  2  0
  6  1  1  0
M  END

$$$$
