No_1756-gen_results/8p0m/2024-11-27-11-27-31/
     RDKit          3D

 14 15  0  0  0  0  0  0  0  0999 V2000
  -28.1229   -1.3353   28.4874 O   0  0  0  0  0  0  0  0  0  0  0  0
  -27.4806   -0.4044   28.7094 C   0  0  0  0  0  0  0  0  0  0  0  0
  -26.3804   -0.0867   27.9394 C   0  0  0  0  0  0  0  0  0  0  0  0
  -27.4232    0.1749   30.0549 N   0  0  0  0  0  0  0  0  0  0  0  0
  -26.1558    0.1159   26.9677 C   0  0  0  0  0  0  0  0  0  0  0  0
  -25.8030    0.9180   26.1145 C   0  0  0  0  0  0  0  0  0  0  0  0
  -24.7358    1.9082   26.5542 C   0  0  0  0  0  0  0  0  0  0  0  0
  -24.4114    1.7067   27.9228 C   0  0  0  0  0  0  0  0  0  0  0  0
  -25.1987    0.8236   28.6649 C   0  0  0  0  0  0  0  0  0  0  0  0
  -28.4051    0.0171   30.8663 C   0  0  0  0  0  0  0  0  0  0  0  0
  -29.2362    0.9351   30.9856 C   0  0  0  0  0  0  0  0  0  0  0  0
  -28.9794    2.2021   30.4250 C   0  0  0  0  0  0  0  0  0  0  0  0
  -27.6964    2.5869   30.3927 C   0  0  0  0  0  0  0  0  0  0  0  0
  -26.5909    1.3207   30.1852 C   0  0  0  0  0  0  0  0  0  0  0  0
  1  2  2  0
  2  3  1  0
  2  4  1  0
  4 10  1  0
 11 12  1  0
  4 14  1  0
 13 14  1  0
 10 11  1  0
 12 13  1  0
  3  5  2  0
  5  6  1  0
  6  7  2  0
  7  8  1  0
  8  9  2  0
  9  3  1  0
M  END

$$$$
