No_1499-gen_results/8p0m/2024-11-27-11-27-31/
     RDKit          3D

 26 28  0  0  0  0  0  0  0  0999 V2000
  -28.0544   -1.0498   28.7246 N   0  0  0  0  0  0  0  0  0  0  0  0
  -28.6544   -0.5669   29.5076 C   0  0  0  0  0  0  0  0  0  0  0  0
  -30.0039   -0.7251   29.6776 C   0  0  0  0  0  0  0  0  0  0  0  0
  -30.7447   -0.6085   30.7356 C   0  0  0  0  0  0  0  0  0  0  0  0
  -30.1396    0.1191   31.8527 C   0  0  0  0  0  0  0  0  0  0  0  0
  -28.7768    0.3636   31.8250 C   0  0  0  0  0  0  0  0  0  0  0  0
  -27.9809   -0.0729   30.7583 C   0  0  0  0  0  0  0  0  0  0  0  0
  -26.5985   -1.1032   28.8956 C   0  0  0  0  0  0  0  0  0  0  0  0
  -25.9389   -0.5690   29.9619 C   0  0  0  0  0  0  0  0  0  0  0  0
  -26.5895   -0.0922   30.8781 C   0  0  0  0  0  0  0  0  0  0  0  0
  -32.1034   -0.6838   30.6926 O   0  0  0  0  0  0  0  0  0  0  0  0
  -32.7326   -1.5636   30.1712 C   0  0  0  0  0  0  0  0  0  0  0  0
  -33.1220   -1.3989   28.8514 C   0  0  0  0  0  0  0  0  0  0  0  0
  -33.4896   -2.4500   28.0300 C   0  0  0  0  0  0  0  0  0  0  0  0
  -33.5728   -3.7320   28.5656 C   0  0  0  0  0  0  0  0  0  0  0  0
  -33.1567   -3.9327   29.8952 C   0  0  0  0  0  0  0  0  0  0  0  0
  -32.6411   -2.8546   30.6571 C   0  0  0  0  0  0  0  0  0  0  0  0
  -33.2016   -5.3180   30.4041 C   0  0  0  0  0  0  0  0  0  0  0  0
  -33.7387   -6.1941   30.1076 O   0  0  0  0  0  0  0  0  0  0  0  0
  -32.7029   -5.3906   31.6961 O   0  0  0  0  0  0  0  0  0  0  0  0
  -31.7330   -6.2203   31.9753 C   0  0  0  0  0  0  0  0  0  0  0  0
  -30.5857   -5.6935   32.1418 C   0  0  0  0  0  0  0  0  0  0  0  0
  -30.0627   -5.2673   33.2655 C   0  0  0  0  0  0  0  0  0  0  0  0
  -29.8390   -4.0153   33.5690 C   0  0  0  0  0  0  0  0  0  0  0  0
  -29.5995   -3.1049   32.4251 C   0  0  0  0  0  0  0  0  0  0  0  0
  -29.4690   -3.6764   31.1689 C   0  0  0  0  0  0  0  0  0  0  0  0
  4 11  1  0
 11 12  1  0
 16 18  1  0
 18 19  2  0
 18 20  1  0
 20 21  1  0
 21 22  2  3
 22 23  1  0
 23 24  2  3
 24 25  1  0
 25 26  2  0
 12 13  2  0
 13 14  1  0
 14 15  2  0
 15 16  1  0
 16 17  2  0
 17 12  1  0
  2  3  1  0
  3  4  2  0
  4  5  1  0
  5  6  2  0
  6  7  1  0
  1  2  2  0
  2  7  1  0
  7 10  2  0
 10  9  1  0
  9  8  2  0
  8  1  1  0
M  END

$$$$
