No_1966-gen_results/8p0m/2024-11-27-11-27-31/
     RDKit          3D

 10 10  0  0  0  0  0  0  0  0999 V2000
  -28.0162   -0.8135   28.8779 C   0  0  0  0  0  0  0  0  0  0  0  0
  -27.0636   -0.1189   28.6079 C   0  0  0  0  0  0  0  0  0  0  0  0
  -26.9716    0.7139   27.5060 C   0  0  0  0  0  0  0  0  0  0  0  0
  -28.1053    0.7744   26.6421 C   0  0  0  0  0  0  0  0  0  0  0  0
  -29.2008    0.1044   27.0527 C   0  0  0  0  0  0  0  0  0  0  0  0
  -29.2096   -0.6029   28.1853 C   0  0  0  0  0  0  0  0  0  0  0  0
  -30.3702    0.2264   26.1604 C   0  0  0  0  0  0  0  0  0  0  0  0
  -30.3387    0.2161   24.9661 O   0  0  0  0  0  0  0  0  0  0  0  0
  -31.5457   -0.2299   26.7528 O   0  0  0  0  0  0  0  0  0  0  0  0
  -25.7528   -0.0901   29.1931 F   0  0  0  0  0  0  0  0  0  0  0  0
  5  7  1  0
  7  8  2  0
  7  9  1  0
  2 10  1  0
  1  2  2  0
  2  3  1  0
  3  4  2  0
  4  5  1  0
  5  6  2  0
  6  1  1  0
M  END

$$$$
