No_1244-gen_results/8p0m/2024-11-27-11-27-31/
     RDKit          3D

 35 37  0  0  0  0  0  0  0  0999 V2000
  -28.0162   -0.8135   28.8779 C   0  0  0  0  0  0  0  0  0  0  0  0
  -27.0636   -0.1190   28.6079 C   0  0  0  0  0  0  0  0  0  0  0  0
  -25.7647   -0.3897   29.0360 C   0  0  0  0  0  0  0  0  0  0  0  0
  -25.5296   -1.5302   29.9014 C   0  0  0  0  0  0  0  0  0  0  0  0
  -24.3236   -1.9076   30.4324 C   0  0  0  0  0  0  0  0  0  0  0  0
  -27.9274   -1.9227   29.7902 C   0  0  0  0  0  0  0  0  0  0  0  0
  -26.6914   -2.2806   30.2948 C   0  0  0  0  0  0  0  0  0  0  0  0
  -23.6374   -0.9129   31.2435 C   0  0  0  0  0  0  0  0  0  0  0  0
  -28.9938   -2.6977   30.1488 O   0  0  0  0  0  0  0  0  0  0  0  0
  -23.5751    0.4253   30.8213 C   0  0  0  0  0  0  0  0  0  0  0  0
  -29.3115   -2.9029   31.4572 C   0  0  0  0  0  0  0  0  0  0  0  0
  -29.7091   -4.2272   31.7116 C   0  0  0  0  0  0  0  0  0  0  0  0
  -30.9377   -4.4390   31.6269 O   0  0  0  0  0  0  0  0  0  0  0  0
  -31.8106   -3.8398   31.2388 C   0  0  0  0  0  0  0  0  0  0  0  0
  -32.0349   -2.6418   31.6183 C   0  0  0  0  0  0  0  0  0  0  0  0
  -31.6780   -2.3699   32.7250 C   0  0  0  0  0  0  0  0  0  0  0  0
  -30.3005   -1.8054   32.9467 C   0  0  0  0  0  0  0  0  0  0  0  0
  -29.1992   -2.0336   32.4175 O   0  0  0  0  0  0  0  0  0  0  0  0
  -33.4703   -2.3324   31.5014 F   0  0  0  0  0  0  0  0  0  0  0  0
  -32.9840   -4.6071   31.4266 F   0  0  0  0  0  0  0  0  0  0  0  0
  -32.5066   -1.2851   33.4084 O   0  0  0  0  0  0  0  0  0  0  0  0
  -27.1358    1.0500   27.6708 C   0  0  0  0  0  0  0  0  0  0  0  0
  -23.6656    0.6602   29.6493 C   0  0  0  0  0  0  0  0  0  0  0  0
  -22.9127    1.9555   29.2172 C   0  0  0  0  0  0  0  0  0  0  0  0
  -24.8019    0.3851   28.8093 C   0  0  0  0  0  0  0  0  0  0  0  0
  -27.8283    0.9907   26.7873 O   0  0  0  0  0  0  0  0  0  0  0  0
  -22.3734    1.9092   28.0272 O   0  0  0  0  0  0  0  0  0  0  0  0
  -26.8249    2.3338   28.1149 N   0  0  0  0  0  0  0  0  0  0  0  0
  -26.9061    3.5046   27.3664 C   0  0  0  0  0  0  0  0  0  0  0  0
  -31.6892   -3.9560   29.6232 C   0  0  0  0  0  0  0  0  0  0  0  0
  -31.9855   -2.9698   28.9736 O   0  0  0  0  0  0  0  0  0  0  0  0
  -27.1938    4.5229   28.0710 C   0  0  0  0  0  0  0  0  0  0  0  0
  -27.5694    5.6179   27.8372 C   0  0  0  0  0  0  0  0  0  0  0  0
  -27.8797    6.7164   28.7343 C   0  0  0  0  0  0  0  0  0  0  0  0
  -27.6164    6.5210   30.0703 C   0  0  0  0  0  0  0  0  0  0  0  0
  4  5  1  0
  5  8  1  0
  6  9  1  0
  8 10  1  0
  9 11  1  0
 11 12  1  0
 12 13  1  0
 13 14  1  0
 14 15  1  0
 15 16  2  3
 16 17  1  0
 11 18  1  0
 17 18  1  0
 15 19  1  0
 14 20  1  0
 16 21  1  0
  2 22  1  0
 10 23  2  0
 23 24  1  0
  3 25  1  0
 23 25  1  0
 22 26  2  0
 24 27  1  0
 22 28  1  0
 28 29  1  0
 14 30  1  0
 30 31  2  0
 29 32  2  3
 32 33  1  0
 33 34  2  3
 34 35  1  0
  1  2  2  0
  2  3  1  0
  3  4  2  0
  4  7  1  0
  7  6  2  0
  6  1  1  0
M  END

$$$$
