No_1179-gen_results/8p0m/2024-11-27-11-27-31/
     RDKit          3D

 35 40  0  0  0  0  0  0  0  0999 V2000
  -28.0544   -1.0498   28.7246 N   0  0  0  0  0  0  0  0  0  0  0  0
  -26.9659   -0.4722   28.7709 C   0  0  0  0  0  0  0  0  0  0  0  0
  -25.9289   -1.0196   29.5059 C   0  0  0  0  0  0  0  0  0  0  0  0
  -24.5844   -0.4437   29.6599 C   0  0  0  0  0  0  0  0  0  0  0  0
  -23.5559   -0.9737   30.4302 C   0  0  0  0  0  0  0  0  0  0  0  0
  -22.3698   -0.2390   30.5384 C   0  0  0  0  0  0  0  0  0  0  0  0
  -22.1799    0.8353   29.5937 C   0  0  0  0  0  0  0  0  0  0  0  0
  -23.1118    1.2507   28.7770 C   0  0  0  0  0  0  0  0  0  0  0  0
  -24.3408    0.6581   28.7544 C   0  0  0  0  0  0  0  0  0  0  0  0
  -26.5490    0.5023   27.8945 N   0  0  0  0  0  0  0  0  0  0  0  0
  -25.4037    1.0899   27.9047 C   0  0  0  0  0  0  0  0  0  0  0  0
  -25.1647    2.0768   27.0780 F   0  0  0  0  0  0  0  0  0  0  0  0
  -29.0819   -0.1052   28.8708 C   0  0  0  0  0  0  0  0  0  0  0  0
  -29.7568    0.0396   30.1463 C   0  0  0  0  0  0  0  0  0  0  0  0
  -29.6159   -0.8664   31.0194 C   0  0  0  0  0  0  0  0  0  0  0  0
  -28.9432   -1.8422   30.8347 C   0  0  0  0  0  0  0  0  0  0  0  0
  -28.1821   -1.8399   30.2021 C   0  0  0  0  0  0  0  0  0  0  0  0
  -26.4939   -1.9720   30.5056 C   0  0  0  0  0  0  0  0  0  0  0  0
  -29.1894    0.8186   28.0169 O   0  0  0  0  0  0  0  0  0  0  0  0
  -30.8959    1.0815   30.0877 C   0  0  0  0  0  0  0  0  0  0  0  0
  -31.2513    1.3953   31.1809 C   0  0  0  0  0  0  0  0  0  0  0  0
  -31.3357    0.4303   32.2692 C   0  0  0  0  0  0  0  0  0  0  0  0
  -30.4209   -0.6590   32.2821 C   0  0  0  0  0  0  0  0  0  0  0  0
  -30.3032   -1.4954   33.4750 C   0  0  0  0  0  0  0  0  0  0  0  0
  -29.1734   -1.3781   34.1881 C   0  0  0  0  0  0  0  0  0  0  0  0
  -30.6718   -2.9384   33.1353 C   0  0  0  0  0  0  0  0  0  0  0  0
  -31.4130   -1.0060   34.5158 C   0  0  0  0  0  0  0  0  0  0  0  0
  -31.5152   -3.3620   32.3872 C   0  0  0  0  0  0  0  0  0  0  0  0
  -29.7739   -3.9296   33.8149 C   0  0  0  0  0  0  0  0  0  0  0  0
  -29.5251   -4.9115   33.1268 O   0  0  0  0  0  0  0  0  0  0  0  0
  -32.8623   -3.0799   32.5533 C   0  0  0  0  0  0  0  0  0  0  0  0
  -33.8420   -3.4293   31.5917 C   0  0  0  0  0  0  0  0  0  0  0  0
  -33.4139   -4.1554   30.4911 C   0  0  0  0  0  0  0  0  0  0  0  0
  -32.0724   -4.4969   30.2963 C   0  0  0  0  0  0  0  0  0  0  0  0
  -31.1538   -4.0740   31.2190 C   0  0  0  0  0  0  0  0  0  0  0  0
  1  2  1  0
 11 12  1  0
  1 13  1  0
 13 14  1  0
  1 17  1  0
 16 17  1  0
  3 18  1  0
 17 18  1  0
 13 19  2  0
 23 24  1  0
 24 25  1  0
 24 26  1  0
 24 27  1  0
 26 28  1  0
 26 29  1  0
 29 30  2  0
 15 16  1  0
  2  3  2  0
  3  4  1  0
  9 11  1  0
 11 10  2  0
 10  2  1  0
 28 31  2  0
 31 32  1  0
 32 33  2  0
 33 34  1  0
 34 35  2  0
 35 28  1  0
 14 15  2  0
 15 23  1  0
 23 22  2  0
 22 21  1  0
 21 20  2  0
 20 14  1  0
  4  5  2  0
  5  6  1  0
  6  7  2  0
  7  8  1  0
  8  9  2  0
  9  4  1  0
M  END

$$$$
