No_1076-gen_results/8p0m/2024-11-27-11-27-31/
     RDKit          3D

 19 22  0  0  0  0  0  0  0  0999 V2000
  -28.0162   -0.8135   28.8779 C   0  0  0  0  0  0  0  0  0  0  0  0
  -27.0636   -0.1189   28.6079 C   0  0  0  0  0  0  0  0  0  0  0  0
  -26.8756    1.1325   28.9134 C   0  0  0  0  0  0  0  0  0  0  0  0
  -25.6883    1.9515   28.5672 C   0  0  0  0  0  0  0  0  0  0  0  0
  -25.5093    3.3042   28.8859 C   0  0  0  0  0  0  0  0  0  0  0  0
  -29.0972   -0.2347   29.6994 C   0  0  0  0  0  0  0  0  0  0  0  0
  -29.0303    1.0730   30.0324 C   0  0  0  0  0  0  0  0  0  0  0  0
  -27.8550    1.8594   29.6796 C   0  0  0  0  0  0  0  0  0  0  0  0
  -25.3017    1.7445   27.0737 C   0  0  0  0  0  0  0  0  0  0  0  0
  -24.4194    1.1383   29.1815 C   0  0  0  0  0  0  0  0  0  0  0  0
  -23.4223    1.4535   29.3643 C   0  0  0  0  0  0  0  0  0  0  0  0
  -22.3682    0.5616   29.8631 C   0  0  0  0  0  0  0  0  0  0  0  0
  -23.0541   -0.6417   30.0455 C   0  0  0  0  0  0  0  0  0  0  0  0
  -24.5448   -0.2733   29.5653 C   0  0  0  0  0  0  0  0  0  0  0  0
  -26.0722    3.8904   29.9801 C   0  0  0  0  0  0  0  0  0  0  0  0
  -27.5773    3.3222   30.1602 C   0  0  0  0  0  0  0  0  0  0  0  0
  -25.3330    0.7915   26.3519 C   0  0  0  0  0  0  0  0  0  0  0  0
  -25.4739    3.1430   26.3869 C   0  0  0  0  0  0  0  0  0  0  0  0
  -25.5961    4.1891   27.7056 O   0  0  0  0  0  0  0  0  0  0  0  0
  3  4  1  0
  4  5  1  0
  4  9  1  0
  4 10  1  0
 10 11  1  0
 11 12  2  0
 12 13  1  0
 10 14  1  0
 13 14  1  0
  5 15  1  0
  8 16  1  0
  9 17  1  0
  9 18  1  0
  5 19  1  0
 18 19  1  0
 16 15  1  0
  1  2  2  0
  2  3  1  0
  3  8  2  0
  8  7  1  0
  7  6  2  0
  6  1  1  0
M  END

$$$$
