No_1879-gen_results/8p0m/2024-11-27-11-27-31/
     RDKit          3D

 19 20  0  0  0  0  0  0  0  0999 V2000
  -28.0162   -0.8135   28.8779 C   0  0  0  0  0  0  0  0  0  0  0  0
  -27.0636   -0.1189   28.6079 C   0  0  0  0  0  0  0  0  0  0  0  0
  -26.8756    1.1325   28.9134 C   0  0  0  0  0  0  0  0  0  0  0  0
  -27.9014    1.8066   29.6436 C   0  0  0  0  0  0  0  0  0  0  0  0
  -29.0458   -0.2316   29.7181 C   0  0  0  0  0  0  0  0  0  0  0  0
  -28.9402    1.0517   30.0597 C   0  0  0  0  0  0  0  0  0  0  0  0
  -30.3294   -1.2509   30.1909 Cl  0  0  0  0  0  0  0  0  0  0  0  0
  -25.6528    1.9343   28.4399 C   0  0  0  0  0  0  0  0  0  0  0  0
  -24.9134    1.6968   27.6747 C   0  0  0  0  0  0  0  0  0  0  0  0
  -23.6884    2.4502   27.3176 C   0  0  0  0  0  0  0  0  0  0  0  0
  -25.4655    3.2516   29.1803 C   0  0  0  0  0  0  0  0  0  0  0  0
  -24.4958    4.1047   28.6848 N   0  0  0  0  0  0  0  0  0  0  0  0
  -23.5942    3.6881   27.8208 C   0  0  0  0  0  0  0  0  0  0  0  0
  -22.8183    2.0666   26.3274 O   0  0  0  0  0  0  0  0  0  0  0  0
  -26.0088   -0.6920   27.8153 O   0  0  0  0  0  0  0  0  0  0  0  0
  -25.2196   -1.6584   28.4246 C   0  0  0  0  0  0  0  0  0  0  0  0
  -24.0115   -1.2251   29.0853 C   0  0  0  0  0  0  0  0  0  0  0  0
  -23.3649   -0.4301   29.0440 C   0  0  0  0  0  0  0  0  0  0  0  0
  -22.0657   -0.1163   29.7111 C   0  0  0  0  0  0  0  0  0  0  0  0
  5  7  1  0
  3  8  1  0
 10 14  1  0
  2 15  1  0
 15 16  1  0
 16 17  2  3
 17 18  1  0
 18 19  2  0
  8  9  2  0
  9 10  1  0
 10 13  2  0
 13 12  1  0
 12 11  2  0
 11  8  1  0
  1  2  2  0
  2  3  1  0
  3  4  2  0
  4  6  1  0
  6  5  2  0
  5  1  1  0
M  END

$$$$
