No_170-gen_results/8p0m/2024-11-27-11-27-31/
     RDKit          3D

 17 16  0  0  0  0  0  0  0  0999 V2000
  -28.0162   -0.8135   28.8779 C   0  0  0  0  0  0  0  0  0  0  0  0
  -27.0636   -0.1190   28.6079 C   0  0  0  0  0  0  0  0  0  0  0  0
  -27.0425    0.2440   27.4277 F   0  0  0  0  0  0  0  0  0  0  0  0
  -29.2139   -0.2463   28.7638 O   0  0  0  0  0  0  0  0  0  0  0  0
  -26.9082    1.0079   29.3967 F   0  0  0  0  0  0  0  0  0  0  0  0
  -27.9732   -1.2186   30.2985 F   0  0  0  0  0  0  0  0  0  0  0  0
  -25.8152   -0.7538   28.8209 F   0  0  0  0  0  0  0  0  0  0  0  0
  -30.3765   -0.7153   29.1806 C   0  0  0  0  0  0  0  0  0  0  0  0
  -31.3546    0.2992   29.3119 C   0  0  0  0  0  0  0  0  0  0  0  0
  -31.0104    1.4112   28.9799 F   0  0  0  0  0  0  0  0  0  0  0  0
  -31.7752    0.3630   30.6589 O   0  0  0  0  0  0  0  0  0  0  0  0
  -30.7861   -1.8503   28.3484 O   0  0  0  0  0  0  0  0  0  0  0  0
  -31.9475    0.3313   31.8949 P   0  0  0  0  0  0  0  0  0  0  0  0
  -31.6897   -0.7299   32.5232 O   0  0  0  0  0  0  0  0  0  0  0  0
  -31.0501    1.5119   32.4621 O   0  0  0  0  0  0  0  0  0  0  0  0
  -33.3922    0.8767   32.0600 O   0  0  0  0  0  0  0  0  0  0  0  0
  -34.1870    0.6426   31.4325 F   0  0  0  0  0  0  0  0  0  0  0  0
  1  2  1  0
  2  3  1  0
  1  4  1  0
  2  5  1  0
  1  6  1  0
  2  7  1  0
  4  8  1  0
  8  9  1  0
  9 10  1  0
  9 11  1  0
  8 12  1  0
 11 13  1  0
 13 14  1  0
 13 15  2  0
 13 16  1  0
 16 17  1  0
M  END

$$$$
