No_1538-gen_results/8p0m/2024-11-27-11-27-31/
     RDKit          3D

 21 24  0  0  0  0  0  0  0  0999 V2000
  -28.0162   -0.8135   28.8779 C   0  0  0  0  0  0  0  0  0  0  0  0
  -28.4690   -0.7850   29.8287 C   0  0  0  0  0  0  0  0  0  0  0  0
  -28.1816    0.4277   28.1134 C   0  0  0  0  0  0  0  0  0  0  0  0
  -27.4498    0.6435   26.8500 C   0  0  0  0  0  0  0  0  0  0  0  0
  -27.8596    1.4573   25.9076 C   0  0  0  0  0  0  0  0  0  0  0  0
  -29.4263    0.1097   30.4178 C   0  0  0  0  0  0  0  0  0  0  0  0
  -30.0593   -0.0863   31.6841 C   0  0  0  0  0  0  0  0  0  0  0  0
  -28.9554    1.4795   28.5454 C   0  0  0  0  0  0  0  0  0  0  0  0
  -29.5815    1.2841   29.7325 C   0  0  0  0  0  0  0  0  0  0  0  0
  -27.1709    1.5577   24.6887 C   0  0  0  0  0  0  0  0  0  0  0  0
  -26.1143    0.6935   24.4200 C   0  0  0  0  0  0  0  0  0  0  0  0
  -25.6633   -0.1573   25.4081 C   0  0  0  0  0  0  0  0  0  0  0  0
  -26.2956   -0.2235   26.5692 C   0  0  0  0  0  0  0  0  0  0  0  0
  -30.1866   -1.0465   32.2599 O   0  0  0  0  0  0  0  0  0  0  0  0
  -30.6029    1.0920   32.3045 N   0  0  0  0  0  0  0  0  0  0  0  0
  -31.2901    0.9934   33.5524 C   0  0  0  0  0  0  0  0  0  0  0  0
  -32.1615    1.9091   33.6510 C   0  0  0  0  0  0  0  0  0  0  0  0
  -32.1856    3.0693   32.8605 C   0  0  0  0  0  0  0  0  0  0  0  0
  -31.4028    3.1073   31.7246 C   0  0  0  0  0  0  0  0  0  0  0  0
  -30.6298    2.0976   31.4020 C   0  0  0  0  0  0  0  0  0  0  0  0
  -30.2911    2.6928   30.1880 N   0  0  0  0  0  0  0  0  0  0  0  0
  3  4  1  0
  6  7  1  0
  7 14  2  0
  7 15  1  0
 15 16  1  0
 17 18  1  0
 15 20  1  0
 19 20  1  0
  9 21  1  0
 16 17  1  0
 18 19  1  0
 21 20  1  0
  1  2  2  0
  2  6  1  0
  6  9  2  0
  9  8  1  0
  8  3  2  0
  3  1  1  0
  4  5  2  0
  5 10  1  0
 10 11  2  0
 11 12  1  0
 12 13  2  0
 13  4  1  0
M  END

$$$$
