No_132-gen_results/8p0m/2024-11-27-11-27-31/
     RDKit          3D

 14 16  0  0  0  0  0  0  0  0999 V2000
  -28.0162   -0.8135   28.8779 C   0  0  0  0  0  0  0  0  0  0  0  0
  -27.0636   -0.1189   28.6079 C   0  0  0  0  0  0  0  0  0  0  0  0
  -26.9287    1.1713   29.0083 C   0  0  0  0  0  0  0  0  0  0  0  0
  -25.7702    2.0341   28.6884 C   0  0  0  0  0  0  0  0  0  0  0  0
  -25.6189    3.3482   29.0918 C   0  0  0  0  0  0  0  0  0  0  0  0
  -29.0712   -0.3338   29.7689 C   0  0  0  0  0  0  0  0  0  0  0  0
  -29.0128    0.9333   30.1718 C   0  0  0  0  0  0  0  0  0  0  0  0
  -27.8993    1.7759   29.8587 C   0  0  0  0  0  0  0  0  0  0  0  0
  -24.5417    4.1093   28.6528 C   0  0  0  0  0  0  0  0  0  0  0  0
  -23.7334    3.5516   27.6135 C   0  0  0  0  0  0  0  0  0  0  0  0
  -24.8513    1.6832   27.6298 C   0  0  0  0  0  0  0  0  0  0  0  0
  -25.0532    0.2815   27.1703 C   0  0  0  0  0  0  0  0  0  0  0  0
  -23.8714    2.3468   27.0708 C   0  0  0  0  0  0  0  0  0  0  0  0
  -26.0467   -0.5870   27.6153 C   0  0  0  0  0  0  0  0  0  0  0  0
  4  5  2  0
  5  9  1  0
  9 10  2  0
 10 13  1  0
 13 11  2  0
  1  2  2  0
  3  8  2  0
  8  7  1  0
  7  6  2  0
  6  1  1  0
  2  3  1  0
  3  4  1  0
  4 11  1  0
 11 12  1  0
 12 14  2  0
 14  2  1  0
M  END

$$$$
