No_105-gen_results/8p0m/2024-11-27-11-27-31/
     RDKit          3D

 17 18  0  0  0  0  0  0  0  0999 V2000
  -28.0162   -0.8135   28.8779 C   0  0  0  0  0  0  0  0  0  0  0  0
  -28.4690   -0.7850   29.8287 C   0  0  0  0  0  0  0  0  0  0  0  0
  -26.5042   -0.7777   28.8766 C   0  0  0  0  0  0  0  0  0  0  0  0
  -25.6540   -0.6597   27.7191 C   0  0  0  0  0  0  0  0  0  0  0  0
  -27.9180   -0.9374   31.1824 C   0  0  0  0  0  0  0  0  0  0  0  0
  -26.5423   -0.9399   31.2606 C   0  0  0  0  0  0  0  0  0  0  0  0
  -25.7832   -0.8935   30.1201 C   0  0  0  0  0  0  0  0  0  0  0  0
  -25.9259    0.2819   26.7445 C   0  0  0  0  0  0  0  0  0  0  0  0
  -24.9904    0.6776   25.8676 C   0  0  0  0  0  0  0  0  0  0  0  0
  -25.3173    1.2627   24.7291 C   0  0  0  0  0  0  0  0  0  0  0  0
  -27.2401    0.7184   26.5159 C   0  0  0  0  0  0  0  0  0  0  0  0
  -27.5666    1.3872   25.3860 C   0  0  0  0  0  0  0  0  0  0  0  0
  -26.5782    1.7125   24.4861 C   0  0  0  0  0  0  0  0  0  0  0  0
  -30.0513   -0.7748   29.8522 C   0  0  0  0  0  0  0  0  0  0  0  0
  -30.5132   -0.1818   28.9743 O   0  0  0  0  0  0  0  0  0  0  0  0
  -30.7261   -1.0680   30.9870 N   0  0  0  0  0  0  0  0  0  0  0  0
  -32.1709   -0.9679   30.9834 C   0  0  0  0  0  0  0  0  0  0  0  0
  3  4  1  0
  4  8  1  0
  2 14  1  0
 14 15  2  0
 14 16  1  0
 16 17  1  0
  8  9  2  0
  9 10  1  0
 10 13  2  0
 13 12  1  0
 12 11  2  0
 11  8  1  0
  1  2  2  0
  2  5  1  0
  5  6  2  0
  6  7  1  0
  7  3  2  0
  3  1  1  0
M  END

$$$$
