No_1185-gen_results/8p0m/2024-11-27-11-27-31/
     RDKit          3D

 35 38  0  0  0  0  0  0  0  0999 V2000
  -28.0162   -0.8135   28.8779 C   0  0  0  0  0  0  0  0  0  0  0  0
  -28.4690   -0.7850   29.8287 C   0  0  0  0  0  0  0  0  0  0  0  0
  -28.1960    0.3478   28.0550 C   0  0  0  0  0  0  0  0  0  0  0  0
  -29.0191    1.3501   28.3782 C   0  0  0  0  0  0  0  0  0  0  0  0
  -29.4107    0.1803   30.3782 C   0  0  0  0  0  0  0  0  0  0  0  0
  -29.6059    1.2495   29.6193 C   0  0  0  0  0  0  0  0  0  0  0  0
  -27.4478    0.3799   26.7122 C   0  0  0  0  0  0  0  0  0  0  0  0
  -27.1440    1.7401   26.5541 F   0  0  0  0  0  0  0  0  0  0  0  0
  -28.1665    0.0360   25.6887 F   0  0  0  0  0  0  0  0  0  0  0  0
  -26.2319   -0.2114   26.7450 F   0  0  0  0  0  0  0  0  0  0  0  0
  -30.5475    2.3242   30.0595 C   0  0  0  0  0  0  0  0  0  0  0  0
  -30.1795    3.1939   30.7907 O   0  0  0  0  0  0  0  0  0  0  0  0
  -31.7122    2.2873   29.4882 O   0  0  0  0  0  0  0  0  0  0  0  0
  -28.2522   -2.0730   30.8193 C   0  0  0  0  0  0  0  0  0  0  0  0
  -28.0001   -2.0399   31.8743 O   0  0  0  0  0  0  0  0  0  0  0  0
  -28.2990   -3.2889   30.1158 O   0  0  0  0  0  0  0  0  0  0  0  0
  -28.7307   -4.3063   30.6905 C   0  0  0  0  0  0  0  0  0  0  0  0
  -29.9163   -4.9330   30.0055 C   0  0  0  0  0  0  0  0  0  0  0  0
  -31.0809   -4.4474   30.5437 C   0  0  0  0  0  0  0  0  0  0  0  0
  -32.1275   -4.6879   29.7642 C   0  0  0  0  0  0  0  0  0  0  0  0
  -32.0250   -5.5645   28.7745 C   0  0  0  0  0  0  0  0  0  0  0  0
  -30.8094   -5.9593   28.1937 C   0  0  0  0  0  0  0  0  0  0  0  0
  -29.6927   -5.6599   28.9646 C   0  0  0  0  0  0  0  0  0  0  0  0
  -33.5273   -4.3061   30.2262 C   0  0  0  0  0  0  0  0  0  0  0  0
  -34.6984   -3.8890   29.6425 Cl  0  0  0  0  0  0  0  0  0  0  0  0
  -33.5527   -4.2964   31.7992 C   0  0  0  0  0  0  0  0  0  0  0  0
  -34.5180   -4.3879   32.3442 N   0  0  0  0  0  0  0  0  0  0  0  0
  -34.5971   -4.5992   33.6521 C   0  0  0  0  0  0  0  0  0  0  0  0
  -33.4244   -4.6068   34.3584 C   0  0  0  0  0  0  0  0  0  0  0  0
  -32.1859   -4.4571   33.7142 C   0  0  0  0  0  0  0  0  0  0  0  0
  -32.2330   -4.3146   32.3671 C   0  0  0  0  0  0  0  0  0  0  0  0
  -31.0323   -4.7392   31.6902 C   0  0  0  0  0  0  0  0  0  0  0  0
  -33.1920   -5.7180   27.8193 C   0  0  0  0  0  0  0  0  0  0  0  0
  -33.1487   -5.0393   26.6316 C   0  0  0  0  0  0  0  0  0  0  0  0
  -33.7399   -3.8806   26.4715 C   0  0  0  0  0  0  0  0  0  0  0  0
  3  7  1  0
  7  8  1  0
  7  9  1  0
  7 10  1  0
  6 11  1  0
 11 12  2  0
 11 13  1  0
  2 14  1  0
 14 15  2  0
 14 16  1  0
 16 17  1  0
 17 18  1  0
 20 24  1  0
 24 25  1  0
 24 26  1  0
 19 32  1  0
 31 32  1  0
 21 33  1  0
 33 34  1  0
 34 35  1  0
 18 19  2  0
 19 20  1  0
 20 21  2  0
 21 22  1  0
 22 23  2  0
 23 18  1  0
  1  2  2  0
  2  5  1  0
  5  6  2  0
  6  4  1  0
  4  3  2  0
  3  1  1  0
 26 27  2  0
 27 28  1  0
 28 29  2  0
 29 30  1  0
 30 31  2  0
 31 26  1  0
M  END

$$$$
