No_1866-gen_results/8p0m/2024-11-27-11-27-31/
     RDKit          3D

 35 38  0  0  0  0  0  0  0  0999 V2000
  -28.0162   -0.8135   28.8779 C   0  0  0  0  0  0  0  0  0  0  0  0
  -28.4690   -0.7850   29.8287 C   0  0  0  0  0  0  0  0  0  0  0  0
  -26.5042   -0.7777   28.8766 C   0  0  0  0  0  0  0  0  0  0  0  0
  -25.8103   -0.8531   30.1028 C   0  0  0  0  0  0  0  0  0  0  0  0
  -27.9906   -0.8916   31.2257 C   0  0  0  0  0  0  0  0  0  0  0  0
  -26.6042   -0.8676   31.2652 C   0  0  0  0  0  0  0  0  0  0  0  0
  -30.0739   -0.8360   29.8615 C   0  0  0  0  0  0  0  0  0  0  0  0
  -30.6891   -1.6554   30.2229 O   0  0  0  0  0  0  0  0  0  0  0  0
  -30.6139    0.2846   29.2227 N   0  0  0  0  0  0  0  0  0  0  0  0
  -32.0200    0.3382   29.0215 C   0  0  0  0  0  0  0  0  0  0  0  0
  -29.8434    1.4262   28.7504 C   0  0  0  0  0  0  0  0  0  0  0  0
  -30.0696    2.5922   29.5725 C   0  0  0  0  0  0  0  0  0  0  0  0
  -29.3221    3.5644   29.2493 C   0  0  0  0  0  0  0  0  0  0  0  0
  -28.3501    3.6286   28.1794 C   0  0  0  0  0  0  0  0  0  0  0  0
  -28.2337    2.4801   27.4449 C   0  0  0  0  0  0  0  0  0  0  0  0
  -28.9437    1.3380   27.7818 C   0  0  0  0  0  0  0  0  0  0  0  0
  -25.6587   -0.7042   27.6763 C   0  0  0  0  0  0  0  0  0  0  0  0
  -25.1522    0.6118   27.3420 C   0  0  0  0  0  0  0  0  0  0  0  0
  -24.0446    1.0068   28.0386 C   0  0  0  0  0  0  0  0  0  0  0  0
  -23.4126    2.2363   27.5837 C   0  0  0  0  0  0  0  0  0  0  0  0
  -23.8232    2.8896   26.4691 C   0  0  0  0  0  0  0  0  0  0  0  0
  -25.4614    1.2076   26.1208 C   0  0  0  0  0  0  0  0  0  0  0  0
  -24.8305    2.3218   25.6977 C   0  0  0  0  0  0  0  0  0  0  0  0
  -27.5560    4.8430   27.8813 C   0  0  0  0  0  0  0  0  0  0  0  0
  -32.8183    0.6342   30.0004 C   0  0  0  0  0  0  0  0  0  0  0  0
  -34.1185    0.7993   29.8562 C   0  0  0  0  0  0  0  0  0  0  0  0
  -32.4563    0.0671   27.7472 C   0  0  0  0  0  0  0  0  0  0  0  0
  -33.7972    0.1880   27.4946 C   0  0  0  0  0  0  0  0  0  0  0  0
  -34.6528    0.5501   28.5540 C   0  0  0  0  0  0  0  0  0  0  0  0
  -36.1155    0.6279   28.2633 C   0  0  0  0  0  0  0  0  0  0  0  0
  -36.9232    1.1684   29.0523 N   0  0  0  0  0  0  0  0  0  0  0  0
  -36.5824    0.1707   27.1879 O   0  0  0  0  0  0  0  0  0  0  0  0
  -38.3424    1.2784   28.8810 C   0  0  0  0  0  0  0  0  0  0  0  0
  -39.0066    1.5197   29.9117 C   0  0  0  0  0  0  0  0  0  0  0  0
  -38.4804    1.9342   31.1216 C   0  0  0  0  0  0  0  0  0  0  0  0
  2  7  1  0
  7  8  2  0
  7  9  1  0
  9 10  1  0
  9 11  1  0
  3 17  1  0
 17 18  1  0
 14 24  1  0
 29 30  1  0
 30 31  1  0
 30 32  2  0
 31 33  1  0
 33 34  1  0
 34 35  2  0
 11 12  2  0
 12 13  1  0
 13 14  2  0
 14 15  1  0
 15 16  2  0
 16 11  1  0
 18 19  2  0
 19 20  1  0
 20 21  2  0
 21 23  1  0
 23 22  2  0
 22 18  1  0
  1  2  2  0
  2  5  1  0
  5  6  2  0
  6  4  1  0
  4  3  2  0
  3  1  1  0
 10 25  2  0
 25 26  1  0
 26 29  2  0
 29 28  1  0
 28 27  2  0
 27 10  1  0
M  END

$$$$
