No_1443-gen_results/8p0m/2024-11-27-11-27-31/
     RDKit          3D

 22 22  0  0  0  0  0  0  0  0999 V2000
  -28.0162   -0.8135   28.8779 C   0  0  0  0  0  0  0  0  0  0  0  0
  -28.4690   -0.7850   29.8287 C   0  0  0  0  0  0  0  0  0  0  0  0
  -27.0871    0.2903   28.6377 C   0  0  0  0  0  0  0  0  0  0  0  0
  -26.8317    1.2487   29.5869 C   0  0  0  0  0  0  0  0  0  0  0  0
  -28.3914    0.0801   31.0065 C   0  0  0  0  0  0  0  0  0  0  0  0
  -27.4940    1.1521   30.7841 C   0  0  0  0  0  0  0  0  0  0  0  0
  -26.3109    0.3918   27.3640 C   0  0  0  0  0  0  0  0  0  0  0  0
  -26.8602    0.4028   26.3801 F   0  0  0  0  0  0  0  0  0  0  0  0
  -25.5436    1.6041   27.3823 F   0  0  0  0  0  0  0  0  0  0  0  0
  -25.2379   -0.5488   27.4310 F   0  0  0  0  0  0  0  0  0  0  0  0
  -29.4584   -2.0281   30.2335 C   0  0  0  0  0  0  0  0  0  0  0  0
  -28.9912   -3.1801   30.3522 O   0  0  0  0  0  0  0  0  0  0  0  0
  -30.6350   -1.8988   30.5094 O   0  0  0  0  0  0  0  0  0  0  0  0
  -27.2926    2.1785   31.8412 C   0  0  0  0  0  0  0  0  0  0  0  0
  -27.1416    1.9959   32.9178 O   0  0  0  0  0  0  0  0  0  0  0  0
  -27.1456    3.4833   31.3056 N   0  0  0  0  0  0  0  0  0  0  0  0
  -26.8351    4.5917   32.1861 C   0  0  0  0  0  0  0  0  0  0  0  0
  -26.0897    5.4133   31.7283 C   0  0  0  0  0  0  0  0  0  0  0  0
  -25.2043    6.2796   32.4500 C   0  0  0  0  0  0  0  0  0  0  0  0
  -24.2396    7.1732   31.8276 C   0  0  0  0  0  0  0  0  0  0  0  0
  -24.4563    7.4525   30.4718 C   0  0  0  0  0  0  0  0  0  0  0  0
  -25.3949    6.7374   29.7572 C   0  0  0  0  0  0  0  0  0  0  0  0
  3  7  1  0
  7  8  1  0
  7  9  1  0
  7 10  1  0
  2 11  1  0
 11 12  2  0
 11 13  1  0
  6 14  1  0
 14 15  2  0
 14 16  1  0
 16 17  1  0
 17 18  2  3
 18 19  1  0
 19 20  2  3
 20 21  1  0
 21 22  2  0
  1  2  2  0
  2  5  1  0
  5  6  2  0
  6  4  1  0
  4  3  2  0
  3  1  1  0
M  END

$$$$
