No_1101-gen_results/8p0m/2024-11-27-11-27-31/
     RDKit          3D

 16 16  0  0  0  0  0  0  0  0999 V2000
  -28.0162   -0.8135   28.8779 C   0  0  0  0  0  0  0  0  0  0  0  0
  -27.0636   -0.1190   28.6079 C   0  0  0  0  0  0  0  0  0  0  0  0
  -26.9716    0.7139   27.5060 C   0  0  0  0  0  0  0  0  0  0  0  0
  -28.1053    0.7744   26.6421 C   0  0  0  0  0  0  0  0  0  0  0  0
  -29.2041    0.1179   27.0477 C   0  0  0  0  0  0  0  0  0  0  0  0
  -29.2127   -0.6088   28.1281 C   0  0  0  0  0  0  0  0  0  0  0  0
  -25.7106    1.4518   27.1380 C   0  0  0  0  0  0  0  0  0  0  0  0
  -25.2074    2.4128   27.9320 C   0  0  0  0  0  0  0  0  0  0  0  0
  -25.5899    2.8790   29.0377 C   0  0  0  0  0  0  0  0  0  0  0  0
  -26.0366    3.5617   29.6461 C   0  0  0  0  0  0  0  0  0  0  0  0
  -26.6461    4.1271   30.7778 C   0  0  0  0  0  0  0  0  0  0  0  0
  -27.3093    4.7222   31.6366 C   0  0  0  0  0  0  0  0  0  0  0  0
  -25.0296    1.0160   25.9063 C   0  0  0  0  0  0  0  0  0  0  0  0
  -23.9016    2.7892   27.7029 F   0  0  0  0  0  0  0  0  0  0  0  0
  -27.9671    5.6756   31.3981 F   0  0  0  0  0  0  0  0  0  0  0  0
  -27.9970    3.7543   32.4130 F   0  0  0  0  0  0  0  0  0  0  0  0
  3  7  1  0
  7  8  1  0
  8  9  2  3
  9 10  1  0
 10 11  2  3
 11 12  1  0
  7 13  1  0
  8 14  1  0
 12 15  1  0
 12 16  1  0
  1  2  2  0
  2  3  1  0
  3  4  2  0
  4  5  1  0
  5  6  2  0
  6  1  1  0
M  END

$$$$
