No_1539-gen_results/8p0m/2024-11-27-11-27-31/
     RDKit          3D

 15 15  0  0  0  0  0  0  0  0999 V2000
  -28.0162   -0.8135   28.8779 C   0  0  0  0  0  0  0  0  0  0  0  0
  -27.0636   -0.1189   28.6079 C   0  0  0  0  0  0  0  0  0  0  0  0
  -26.9716    0.7139   27.5060 C   0  0  0  0  0  0  0  0  0  0  0  0
  -28.1053    0.7744   26.6421 C   0  0  0  0  0  0  0  0  0  0  0  0
  -29.2008    0.1044   27.0527 C   0  0  0  0  0  0  0  0  0  0  0  0
  -29.2096   -0.6029   28.1853 C   0  0  0  0  0  0  0  0  0  0  0  0
  -30.3702    0.2264   26.1604 C   0  0  0  0  0  0  0  0  0  0  0  0
  -30.9928    1.1454   26.0580 N   0  0  0  0  0  0  0  0  0  0  0  0
  -30.7211   -0.8943   25.5329 O   0  0  0  0  0  0  0  0  0  0  0  0
  -32.1983    1.3234   25.1534 C   0  0  0  0  0  0  0  0  0  0  0  0
  -25.8627   -0.1927   29.3743 F   0  0  0  0  0  0  0  0  0  0  0  0
  -28.0630   -1.5873   30.0642 O   0  0  0  0  0  0  0  0  0  0  0  0
  -27.1504   -1.9907   30.6617 C   0  0  0  0  0  0  0  0  0  0  0  0
  -27.3632   -2.8677   31.5937 C   0  0  0  0  0  0  0  0  0  0  0  0
  -28.8311   -3.0973   31.6130 C   0  0  0  0  0  0  0  0  0  0  0  0
  5  7  1  0
  7  8  2  3
  7  9  1  0
  8 10  1  0
  2 11  1  0
  1 12  1  0
 12 13  1  0
 13 14  2  3
 14 15  1  0
  1  2  2  0
  2  3  1  0
  3  4  2  0
  4  5  1  0
  5  6  2  0
  6  1  1  0
M  END

$$$$
