No_1021-gen_results/8p0m/2024-11-27-11-27-31/
     RDKit          3D

 25 28  0  0  0  0  0  0  0  0999 V2000
  -28.0162   -0.8135   28.8779 C   0  0  0  0  0  0  0  0  0  0  0  0
  -28.4690   -0.7850   29.8287 C   0  0  0  0  0  0  0  0  0  0  0  0
  -28.1816    0.4277   28.1134 C   0  0  0  0  0  0  0  0  0  0  0  0
  -27.4498    0.6435   26.8500 C   0  0  0  0  0  0  0  0  0  0  0  0
  -26.1815    0.0357   26.7145 C   0  0  0  0  0  0  0  0  0  0  0  0
  -25.7800   -0.9326   27.6938 C   0  0  0  0  0  0  0  0  0  0  0  0
  -26.5568   -1.2134   28.7413 C   0  0  0  0  0  0  0  0  0  0  0  0
  -29.6101   -0.2783   30.1938 N   0  0  0  0  0  0  0  0  0  0  0  0
  -28.1839   -1.9973   30.7659 N   0  0  0  0  0  0  0  0  0  0  0  0
  -30.4344   -0.6399   31.3293 C   0  0  0  0  0  0  0  0  0  0  0  0
  -28.9716   -2.3785   31.8081 C   0  0  0  0  0  0  0  0  0  0  0  0
  -30.0390   -1.6312   32.1454 C   0  0  0  0  0  0  0  0  0  0  0  0
  -25.1937    0.1793   25.7679 N   0  0  0  0  0  0  0  0  0  0  0  0
  -24.7527    1.4249   25.4421 C   0  0  0  0  0  0  0  0  0  0  0  0
  -23.7646    1.9880   26.3718 C   0  0  0  0  0  0  0  0  0  0  0  0
  -22.4988    1.9591   26.2191 C   0  0  0  0  0  0  0  0  0  0  0  0
  -21.6632    2.3134   27.3953 C   0  0  0  0  0  0  0  0  0  0  0  0
  -24.3311    2.4256   27.6646 C   0  0  0  0  0  0  0  0  0  0  0  0
  -23.5345    2.6891   28.8054 C   0  0  0  0  0  0  0  0  0  0  0  0
  -22.1589    2.5786   28.6426 C   0  0  0  0  0  0  0  0  0  0  0  0
  -31.9170    0.1957   31.4639 Cl  0  0  0  0  0  0  0  0  0  0  0  0
  -27.7907    1.6990   25.9495 C   0  0  0  0  0  0  0  0  0  0  0  0
  -28.7175    2.5196   26.4017 C   0  0  0  0  0  0  0  0  0  0  0  0
  -29.5573    2.2054   27.5158 C   0  0  0  0  0  0  0  0  0  0  0  0
  -29.2648    1.2065   28.3320 C   0  0  0  0  0  0  0  0  0  0  0  0
  1  2  1  0
  5 13  1  0
 13 14  1  0
 14 15  1  0
 10 21  1  0
  2  8  2  0
  8 10  1  0
 10 12  2  0
 12 11  1  0
 11  9  2  0
  9  2  1  0
  4 22  2  0
 22 23  1  0
 23 24  2  0
 24 25  1  0
 25  3  2  0
 15 16  2  0
 16 17  1  0
 17 20  2  0
 20 19  1  0
 19 18  2  0
 18 15  1  0
  1  3  1  0
  3  4  1  0
  4  5  1  0
  5  6  2  0
  6  7  1  0
  7  1  2  0
M  END

$$$$
