No_1237-gen_results/8p0m/2024-11-27-11-27-31/
     RDKit          3D

 33 36  0  0  0  0  0  0  0  0999 V2000
  -28.0162   -0.8135   28.8779 C   0  0  0  0  0  0  0  0  0  0  0  0
  -28.4690   -0.7850   29.8287 C   0  0  0  0  0  0  0  0  0  0  0  0
  -28.1960    0.3478   28.0550 C   0  0  0  0  0  0  0  0  0  0  0  0
  -29.0191    1.3501   28.3782 C   0  0  0  0  0  0  0  0  0  0  0  0
  -28.3170   -1.9812   30.8560 C   0  0  0  0  0  0  0  0  0  0  0  0
  -29.5950    1.2859   29.6049 C   0  0  0  0  0  0  0  0  0  0  0  0
  -29.3465    0.2093   30.3749 C   0  0  0  0  0  0  0  0  0  0  0  0
  -27.6900   -1.7685   31.8105 N   0  0  0  0  0  0  0  0  0  0  0  0
  -28.3572   -3.1792   30.3294 O   0  0  0  0  0  0  0  0  0  0  0  0
  -27.4659    0.3527   26.6775 C   0  0  0  0  0  0  0  0  0  0  0  0
  -27.9789    0.8811   25.5866 C   0  0  0  0  0  0  0  0  0  0  0  0
  -29.2381    1.4342   25.6761 C   0  0  0  0  0  0  0  0  0  0  0  0
  -29.6459    1.8714   27.0293 C   0  0  0  0  0  0  0  0  0  0  0  0
  -27.1361    0.8882   24.1605 Cl  0  0  0  0  0  0  0  0  0  0  0  0
  -30.5753    2.3425   29.9797 C   0  0  0  0  0  0  0  0  0  0  0  0
  -31.7076    2.2598   30.0214 O   0  0  0  0  0  0  0  0  0  0  0  0
  -29.8814    3.5554   30.0279 O   0  0  0  0  0  0  0  0  0  0  0  0
  -27.4319   -0.4363   32.3857 C   0  0  0  0  0  0  0  0  0  0  0  0
  -28.0507   -0.2771   33.6485 C   0  0  0  0  0  0  0  0  0  0  0  0
  -27.5471    0.3458   34.5290 Cl  0  0  0  0  0  0  0  0  0  0  0  0
  -29.5251   -0.7566   33.7134 N   0  0  0  0  0  0  0  0  0  0  0  0
  -30.4640    0.0235   34.2099 C   0  0  0  0  0  0  0  0  0  0  0  0
  -31.4899   -0.0610   34.1929 C   0  0  0  0  0  0  0  0  0  0  0  0
  -32.4850    0.9027   34.7152 C   0  0  0  0  0  0  0  0  0  0  0  0
  -31.9709    2.0211   35.3630 C   0  0  0  0  0  0  0  0  0  0  0  0
  -30.6324    2.2200   35.3705 C   0  0  0  0  0  0  0  0  0  0  0  0
  -29.8628    1.3456   34.8056 C   0  0  0  0  0  0  0  0  0  0  0  0
  -29.8018   -2.1081   33.5723 C   0  0  0  0  0  0  0  0  0  0  0  0
  -29.8330   -2.7080   34.9415 C   0  0  0  0  0  0  0  0  0  0  0  0
  -29.8950   -4.0285   34.9941 C   0  0  0  0  0  0  0  0  0  0  0  0
  -29.9715   -4.7820   33.8127 C   0  0  0  0  0  0  0  0  0  0  0  0
  -29.8895   -4.1556   32.5676 C   0  0  0  0  0  0  0  0  0  0  0  0
  -29.8163   -2.7947   32.5338 C   0  0  0  0  0  0  0  0  0  0  0  0
  2  5  1  0
  5  8  1  0
  5  9  2  0
 11 14  1  0
  6 15  1  0
 15 16  1  0
 15 17  2  0
  8 18  1  0
 18 19  1  0
 19 20  1  0
 19 21  1  0
 21 22  1  0
 21 28  1  0
 28 29  2  0
 29 30  1  0
 30 31  2  0
 31 32  1  0
 32 33  2  0
 33 28  1  0
  4 13  2  0
 13 12  1  0
 12 11  2  0
 11 10  1  0
 10  3  2  0
 22 23  2  0
 23 24  1  0
 24 25  2  0
 25 26  1  0
 26 27  2  0
 27 22  1  0
  1  2  2  0
  2  7  1  0
  7  6  2  0
  6  4  1  0
  4  3  1  0
  3  1  1  0
M  END

$$$$
