No_1319-gen_results/8p0m/2024-11-27-11-27-31/
     RDKit          3D

 33 35  0  0  0  0  0  0  0  0999 V2000
  -28.0162   -0.8135   28.8779 C   0  0  0  0  0  0  0  0  0  0  0  0
  -27.0636   -0.1189   28.6079 C   0  0  0  0  0  0  0  0  0  0  0  0
  -26.9716    0.7139   27.5060 C   0  0  0  0  0  0  0  0  0  0  0  0
  -28.1053    0.7744   26.6421 C   0  0  0  0  0  0  0  0  0  0  0  0
  -29.2041    0.1179   27.0477 C   0  0  0  0  0  0  0  0  0  0  0  0
  -29.2127   -0.6088   28.1281 C   0  0  0  0  0  0  0  0  0  0  0  0
  -25.7106    1.4519   27.1380 C   0  0  0  0  0  0  0  0  0  0  0  0
  -25.3772    2.0455   26.1737 C   0  0  0  0  0  0  0  0  0  0  0  0
  -24.0750    2.7193   25.9782 C   0  0  0  0  0  0  0  0  0  0  0  0
  -23.0770    2.4988   26.9483 C   0  0  0  0  0  0  0  0  0  0  0  0
  -23.3639    1.6220   28.0103 C   0  0  0  0  0  0  0  0  0  0  0  0
  -24.6236    1.0878   28.1748 C   0  0  0  0  0  0  0  0  0  0  0  0
  -30.4028    0.2680   26.1859 C   0  0  0  0  0  0  0  0  0  0  0  0
  -31.2745   -0.5936   26.1316 O   0  0  0  0  0  0  0  0  0  0  0  0
  -30.7266    1.3928   25.6566 O   0  0  0  0  0  0  0  0  0  0  0  0
  -22.3458    1.4367   28.8847 O   0  0  0  0  0  0  0  0  0  0  0  0
  -21.4725    0.4512   28.4090 C   0  0  0  0  0  0  0  0  0  0  0  0
  -28.0704   -1.6740   30.1026 C   0  0  0  0  0  0  0  0  0  0  0  0
  -27.1108   -2.3990   30.3786 O   0  0  0  0  0  0  0  0  0  0  0  0
  -29.1576   -1.7920   30.7465 O   0  0  0  0  0  0  0  0  0  0  0  0
  -29.4841   -2.9805   31.4192 C   0  0  0  0  0  0  0  0  0  0  0  0
  -30.6255   -3.7049   30.9773 C   0  0  0  0  0  0  0  0  0  0  0  0
  -31.1480   -3.4623   30.0877 O   0  0  0  0  0  0  0  0  0  0  0  0
  -30.9943   -4.8207   31.7291 N   0  0  0  0  0  0  0  0  0  0  0  0
  -30.3773   -5.3287   32.9726 C   0  0  0  0  0  0  0  0  0  0  0  0
  -32.1935   -5.5614   31.2862 C   0  0  0  0  0  0  0  0  0  0  0  0
  -29.9360   -6.5162   32.9483 C   0  0  0  0  0  0  0  0  0  0  0  0
  -30.6387   -7.3065   31.9502 C   0  0  0  0  0  0  0  0  0  0  0  0
  -31.6386   -6.9999   31.1730 C   0  0  0  0  0  0  0  0  0  0  0  0
  -32.3778   -7.8527   30.2891 C   0  0  0  0  0  0  0  0  0  0  0  0
  -32.5072   -7.4725   29.1664 F   0  0  0  0  0  0  0  0  0  0  0  0
  -33.6341   -8.0910   30.7891 F   0  0  0  0  0  0  0  0  0  0  0  0
  -31.7457   -9.0765   30.2517 F   0  0  0  0  0  0  0  0  0  0  0  0
  3  7  1  0
  5 13  1  0
 13 14  1  0
 13 15  2  0
 11 16  1  0
 16 17  1  0
  1 18  1  0
 18 19  2  0
 18 20  1  0
 20 21  1  0
 21 22  1  0
 22 23  1  0
 22 24  1  0
 24 25  1  0
 24 26  1  0
 25 27  1  0
 27 28  1  0
 26 29  1  0
 29 30  1  0
 30 31  1  0
 30 32  1  0
 30 33  1  0
 28 29  1  0
  1  2  2  0
  2  3  1  0
  3  4  2  0
  4  5  1  0
  5  6  2  0
  6  1  1  0
  7  8  2  0
  8  9  1  0
  9 10  2  0
 10 11  1  0
 11 12  2  0
 12  7  1  0
M  END

$$$$
