No_1624-gen_results/8p0m/2024-11-27-11-27-31/
     RDKit          3D

 23 26  0  0  0  0  0  0  0  0999 V2000
  -28.0162   -0.8135   28.8779 C   0  0  0  0  0  0  0  0  0  0  0  0
  -27.0636   -0.1190   28.6079 C   0  0  0  0  0  0  0  0  0  0  0  0
  -25.7647   -0.3897   29.0360 C   0  0  0  0  0  0  0  0  0  0  0  0
  -25.5296   -1.5302   29.9014 C   0  0  0  0  0  0  0  0  0  0  0  0
  -26.6577   -2.2915   30.2035 C   0  0  0  0  0  0  0  0  0  0  0  0
  -27.8548   -1.9555   29.7630 C   0  0  0  0  0  0  0  0  0  0  0  0
  -24.5349    0.4128   28.7431 C   0  0  0  0  0  0  0  0  0  0  0  0
  -23.3062    0.0366   29.0393 C   0  0  0  0  0  0  0  0  0  0  0  0
  -22.2007    0.7002   28.8095 C   0  0  0  0  0  0  0  0  0  0  0  0
  -22.1909    1.7324   27.8256 C   0  0  0  0  0  0  0  0  0  0  0  0
  -24.6273    1.5385   27.8324 C   0  0  0  0  0  0  0  0  0  0  0  0
  -23.4144    2.1801   27.4387 C   0  0  0  0  0  0  0  0  0  0  0  0
  -29.0065   -2.7981   30.1964 C   0  0  0  0  0  0  0  0  0  0  0  0
  -28.9132   -4.0333   30.3051 O   0  0  0  0  0  0  0  0  0  0  0  0
  -30.1620   -2.2214   30.5483 N   0  0  0  0  0  0  0  0  0  0  0  0
  -31.3083   -3.0186   30.9728 C   0  0  0  0  0  0  0  0  0  0  0  0
  -32.3149   -2.1557   31.3459 C   0  0  0  0  0  0  0  0  0  0  0  0
  -33.1608   -2.1832   31.9112 C   0  0  0  0  0  0  0  0  0  0  0  0
  -34.2332   -1.1373   32.1969 C   0  0  0  0  0  0  0  0  0  0  0  0
  -34.0433    0.0518   31.5352 C   0  0  0  0  0  0  0  0  0  0  0  0
  -32.9767    0.2226   30.7103 C   0  0  0  0  0  0  0  0  0  0  0  0
  -32.0965   -0.7522   30.5852 C   0  0  0  0  0  0  0  0  0  0  0  0
  -30.6180   -0.8723   30.3241 C   0  0  0  0  0  0  0  0  0  0  0  0
  3  7  1  0
  6 13  1  0
 13 14  2  0
 13 15  1  0
 15 16  1  0
 16 17  1  0
 15 23  1  0
 22 23  1  0
  7  8  2  0
  8  9  1  0
  9 10  2  0
 10 12  1  0
 12 11  2  0
 11  7  1  0
  1  2  2  0
  2  3  1  0
  3  4  2  0
  4  5  1  0
  5  6  2  0
  6  1  1  0
 17 18  2  0
 18 19  1  0
 19 20  2  0
 20 21  1  0
 21 22  2  0
 22 17  1  0
M  END

$$$$
