No_156-gen_results/8p0m/2024-11-27-11-27-31/
     RDKit          3D

 35 37  0  0  0  0  0  0  0  0999 V2000
  -28.0162   -0.8135   28.8779 C   0  0  0  0  0  0  0  0  0  0  0  0
  -28.4690   -0.7850   29.8287 C   0  0  0  0  0  0  0  0  0  0  0  0
  -27.0871    0.2903   28.6377 C   0  0  0  0  0  0  0  0  0  0  0  0
  -26.8317    1.2487   29.5869 C   0  0  0  0  0  0  0  0  0  0  0  0
  -28.3914    0.0801   31.0065 C   0  0  0  0  0  0  0  0  0  0  0  0
  -27.4940    1.1521   30.7841 C   0  0  0  0  0  0  0  0  0  0  0  0
  -26.2087    0.3944   27.1645 Cl  0  0  0  0  0  0  0  0  0  0  0  0
  -29.6049   -2.1684   30.2564 Cl  0  0  0  0  0  0  0  0  0  0  0  0
  -25.8849    2.3744   29.3265 C   0  0  0  0  0  0  0  0  0  0  0  0
  -24.5724    2.2201   29.3899 C   0  0  0  0  0  0  0  0  0  0  0  0
  -26.4265    3.6500   28.9619 C   0  0  0  0  0  0  0  0  0  0  0  0
  -23.9523    1.4617   30.3019 N   0  0  0  0  0  0  0  0  0  0  0  0
  -25.7640    4.4540   28.0382 C   0  0  0  0  0  0  0  0  0  0  0  0
  -24.9709    4.2011   27.3655 C   0  0  0  0  0  0  0  0  0  0  0  0
  -23.7099    3.3421   27.4237 C   0  0  0  0  0  0  0  0  0  0  0  0
  -23.5374    2.5863   28.4648 C   0  0  0  0  0  0  0  0  0  0  0  0
  -23.2053    0.3207   30.0769 C   0  0  0  0  0  0  0  0  0  0  0  0
  -24.2902    1.7584   31.7696 C   0  0  0  0  0  0  0  0  0  0  0  0
  -23.6033   -0.8814   30.7670 C   0  0  0  0  0  0  0  0  0  0  0  0
  -24.7232   -1.5326   30.1910 C   0  0  0  0  0  0  0  0  0  0  0  0
  -24.3121   -2.5774   29.2696 C   0  0  0  0  0  0  0  0  0  0  0  0
  -25.1964   -3.7362   29.1571 C   0  0  0  0  0  0  0  0  0  0  0  0
  -26.4661   -3.6098   29.7672 C   0  0  0  0  0  0  0  0  0  0  0  0
  -27.3425   -4.6820   29.6564 C   0  0  0  0  0  0  0  0  0  0  0  0
  -28.4737   -4.5969   30.3788 C   0  0  0  0  0  0  0  0  0  0  0  0
  -29.3915   -5.8369   30.4757 C   0  0  0  0  0  0  0  0  0  0  0  0
  -30.7090   -5.7886   30.8177 C   0  0  0  0  0  0  0  0  0  0  0  0
  -31.4936   -6.8263   30.7515 C   0  0  0  0  0  0  0  0  0  0  0  0
  -30.9392   -8.0006   30.2719 C   0  0  0  0  0  0  0  0  0  0  0  0
  -31.7897   -9.1661   30.1932 C   0  0  0  0  0  0  0  0  0  0  0  0
  -33.0758   -9.0596   30.4373 C   0  0  0  0  0  0  0  0  0  0  0  0
  -33.6583   -7.9075   30.8399 C   0  0  0  0  0  0  0  0  0  0  0  0
  -32.8951   -6.7796   31.0015 C   0  0  0  0  0  0  0  0  0  0  0  0
  -31.2158   -4.4466   31.1905 C   0  0  0  0  0  0  0  0  0  0  0  0
  -31.7973   -4.3857   32.4346 C   0  0  0  0  0  0  0  0  0  0  0  0
  3  7  1  0
  2  8  1  0
  4  9  1  0
  9 10  1  0
  9 11  1  0
 10 12  1  0
 11 13  2  0
 13 14  1  0
 14 15  2  0
 10 16  1  0
 15 16  1  0
 12 17  1  0
 12 18  1  0
 17 19  1  0
 19 20  1  0
 20 21  1  0
 21 22  1  0
 22 23  2  3
 23 24  1  0
 24 25  1  0
 25 26  1  0
 26 27  2  3
 27 28  1  0
 27 34  1  0
 34 35  2  0
 28 29  2  0
 29 30  1  0
 30 31  2  0
 31 32  1  0
 32 33  2  0
 33 28  1  0
  1  2  2  0
  2  5  1  0
  5  6  2  0
  6  4  1  0
  4  3  2  0
  3  1  1  0
M  END

$$$$
