No_190-gen_results/8p0m/2024-11-27-11-27-31/
     RDKit          3D

 27 30  0  0  0  0  0  0  0  0999 V2000
  -28.0162   -0.8135   28.8779 C   0  0  0  0  0  0  0  0  0  0  0  0
  -27.0636   -0.1189   28.6079 C   0  0  0  0  0  0  0  0  0  0  0  0
  -25.7923   -0.4302   29.0761 C   0  0  0  0  0  0  0  0  0  0  0  0
  -25.5756   -1.5654   29.9363 C   0  0  0  0  0  0  0  0  0  0  0  0
  -26.7354   -2.3004   30.2173 C   0  0  0  0  0  0  0  0  0  0  0  0
  -27.9184   -1.9537   29.7629 C   0  0  0  0  0  0  0  0  0  0  0  0
  -27.1057    1.1023   27.7593 C   0  0  0  0  0  0  0  0  0  0  0  0
  -27.8576    1.5309   27.2156 C   0  0  0  0  0  0  0  0  0  0  0  0
  -29.2421    0.8816   27.2919 C   0  0  0  0  0  0  0  0  0  0  0  0
  -30.1363    1.1221   26.2917 C   0  0  0  0  0  0  0  0  0  0  0  0
  -29.8532    2.1308   25.3836 C   0  0  0  0  0  0  0  0  0  0  0  0
  -28.6674    2.8529   25.2789 C   0  0  0  0  0  0  0  0  0  0  0  0
  -27.6781    2.4992   26.0969 C   0  0  0  0  0  0  0  0  0  0  0  0
  -29.2640   -0.4096   28.2968 N   0  0  0  0  0  0  0  0  0  0  0  0
  -31.1796    0.2569   26.3130 C   0  0  0  0  0  0  0  0  0  0  0  0
  -32.1490    0.5120   26.9384 O   0  0  0  0  0  0  0  0  0  0  0  0
  -31.1471   -0.8581   25.5521 O   0  0  0  0  0  0  0  0  0  0  0  0
  -29.1509   -2.7015   30.1642 C   0  0  0  0  0  0  0  0  0  0  0  0
  -30.1055   -2.2274   30.3608 O   0  0  0  0  0  0  0  0  0  0  0  0
  -28.9739   -4.0359   30.3793 N   0  0  0  0  0  0  0  0  0  0  0  0
  -30.0864   -4.9008   30.7035 C   0  0  0  0  0  0  0  0  0  0  0  0
  -30.8699   -5.1783   29.6699 C   0  0  0  0  0  0  0  0  0  0  0  0
  -32.1190   -4.7775   29.7602 C   0  0  0  0  0  0  0  0  0  0  0  0
  -32.8595   -4.6242   29.0568 C   0  0  0  0  0  0  0  0  0  0  0  0
  -32.6035   -5.0175   27.5711 C   0  0  0  0  0  0  0  0  0  0  0  0
  -31.3206   -5.5485   27.3668 C   0  0  0  0  0  0  0  0  0  0  0  0
  -30.4005   -5.5299   28.3660 C   0  0  0  0  0  0  0  0  0  0  0  0
 10 15  1  0
 15 16  2  0
 15 17  1  0
  6 18  1  0
 18 19  2  0
 18 20  1  0
 20 21  1  0
 21 22  1  0
  2  3  2  0
  3  4  1  0
  4  5  2  0
  5  6  1  0
  6  1  2  0
 22 23  2  0
 23 24  1  0
 24 25  2  0
 25 26  1  0
 26 27  2  0
 27 22  1  0
  9 10  1  0
 10 11  2  0
 11 12  1  0
 12 13  2  0
 13  8  1  0
  1  2  1  0
  2  7  1  0
  7  8  2  0
  8  9  1  0
  9 14  2  0
 14  1  1  0
M  END

$$$$
