No_1056-gen_results/8p0m/2024-11-27-11-27-31/
     RDKit          3D

 13 13  0  0  0  0  0  0  0  0999 V2000
  -28.1229   -1.3353   28.4874 O   0  0  0  0  0  0  0  0  0  0  0  0
  -27.4806   -0.4044   28.7094 C   0  0  0  0  0  0  0  0  0  0  0  0
  -27.1904    0.2460   29.5268 C   0  0  0  0  0  0  0  0  0  0  0  0
  -26.8157    0.1371   27.4262 N   0  0  0  0  0  0  0  0  0  0  0  0
  -26.3550    1.4196   29.7643 C   0  0  0  0  0  0  0  0  0  0  0  0
  -25.9888    1.2374   27.3937 C   0  0  0  0  0  0  0  0  0  0  0  0
  -25.7548    1.9027   28.6170 C   0  0  0  0  0  0  0  0  0  0  0  0
  -27.7533   -0.2136   30.9780 C   0  0  0  0  0  0  0  0  0  0  0  0
  -28.5553    0.8061   31.3746 F   0  0  0  0  0  0  0  0  0  0  0  0
  -28.5574   -1.2368   30.6859 F   0  0  0  0  0  0  0  0  0  0  0  0
  -26.8334   -0.3632   31.9135 F   0  0  0  0  0  0  0  0  0  0  0  0
  -25.4237    1.6601   26.2875 N   0  0  0  0  0  0  0  0  0  0  0  0
  -25.1089    1.0007   25.3301 C   0  0  0  0  0  0  0  0  0  0  0  0
  1  2  2  0
  2  3  1  0
  2  4  1  0
  3  5  1  0
  6  7  1  0
  3  8  1  0
  8  9  1  0
  8 10  1  0
  8 11  1  0
  6 12  1  0
 12 13  1  0
  5  7  1  0
  6  4  1  0
M  END

$$$$
