No_1932-gen_results/8p0m/2024-11-27-11-27-31/
     RDKit          3D

 25 26  0  0  0  0  0  0  0  0999 V2000
  -28.0162   -0.8135   28.8779 C   0  0  0  0  0  0  0  0  0  0  0  0
  -28.4690   -0.7850   29.8287 C   0  0  0  0  0  0  0  0  0  0  0  0
  -28.1816    0.4277   28.1134 C   0  0  0  0  0  0  0  0  0  0  0  0
  -27.4498    0.6435   26.8500 C   0  0  0  0  0  0  0  0  0  0  0  0
  -27.8596    1.4573   25.9076 C   0  0  0  0  0  0  0  0  0  0  0  0
  -29.4263    0.1097   30.4178 C   0  0  0  0  0  0  0  0  0  0  0  0
  -29.6233    1.2198   29.7351 C   0  0  0  0  0  0  0  0  0  0  0  0
  -29.0084    1.4790   28.6079 C   0  0  0  0  0  0  0  0  0  0  0  0
  -27.1580    1.5491   24.7146 C   0  0  0  0  0  0  0  0  0  0  0  0
  -26.0674    0.7342   24.4330 C   0  0  0  0  0  0  0  0  0  0  0  0
  -25.6250   -0.1186   25.4317 C   0  0  0  0  0  0  0  0  0  0  0  0
  -26.2858   -0.2147   26.6031 C   0  0  0  0  0  0  0  0  0  0  0  0
  -30.5585    2.3116   30.2682 C   0  0  0  0  0  0  0  0  0  0  0  0
  -31.1428    3.0102   29.6303 O   0  0  0  0  0  0  0  0  0  0  0  0
  -30.2729    2.5921   31.5837 O   0  0  0  0  0  0  0  0  0  0  0  0
  -28.2768   -2.1694   30.7057 C   0  0  0  0  0  0  0  0  0  0  0  0
  -27.3998   -2.9628   30.2759 O   0  0  0  0  0  0  0  0  0  0  0  0
  -29.0028   -2.4154   31.6814 O   0  0  0  0  0  0  0  0  0  0  0  0
  -29.5212    3.0975   32.1288 C   0  0  0  0  0  0  0  0  0  0  0  0
  -28.8135    2.5028   33.1226 C   0  0  0  0  0  0  0  0  0  0  0  0
  -27.8511    2.2036   33.2527 C   0  0  0  0  0  0  0  0  0  0  0  0
  -26.7609    2.5788   32.2827 C   0  0  0  0  0  0  0  0  0  0  0  0
  -25.4260    2.1533   32.2787 C   0  0  0  0  0  0  0  0  0  0  0  0
  -25.2376    0.8710   32.8667 C   0  0  0  0  0  0  0  0  0  0  0  0
  -26.2145    0.3295   33.7639 C   0  0  0  0  0  0  0  0  0  0  0  0
  3  4  1  0
  7 13  1  0
 13 14  2  0
 13 15  1  0
  2 16  1  0
 16 17  2  0
 16 18  1  0
 15 19  1  0
 19 20  2  3
 20 21  1  0
 21 22  2  3
 22 23  1  0
 23 24  2  3
 24 25  1  0
  4  5  2  0
  5  9  1  0
  9 10  2  0
 10 11  1  0
 11 12  2  0
 12  4  1  0
  1  2  2  0
  2  6  1  0
  6  7  2  0
  7  8  1  0
  8  3  2  0
  3  1  1  0
M  END

$$$$
