No_1681-gen_results/8p0m/2024-11-27-11-27-31/
     RDKit          3D

 13 14  0  0  0  0  0  0  0  0999 V2000
  -28.0162   -0.8135   28.8779 C   0  0  0  0  0  0  0  0  0  0  0  0
  -27.0636   -0.1190   28.6079 C   0  0  0  0  0  0  0  0  0  0  0  0
  -25.7923   -0.4302   29.0761 C   0  0  0  0  0  0  0  0  0  0  0  0
  -24.5456    0.3494   28.8225 C   0  0  0  0  0  0  0  0  0  0  0  0
  -23.2409    0.0217   29.3323 C   0  0  0  0  0  0  0  0  0  0  0  0
  -27.8820   -1.8995   29.8633 C   0  0  0  0  0  0  0  0  0  0  0  0
  -26.6706   -2.3272   30.3212 C   0  0  0  0  0  0  0  0  0  0  0  0
  -25.5433   -1.5852   29.9316 C   0  0  0  0  0  0  0  0  0  0  0  0
  -22.1884    0.8224   28.9928 C   0  0  0  0  0  0  0  0  0  0  0  0
  -22.1616    1.7773   28.0238 C   0  0  0  0  0  0  0  0  0  0  0  0
  -24.5484    1.3977   27.8309 C   0  0  0  0  0  0  0  0  0  0  0  0
  -23.3870    2.0761   27.4709 C   0  0  0  0  0  0  0  0  0  0  0  0
  -29.2587   -2.8355   30.3478 Cl  0  0  0  0  0  0  0  0  0  0  0  0
  3  4  1  0
  6 13  1  0
  1  2  2  0
  2  3  1  0
  3  8  2  0
  8  7  1  0
  7  6  2  0
  6  1  1  0
  4  5  2  0
  5  9  1  0
  9 10  2  0
 10 12  1  0
 12 11  2  0
 11  4  1  0
M  END

$$$$
