No_1929-gen_results/8p0m/2024-11-27-11-27-31/
     RDKit          3D

 20 21  0  0  0  0  0  0  0  0999 V2000
  -28.0162   -0.8135   28.8779 C   0  0  0  0  0  0  0  0  0  0  0  0
  -27.0636   -0.1189   28.6079 C   0  0  0  0  0  0  0  0  0  0  0  0
  -26.9716    0.7139   27.5060 C   0  0  0  0  0  0  0  0  0  0  0  0
  -28.1053    0.7744   26.6421 C   0  0  0  0  0  0  0  0  0  0  0  0
  -29.2041    0.1179   27.0477 C   0  0  0  0  0  0  0  0  0  0  0  0
  -29.2127   -0.6088   28.1281 C   0  0  0  0  0  0  0  0  0  0  0  0
  -25.7106    1.4518   27.1380 C   0  0  0  0  0  0  0  0  0  0  0  0
  -24.6052    0.9253   27.6902 C   0  0  0  0  0  0  0  0  0  0  0  0
  -24.6227    0.0600   28.8225 C   0  0  0  0  0  0  0  0  0  0  0  0
  -25.7269   -0.4734   29.2409 C   0  0  0  0  0  0  0  0  0  0  0  0
  -22.9141    1.8615   27.3580 Br  0  0  0  0  0  0  0  0  0  0  0  0
  -30.3062    0.2995   26.3015 F   0  0  0  0  0  0  0  0  0  0  0  0
  -23.2735   -0.1432   29.5289 C   0  0  0  0  0  0  0  0  0  0  0  0
  -22.9411   -1.4101   29.8483 C   0  0  0  0  0  0  0  0  0  0  0  0
  -23.1784    0.6463   30.8253 C   0  0  0  0  0  0  0  0  0  0  0  0
  -22.0340    0.1769   28.5891 C   0  0  0  0  0  0  0  0  0  0  0  0
  -21.0457    0.9744   29.0598 O   0  0  0  0  0  0  0  0  0  0  0  0
  -21.8018   -0.6112   27.7002 O   0  0  0  0  0  0  0  0  0  0  0  0
  -28.0979   -1.6249   29.9408 F   0  0  0  0  0  0  0  0  0  0  0  0
  -28.0727    1.6238   25.6070 O   0  0  0  0  0  0  0  0  0  0  0  0
  3  4  1  0
  4  5  1  0
  1  6  1  0
  8 11  1  0
  5 12  1  0
  9 13  1  0
 13 14  1  0
 13 15  1  0
 13 16  1  0
 16 17  1  0
 16 18  2  0
  1 19  1  0
  4 20  2  0
  2  1  1  0
  6  5  1  0
  2  3  2  0
  3  7  1  0
  7  8  2  0
  8  9  1  0
  9 10  2  0
 10  2  1  0
M  END

$$$$
