No_1862-gen_results/8p0m/2024-11-27-11-27-31/
     RDKit          3D

 15 15  0  0  0  0  0  0  0  0999 V2000
  -28.0162   -0.8135   28.8779 C   0  0  0  0  0  0  0  0  0  0  0  0
  -27.0636   -0.1190   28.6079 C   0  0  0  0  0  0  0  0  0  0  0  0
  -25.7923   -0.4302   29.0761 C   0  0  0  0  0  0  0  0  0  0  0  0
  -25.5756   -1.5654   29.9363 C   0  0  0  0  0  0  0  0  0  0  0  0
  -26.7354   -2.3004   30.2173 C   0  0  0  0  0  0  0  0  0  0  0  0
  -27.9184   -1.9537   29.7629 C   0  0  0  0  0  0  0  0  0  0  0  0
  -29.0771   -2.5397   30.1000 O   0  0  0  0  0  0  0  0  0  0  0  0
  -29.0579   -3.8748   30.4758 C   0  0  0  0  0  0  0  0  0  0  0  0
  -30.3490   -4.5111   30.0912 C   0  0  0  0  0  0  0  0  0  0  0  0
  -31.2210   -4.0153   30.6642 F   0  0  0  0  0  0  0  0  0  0  0  0
  -30.2077   -5.8260   30.5200 F   0  0  0  0  0  0  0  0  0  0  0  0
  -30.5148   -4.6769   28.7600 F   0  0  0  0  0  0  0  0  0  0  0  0
  -24.7006    0.5443   28.7200 C   0  0  0  0  0  0  0  0  0  0  0  0
  -23.4808    0.3401   29.2763 C   0  0  0  0  0  0  0  0  0  0  0  0
  -22.3658    1.1178   28.8338 C   0  0  0  0  0  0  0  0  0  0  0  0
  6  7  1  0
  7  8  1  0
  8  9  1  0
  9 10  1  0
  9 11  1  0
  9 12  1  0
  3 13  1  0
 13 14  2  3
 14 15  1  0
  1  2  2  0
  2  3  1  0
  3  4  2  0
  4  5  1  0
  5  6  2  0
  6  1  1  0
M  END

$$$$
