No_1894-gen_results/8p0m/2024-11-27-11-27-31/
     RDKit          3D

 19 20  0  0  0  0  0  0  0  0999 V2000
  -28.1229   -1.3353   28.4874 O   0  0  0  0  0  0  0  0  0  0  0  0
  -27.4806   -0.4044   28.7094 C   0  0  0  0  0  0  0  0  0  0  0  0
  -26.3804   -0.0867   27.9394 C   0  0  0  0  0  0  0  0  0  0  0  0
  -27.4232    0.1749   30.0549 N   0  0  0  0  0  0  0  0  0  0  0  0
  -26.1558    0.1159   26.9677 C   0  0  0  0  0  0  0  0  0  0  0  0
  -24.8999    0.6041   26.2249 C   0  0  0  0  0  0  0  0  0  0  0  0
  -23.8294    0.8007   27.0443 C   0  0  0  0  0  0  0  0  0  0  0  0
  -23.9618    0.5852   28.4110 C   0  0  0  0  0  0  0  0  0  0  0  0
  -25.0820    0.2407   28.9595 C   0  0  0  0  0  0  0  0  0  0  0  0
  -28.6063   -0.1787   30.9199 C   0  0  0  0  0  0  0  0  0  0  0  0
  -22.7835    0.9500   29.2843 C   0  0  0  0  0  0  0  0  0  0  0  0
  -22.9542    0.9343   30.4783 O   0  0  0  0  0  0  0  0  0  0  0  0
  -21.6554    1.0841   28.7439 O   0  0  0  0  0  0  0  0  0  0  0  0
  -28.2729   -0.1922   32.1279 C   0  0  0  0  0  0  0  0  0  0  0  0
  -27.1707    0.4644   32.7546 C   0  0  0  0  0  0  0  0  0  0  0  0
  -26.8016    0.4437   34.0913 C   0  0  0  0  0  0  0  0  0  0  0  0
  -27.5212   -0.3681   34.9156 C   0  0  0  0  0  0  0  0  0  0  0  0
  -28.6156   -1.1194   34.4444 C   0  0  0  0  0  0  0  0  0  0  0  0
  -28.9423   -1.0666   33.1243 C   0  0  0  0  0  0  0  0  0  0  0  0
  1  2  2  0
  2  3  1  0
  2  4  1  0
  4 10  1  0
  8 11  1  0
 11 12  2  0
 11 13  1  0
 10 14  1  0
 14 15  2  0
 15 16  1  0
 16 17  2  0
 17 18  1  0
 18 19  2  0
 19 14  1  0
  3  5  2  0
  5  6  1  0
  6  7  2  0
  7  8  1  0
  8  9  2  0
  9  3  1  0
M  END

$$$$
