No_1737-gen_results/8p0m/2024-11-27-11-27-31/
     RDKit          3D

 24 26  0  0  0  0  0  0  0  0999 V2000
  -28.0162   -0.8135   28.8779 C   0  0  0  0  0  0  0  0  0  0  0  0
  -27.0636   -0.1190   28.6079 C   0  0  0  0  0  0  0  0  0  0  0  0
  -27.0010    0.6913   27.4910 C   0  0  0  0  0  0  0  0  0  0  0  0
  -25.8548    1.4825   27.0830 C   0  0  0  0  0  0  0  0  0  0  0  0
  -24.6901    1.4526   27.8807 C   0  0  0  0  0  0  0  0  0  0  0  0
  -24.7379    0.6010   29.0416 C   0  0  0  0  0  0  0  0  0  0  0  0
  -25.8234   -0.1688   29.3887 C   0  0  0  0  0  0  0  0  0  0  0  0
  -29.2150   -0.1725   29.0132 N   0  0  0  0  0  0  0  0  0  0  0  0
  -30.2463   -0.7735   29.6388 C   0  0  0  0  0  0  0  0  0  0  0  0
  -23.5190    2.2034   27.5550 C   0  0  0  0  0  0  0  0  0  0  0  0
  -22.7330    1.6943   26.9658 F   0  0  0  0  0  0  0  0  0  0  0  0
  -22.9349    2.6900   28.7447 F   0  0  0  0  0  0  0  0  0  0  0  0
  -23.9371    3.3818   26.9744 F   0  0  0  0  0  0  0  0  0  0  0  0
  -29.9993   -1.9189   30.3490 C   0  0  0  0  0  0  0  0  0  0  0  0
  -28.7283   -2.5276   30.3820 C   0  0  0  0  0  0  0  0  0  0  0  0
  -27.7074   -1.8460   29.8460 C   0  0  0  0  0  0  0  0  0  0  0  0
  -31.4055   -0.2971   29.5602 O   0  0  0  0  0  0  0  0  0  0  0  0
  -26.3388   -2.2939   30.0029 C   0  0  0  0  0  0  0  0  0  0  0  0
  -25.3458   -1.4421   29.8349 C   0  0  0  0  0  0  0  0  0  0  0  0
  -31.0511   -2.5674   30.9230 O   0  0  0  0  0  0  0  0  0  0  0  0
  -28.1638    0.8184   26.5693 C   0  0  0  0  0  0  0  0  0  0  0  0
  -28.1829    0.3982   25.4482 O   0  0  0  0  0  0  0  0  0  0  0  0
  -29.1959    1.6556   26.9473 N   0  0  0  0  0  0  0  0  0  0  0  0
  -30.3682    1.8760   26.1421 C   0  0  0  0  0  0  0  0  0  0  0  0
  1  8  1  0
  8  9  1  0
  5 10  1  0
 10 11  1  0
 10 12  1  0
 10 13  1  0
  9 14  1  0
 15 16  1  0
  9 17  2  0
 14 20  1  0
  3 21  1  0
 21 22  2  0
 21 23  1  0
 23 24  1  0
 15 14  1  0
  2  3  2  0
  3  4  1  0
  4  5  2  0
  5  6  1  0
  6  7  2  0
  1  2  1  0
  2  7  1  0
  7 19  1  0
 19 18  2  0
 18 16  1  0
 16  1  2  0
M  END

$$$$
