No_137-gen_results/8p0m/2024-11-27-11-27-31/
     RDKit          3D

 16 17  0  0  0  0  0  0  0  0999 V2000
  -28.0162   -0.8135   28.8779 C   0  0  0  0  0  0  0  0  0  0  0  0
  -27.0636   -0.1190   28.6079 C   0  0  0  0  0  0  0  0  0  0  0  0
  -25.7923   -0.4302   29.0761 C   0  0  0  0  0  0  0  0  0  0  0  0
  -24.5456    0.3494   28.8225 C   0  0  0  0  0  0  0  0  0  0  0  0
  -24.6586    1.4196   27.8878 C   0  0  0  0  0  0  0  0  0  0  0  0
  -25.9471    1.6811   27.3792 C   0  0  0  0  0  0  0  0  0  0  0  0
  -27.0439    0.9739   27.6871 C   0  0  0  0  0  0  0  0  0  0  0  0
  -28.6597   -0.4600   30.2006 C   0  0  0  0  0  0  0  0  0  0  0  0
  -29.7497   -1.2486   30.6773 C   0  0  0  0  0  0  0  0  0  0  0  0
  -30.3742   -0.9765   31.8467 C   0  0  0  0  0  0  0  0  0  0  0  0
  -29.8609    0.1125   32.6395 C   0  0  0  0  0  0  0  0  0  0  0  0
  -28.7739    0.8228   32.2214 C   0  0  0  0  0  0  0  0  0  0  0  0
  -28.1596    0.5415   31.0324 C   0  0  0  0  0  0  0  0  0  0  0  0
  -23.2663    2.2837   27.4932 Cl  0  0  0  0  0  0  0  0  0  0  0  0
  -23.2596   -0.0837   29.3550 C   0  0  0  0  0  0  0  0  0  0  0  0
  -22.2591    0.6145   29.2049 C   0  0  0  0  0  0  0  0  0  0  0  0
  1  2  1  0
  1  8  1  0
  5 14  1  0
  4 15  1  0
 15 16  1  0
  2  3  2  0
  3  4  1  0
  4  5  2  0
  5  6  1  0
  6  7  2  0
  7  2  1  0
  8  9  2  0
  9 10  1  0
 10 11  2  0
 11 12  1  0
 12 13  2  0
 13  8  1  0
M  END

$$$$
