No_1949-gen_results/8p0m/2024-11-27-11-27-31/
     RDKit          3D

 32 35  0  0  0  0  0  0  0  0999 V2000
  -28.0162   -0.8135   28.8779 C   0  0  0  0  0  0  0  0  0  0  0  0
  -28.4690   -0.7850   29.8287 C   0  0  0  0  0  0  0  0  0  0  0  0
  -26.5042   -0.7777   28.8766 C   0  0  0  0  0  0  0  0  0  0  0  0
  -25.6540   -0.6597   27.7191 C   0  0  0  0  0  0  0  0  0  0  0  0
  -27.9180   -0.9374   31.1824 C   0  0  0  0  0  0  0  0  0  0  0  0
  -26.5423   -0.9399   31.2606 C   0  0  0  0  0  0  0  0  0  0  0  0
  -25.7832   -0.8935   30.1201 C   0  0  0  0  0  0  0  0  0  0  0  0
  -25.9259    0.2819   26.7445 C   0  0  0  0  0  0  0  0  0  0  0  0
  -25.6258    1.4719   26.8191 C   0  0  0  0  0  0  0  0  0  0  0  0
  -25.9389    2.3920   25.7413 C   0  0  0  0  0  0  0  0  0  0  0  0
  -26.7522    1.9284   24.7422 C   0  0  0  0  0  0  0  0  0  0  0  0
  -26.7837   -0.0169   25.6158 C   0  0  0  0  0  0  0  0  0  0  0  0
  -27.1275    0.7425   24.6874 C   0  0  0  0  0  0  0  0  0  0  0  0
  -24.6261   -1.4273   27.6649 O   0  0  0  0  0  0  0  0  0  0  0  0
  -29.9606   -0.7250   29.8585 N   0  0  0  0  0  0  0  0  0  0  0  0
  -30.6204    0.4399   30.0851 C   0  0  0  0  0  0  0  0  0  0  0  0
  -31.9627    0.4587   29.9795 C   0  0  0  0  0  0  0  0  0  0  0  0
  -30.7499   -1.8046   29.6099 C   0  0  0  0  0  0  0  0  0  0  0  0
  -32.0313   -1.8469   29.5027 N   0  0  0  0  0  0  0  0  0  0  0  0
  -32.6815   -0.6759   29.7089 C   0  0  0  0  0  0  0  0  0  0  0  0
  -34.0460   -0.6975   29.6279 N   0  0  0  0  0  0  0  0  0  0  0  0
  -34.7700    0.3883   29.6773 C   0  0  0  0  0  0  0  0  0  0  0  0
  -34.0895    1.6022   29.9691 C   0  0  0  0  0  0  0  0  0  0  0  0
  -32.7108    1.7131   30.1396 C   0  0  0  0  0  0  0  0  0  0  0  0
  -29.8538    1.4663   30.3408 F   0  0  0  0  0  0  0  0  0  0  0  0
  -34.8714    2.8799   30.1599 C   0  0  0  0  0  0  0  0  0  0  0  0
  -35.6577    3.0119   31.0397 N   0  0  0  0  0  0  0  0  0  0  0  0
  -35.7495    2.5989   32.1220 C   0  0  0  0  0  0  0  0  0  0  0  0
  -36.0787    2.3294   33.0559 C   0  0  0  0  0  0  0  0  0  0  0  0
  -37.2818    2.8106   33.7655 C   0  0  0  0  0  0  0  0  0  0  0  0
  -37.7013    2.3361   34.9988 C   0  0  0  0  0  0  0  0  0  0  0  0
  -38.8545    2.8029   35.6491 C   0  0  0  0  0  0  0  0  0  0  0  0
  3  4  1  0
  4  8  1  0
  4 14  2  0
  2 15  1  0
 15 16  1  0
 15 18  1  0
 19 20  1  0
 16 25  1  0
 23 26  1  0
 26 27  1  0
 27 28  1  0
 28 29  3  0
 29 30  1  0
 30 31  2  3
 31 32  1  0
 16 17  1  0
 19 18  1  0
 17 20  2  0
 20 21  1  0
 21 22  2  0
 22 23  1  0
 23 24  2  0
 24 17  1  0
  1  2  2  0
  2  5  1  0
  5  6  2  0
  6  7  1  0
  7  3  2  0
  3  1  1  0
  8  9  2  0
  9 10  1  0
 10 11  2  0
 11 13  1  0
 13 12  2  0
 12  8  1  0
M  END

$$$$
