No_1128-gen_results/8p0m/2024-11-27-11-27-31/
     RDKit          3D

 16 17  0  0  0  0  0  0  0  0999 V2000
  -28.0162   -0.8135   28.8779 C   0  0  0  0  0  0  0  0  0  0  0  0
  -27.0636   -0.1189   28.6079 C   0  0  0  0  0  0  0  0  0  0  0  0
  -27.0010    0.6913   27.4910 C   0  0  0  0  0  0  0  0  0  0  0  0
  -25.8548    1.4825   27.0830 C   0  0  0  0  0  0  0  0  0  0  0  0
  -24.6901    1.4526   27.8807 C   0  0  0  0  0  0  0  0  0  0  0  0
  -24.7379    0.6010   29.0416 C   0  0  0  0  0  0  0  0  0  0  0  0
  -25.8234   -0.1688   29.3887 C   0  0  0  0  0  0  0  0  0  0  0  0
  -29.2455   -0.0678   29.1937 C   0  0  0  0  0  0  0  0  0  0  0  0
  -23.4936    2.1863   27.5598 C   0  0  0  0  0  0  0  0  0  0  0  0
  -22.3198    1.5309   27.2012 Cl  0  0  0  0  0  0  0  0  0  0  0  0
  -29.3606    0.8991   28.8850 C   0  0  0  0  0  0  0  0  0  0  0  0
  -30.6525    1.6318   29.2057 C   0  0  0  0  0  0  0  0  0  0  0  0
  -30.8931    2.9994   28.8839 C   0  0  0  0  0  0  0  0  0  0  0  0
  -29.8566    3.6507   28.1707 C   0  0  0  0  0  0  0  0  0  0  0  0
  -28.7152    3.0482   27.8223 C   0  0  0  0  0  0  0  0  0  0  0  0
  -28.4613    1.7582   28.1842 C   0  0  0  0  0  0  0  0  0  0  0  0
  1  2  1  0
  1  8  3  0
  5  9  1  0
  9 10  1  0
  8 11  1  0
 11 12  2  0
 12 13  1  0
 13 14  2  0
 14 15  1  0
 15 16  2  0
 16 11  1  0
  2  3  2  0
  3  4  1  0
  4  5  2  0
  5  6  1  0
  6  7  2  0
  7  2  1  0
M  END

$$$$
