No_1925-gen_results/8p0m/2024-11-27-11-27-31/
     RDKit          3D

 18 18  0  0  0  0  0  0  0  0999 V2000
  -28.0162   -0.8135   28.8779 C   0  0  0  0  0  0  0  0  0  0  0  0
  -27.0636   -0.1189   28.6079 C   0  0  0  0  0  0  0  0  0  0  0  0
  -26.9287    1.1713   29.0083 C   0  0  0  0  0  0  0  0  0  0  0  0
  -25.7702    2.0341   28.6884 C   0  0  0  0  0  0  0  0  0  0  0  0
  -24.7141    1.4431   27.9188 C   0  0  0  0  0  0  0  0  0  0  0  0
  -24.8590    0.0783   27.5836 C   0  0  0  0  0  0  0  0  0  0  0  0
  -25.9647   -0.6606   27.9164 C   0  0  0  0  0  0  0  0  0  0  0  0
  -29.1701   -0.2984   28.9471 N   0  0  0  0  0  0  0  0  0  0  0  0
  -30.1841   -0.8920   29.7048 C   0  0  0  0  0  0  0  0  0  0  0  0
  -23.5181    2.1584   27.5785 C   0  0  0  0  0  0  0  0  0  0  0  0
  -22.4401    1.8073   27.5678 O   0  0  0  0  0  0  0  0  0  0  0  0
  -23.7727    3.4301   27.2203 O   0  0  0  0  0  0  0  0  0  0  0  0
  -31.5307   -0.6108   29.4822 C   0  0  0  0  0  0  0  0  0  0  0  0
  -29.8610   -1.8811   30.7346 C   0  0  0  0  0  0  0  0  0  0  0  0
  -28.5582   -2.0560   31.1195 C   0  0  0  0  0  0  0  0  0  0  0  0
  -27.7416   -1.6742   30.6729 C   0  0  0  0  0  0  0  0  0  0  0  0
  -26.4526   -1.8999   30.1756 C   0  0  0  0  0  0  0  0  0  0  0  0
  -27.9308   -2.1128   28.6833 O   0  0  0  0  0  0  0  0  0  0  0  0
  1  2  1  0
  1  8  1  0
  8  9  1  0
  5 10  1  0
 10 11  2  0
 10 12  1  0
  9 13  2  0
  9 14  1  0
 14 15  1  0
 15 16  2  3
 16 17  1  0
  1 18  1  0
  2  3  2  0
  3  4  1  0
  4  5  2  0
  5  6  1  0
  6  7  2  0
  7  2  1  0
M  END

$$$$
