No_1855-gen_results/8p0m/2024-11-27-11-27-31/
     RDKit          3D

 22 23  0  0  0  0  0  0  0  0999 V2000
  -28.0162   -0.8135   28.8779 C   0  0  0  0  0  0  0  0  0  0  0  0
  -27.0636   -0.1189   28.6079 C   0  0  0  0  0  0  0  0  0  0  0  0
  -27.0010    0.6913   27.4910 C   0  0  0  0  0  0  0  0  0  0  0  0
  -28.1373    0.7363   26.6350 C   0  0  0  0  0  0  0  0  0  0  0  0
  -29.2360    0.0765   27.0690 C   0  0  0  0  0  0  0  0  0  0  0  0
  -29.2177   -0.6429   28.1747 C   0  0  0  0  0  0  0  0  0  0  0  0
  -30.3374    0.2228   26.0287 C   0  0  0  0  0  0  0  0  0  0  0  0
  -31.1032   -0.6675   26.1166 F   0  0  0  0  0  0  0  0  0  0  0  0
  -29.8560    0.3319   24.7765 F   0  0  0  0  0  0  0  0  0  0  0  0
  -30.9552    1.4046   26.2522 F   0  0  0  0  0  0  0  0  0  0  0  0
  -28.0362   -1.6705   30.1412 C   0  0  0  0  0  0  0  0  0  0  0  0
  -27.1117   -2.5785   30.2857 N   0  0  0  0  0  0  0  0  0  0  0  0
  -27.4244   -3.9242   30.0359 C   0  0  0  0  0  0  0  0  0  0  0  0
  -26.2912   -4.6998   29.8639 N   0  0  0  0  0  0  0  0  0  0  0  0
  -28.5664   -4.4224   30.2334 N   0  0  0  0  0  0  0  0  0  0  0  0
  -29.6545   -4.4022   30.4874 C   0  0  0  0  0  0  0  0  0  0  0  0
  -30.6589   -4.7093   30.3518 C   0  0  0  0  0  0  0  0  0  0  0  0
  -31.0457   -5.7319   29.2953 C   0  0  0  0  0  0  0  0  0  0  0  0
  -32.2861   -6.2391   28.9338 C   0  0  0  0  0  0  0  0  0  0  0  0
  -33.3395   -5.6785   29.6279 C   0  0  0  0  0  0  0  0  0  0  0  0
  -33.2277   -4.7403   30.5924 C   0  0  0  0  0  0  0  0  0  0  0  0
  -31.9738   -4.2119   30.9615 C   0  0  0  0  0  0  0  0  0  0  0  0
  5  7  1  0
  7  8  1  0
  7  9  1  0
  7 10  1  0
  1 11  1  0
 11 12  1  0
 12 13  2  3
 13 14  1  0
 13 15  1  0
 15 16  1  0
 16 17  1  0
 17 18  2  0
 18 19  1  0
 19 20  2  0
 20 21  1  0
 21 22  2  0
 22 17  1  0
  1  2  2  0
  2  3  1  0
  3  4  2  0
  4  5  1  0
  5  6  2  0
  6  1  1  0
M  END

$$$$
