No_1533-gen_results/8p0m/2024-11-27-11-27-31/
     RDKit          3D

 16 18  0  0  0  0  0  0  0  0999 V2000
  -28.0162   -0.8135   28.8779 C   0  0  0  0  0  0  0  0  0  0  0  0
  -28.4690   -0.7850   29.8287 C   0  0  0  0  0  0  0  0  0  0  0  0
  -27.0871    0.2903   28.6377 C   0  0  0  0  0  0  0  0  0  0  0  0
  -26.7676    1.0274   29.4716 C   0  0  0  0  0  0  0  0  0  0  0  0
  -28.2764    0.0268   31.0145 C   0  0  0  0  0  0  0  0  0  0  0  0
  -27.3287    1.0538   30.7535 C   0  0  0  0  0  0  0  0  0  0  0  0
  -26.3859    0.3011   27.2661 C   0  0  0  0  0  0  0  0  0  0  0  0
  -26.0047    1.5465   26.8605 C   0  0  0  0  0  0  0  0  0  0  0  0
  -25.1668    1.6782   25.8655 C   0  0  0  0  0  0  0  0  0  0  0  0
  -24.2377    2.7802   25.8241 C   0  0  0  0  0  0  0  0  0  0  0  0
  -24.2559    3.6158   26.8150 C   0  0  0  0  0  0  0  0  0  0  0  0
  -25.2004    3.6472   27.8128 C   0  0  0  0  0  0  0  0  0  0  0  0
  -26.0269    2.5028   27.9582 C   0  0  0  0  0  0  0  0  0  0  0  0
  -26.4412    2.3114   29.1832 N   0  0  0  0  0  0  0  0  0  0  0  0
  -26.3492    3.3758   30.1903 C   0  0  0  0  0  0  0  0  0  0  0  0
  -27.4479    3.6292   30.9163 C   0  0  0  0  0  0  0  0  0  0  0  0
  3  7  1  0
  7  8  1  0
  4 14  1  0
 13 14  1  0
 14 15  1  0
 15 16  1  0
  8  9  2  0
  9 10  1  0
 10 11  2  0
 11 12  1  0
 12 13  2  0
 13  8  1  0
  1  2  2  0
  2  5  1  0
  5  6  2  0
  6  4  1  0
  4  3  2  0
  3  1  1  0
M  END

$$$$
