No_1311-gen_results/8p0m/2024-11-27-11-27-31/
     RDKit          3D

 27 28  0  0  0  0  0  0  0  0999 V2000
  -28.0162   -0.8135   28.8779 C   0  0  0  0  0  0  0  0  0  0  0  0
  -27.0636   -0.1189   28.6079 C   0  0  0  0  0  0  0  0  0  0  0  0
  -25.7647   -0.3897   29.0360 C   0  0  0  0  0  0  0  0  0  0  0  0
  -25.5296   -1.5302   29.9014 C   0  0  0  0  0  0  0  0  0  0  0  0
  -26.6577   -2.2915   30.2035 C   0  0  0  0  0  0  0  0  0  0  0  0
  -27.8548   -1.9555   29.7630 C   0  0  0  0  0  0  0  0  0  0  0  0
  -24.5441    0.4126   28.7379 C   0  0  0  0  0  0  0  0  0  0  0  0
  -24.4731    1.2065   27.7114 C   0  0  0  0  0  0  0  0  0  0  0  0
  -23.3993    1.8796   27.3686 C   0  0  0  0  0  0  0  0  0  0  0  0
  -22.1779    1.7361   27.9909 C   0  0  0  0  0  0  0  0  0  0  0  0
  -23.3187    0.1922   29.4758 C   0  0  0  0  0  0  0  0  0  0  0  0
  -22.1358    0.8784   29.0848 C   0  0  0  0  0  0  0  0  0  0  0  0
  -28.9322   -2.7226   30.1232 O   0  0  0  0  0  0  0  0  0  0  0  0
  -29.2757   -2.8244   31.4641 C   0  0  0  0  0  0  0  0  0  0  0  0
  -30.6567   -2.6971   31.6988 C   0  0  0  0  0  0  0  0  0  0  0  0
  -31.5566   -2.3737   30.5183 Cl  0  0  0  0  0  0  0  0  0  0  0  0
  -30.8028   -1.7095   32.6713 F   0  0  0  0  0  0  0  0  0  0  0  0
  -31.1236   -3.8224   32.3154 F   0  0  0  0  0  0  0  0  0  0  0  0
  -23.4151    2.7793   26.3104 O   0  0  0  0  0  0  0  0  0  0  0  0
  -28.6864   -3.9942   32.0515 O   0  0  0  0  0  0  0  0  0  0  0  0
  -24.5890    3.5463   26.1750 C   0  0  0  0  0  0  0  0  0  0  0  0
  -27.1754    0.9378   27.7571 O   0  0  0  0  0  0  0  0  0  0  0  0
  -27.9362    1.9924   28.1713 C   0  0  0  0  0  0  0  0  0  0  0  0
  -29.2391    2.0137   27.6933 C   0  0  0  0  0  0  0  0  0  0  0  0
  -29.4961    1.7111   26.4539 C   0  0  0  0  0  0  0  0  0  0  0  0
  -28.5834    1.6633   25.5936 C   0  0  0  0  0  0  0  0  0  0  0  0
  -28.7689    1.2227   24.1580 C   0  0  0  0  0  0  0  0  0  0  0  0
  3  7  1  0
  6 13  1  0
 13 14  1  0
 14 15  1  0
 15 16  1  0
 15 17  1  0
 15 18  1  0
  9 19  1  0
 14 20  1  0
 19 21  1  0
  2 22  1  0
 22 23  1  0
 23 24  1  0
 24 25  2  3
 25 26  1  0
 26 27  2  0
  7  8  2  0
  8  9  1  0
  9 10  2  0
 10 12  1  0
 12 11  2  0
 11  7  1  0
  1  2  2  0
  2  3  1  0
  3  4  2  0
  4  5  1  0
  5  6  2  0
  6  1  1  0
M  END

$$$$
