No_1347-gen_results/8p0m/2024-11-27-11-27-31/
     RDKit          3D

 14 15  0  0  0  0  0  0  0  0999 V2000
  -28.0162   -0.8135   28.8779 C   0  0  0  0  0  0  0  0  0  0  0  0
  -28.4690   -0.7850   29.8287 C   0  0  0  0  0  0  0  0  0  0  0  0
  -27.1356    0.2359   28.5352 C   0  0  0  0  0  0  0  0  0  0  0  0
  -26.3351    0.2900   27.2835 C   0  0  0  0  0  0  0  0  0  0  0  0
  -28.3692    0.1957   30.9236 C   0  0  0  0  0  0  0  0  0  0  0  0
  -27.5158    1.2655   30.6540 C   0  0  0  0  0  0  0  0  0  0  0  0
  -26.8411    1.2942   29.4761 C   0  0  0  0  0  0  0  0  0  0  0  0
  -25.8079    1.4528   26.9401 N   0  0  0  0  0  0  0  0  0  0  0  0
  -24.4626    1.4551   26.5479 C   0  0  0  0  0  0  0  0  0  0  0  0
  -23.8953    2.8380   26.3523 C   0  0  0  0  0  0  0  0  0  0  0  0
  -26.5710    2.5663   26.7158 C   0  0  0  0  0  0  0  0  0  0  0  0
  -26.0108    3.8743   26.6278 C   0  0  0  0  0  0  0  0  0  0  0  0
  -24.6180    3.9562   26.2724 C   0  0  0  0  0  0  0  0  0  0  0  0
  -26.1849   -0.7069   26.5518 O   0  0  0  0  0  0  0  0  0  0  0  0
  3  4  1  0
  4  8  1  0
  8  9  1  0
  8 11  1  0
 10 13  1  0
 12 13  1  0
  4 14  2  0
  9 10  1  0
 12 11  1  0
  1  2  2  0
  2  5  1  0
  5  6  2  0
  6  7  1  0
  7  3  2  0
  3  1  1  0
M  END

$$$$
