No_1486-gen_results/8p0m/2024-11-27-11-27-31/
     RDKit          3D

 27 30  0  0  0  0  0  0  0  0999 V2000
  -28.0544   -1.0498   28.7246 N   0  0  0  0  0  0  0  0  0  0  0  0
  -27.7460   -0.0733   29.0098 C   0  0  0  0  0  0  0  0  0  0  0  0
  -27.1741    0.7325   28.8254 C   0  0  0  0  0  0  0  0  0  0  0  0
  -26.9592    2.0624   29.5303 C   0  0  0  0  0  0  0  0  0  0  0  0
  -27.5475    2.0936   30.7631 C   0  0  0  0  0  0  0  0  0  0  0  0
  -28.2417    0.9912   31.1930 C   0  0  0  0  0  0  0  0  0  0  0  0
  -28.3142   -0.0793   30.3940 C   0  0  0  0  0  0  0  0  0  0  0  0
  -26.4206    0.9204   27.4329 C   0  0  0  0  0  0  0  0  0  0  0  0
  -25.1141    0.4942   27.5057 C   0  0  0  0  0  0  0  0  0  0  0  0
  -24.1761    1.1827   26.7130 C   0  0  0  0  0  0  0  0  0  0  0  0
  -24.6105    1.9253   25.5659 C   0  0  0  0  0  0  0  0  0  0  0  0
  -26.6819    2.0861   26.7127 C   0  0  0  0  0  0  0  0  0  0  0  0
  -25.8069    2.4468   25.6172 C   0  0  0  0  0  0  0  0  0  0  0  0
  -29.0302   -1.3654   30.6883 C   0  0  0  0  0  0  0  0  0  0  0  0
  -28.7337   -1.9678   29.5115 N   0  0  0  0  0  0  0  0  0  0  0  0
  -24.5536   -0.5435   28.3654 C   0  0  0  0  0  0  0  0  0  0  0  0
  -23.9457   -0.5557   29.4695 C   0  0  0  0  0  0  0  0  0  0  0  0
  -23.4375    0.7521   29.9478 C   0  0  0  0  0  0  0  0  0  0  0  0
  -24.8863   -1.8172   27.8577 C   0  0  0  0  0  0  0  0  0  0  0  0
  -24.5768   -2.9574   28.6598 C   0  0  0  0  0  0  0  0  0  0  0  0
  -23.9364   -2.8793   29.8808 C   0  0  0  0  0  0  0  0  0  0  0  0
  -23.5745   -1.6268   30.3048 C   0  0  0  0  0  0  0  0  0  0  0  0
  -29.6981   -1.7432   31.5927 F   0  0  0  0  0  0  0  0  0  0  0  0
  -27.3978    3.3045   31.6495 C   0  0  0  0  0  0  0  0  0  0  0  0
  -26.3155    3.7700   31.7632 C   0  0  0  0  0  0  0  0  0  0  0  0
  -25.1284    3.4334   31.4330 C   0  0  0  0  0  0  0  0  0  0  0  0
  -24.0360    4.1526   31.8139 O   0  0  0  0  0  0  0  0  0  0  0  0
  1  2  1  0
  3  8  1  0
  7 14  1  0
  1 15  2  0
 14 15  1  0
  9 16  1  0
 17 18  1  0
 14 23  1  0
  5 24  1  0
 24 25  2  3
 25 26  1  0
 26 27  1  0
  2  3  2  0
  3  4  1  0
  4  5  2  0
  5  6  1  0
  6  7  2  0
  7  2  1  0
 16 17  2  0
 17 22  1  0
 22 21  2  0
 21 20  1  0
 20 19  2  0
 19 16  1  0
  8  9  1  0
  9 10  2  0
 10 11  1  0
 11 13  2  0
 13 12  1  0
 12  8  2  0
M  END

$$$$
