No_198-gen_results/8p0m/2024-11-27-11-27-31/
     RDKit          3D

  7  7  0  0  0  0  0  0  0  0999 V2000
  -28.0162   -0.8135   28.8779 C   0  0  0  0  0  0  0  0  0  0  0  0
  -28.4690   -0.7850   29.8287 C   0  0  0  0  0  0  0  0  0  0  0  0
  -26.5042   -0.7777   28.8766 C   0  0  0  0  0  0  0  0  0  0  0  0
  -25.9150   -0.6580   29.9230 C   0  0  0  0  0  0  0  0  0  0  0  0
  -27.9537   -0.7071   31.0412 C   0  0  0  0  0  0  0  0  0  0  0  0
  -26.5877   -0.6326   31.1651 C   0  0  0  0  0  0  0  0  0  0  0  0
  -29.9146   -0.8747   29.8068 F   0  0  0  0  0  0  0  0  0  0  0  0
  2  7  1  0
  1  2  2  0
  2  5  1  0
  5  6  2  0
  6  4  1  0
  4  3  2  0
  3  1  1  0
M  END

$$$$
