No_1583-gen_results/8p0m/2024-11-27-11-27-31/
     RDKit          3D

 13 13  0  0  0  0  0  0  0  0999 V2000
  -28.0162   -0.8135   28.8779 C   0  0  0  0  0  0  0  0  0  0  0  0
  -27.0636   -0.1189   28.6079 C   0  0  0  0  0  0  0  0  0  0  0  0
  -26.9716    0.7139   27.5060 C   0  0  0  0  0  0  0  0  0  0  0  0
  -28.1053    0.7744   26.6421 C   0  0  0  0  0  0  0  0  0  0  0  0
  -29.2008    0.1044   27.0527 C   0  0  0  0  0  0  0  0  0  0  0  0
  -29.2096   -0.6029   28.1853 C   0  0  0  0  0  0  0  0  0  0  0  0
  -30.2851    0.2916   26.0027 C   0  0  0  0  0  0  0  0  0  0  0  0
  -31.1387   -0.4397   26.0572 O   0  0  0  0  0  0  0  0  0  0  0  0
  -30.2483    1.1981   25.0945 O   0  0  0  0  0  0  0  0  0  0  0  0
  -25.7158   -0.2217   29.4502 C   0  0  0  0  0  0  0  0  0  0  0  0
  -24.8180   -0.8391   28.8488 F   0  0  0  0  0  0  0  0  0  0  0  0
  -25.2028    1.0311   29.6650 F   0  0  0  0  0  0  0  0  0  0  0  0
  -25.9521   -0.7163   30.6437 F   0  0  0  0  0  0  0  0  0  0  0  0
  5  7  1  0
  7  8  1  0
  7  9  2  0
  2 10  1  0
 10 11  1  0
 10 12  1  0
 10 13  1  0
  1  2  2  0
  2  3  1  0
  3  4  2  0
  4  5  1  0
  5  6  2  0
  6  1  1  0
M  END

$$$$
