No_1227-gen_results/8p0m/2024-11-27-11-27-31/
     RDKit          3D

 19 21  0  0  0  0  0  0  0  0999 V2000
  -28.0162   -0.8135   28.8779 C   0  0  0  0  0  0  0  0  0  0  0  0
  -27.0636   -0.1189   28.6079 C   0  0  0  0  0  0  0  0  0  0  0  0
  -25.7647   -0.3897   29.0360 C   0  0  0  0  0  0  0  0  0  0  0  0
  -25.5296   -1.5302   29.9014 C   0  0  0  0  0  0  0  0  0  0  0  0
  -26.6577   -2.2915   30.2035 C   0  0  0  0  0  0  0  0  0  0  0  0
  -27.8548   -1.9555   29.7630 C   0  0  0  0  0  0  0  0  0  0  0  0
  -24.5349    0.4128   28.7431 C   0  0  0  0  0  0  0  0  0  0  0  0
  -24.4835    1.2431   27.7398 C   0  0  0  0  0  0  0  0  0  0  0  0
  -23.2788    1.9376   27.4159 C   0  0  0  0  0  0  0  0  0  0  0  0
  -22.0791    1.6509   28.0212 C   0  0  0  0  0  0  0  0  0  0  0  0
  -23.2748    0.1108   29.4386 C   0  0  0  0  0  0  0  0  0  0  0  0
  -22.0811    0.7712   29.0649 C   0  0  0  0  0  0  0  0  0  0  0  0
  -29.0182   -2.7946   30.1855 C   0  0  0  0  0  0  0  0  0  0  0  0
  -29.3649   -2.7049   31.3165 N   0  0  0  0  0  0  0  0  0  0  0  0
  -29.8875   -3.7180   32.0211 C   0  0  0  0  0  0  0  0  0  0  0  0
  -29.3102   -1.4892   32.0562 C   0  0  0  0  0  0  0  0  0  0  0  0
  -29.6439   -1.5128   33.3365 C   0  0  0  0  0  0  0  0  0  0  0  0
  -30.1736   -3.7620   33.4448 C   0  0  0  0  0  0  0  0  0  0  0  0
  -30.0831   -2.5626   34.0909 C   0  0  0  0  0  0  0  0  0  0  0  0
  3  7  1  0
  6 13  1  0
 13 14  1  0
 14 15  1  0
 14 16  1  0
 17 19  1  0
 18 19  1  0
 15 18  1  0
 17 16  1  0
  7  8  2  0
  8  9  1  0
  9 10  2  0
 10 12  1  0
 12 11  2  0
 11  7  1  0
  1  2  2  0
  2  3  1  0
  3  4  2  0
  4  5  1  0
  5  6  2  0
  6  1  1  0
M  END

$$$$
