No_1589-gen_results/8p0m/2024-11-27-11-27-31/
     RDKit          3D

 26 29  0  0  0  0  0  0  0  0999 V2000
  -28.0162   -0.8135   28.8779 C   0  0  0  0  0  0  0  0  0  0  0  0
  -27.0636   -0.1190   28.6079 C   0  0  0  0  0  0  0  0  0  0  0  0
  -26.9716    0.7139   27.5060 C   0  0  0  0  0  0  0  0  0  0  0  0
  -28.1053    0.7744   26.6421 C   0  0  0  0  0  0  0  0  0  0  0  0
  -29.2041    0.1179   27.0477 C   0  0  0  0  0  0  0  0  0  0  0  0
  -29.2127   -0.6088   28.1281 C   0  0  0  0  0  0  0  0  0  0  0  0
  -30.3709    0.2326   26.1381 C   0  0  0  0  0  0  0  0  0  0  0  0
  -30.3086    0.1051   24.9412 O   0  0  0  0  0  0  0  0  0  0  0  0
  -31.6303    0.2532   26.7094 N   0  0  0  0  0  0  0  0  0  0  0  0
  -32.7965    0.2213   25.8986 C   0  0  0  0  0  0  0  0  0  0  0  0
  -25.4965    1.5300   27.0538 Cl  0  0  0  0  0  0  0  0  0  0  0  0
  -28.0787   -1.6424   30.1505 C   0  0  0  0  0  0  0  0  0  0  0  0
  -28.7533   -1.6867   30.9375 O   0  0  0  0  0  0  0  0  0  0  0  0
  -26.9892   -2.5328   30.0926 O   0  0  0  0  0  0  0  0  0  0  0  0
  -25.7306   -2.1369   29.9447 C   0  0  0  0  0  0  0  0  0  0  0  0
  -24.7327   -3.0995   30.2116 C   0  0  0  0  0  0  0  0  0  0  0  0
  -23.3945   -2.5287   29.7181 C   0  0  0  0  0  0  0  0  0  0  0  0
  -23.5055   -1.3760   29.5119 C   0  0  0  0  0  0  0  0  0  0  0  0
  -25.1038   -1.0077   29.4604 C   0  0  0  0  0  0  0  0  0  0  0  0
  -25.7265    0.0326   28.8067 C   0  0  0  0  0  0  0  0  0  0  0  0
  -25.4163    1.0976   30.1002 C   0  0  0  0  0  0  0  0  0  0  0  0
  -24.4220    2.0111   29.8960 C   0  0  0  0  0  0  0  0  0  0  0  0
  -26.3862    1.2276   31.0894 C   0  0  0  0  0  0  0  0  0  0  0  0
  -26.1626    2.1913   32.0899 C   0  0  0  0  0  0  0  0  0  0  0  0
  -24.1677    2.9351   30.9696 C   0  0  0  0  0  0  0  0  0  0  0  0
  -25.0151    3.0145   32.0688 C   0  0  0  0  0  0  0  0  0  0  0  0
  5  7  1  0
  7  8  2  0
  7  9  1  0
  9 10  1  0
  3 11  1  0
  1 12  1  0
 12 13  2  0
 12 14  1  0
 14 15  1  0
 15 16  2  0
 16 17  1  0
 17 18  2  0
 15 19  1  0
 18 19  1  0
  2 20  1  0
 19 20  1  0
 20 21  1  0
  1  2  1  0
  2  3  2  0
  3  4  1  0
  4  5  2  0
  5  6  1  0
  6  1  2  0
 21 22  2  0
 22 25  1  0
 25 26  2  0
 26 24  1  0
 24 23  2  0
 23 21  1  0
M  END

$$$$
