No_1488-gen_results/8p0m/2024-11-27-11-27-31/
     RDKit          3D

 11 11  0  0  0  0  0  0  0  0999 V2000
  -28.0162   -0.8135   28.8779 C   0  0  0  0  0  0  0  0  0  0  0  0
  -28.4690   -0.7850   29.8287 C   0  0  0  0  0  0  0  0  0  0  0  0
  -27.0871    0.2903   28.6377 C   0  0  0  0  0  0  0  0  0  0  0  0
  -26.7676    1.0274   29.4716 C   0  0  0  0  0  0  0  0  0  0  0  0
  -28.2764    0.0268   31.0145 C   0  0  0  0  0  0  0  0  0  0  0  0
  -27.3287    1.0538   30.7535 C   0  0  0  0  0  0  0  0  0  0  0  0
  -25.7516    2.1742   29.2499 C   0  0  0  0  0  0  0  0  0  0  0  0
  -25.1638    2.4133   28.1385 C   0  0  0  0  0  0  0  0  0  0  0  0
  -25.0159    1.7666   27.1801 C   0  0  0  0  0  0  0  0  0  0  0  0
  -24.2150    2.1157   26.0727 C   0  0  0  0  0  0  0  0  0  0  0  0
  -23.3229    1.3285   25.4156 C   0  0  0  0  0  0  0  0  0  0  0  0
  4  7  1  0
  7  8  2  3
  8  9  1  0
  9 10  1  0
 10 11  2  0
  1  2  2  0
  2  5  1  0
  5  6  2  0
  6  4  1  0
  4  3  2  0
  3  1  1  0
M  END

$$$$
