No_1673-gen_results/8p0m/2024-11-27-11-27-31/
     RDKit          3D

 35 38  0  0  0  0  0  0  0  0999 V2000
  -28.0162   -0.8135   28.8779 C   0  0  0  0  0  0  0  0  0  0  0  0
  -27.0636   -0.1189   28.6079 C   0  0  0  0  0  0  0  0  0  0  0  0
  -26.9716    0.7139   27.5060 C   0  0  0  0  0  0  0  0  0  0  0  0
  -28.1053    0.7744   26.6421 C   0  0  0  0  0  0  0  0  0  0  0  0
  -29.2008    0.1044   27.0527 C   0  0  0  0  0  0  0  0  0  0  0  0
  -28.0219   -1.5899   30.0879 C   0  0  0  0  0  0  0  0  0  0  0  0
  -29.1640   -0.6394   28.1484 C   0  0  0  0  0  0  0  0  0  0  0  0
  -28.8376   -1.8977   30.7662 N   0  0  0  0  0  0  0  0  0  0  0  0
  -26.8304   -2.2582   30.3410 O   0  0  0  0  0  0  0  0  0  0  0  0
  -30.1762   -1.2784   30.7442 C   0  0  0  0  0  0  0  0  0  0  0  0
  -30.3146   -0.2942   31.6422 C   0  0  0  0  0  0  0  0  0  0  0  0
  -31.5792    0.4403   31.6674 C   0  0  0  0  0  0  0  0  0  0  0  0
  -32.5734   -0.0196   30.8138 C   0  0  0  0  0  0  0  0  0  0  0  0
  -32.3908   -1.0358   29.9606 C   0  0  0  0  0  0  0  0  0  0  0  0
  -31.1624   -1.6918   29.9279 C   0  0  0  0  0  0  0  0  0  0  0  0
  -30.4217    0.2877   26.2053 C   0  0  0  0  0  0  0  0  0  0  0  0
  -30.6880   -0.2916   25.2563 O   0  0  0  0  0  0  0  0  0  0  0  0
  -31.2216    1.3256   26.5508 O   0  0  0  0  0  0  0  0  0  0  0  0
  -33.4638   -1.4474   29.0639 C   0  0  0  0  0  0  0  0  0  0  0  0
  -33.6304   -0.8862   27.9447 O   0  0  0  0  0  0  0  0  0  0  0  0
  -34.3885   -2.1840   29.4939 O   0  0  0  0  0  0  0  0  0  0  0  0
  -28.8986   -2.9687   31.8377 C   0  0  0  0  0  0  0  0  0  0  0  0
  -29.4264   -2.6216   33.0632 C   0  0  0  0  0  0  0  0  0  0  0  0
  -29.9264   -3.7530   33.7875 C   0  0  0  0  0  0  0  0  0  0  0  0
  -30.4645   -3.4683   35.0404 C   0  0  0  0  0  0  0  0  0  0  0  0
  -30.4730   -2.1790   35.5960 C   0  0  0  0  0  0  0  0  0  0  0  0
  -29.8365   -1.1761   34.8997 C   0  0  0  0  0  0  0  0  0  0  0  0
  -29.3056   -1.4012   33.7238 C   0  0  0  0  0  0  0  0  0  0  0  0
  -29.8166    0.2143   35.5295 C   0  0  0  0  0  0  0  0  0  0  0  0
  -30.8995    0.9434   35.7177 C   0  0  0  0  0  0  0  0  0  0  0  0
  -32.1591    0.4278   35.5221 C   0  0  0  0  0  0  0  0  0  0  0  0
  -33.3224    1.2835   35.6512 C   0  0  0  0  0  0  0  0  0  0  0  0
  -33.0697    2.5944   36.0352 C   0  0  0  0  0  0  0  0  0  0  0  0
  -31.8611    3.1310   36.2473 C   0  0  0  0  0  0  0  0  0  0  0  0
  -30.7392    2.3391   36.0757 C   0  0  0  0  0  0  0  0  0  0  0  0
  1  6  1  0
  6  8  1  0
  6  9  2  0
  8 10  1  0
  5 16  1  0
 16 17  2  0
 16 18  1  0
 14 19  1  0
 19 20  2  0
 19 21  1  0
  8 22  1  0
 22 23  1  0
 27 29  1  0
 29 30  1  0
 23 24  2  0
 24 25  1  0
 25 26  2  0
 26 27  1  0
 27 28  2  0
 28 23  1  0
  1  2  2  0
  2  3  1  0
  3  4  2  0
  4  5  1  0
  5  7  2  0
  7  1  1  0
 30 31  2  0
 31 32  1  0
 32 33  2  0
 33 34  1  0
 34 35  2  0
 35 30  1  0
 10 11  2  0
 11 12  1  0
 12 13  2  0
 13 14  1  0
 14 15  2  0
 15 10  1  0
M  END

$$$$
