No_1522-gen_results/8p0m/2024-11-27-11-27-31/
     RDKit          3D

 26 28  0  0  0  0  0  0  0  0999 V2000
  -28.0162   -0.8135   28.8779 C   0  0  0  0  0  0  0  0  0  0  0  0
  -28.4690   -0.7850   29.8287 C   0  0  0  0  0  0  0  0  0  0  0  0
  -27.0871    0.2903   28.6377 C   0  0  0  0  0  0  0  0  0  0  0  0
  -26.8317    1.2487   29.5869 C   0  0  0  0  0  0  0  0  0  0  0  0
  -29.4442   -1.9481   30.1840 C   0  0  0  0  0  0  0  0  0  0  0  0
  -27.4956    1.1303   30.8222 C   0  0  0  0  0  0  0  0  0  0  0  0
  -28.3376    0.0364   31.0331 C   0  0  0  0  0  0  0  0  0  0  0  0
  -30.5156   -1.8345   30.1119 N   0  0  0  0  0  0  0  0  0  0  0  0
  -28.8641   -3.0799   30.5400 F   0  0  0  0  0  0  0  0  0  0  0  0
  -26.3743    0.2094   27.3373 C   0  0  0  0  0  0  0  0  0  0  0  0
  -25.2116    0.3570   27.2386 C   0  0  0  0  0  0  0  0  0  0  0  0
  -24.1846    0.2249   28.2497 C   0  0  0  0  0  0  0  0  0  0  0  0
  -23.9816   -0.7783   29.0024 C   0  0  0  0  0  0  0  0  0  0  0  0
  -22.9380   -0.8112   29.9603 C   0  0  0  0  0  0  0  0  0  0  0  0
  -22.0854    0.3408   30.0525 C   0  0  0  0  0  0  0  0  0  0  0  0
  -23.2903    1.4240   28.4594 C   0  0  0  0  0  0  0  0  0  0  0  0
  -23.4102    2.5595   27.6724 N   0  0  0  0  0  0  0  0  0  0  0  0
  -22.2745    1.3581   29.3896 C   0  0  0  0  0  0  0  0  0  0  0  0
  -27.2587    0.2390   26.1470 C   0  0  0  0  0  0  0  0  0  0  0  0
  -24.6394    0.6770   25.8844 C   0  0  0  0  0  0  0  0  0  0  0  0
  -26.8077    0.4277   24.9338 C   0  0  0  0  0  0  0  0  0  0  0  0
  -25.3707    0.5888   24.8333 C   0  0  0  0  0  0  0  0  0  0  0  0
  -31.4101   -2.9509   30.1810 C   0  0  0  0  0  0  0  0  0  0  0  0
  -32.2932   -3.0436   29.1297 C   0  0  0  0  0  0  0  0  0  0  0  0
  -32.4849   -2.2192   28.3520 O   0  0  0  0  0  0  0  0  0  0  0  0
  -32.9365   -4.2065   28.9375 O   0  0  0  0  0  0  0  0  0  0  0  0
  2  5  1  0
  5  8  2  3
  5  9  1  0
  3 10  1  0
 11 12  1  0
 16 17  1  0
  8 23  1  0
 23 24  1  0
 24 25  1  0
 24 26  2  0
 10 11  2  0
 11 20  1  0
 20 22  2  0
 22 21  1  0
 21 19  2  0
 19 10  1  0
 12 13  2  0
 13 14  1  0
 14 15  2  0
 15 18  1  0
 18 16  2  0
 16 12  1  0
  1  2  2  0
  2  7  1  0
  7  6  2  0
  6  4  1  0
  4  3  2  0
  3  1  1  0
M  END

$$$$
