No_1099-gen_results/8p0m/2024-11-27-11-27-31/
     RDKit          3D

 23 24  0  0  0  0  0  0  0  0999 V2000
  -28.0162   -0.8135   28.8779 C   0  0  0  0  0  0  0  0  0  0  0  0
  -27.0636   -0.1189   28.6079 C   0  0  0  0  0  0  0  0  0  0  0  0
  -25.7923   -0.4302   29.0761 C   0  0  0  0  0  0  0  0  0  0  0  0
  -25.5756   -1.5654   29.9363 C   0  0  0  0  0  0  0  0  0  0  0  0
  -26.7354   -2.3004   30.2173 C   0  0  0  0  0  0  0  0  0  0  0  0
  -27.9184   -1.9537   29.7629 C   0  0  0  0  0  0  0  0  0  0  0  0
  -29.0001   -2.7012   30.1151 O   0  0  0  0  0  0  0  0  0  0  0  0
  -24.5290    0.3490   28.7998 C   0  0  0  0  0  0  0  0  0  0  0  0
  -23.3442    0.0060   29.1658 C   0  0  0  0  0  0  0  0  0  0  0  0
  -22.1783    0.7811   28.7783 C   0  0  0  0  0  0  0  0  0  0  0  0
  -22.3218    1.7499   27.7727 C   0  0  0  0  0  0  0  0  0  0  0  0
  -24.6102    1.3558   27.7479 C   0  0  0  0  0  0  0  0  0  0  0  0
  -23.5148    2.0341   27.3068 C   0  0  0  0  0  0  0  0  0  0  0  0
  -30.1256   -2.1340   30.5841 C   0  0  0  0  0  0  0  0  0  0  0  0
  -31.1953   -2.7166   30.1353 C   0  0  0  0  0  0  0  0  0  0  0  0
  -31.2410   -3.8662   29.9075 O   0  0  0  0  0  0  0  0  0  0  0  0
  -32.3444   -1.9806   29.8253 N   0  0  0  0  0  0  0  0  0  0  0  0
  -32.4250   -0.5365   30.0787 C   0  0  0  0  0  0  0  0  0  0  0  0
  -32.5500    0.2260   29.1300 C   0  0  0  0  0  0  0  0  0  0  0  0
  -32.4506    1.6836   29.3358 C   0  0  0  0  0  0  0  0  0  0  0  0
  -32.4773    2.6463   28.3031 C   0  0  0  0  0  0  0  0  0  0  0  0
  -32.6015    2.1435   26.9926 C   0  0  0  0  0  0  0  0  0  0  0  0
  -32.6499    0.7909   26.7498 C   0  0  0  0  0  0  0  0  0  0  0  0
  6  7  1  0
  3  8  1  0
  7 14  1  0
 14 15  1  0
 15 16  2  0
 15 17  1  0
 17 18  1  0
 18 19  2  3
 19 20  1  0
 20 21  2  3
 21 22  1  0
 22 23  2  0
  1  2  2  0
  2  3  1  0
  3  4  2  0
  4  5  1  0
  5  6  2  0
  6  1  1  0
  8  9  2  0
  9 10  1  0
 10 11  2  0
 11 13  1  0
 13 12  2  0
 12  8  1  0
M  END

$$$$
