No_163-gen_results/8p0m/2024-11-27-11-27-31/
     RDKit          3D

 14 15  0  0  0  0  0  0  0  0999 V2000
  -28.0162   -0.8135   28.8779 C   0  0  0  0  0  0  0  0  0  0  0  0
  -27.0636   -0.1190   28.6079 C   0  0  0  0  0  0  0  0  0  0  0  0
  -26.8756    1.1325   28.9134 C   0  0  0  0  0  0  0  0  0  0  0  0
  -27.9014    1.8066   29.6436 C   0  0  0  0  0  0  0  0  0  0  0  0
  -29.0458   -0.2316   29.7181 C   0  0  0  0  0  0  0  0  0  0  0  0
  -28.9402    1.0517   30.0597 C   0  0  0  0  0  0  0  0  0  0  0  0
  -25.8004   -0.5308   27.7734 C   0  0  0  0  0  0  0  0  0  0  0  0
  -24.5681   -0.1278   28.1792 C   0  0  0  0  0  0  0  0  0  0  0  0
  -24.4005    1.2216   28.5368 C   0  0  0  0  0  0  0  0  0  0  0  0
  -25.5802    1.8066   29.1651 C   0  0  0  0  0  0  0  0  0  0  0  0
  -23.0888    1.8024   28.5774 C   0  0  0  0  0  0  0  0  0  0  0  0
  -22.2321    1.8820   27.9784 N   0  0  0  0  0  0  0  0  0  0  0  0
  -25.3700    3.1235   29.7204 C   0  0  0  0  0  0  0  0  0  0  0  0
  -26.5362    3.5511   30.0023 O   0  0  0  0  0  0  0  0  0  0  0  0
  9 11  1  0
 11 12  3  0
 10 13  1  0
 13 14  1  0
  1  2  2  0
  3  4  2  0
  4  6  1  0
  6  5  2  0
  5  1  1  0
  2  3  1  0
  3 10  1  0
 10  9  2  0
  9  8  1  0
  8  7  2  0
  7  2  1  0
M  END

$$$$
