No_1712-gen_results/8p0m/2024-11-27-11-27-31/
     RDKit          3D

 19 20  0  0  0  0  0  0  0  0999 V2000
  -28.1229   -1.3353   28.4874 O   0  0  0  0  0  0  0  0  0  0  0  0
  -28.5208   -0.4363   29.0779 C   0  0  0  0  0  0  0  0  0  0  0  0
  -27.6655    0.1129   30.0346 C   0  0  0  0  0  0  0  0  0  0  0  0
  -29.7419    0.1102   28.8873 N   0  0  0  0  0  0  0  0  0  0  0  0
  -27.8398    1.2287   30.6424 C   0  0  0  0  0  0  0  0  0  0  0  0
  -30.0783    1.2810   29.5952 C   0  0  0  0  0  0  0  0  0  0  0  0
  -26.8888    1.8578   31.6189 C   0  0  0  0  0  0  0  0  0  0  0  0
  -29.1656    1.8281   30.4677 C   0  0  0  0  0  0  0  0  0  0  0  0
  -25.7482    1.3485   31.7484 C   0  0  0  0  0  0  0  0  0  0  0  0
  -25.4045    0.0790   31.0585 C   0  0  0  0  0  0  0  0  0  0  0  0
  -26.2817   -0.5331   30.2242 C   0  0  0  0  0  0  0  0  0  0  0  0
  -31.2908    1.7702   29.3198 N   0  0  0  0  0  0  0  0  0  0  0  0
  -24.0377   -0.4986   31.3240 C   0  0  0  0  0  0  0  0  0  0  0  0
  -23.1399   -0.8042   30.3214 C   0  0  0  0  0  0  0  0  0  0  0  0
  -22.2225    0.1753   29.8071 C   0  0  0  0  0  0  0  0  0  0  0  0
  -21.5822   -0.1651   28.5758 C   0  0  0  0  0  0  0  0  0  0  0  0
  -20.8189    0.9000   28.0133 C   0  0  0  0  0  0  0  0  0  0  0  0
  -31.9775    1.7924   28.4661 C   0  0  0  0  0  0  0  0  0  0  0  0
  -33.2726    2.4109   28.4334 C   0  0  0  0  0  0  0  0  0  0  0  0
  1  2  2  0
  2  3  1  0
  2  4  1  0
  5  8  1  0
  6  8  1  0
  6 12  1  0
 10 13  1  0
 13 14  1  0
 14 15  1  0
 15 16  2  3
 16 17  1  0
 12 18  1  0
 18 19  2  0
  6  4  1  0
  3  5  2  0
  5  7  1  0
  7  9  2  0
  9 10  1  0
 10 11  2  0
 11  3  1  0
M  END

$$$$
