No_1309-gen_results/8p0m/2024-11-27-11-27-31/
     RDKit          3D

 14 15  0  0  0  0  0  0  0  0999 V2000
  -28.0162   -0.8135   28.8779 C   0  0  0  0  0  0  0  0  0  0  0  0
  -28.4690   -0.7850   29.8287 C   0  0  0  0  0  0  0  0  0  0  0  0
  -27.1356    0.2359   28.5352 C   0  0  0  0  0  0  0  0  0  0  0  0
  -26.3351    0.2900   27.2835 C   0  0  0  0  0  0  0  0  0  0  0  0
  -28.3692    0.1957   30.9236 C   0  0  0  0  0  0  0  0  0  0  0  0
  -27.5158    1.2655   30.6540 C   0  0  0  0  0  0  0  0  0  0  0  0
  -26.8411    1.2942   29.4761 C   0  0  0  0  0  0  0  0  0  0  0  0
  -25.3612    0.7751   26.9673 C   0  0  0  0  0  0  0  0  0  0  0  0
  -24.8302    1.7669   28.0168 C   0  0  0  0  0  0  0  0  0  0  0  0
  -25.5666    2.0015   29.2021 C   0  0  0  0  0  0  0  0  0  0  0  0
  -23.6193    2.6085   27.6652 C   0  0  0  0  0  0  0  0  0  0  0  0
  -23.1510    2.4947   26.5128 F   0  0  0  0  0  0  0  0  0  0  0  0
  -23.7482    3.8402   27.9332 F   0  0  0  0  0  0  0  0  0  0  0  0
  -22.6082    2.2139   28.5558 F   0  0  0  0  0  0  0  0  0  0  0  0
  9 11  1  0
 11 12  1  0
 11 13  1  0
 11 14  1  0
  1  2  2  0
  2  5  1  0
  5  6  2  0
  6  7  1  0
  3  1  1  0
  3  4  2  0
  4  8  1  0
  8  9  2  0
  9 10  1  0
 10  7  2  0
  7  3  1  0
M  END

$$$$
