No_18-gen_results/8p0m/2024-11-27-11-27-31/
     RDKit          3D

 18 18  0  0  0  0  0  0  0  0999 V2000
  -28.0162   -0.8135   28.8779 C   0  0  0  0  0  0  0  0  0  0  0  0
  -27.0636   -0.1189   28.6079 C   0  0  0  0  0  0  0  0  0  0  0  0
  -25.7923   -0.4302   29.0761 C   0  0  0  0  0  0  0  0  0  0  0  0
  -24.6321    0.3096   28.7290 C   0  0  0  0  0  0  0  0  0  0  0  0
  -27.8949   -1.8615   29.8946 C   0  0  0  0  0  0  0  0  0  0  0  0
  -26.6706   -2.2977   30.3374 C   0  0  0  0  0  0  0  0  0  0  0  0
  -25.5508   -1.5631   29.9406 C   0  0  0  0  0  0  0  0  0  0  0  0
  -24.0938    1.3273   29.4017 C   0  0  0  0  0  0  0  0  0  0  0  0
  -24.7078    1.8034   30.5015 N   0  0  0  0  0  0  0  0  0  0  0  0
  -23.0255    1.9118   29.0918 O   0  0  0  0  0  0  0  0  0  0  0  0
  -25.9337    1.3363   31.0919 C   0  0  0  0  0  0  0  0  0  0  0  0
  -26.7631    2.4428   31.2345 C   0  0  0  0  0  0  0  0  0  0  0  0
  -29.0310   -2.7574   30.4094 C   0  0  0  0  0  0  0  0  0  0  0  0
  -28.9744   -3.8910   30.6371 O   0  0  0  0  0  0  0  0  0  0  0  0
  -30.1866   -2.1201   30.5943 O   0  0  0  0  0  0  0  0  0  0  0  0
  -26.7215    3.4594   30.6472 C   0  0  0  0  0  0  0  0  0  0  0  0
  -27.7094    4.5215   30.7545 C   0  0  0  0  0  0  0  0  0  0  0  0
  -28.7910    4.2503   31.6140 C   0  0  0  0  0  0  0  0  0  0  0  0
  4  8  1  0
  8  9  1  0
  8 10  2  0
  9 11  1  0
 11 12  2  3
  5 13  1  0
 13 14  2  0
 13 15  1  0
 12 16  1  0
 16 17  2  3
 17 18  1  0
  4  3  1  0
  1  2  2  0
  2  3  1  0
  3  7  2  0
  7  6  1  0
  6  5  2  0
  5  1  1  0
M  END

$$$$
