No_1873-gen_results/8p0m/2024-11-27-11-27-31/
     RDKit          3D

 15 15  0  0  0  0  0  0  0  0999 V2000
  -28.0727   -1.2542   28.5316 F   0  0  0  0  0  0  0  0  0  0  0  0
  -27.3591   -0.3792   28.7224 C   0  0  0  0  0  0  0  0  0  0  0  0
  -26.9761   -0.0935   27.6617 F   0  0  0  0  0  0  0  0  0  0  0  0
  -27.9492    0.6817   29.3005 F   0  0  0  0  0  0  0  0  0  0  0  0
  -26.1141   -0.8610   29.4268 C   0  0  0  0  0  0  0  0  0  0  0  0
  -26.0833   -1.0524   30.6817 C   0  0  0  0  0  0  0  0  0  0  0  0
  -24.8571   -1.4828   31.3414 C   0  0  0  0  0  0  0  0  0  0  0  0
  -23.7070   -1.5422   30.5822 C   0  0  0  0  0  0  0  0  0  0  0  0
  -24.8461   -0.8654   28.7429 C   0  0  0  0  0  0  0  0  0  0  0  0
  -23.6602   -1.2226   29.2957 C   0  0  0  0  0  0  0  0  0  0  0  0
  -27.2778   -1.1319   31.5349 C   0  0  0  0  0  0  0  0  0  0  0  0
  -28.3334   -0.5192   31.2642 O   0  0  0  0  0  0  0  0  0  0  0  0
  -29.5072   -0.8134   32.0262 C   0  0  0  0  0  0  0  0  0  0  0  0
  -30.5604   -0.5010   31.5057 C   0  0  0  0  0  0  0  0  0  0  0  0
  -31.6951   -0.8597   31.2465 Cl  0  0  0  0  0  0  0  0  0  0  0  0
  1  2  1  0
  2  3  1  0
  2  4  1  0
  2  5  1  0
  6 11  1  0
 11 12  1  0
 12 13  1  0
 13 14  1  0
 14 15  1  0
  5  6  2  0
  6  7  1  0
  7  8  2  0
  8 10  1  0
 10  9  2  0
  9  5  1  0
M  END

$$$$
