No_1604-gen_results/8p0m/2024-11-27-11-27-31/
     RDKit          3D

 26 28  0  0  0  0  0  0  0  0999 V2000
  -28.0162   -0.8135   28.8779 C   0  0  0  0  0  0  0  0  0  0  0  0
  -28.4690   -0.7850   29.8287 C   0  0  0  0  0  0  0  0  0  0  0  0
  -26.5042   -0.7777   28.8766 C   0  0  0  0  0  0  0  0  0  0  0  0
  -25.8103   -0.8531   30.1028 C   0  0  0  0  0  0  0  0  0  0  0  0
  -27.9906   -0.8916   31.2257 C   0  0  0  0  0  0  0  0  0  0  0  0
  -26.6042   -0.8676   31.2652 C   0  0  0  0  0  0  0  0  0  0  0  0
  -30.0739   -0.8360   29.8615 C   0  0  0  0  0  0  0  0  0  0  0  0
  -30.6825   -0.0696   30.6918 O   0  0  0  0  0  0  0  0  0  0  0  0
  -30.6226   -1.5289   29.0126 O   0  0  0  0  0  0  0  0  0  0  0  0
  -25.7285   -0.7485   27.7659 O   0  0  0  0  0  0  0  0  0  0  0  0
  -25.6711    0.4664   27.1245 C   0  0  0  0  0  0  0  0  0  0  0  0
  -24.4134    0.9433   27.2451 C   0  0  0  0  0  0  0  0  0  0  0  0
  -23.4542    0.5960   28.1675 C   0  0  0  0  0  0  0  0  0  0  0  0
  -22.1438    1.1996   28.1943 C   0  0  0  0  0  0  0  0  0  0  0  0
  -21.8611    2.1243   27.1901 C   0  0  0  0  0  0  0  0  0  0  0  0
  -23.9063    1.9735   26.2791 C   0  0  0  0  0  0  0  0  0  0  0  0
  -22.7145    2.4691   26.2819 C   0  0  0  0  0  0  0  0  0  0  0  0
  -26.6178    0.8887   26.4957 O   0  0  0  0  0  0  0  0  0  0  0  0
  -31.7557    0.5889   30.3383 C   0  0  0  0  0  0  0  0  0  0  0  0
  -31.6952    1.7654   29.7103 C   0  0  0  0  0  0  0  0  0  0  0  0
  -32.5752    2.1978   29.0312 C   0  0  0  0  0  0  0  0  0  0  0  0
  -32.4256    3.4203   28.2140 C   0  0  0  0  0  0  0  0  0  0  0  0
  -31.1771    4.1062   28.2238 C   0  0  0  0  0  0  0  0  0  0  0  0
  -30.1236    3.5358   28.9697 C   0  0  0  0  0  0  0  0  0  0  0  0
  -30.3471    2.4000   29.6733 C   0  0  0  0  0  0  0  0  0  0  0  0
  -32.8095    0.0505   30.7321 O   0  0  0  0  0  0  0  0  0  0  0  0
  2  7  1  0
  7  8  1  0
  7  9  2  0
  3 10  1  0
 10 11  1  0
 11 12  1  0
 11 18  2  0
  8 19  1  0
 19 20  1  0
 19 26  2  0
 12 13  2  0
 13 14  1  0
 14 15  2  0
 15 17  1  0
 17 16  2  0
 16 12  1  0
  1  2  2  0
  2  5  1  0
  5  6  2  0
  6  4  1  0
  4  3  2  0
  3  1  1  0
 20 21  2  0
 21 22  1  0
 22 23  2  0
 23 24  1  0
 24 25  2  0
 25 20  1  0
M  END

$$$$
