No_187-gen_results/8p0m/2024-11-27-11-27-31/
     RDKit          3D

 11 11  0  0  0  0  0  0  0  0999 V2000
  -28.0162   -0.8135   28.8779 C   0  0  0  0  0  0  0  0  0  0  0  0
  -28.6208   -1.1855   29.7353 Cl  0  0  0  0  0  0  0  0  0  0  0  0
  -26.5231   -0.7877   28.9754 C   0  0  0  0  0  0  0  0  0  0  0  0
  -25.6303   -0.0854   28.1406 C   0  0  0  0  0  0  0  0  0  0  0  0
  -26.1635    0.5836   26.9835 C   0  0  0  0  0  0  0  0  0  0  0  0
  -27.5170    0.5354   26.8440 C   0  0  0  0  0  0  0  0  0  0  0  0
  -28.3193   -0.0336   27.6731 C   0  0  0  0  0  0  0  0  0  0  0  0
  -25.1589    1.1937   26.0992 C   0  0  0  0  0  0  0  0  0  0  0  0
  -24.1088    2.0985   26.5861 C   0  0  0  0  0  0  0  0  0  0  0  0
  -22.8891    2.0154   25.9964 C   0  0  0  0  0  0  0  0  0  0  0  0
  -21.8870    2.6799   26.7367 C   0  0  0  0  0  0  0  0  0  0  0  0
  1  2  1  0
  5  8  1  0
  8  9  1  0
  9 10  2  3
 10 11  1  0
  1  3  2  0
  3  4  1  0
  4  5  2  0
  5  6  1  0
  6  7  2  0
  7  1  1  0
M  END

$$$$
