No_1850-gen_results/8p0m/2024-11-27-11-27-31/
     RDKit          3D

 23 25  0  0  0  0  0  0  0  0999 V2000
  -28.0162   -0.8135   28.8779 C   0  0  0  0  0  0  0  0  0  0  0  0
  -27.0636   -0.1189   28.6079 C   0  0  0  0  0  0  0  0  0  0  0  0
  -26.9716    0.7139   27.5060 C   0  0  0  0  0  0  0  0  0  0  0  0
  -28.1053    0.7744   26.6421 C   0  0  0  0  0  0  0  0  0  0  0  0
  -29.2008    0.1044   27.0527 C   0  0  0  0  0  0  0  0  0  0  0  0
  -29.2096   -0.6029   28.1853 C   0  0  0  0  0  0  0  0  0  0  0  0
  -30.2994    0.2279   26.2571 O   0  0  0  0  0  0  0  0  0  0  0  0
  -25.8773   -0.2917   29.5764 C   0  0  0  0  0  0  0  0  0  0  0  0
  -25.4665   -1.3071   30.0825 N   0  0  0  0  0  0  0  0  0  0  0  0
  -24.9519    0.9081   29.8411 C   0  0  0  0  0  0  0  0  0  0  0  0
  -23.9731    1.1178   29.6518 C   0  0  0  0  0  0  0  0  0  0  0  0
  -23.1768    2.3446   29.7483 C   0  0  0  0  0  0  0  0  0  0  0  0
  -22.9762   -0.0894   29.4336 C   0  0  0  0  0  0  0  0  0  0  0  0
  -21.5436    0.1791   29.2788 C   0  0  0  0  0  0  0  0  0  0  0  0
  -23.2092    2.6803   28.5728 C   0  0  0  0  0  0  0  0  0  0  0  0
  -22.0490    2.1805   27.6744 C   0  0  0  0  0  0  0  0  0  0  0  0
  -21.2361    0.9798   28.1061 C   0  0  0  0  0  0  0  0  0  0  0  0
  -25.8316    1.8245   30.7016 C   0  0  0  0  0  0  0  0  0  0  0  0
  -26.7896    2.6542   30.1127 C   0  0  0  0  0  0  0  0  0  0  0  0
  -27.5145    3.5572   30.9164 C   0  0  0  0  0  0  0  0  0  0  0  0
  -27.1497    3.6633   32.2523 C   0  0  0  0  0  0  0  0  0  0  0  0
  -25.4054    2.0448   32.0213 C   0  0  0  0  0  0  0  0  0  0  0  0
  -26.1046    3.0148   32.8394 C   0  0  0  0  0  0  0  0  0  0  0  0
  5  7  1  0
  2  8  1  0
  8  9  2  0
  8 10  1  0
 10 11  1  0
 11 12  2  0
 11 13  1  0
 13 14  1  0
 12 15  1  0
 15 16  2  0
 14 17  1  0
 16 17  1  0
 10 18  1  0
  1  2  2  0
  2  3  1  0
  3  4  2  0
  4  5  1  0
  5  6  2  0
  6  1  1  0
 18 19  2  0
 19 20  1  0
 20 21  2  0
 21 23  1  0
 23 22  2  0
 22 18  1  0
M  END

$$$$
