No_1775-gen_results/8p0m/2024-11-27-11-27-31/
     RDKit          3D

 17 18  0  0  0  0  0  0  0  0999 V2000
  -28.0162   -0.8135   28.8779 C   0  0  0  0  0  0  0  0  0  0  0  0
  -27.0636   -0.1189   28.6079 C   0  0  0  0  0  0  0  0  0  0  0  0
  -26.9716    0.7139   27.5060 C   0  0  0  0  0  0  0  0  0  0  0  0
  -25.8206    1.4910   27.1160 C   0  0  0  0  0  0  0  0  0  0  0  0
  -24.6562    1.4242   27.9180 C   0  0  0  0  0  0  0  0  0  0  0  0
  -24.6847    0.5901   29.0659 C   0  0  0  0  0  0  0  0  0  0  0  0
  -25.8099   -0.1265   29.3338 C   0  0  0  0  0  0  0  0  0  0  0  0
  -28.0540   -1.5468   30.1892 C   0  0  0  0  0  0  0  0  0  0  0  0
  -26.8785   -1.7467   30.8493 N   0  0  0  0  0  0  0  0  0  0  0  0
  -25.8061   -0.9985   30.5502 C   0  0  0  0  0  0  0  0  0  0  0  0
  -23.4516    2.2263   27.5883 C   0  0  0  0  0  0  0  0  0  0  0  0
  -22.5845    2.3138   28.4968 O   0  0  0  0  0  0  0  0  0  0  0  0
  -23.3265    2.7440   26.4505 O   0  0  0  0  0  0  0  0  0  0  0  0
  -28.0912    0.7913   26.5386 C   0  0  0  0  0  0  0  0  0  0  0  0
  -29.0884    1.2084   26.7554 O   0  0  0  0  0  0  0  0  0  0  0  0
  -27.7782    0.4931   25.2975 O   0  0  0  0  0  0  0  0  0  0  0  0
  -24.7054   -1.0780   31.2788 N   0  0  0  0  0  0  0  0  0  0  0  0
  2  3  1  0
  3  4  1  0
  4  5  1  0
  5  6  1  0
  6  7  1  0
  5 11  1  0
 11 12  2  0
 11 13  1  0
  3 14  1  0
 14 15  2  0
 14 16  1  0
 10 17  1  0
  1  2  2  0
  2  7  1  0
  7 10  2  0
 10  9  1  0
  9  8  2  0
  8  1  1  0
M  END

$$$$
