No_1968-gen_results/8p0m/2024-11-27-11-27-31/
     RDKit          3D

 28 31  0  0  0  0  0  0  0  0999 V2000
  -28.0162   -0.8135   28.8779 C   0  0  0  0  0  0  0  0  0  0  0  0
  -28.4690   -0.7850   29.8287 C   0  0  0  0  0  0  0  0  0  0  0  0
  -27.0871    0.2903   28.6377 C   0  0  0  0  0  0  0  0  0  0  0  0
  -26.2516    0.4114   27.4223 C   0  0  0  0  0  0  0  0  0  0  0  0
  -28.3913    0.1041   30.9805 C   0  0  0  0  0  0  0  0  0  0  0  0
  -27.5332    1.1666   30.7866 C   0  0  0  0  0  0  0  0  0  0  0  0
  -26.8281    1.2557   29.6454 C   0  0  0  0  0  0  0  0  0  0  0  0
  -25.6444    1.6653   27.2216 C   0  0  0  0  0  0  0  0  0  0  0  0
  -24.6322    1.7370   26.2648 C   0  0  0  0  0  0  0  0  0  0  0  0
  -23.7012    0.8404   26.1703 C   0  0  0  0  0  0  0  0  0  0  0  0
  -23.2359    0.4418   27.1982 C   0  0  0  0  0  0  0  0  0  0  0  0
  -22.0271    1.1069   27.8011 C   0  0  0  0  0  0  0  0  0  0  0  0
  -21.3671    0.6572   28.9210 C   0  0  0  0  0  0  0  0  0  0  0  0
  -21.8314   -0.5128   29.5675 C   0  0  0  0  0  0  0  0  0  0  0  0
  -22.9761   -1.1475   29.1078 C   0  0  0  0  0  0  0  0  0  0  0  0
  -23.6678   -0.6425   28.0256 C   0  0  0  0  0  0  0  0  0  0  0  0
  -26.6726    2.7635   27.1908 C   0  0  0  0  0  0  0  0  0  0  0  0
  -27.0879    0.1902   26.3061 O   0  0  0  0  0  0  0  0  0  0  0  0
  -28.0139    1.0514   26.0425 C   0  0  0  0  0  0  0  0  0  0  0  0
  -27.5599    2.4466   26.0267 C   0  0  0  0  0  0  0  0  0  0  0  0
  -28.8591    0.6930   24.8508 C   0  0  0  0  0  0  0  0  0  0  0  0
  -26.6762    3.9277   27.9033 C   0  0  0  0  0  0  0  0  0  0  0  0
  -27.3035    2.1271   31.9273 C   0  0  0  0  0  0  0  0  0  0  0  0
  -27.2909    3.2431   31.9737 C   0  0  0  0  0  0  0  0  0  0  0  0
  -27.7206    4.0966   31.1036 N   0  0  0  0  0  0  0  0  0  0  0  0
  -27.2845    5.3057   30.8362 C   0  0  0  0  0  0  0  0  0  0  0  0
  -27.7194    6.0003   29.7091 C   0  0  0  0  0  0  0  0  0  0  0  0
  -26.8891    5.4068   28.5266 C   0  0  0  0  0  0  0  0  0  0  0  0
  3  4  1  0
  4  8  1  0
  8  9  1  0
  9 10  1  0
 10 11  1  0
  8 17  1  0
  4 18  1  0
 18 19  1  0
 17 20  1  0
 19 20  1  0
 19 21  1  0
 17 22  1  0
  6 23  1  0
 23 24  1  0
 24 25  1  0
 25 26  1  0
 26 27  2  3
 22 28  1  0
 27 28  1  0
 11 12  2  0
 12 13  1  0
 13 14  2  0
 14 15  1  0
 15 16  2  0
 16 11  1  0
  1  2  2  0
  2  5  1  0
  5  6  2  0
  6  7  1  0
  7  3  2  0
  3  1  1  0
M  END

$$$$
