No_1220-gen_results/8p0m/2024-11-27-11-27-31/
     RDKit          3D

 26 28  0  0  0  0  0  0  0  0999 V2000
  -28.0162   -0.8135   28.8779 C   0  0  0  0  0  0  0  0  0  0  0  0
  -27.0636   -0.1189   28.6079 C   0  0  0  0  0  0  0  0  0  0  0  0
  -27.0010    0.6913   27.4910 C   0  0  0  0  0  0  0  0  0  0  0  0
  -25.8548    1.4825   27.0830 C   0  0  0  0  0  0  0  0  0  0  0  0
  -24.6901    1.4526   27.8807 C   0  0  0  0  0  0  0  0  0  0  0  0
  -24.7379    0.6010   29.0416 C   0  0  0  0  0  0  0  0  0  0  0  0
  -25.8234   -0.1688   29.3887 C   0  0  0  0  0  0  0  0  0  0  0  0
  -29.2252   -0.0469   29.2805 C   0  0  0  0  0  0  0  0  0  0  0  0
  -29.7292    0.7280   28.6479 C   0  0  0  0  0  0  0  0  0  0  0  0
  -31.0162    1.2355   28.9362 C   0  0  0  0  0  0  0  0  0  0  0  0
  -31.6584    0.7542   30.0773 C   0  0  0  0  0  0  0  0  0  0  0  0
  -30.0172   -0.6728   30.4277 C   0  0  0  0  0  0  0  0  0  0  0  0
  -31.1601   -0.1966   30.7782 C   0  0  0  0  0  0  0  0  0  0  0  0
  -23.4987    2.1662   27.5496 C   0  0  0  0  0  0  0  0  0  0  0  0
  -22.4807    1.6697   27.1865 N   0  0  0  0  0  0  0  0  0  0  0  0
  -23.5048    3.4335   27.8447 O   0  0  0  0  0  0  0  0  0  0  0  0
  -32.9503    1.2998   30.4426 N   0  0  0  0  0  0  0  0  0  0  0  0
  -32.9524    2.2724   31.2487 C   0  0  0  0  0  0  0  0  0  0  0  0
  -32.0106    2.7840   31.8323 C   0  0  0  0  0  0  0  0  0  0  0  0
  -32.1375    3.9168   32.7677 C   0  0  0  0  0  0  0  0  0  0  0  0
  -33.4407    4.3418   32.9655 C   0  0  0  0  0  0  0  0  0  0  0  0
  -34.3213    2.7147   31.4867 C   0  0  0  0  0  0  0  0  0  0  0  0
  -34.4799    3.7710   32.3640 C   0  0  0  0  0  0  0  0  0  0  0  0
  -33.8197    0.2014   30.3811 C   0  0  0  0  0  0  0  0  0  0  0  0
  -34.1670   -0.5779   31.2899 C   0  0  0  0  0  0  0  0  0  0  0  0
  -34.8458   -1.3765   31.4548 C   0  0  0  0  0  0  0  0  0  0  0  0
  1  2  1  0
  1  8  1  0
  5 14  1  0
 14 15  1  0
 14 16  2  0
 11 17  1  0
 17 18  1  0
 17 24  1  0
 24 25  2  3
 25 26  1  0
  2  3  2  0
  3  4  1  0
  4  5  2  0
  5  6  1  0
  6  7  2  0
  7  2  1  0
 18 19  2  0
 19 20  1  0
 20 21  2  0
 21 23  1  0
 23 22  2  0
 22 18  1  0
  8  9  2  0
  9 10  1  0
 10 11  2  0
 11 13  1  0
 13 12  2  0
 12  8  1  0
M  END

$$$$
