No_1400-gen_results/8p0m/2024-11-27-11-27-31/
     RDKit          3D

 24 26  0  0  0  0  0  0  0  0999 V2000
  -28.1229   -1.3353   28.4874 O   0  0  0  0  0  0  0  0  0  0  0  0
  -27.4806   -0.4044   28.7094 C   0  0  0  0  0  0  0  0  0  0  0  0
  -26.3804   -0.0867   27.9394 C   0  0  0  0  0  0  0  0  0  0  0  0
  -27.6664    0.4468   29.8988 N   0  0  0  0  0  0  0  0  0  0  0  0
  -26.4086    0.8567   26.8802 C   0  0  0  0  0  0  0  0  0  0  0  0
  -25.0824   -0.6970   28.1699 C   0  0  0  0  0  0  0  0  0  0  0  0
  -25.2842    1.0488   26.0470 C   0  0  0  0  0  0  0  0  0  0  0  0
  -23.9159   -0.3440   27.4444 C   0  0  0  0  0  0  0  0  0  0  0  0
  -24.0618    0.5290   26.3707 C   0  0  0  0  0  0  0  0  0  0  0  0
  -28.7784    0.1033   30.7872 C   0  0  0  0  0  0  0  0  0  0  0  0
  -26.8454    1.5246   30.2211 C   0  0  0  0  0  0  0  0  0  0  0  0
  -27.2475    2.6214   30.2572 C   0  0  0  0  0  0  0  0  0  0  0  0
  -28.1791    3.2074   30.4550 C   0  0  0  0  0  0  0  0  0  0  0  0
  -29.3990    2.4975   30.6944 C   0  0  0  0  0  0  0  0  0  0  0  0
  -29.6682    1.2265   30.8782 C   0  0  0  0  0  0  0  0  0  0  0  0
  -27.6967    1.5103   26.5392 C   0  0  0  0  0  0  0  0  0  0  0  0
  -28.5869    1.7426   27.0101 F   0  0  0  0  0  0  0  0  0  0  0  0
  -27.6898    1.9200   25.1065 C   0  0  0  0  0  0  0  0  0  0  0  0
  -28.7840    2.7549   24.8818 C   0  0  0  0  0  0  0  0  0  0  0  0
  -29.0563    3.8912   25.5376 C   0  0  0  0  0  0  0  0  0  0  0  0
  -30.1350    4.0416   26.2707 C   0  0  0  0  0  0  0  0  0  0  0  0
  -31.2286    3.2674   26.1226 C   0  0  0  0  0  0  0  0  0  0  0  0
  -31.2582    2.3900   25.0356 C   0  0  0  0  0  0  0  0  0  0  0  0
  -29.9337    2.1629   24.2329 C   0  0  0  0  0  0  0  0  0  0  0  0
  1  2  2  0
  2  3  1  0
  2  4  1  0
  4 10  1  0
  4 11  1  0
 11 12  2  0
 12 13  1  0
 13 14  1  0
 10 15  1  0
 14 15  1  0
  5 16  1  0
 16 17  1  0
 16 18  1  0
 18 19  1  0
 19 20  2  0
 20 21  1  0
 21 22  2  0
 22 23  1  0
 23 24  2  0
 24 19  1  0
  3  5  2  0
  5  7  1  0
  7  9  2  0
  9  8  1  0
  8  6  2  0
  6  3  1  0
M  END

$$$$
