No_1133-gen_results/8p0m/2024-11-27-11-27-31/
     RDKit          3D

 35 38  0  0  0  0  0  0  0  0999 V2000
  -28.0162   -0.8135   28.8779 C   0  0  0  0  0  0  0  0  0  0  0  0
  -28.4690   -0.7850   29.8287 C   0  0  0  0  0  0  0  0  0  0  0  0
  -26.5042   -0.7777   28.8766 C   0  0  0  0  0  0  0  0  0  0  0  0
  -25.9150   -0.6580   29.9230 C   0  0  0  0  0  0  0  0  0  0  0  0
  -27.9691   -0.7243   31.2047 C   0  0  0  0  0  0  0  0  0  0  0  0
  -24.4089   -0.5955   30.0365 C   0  0  0  0  0  0  0  0  0  0  0  0
  -26.5502   -0.6554   31.1921 C   0  0  0  0  0  0  0  0  0  0  0  0
  -23.6800   -0.0973   29.0041 C   0  0  0  0  0  0  0  0  0  0  0  0
  -22.2692   -0.0591   29.1110 C   0  0  0  0  0  0  0  0  0  0  0  0
  -21.6114    0.5063   28.1144 N   0  0  0  0  0  0  0  0  0  0  0  0
  -22.3067    1.2931   27.2762 C   0  0  0  0  0  0  0  0  0  0  0  0
  -24.0370    0.9453   28.0092 C   0  0  0  0  0  0  0  0  0  0  0  0
  -23.7340   -1.1475   31.2298 C   0  0  0  0  0  0  0  0  0  0  0  0
  -30.0945   -0.8227   29.8609 C   0  0  0  0  0  0  0  0  0  0  0  0
  -30.5569   -0.4113   28.9062 O   0  0  0  0  0  0  0  0  0  0  0  0
  -30.7750   -1.2920   30.9212 N   0  0  0  0  0  0  0  0  0  0  0  0
  -32.2092   -1.3517   30.8867 C   0  0  0  0  0  0  0  0  0  0  0  0
  -32.7195   -2.0911   31.7001 C   0  0  0  0  0  0  0  0  0  0  0  0
  -32.4725   -2.9782   32.1027 C   0  0  0  0  0  0  0  0  0  0  0  0
  -30.9059   -3.2489   32.2157 C   0  0  0  0  0  0  0  0  0  0  0  0
  -30.1246   -2.7138   31.0448 C   0  0  0  0  0  0  0  0  0  0  0  0
  -30.2460   -4.2572   33.0821 C   0  0  0  0  0  0  0  0  0  0  0  0
  -29.7515   -5.3544   32.4153 C   0  0  0  0  0  0  0  0  0  0  0  0
  -30.4615   -5.8869   31.5977 O   0  0  0  0  0  0  0  0  0  0  0  0
  -29.4108   -3.4409   34.0026 N   0  0  0  0  0  0  0  0  0  0  0  0
  -29.8006   -2.9319   35.2309 C   0  0  0  0  0  0  0  0  0  0  0  0
  -30.8461   -3.1346   35.6979 C   0  0  0  0  0  0  0  0  0  0  0  0
  -31.2749   -2.5109   36.9371 C   0  0  0  0  0  0  0  0  0  0  0  0
  -28.7949   -2.0186   35.7640 C   0  0  0  0  0  0  0  0  0  0  0  0
  -29.0848   -1.3721   36.9585 C   0  0  0  0  0  0  0  0  0  0  0  0
  -30.3398   -1.6206   37.5543 C   0  0  0  0  0  0  0  0  0  0  0  0
  -28.5231   -5.7414   32.6592 O   0  0  0  0  0  0  0  0  0  0  0  0
  -30.7729   -0.8525   39.0427 Cl  0  0  0  0  0  0  0  0  0  0  0  0
  -24.9980    1.5458   27.4703 C   0  0  0  0  0  0  0  0  0  0  0  0
  -25.3537    1.3242   26.1921 C   0  0  0  0  0  0  0  0  0  0  0  0
  4  6  1  0
  6  8  1  0
  8  9  2  0
  9 10  1  0
 10 11  2  0
  8 12  1  0
 11 12  1  0
  6 13  1  0
  2 14  1  0
 14 15  2  0
 14 16  1  0
 16 17  1  0
 17 18  1  0
 19 20  1  0
 16 21  1  0
 20 21  1  0
 20 22  1  0
 22 23  1  0
 23 24  2  0
 22 25  1  0
 25 26  1  0
 23 32  1  0
 31 33  1  0
 12 34  1  0
 34 35  1  0
 18 19  1  0
 26 27  2  0
 27 28  1  0
 28 31  2  0
 31 30  1  0
 30 29  2  0
 29 26  1  0
  1  2  2  0
  2  5  1  0
  5  7  2  0
  7  4  1  0
  4  3  2  0
  3  1  1  0
M  END

$$$$
