No_1548-gen_results/8p0m/2024-11-27-11-27-31/
     RDKit          3D

 35 36  0  0  0  0  0  0  0  0999 V2000
  -28.0162   -0.8135   28.8779 C   0  0  0  0  0  0  0  0  0  0  0  0
  -27.0636   -0.1190   28.6079 C   0  0  0  0  0  0  0  0  0  0  0  0
  -26.9716    0.7139   27.5060 C   0  0  0  0  0  0  0  0  0  0  0  0
  -28.1053    0.7744   26.6421 C   0  0  0  0  0  0  0  0  0  0  0  0
  -29.2008    0.1044   27.0527 C   0  0  0  0  0  0  0  0  0  0  0  0
  -29.2096   -0.6029   28.1853 C   0  0  0  0  0  0  0  0  0  0  0  0
  -30.6087    0.2568   26.0024 P   0  0  0  0  0  0  0  0  0  0  0  0
  -31.5394   -0.4349   26.1938 O   0  0  0  0  0  0  0  0  0  0  0  0
  -29.9803    0.1322   24.5479 O   0  0  0  0  0  0  0  0  0  0  0  0
  -30.8807    1.8198   26.1359 O   0  0  0  0  0  0  0  0  0  0  0  0
  -25.6504    1.3949   27.1480 C   0  0  0  0  0  0  0  0  0  0  0  0
  -25.2065    2.3886   28.0485 C   0  0  0  0  0  0  0  0  0  0  0  0
  -24.1725    2.6950   28.5357 C   0  0  0  0  0  0  0  0  0  0  0  0
  -25.9590    3.7534   27.8228 C   0  0  0  0  0  0  0  0  0  0  0  0
  -27.1532    3.8423   27.1924 C   0  0  0  0  0  0  0  0  0  0  0  0
  -23.2740    1.6690   28.4174 N   0  0  0  0  0  0  0  0  0  0  0  0
  -23.1129    0.7517   29.3638 C   0  0  0  0  0  0  0  0  0  0  0  0
  -23.7450    0.6095   30.4447 C   0  0  0  0  0  0  0  0  0  0  0  0
  -22.1401   -0.3648   29.0680 C   0  0  0  0  0  0  0  0  0  0  0  0
  -23.7022   -0.4693   31.3680 C   0  0  0  0  0  0  0  0  0  0  0  0
  -22.1028   -1.4170   29.8387 N   0  0  0  0  0  0  0  0  0  0  0  0
  -22.7441   -1.4618   30.9971 C   0  0  0  0  0  0  0  0  0  0  0  0
  -22.4453    1.7178   27.2227 C   0  0  0  0  0  0  0  0  0  0  0  0
  -25.0305    4.8159   27.2268 C   0  0  0  0  0  0  0  0  0  0  0  0
  -26.2474    4.2631   29.3603 C   0  0  0  0  0  0  0  0  0  0  0  0
  -27.0750    3.9276   29.9348 O   0  0  0  0  0  0  0  0  0  0  0  0
  -25.6224    5.4181   29.7056 O   0  0  0  0  0  0  0  0  0  0  0  0
  -28.1093   -1.6132   30.1615 C   0  0  0  0  0  0  0  0  0  0  0  0
  -27.6618   -2.8129   30.0069 O   0  0  0  0  0  0  0  0  0  0  0  0
  -28.1647   -1.1098   31.3085 O   0  0  0  0  0  0  0  0  0  0  0  0
  -24.4591   -0.6090   32.5920 C   0  0  0  0  0  0  0  0  0  0  0  0
  -25.5141   -0.3598   33.2331 N   0  0  0  0  0  0  0  0  0  0  0  0
  -26.3790    0.5109   32.5345 C   0  0  0  0  0  0  0  0  0  0  0  0
  -26.6617    1.7637   33.4516 C   0  0  0  0  0  0  0  0  0  0  0  0
  -27.7339    2.6002   32.8500 C   0  0  0  0  0  0  0  0  0  0  0  0
  5  7  1  0
  7  8  1  0
  7  9  2  0
  7 10  1  0
  3 11  1  0
 11 12  1  0
 12 13  2  3
 12 14  1  0
 14 15  1  0
 13 16  1  0
 16 17  1  0
 16 23  1  0
 14 24  1  0
 14 25  1  0
 25 26  2  0
 25 27  1  0
  1 28  1  0
 28 29  2  0
 28 30  1  0
 20 31  1  0
 31 32  2  3
 32 33  1  0
 33 34  1  0
 34 35  1  0
  1  2  2  0
  2  3  1  0
  3  4  2  0
  4  5  1  0
  5  6  2  0
  6  1  1  0
 17 18  2  0
 18 20  1  0
 20 22  2  0
 22 21  1  0
 21 19  2  0
 19 17  1  0
M  END

$$$$
