No_1652-gen_results/8p0m/2024-11-27-11-27-31/
     RDKit          3D

 12 13  0  0  0  0  0  0  0  0999 V2000
  -28.0162   -0.8135   28.8779 C   0  0  0  0  0  0  0  0  0  0  0  0
  -27.0636   -0.1190   28.6079 C   0  0  0  0  0  0  0  0  0  0  0  0
  -25.7647   -0.3897   29.0360 C   0  0  0  0  0  0  0  0  0  0  0  0
  -24.5516    0.4058   28.7646 C   0  0  0  0  0  0  0  0  0  0  0  0
  -24.6957    1.4480   27.7988 C   0  0  0  0  0  0  0  0  0  0  0  0
  -26.0010    1.6784   27.2965 C   0  0  0  0  0  0  0  0  0  0  0  0
  -27.0736    0.9682   27.6500 C   0  0  0  0  0  0  0  0  0  0  0  0
  -27.9396   -1.6461   30.1197 C   0  0  0  0  0  0  0  0  0  0  0  0
  -26.6414   -2.1383   30.4940 C   0  0  0  0  0  0  0  0  0  0  0  0
  -25.5285   -1.4022   30.0886 C   0  0  0  0  0  0  0  0  0  0  0  0
  -23.4063    1.9166   27.3867 C   0  0  0  0  0  0  0  0  0  0  0  0
  -22.4078    1.8966   27.5321 N   0  0  0  0  0  0  0  0  0  0  0  0
  5 11  1  0
 11 12  3  0
  3  4  1  0
  4  5  2  0
  5  6  1  0
  6  7  2  0
  7  2  1  0
  1  2  2  0
  2  3  1  0
  3 10  2  0
 10  9  1  0
  9  8  2  0
  8  1  1  0
M  END

$$$$
