No_1764-gen_results/8p0m/2024-11-27-11-27-31/
     RDKit          3D

 23 25  0  0  0  0  0  0  0  0999 V2000
  -28.0162   -0.8135   28.8779 C   0  0  0  0  0  0  0  0  0  0  0  0
  -27.0636   -0.1190   28.6079 C   0  0  0  0  0  0  0  0  0  0  0  0
  -25.7923   -0.4302   29.0761 C   0  0  0  0  0  0  0  0  0  0  0  0
  -24.5456    0.3494   28.8225 C   0  0  0  0  0  0  0  0  0  0  0  0
  -24.6586    1.4196   27.8878 C   0  0  0  0  0  0  0  0  0  0  0  0
  -25.9471    1.6811   27.3792 C   0  0  0  0  0  0  0  0  0  0  0  0
  -27.0439    0.9739   27.6871 C   0  0  0  0  0  0  0  0  0  0  0  0
  -28.6643   -0.5274   30.1017 N   0  0  0  0  0  0  0  0  0  0  0  0
  -29.6646   -0.3963   30.4406 C   0  0  0  0  0  0  0  0  0  0  0  0
  -30.5800   -0.4891   29.5997 O   0  0  0  0  0  0  0  0  0  0  0  0
  -30.0636   -0.0013   31.9105 C   0  0  0  0  0  0  0  0  0  0  0  0
  -23.4544    2.1690   27.5969 C   0  0  0  0  0  0  0  0  0  0  0  0
  -22.2554    1.7562   28.0726 N   0  0  0  0  0  0  0  0  0  0  0  0
  -23.5034    3.0264   26.6737 O   0  0  0  0  0  0  0  0  0  0  0  0
  -29.5401    0.8914   32.4950 C   0  0  0  0  0  0  0  0  0  0  0  0
  -28.1864    0.6244   32.8272 C   0  0  0  0  0  0  0  0  0  0  0  0
  -27.1496    0.3997   31.7419 C   0  0  0  0  0  0  0  0  0  0  0  0
  -27.3513   -0.1561   30.9230 C   0  0  0  0  0  0  0  0  0  0  0  0
  -26.0284   -0.5538   30.2144 C   0  0  0  0  0  0  0  0  0  0  0  0
  -28.3037    1.3807   27.0547 C   0  0  0  0  0  0  0  0  0  0  0  0
  -28.8158    1.3723   26.1613 C   0  0  0  0  0  0  0  0  0  0  0  0
  -27.9983    0.9899   24.9170 C   0  0  0  0  0  0  0  0  0  0  0  0
  -28.5910    0.7622   23.6536 C   0  0  0  0  0  0  0  0  0  0  0  0
  1  2  1  0
  1  8  1  0
  8  9  1  0
  9 10  2  0
  9 11  1  0
  5 12  1  0
 12 13  1  0
 12 14  2  0
 11 15  1  0
 15 16  1  0
 16 17  1  0
  8 18  1  0
  3 19  1  0
 18 19  1  0
  7 20  1  0
 20 21  2  3
 21 22  1  0
 22 23  2  0
 17 18  1  0
  2  7  2  0
  7  6  1  0
  6  5  2  0
  5  4  1  0
  4  3  2  0
  3  2  1  0
M  END

$$$$
