No_1205-gen_results/8p0m/2024-11-27-11-27-31/
     RDKit          3D

 13 14  0  0  0  0  0  0  0  0999 V2000
  -28.0162   -0.8135   28.8779 C   0  0  0  0  0  0  0  0  0  0  0  0
  -28.4690   -0.7850   29.8287 C   0  0  0  0  0  0  0  0  0  0  0  0
  -26.5042   -0.7777   28.8766 C   0  0  0  0  0  0  0  0  0  0  0  0
  -25.8103   -0.8531   30.1028 C   0  0  0  0  0  0  0  0  0  0  0  0
  -27.9906   -0.8916   31.2257 C   0  0  0  0  0  0  0  0  0  0  0  0
  -26.6042   -0.8676   31.2652 C   0  0  0  0  0  0  0  0  0  0  0  0
  -30.0417   -0.7687   29.6526 C   0  0  0  0  0  0  0  0  0  0  0  0
  -30.8000   -1.5937   30.1656 N   0  0  0  0  0  0  0  0  0  0  0  0
  -30.6015    0.2786   28.8583 C   0  0  0  0  0  0  0  0  0  0  0  0
  -31.8738    0.1508   28.4376 C   0  0  0  0  0  0  0  0  0  0  0  0
  -32.1061   -1.7195   29.8422 C   0  0  0  0  0  0  0  0  0  0  0  0
  -32.6778   -0.7992   29.0020 C   0  0  0  0  0  0  0  0  0  0  0  0
  -33.9861   -0.9105   28.7331 O   0  0  0  0  0  0  0  0  0  0  0  0
  2  7  1  0
 12 13  1  0
  7  8  2  0
  8 11  1  0
 11 12  2  0
 12 10  1  0
 10  9  2  0
  9  7  1  0
  1  2  2  0
  2  5  1  0
  5  6  2  0
  6  4  1  0
  4  3  2  0
  3  1  1  0
M  END

$$$$
