No_1143-gen_results/8p0m/2024-11-27-11-27-31/
     RDKit          3D

 16 18  0  0  0  0  0  0  0  0999 V2000
  -28.0162   -0.8135   28.8779 C   0  0  0  0  0  0  0  0  0  0  0  0
  -27.0636   -0.1189   28.6079 C   0  0  0  0  0  0  0  0  0  0  0  0
  -25.7923   -0.4302   29.0761 C   0  0  0  0  0  0  0  0  0  0  0  0
  -25.5756   -1.5654   29.9363 C   0  0  0  0  0  0  0  0  0  0  0  0
  -26.7354   -2.3004   30.2173 C   0  0  0  0  0  0  0  0  0  0  0  0
  -27.9184   -1.9537   29.7629 C   0  0  0  0  0  0  0  0  0  0  0  0
  -27.1057    1.1023   27.7593 C   0  0  0  0  0  0  0  0  0  0  0  0
  -26.8548    2.1259   28.0082 N   0  0  0  0  0  0  0  0  0  0  0  0
  -27.5137    0.8100   26.3476 C   0  0  0  0  0  0  0  0  0  0  0  0
  -27.8713   -0.3799   25.8365 C   0  0  0  0  0  0  0  0  0  0  0  0
  -28.2139   -0.4462   24.5060 C   0  0  0  0  0  0  0  0  0  0  0  0
  -28.3274    0.7151   23.7511 C   0  0  0  0  0  0  0  0  0  0  0  0
  -27.6179    1.8401   25.3738 C   0  0  0  0  0  0  0  0  0  0  0  0
  -27.9332    1.8542   24.2051 C   0  0  0  0  0  0  0  0  0  0  0  0
  -27.1219    3.2386   26.0701 C   0  0  0  0  0  0  0  0  0  0  0  0
  -26.7884    3.3214   27.3425 C   0  0  0  0  0  0  0  0  0  0  0  0
  2  7  1  0
  1  2  2  0
  2  3  1  0
  3  4  2  0
  4  5  1  0
  5  6  2  0
  6  1  1  0
  7  8  2  0
  8 16  1  0
 16 15  2  0
 15 13  1  0
  9  7  1  0
  9 10  2  0
 10 11  1  0
 11 12  2  0
 12 14  1  0
 14 13  2  0
 13  9  1  0
M  END

$$$$
