No_1759-gen_results/8p0m/2024-11-27-11-27-31/
     RDKit          3D

 35 37  0  0  0  0  0  0  0  0999 V2000
  -28.0162   -0.8135   28.8779 C   0  0  0  0  0  0  0  0  0  0  0  0
  -27.0636   -0.1190   28.6079 C   0  0  0  0  0  0  0  0  0  0  0  0
  -25.7923   -0.4302   29.0761 C   0  0  0  0  0  0  0  0  0  0  0  0
  -25.5756   -1.5654   29.9363 C   0  0  0  0  0  0  0  0  0  0  0  0
  -26.7354   -2.3004   30.2173 C   0  0  0  0  0  0  0  0  0  0  0  0
  -27.9184   -1.9537   29.7629 C   0  0  0  0  0  0  0  0  0  0  0  0
  -29.0001   -2.7012   30.1151 O   0  0  0  0  0  0  0  0  0  0  0  0
  -24.3499    0.4889   28.7497 Cl  0  0  0  0  0  0  0  0  0  0  0  0
  -29.3705   -2.8230   31.4465 C   0  0  0  0  0  0  0  0  0  0  0  0
  -30.7366   -2.7004   31.6213 C   0  0  0  0  0  0  0  0  0  0  0  0
  -31.2261   -2.8444   33.1439 P   0  0  0  0  0  0  0  0  0  0  0  0
  -30.2470   -3.4065   33.9198 O   0  0  0  0  0  0  0  0  0  0  0  0
  -31.4690   -1.4148   33.6732 O   0  0  0  0  0  0  0  0  0  0  0  0
  -32.5575   -3.5950   33.1499 O   0  0  0  0  0  0  0  0  0  0  0  0
  -31.0615   -1.4370   31.1066 F   0  0  0  0  0  0  0  0  0  0  0  0
  -31.3939   -3.5964   30.8047 F   0  0  0  0  0  0  0  0  0  0  0  0
  -26.9472    1.0413   27.6168 C   0  0  0  0  0  0  0  0  0  0  0  0
  -26.5549    0.8821   26.3527 C   0  0  0  0  0  0  0  0  0  0  0  0
  -26.0909   -0.2442   25.8567 C   0  0  0  0  0  0  0  0  0  0  0  0
  -25.6397   -0.3391   24.4907 C   0  0  0  0  0  0  0  0  0  0  0  0
  -26.7284    1.8861   25.4058 C   0  0  0  0  0  0  0  0  0  0  0  0
  -27.2309    3.1932   25.8612 C   0  0  0  0  0  0  0  0  0  0  0  0
  -27.5690    2.2598   28.0675 C   0  0  0  0  0  0  0  0  0  0  0  0
  -27.6607    3.3460   27.1652 C   0  0  0  0  0  0  0  0  0  0  0  0
  -28.0516    2.5041   29.4310 C   0  0  0  0  0  0  0  0  0  0  0  0
  -29.3014    2.2183   29.7518 C   0  0  0  0  0  0  0  0  0  0  0  0
  -29.7156    2.3579   31.1111 C   0  0  0  0  0  0  0  0  0  0  0  0
  -28.7881    2.5191   32.1382 C   0  0  0  0  0  0  0  0  0  0  0  0
  -27.4452    2.7764   31.7723 C   0  0  0  0  0  0  0  0  0  0  0  0
  -27.0440    2.7290   30.4648 C   0  0  0  0  0  0  0  0  0  0  0  0
  -26.4531    3.0611   32.8421 C   0  0  0  0  0  0  0  0  0  0  0  0
  -26.4537    2.7771   33.9191 N   0  0  0  0  0  0  0  0  0  0  0  0
  -25.3455    3.7225   32.3390 O   0  0  0  0  0  0  0  0  0  0  0  0
  -28.1699    4.6553   27.6243 C   0  0  0  0  0  0  0  0  0  0  0  0
  -27.3238    5.6299   28.0849 C   0  0  0  0  0  0  0  0  0  0  0  0
  6  7  1  0
  3  8  1  0
  7  9  1  0
  9 10  1  0
 10 11  1  0
 11 12  1  0
 11 13  2  0
 11 14  1  0
 10 15  1  0
 10 16  1  0
  2 17  1  0
 17 18  1  0
 18 19  1  0
 19 20  2  0
 18 21  1  0
 21 22  1  0
 17 23  1  0
 22 24  1  0
 23 24  1  0
 23 25  1  0
 29 31  1  0
 31 32  1  0
 31 33  2  0
 24 34  1  0
 34 35  1  0
  1  2  2  0
  2  3  1  0
  3  4  2  0
  4  5  1  0
  5  6  2  0
  6  1  1  0
 25 26  2  0
 26 27  1  0
 27 28  2  0
 28 29  1  0
 29 30  2  0
 30 25  1  0
M  END

$$$$
