No_1910-gen_results/8p0m/2024-11-27-11-27-31/
     RDKit          3D

 29 30  0  0  0  0  0  0  0  0999 V2000
  -28.0162   -0.8135   28.8779 C   0  0  0  0  0  0  0  0  0  0  0  0
  -28.4690   -0.7850   29.8287 C   0  0  0  0  0  0  0  0  0  0  0  0
  -26.5042   -0.7777   28.8766 C   0  0  0  0  0  0  0  0  0  0  0  0
  -25.8103   -0.8531   30.1028 C   0  0  0  0  0  0  0  0  0  0  0  0
  -30.0136   -0.8410   29.8508 C   0  0  0  0  0  0  0  0  0  0  0  0
  -26.5670   -0.8850   31.2517 C   0  0  0  0  0  0  0  0  0  0  0  0
  -27.9411   -0.9069   31.1850 C   0  0  0  0  0  0  0  0  0  0  0  0
  -30.6563   -1.6921   30.1809 O   0  0  0  0  0  0  0  0  0  0  0  0
  -30.5877    0.2657   29.3303 O   0  0  0  0  0  0  0  0  0  0  0  0
  -25.5404   -0.6991   27.4667 Cl  0  0  0  0  0  0  0  0  0  0  0  0
  -31.6808    0.5231   29.0639 C   0  0  0  0  0  0  0  0  0  0  0  0
  -31.8996    1.6691   28.3341 C   0  0  0  0  0  0  0  0  0  0  0  0
  -32.8718    1.9978   27.9202 O   0  0  0  0  0  0  0  0  0  0  0  0
  -30.7127    2.2200   27.6906 N   0  0  0  0  0  0  0  0  0  0  0  0
  -30.7528    3.3008   26.7469 C   0  0  0  0  0  0  0  0  0  0  0  0
  -32.3730    0.7636   30.4474 C   0  0  0  0  0  0  0  0  0  0  0  0
  -33.0527   -0.2925   30.8266 O   0  0  0  0  0  0  0  0  0  0  0  0
  -34.4263   -0.6790   30.5716 P   0  0  0  0  0  0  0  0  0  0  0  0
  -34.8171   -1.6618   31.4495 O   0  0  0  0  0  0  0  0  0  0  0  0
  -35.1852    0.5892   30.8312 O   0  0  0  0  0  0  0  0  0  0  0  0
  -34.5253   -1.0910   29.1327 O   0  0  0  0  0  0  0  0  0  0  0  0
  -29.7413    3.2377   25.8985 C   0  0  0  0  0  0  0  0  0  0  0  0
  -29.0973    2.3606   25.5322 C   0  0  0  0  0  0  0  0  0  0  0  0
  -29.0064    1.2513   26.5360 C   0  0  0  0  0  0  0  0  0  0  0  0
  -30.1104    1.0385   27.3425 C   0  0  0  0  0  0  0  0  0  0  0  0
  -30.7321    0.0302   26.8901 O   0  0  0  0  0  0  0  0  0  0  0  0
  -23.9398   -0.8995   30.1268 Br  0  0  0  0  0  0  0  0  0  0  0  0
  -28.4337    0.0616   25.8328 O   0  0  0  0  0  0  0  0  0  0  0  0
  -27.7693    0.3164   24.6247 C   0  0  0  0  0  0  0  0  0  0  0  0
  2  5  1  0
  5  8  2  0
  5  9  1  0
  3 10  1  0
  9 11  1  0
 11 12  1  0
 12 13  2  0
 12 14  1  0
 14 15  1  0
 11 16  1  0
 16 17  1  0
 17 18  1  0
 18 19  1  0
 18 20  1  0
 18 21  2  0
 22 23  1  0
 14 25  1  0
 24 25  1  0
 25 26  2  0
  4 27  1  0
 24 28  1  0
 28 29  1  0
 15 22  1  0
 23 24  1  0
  1  2  2  0
  2  7  1  0
  7  6  2  0
  6  4  1  0
  4  3  2  0
  3  1  1  0
M  END

$$$$
