No_1258-gen_results/8p0m/2024-11-27-11-27-31/
     RDKit          3D

 12 13  0  0  0  0  0  0  0  0999 V2000
  -28.0162   -0.8135   28.8779 C   0  0  0  0  0  0  0  0  0  0  0  0
  -28.4690   -0.7850   29.8287 C   0  0  0  0  0  0  0  0  0  0  0  0
  -28.1960    0.3478   28.0550 C   0  0  0  0  0  0  0  0  0  0  0  0
  -29.0191    1.3501   28.3782 C   0  0  0  0  0  0  0  0  0  0  0  0
  -29.4107    0.1803   30.3782 C   0  0  0  0  0  0  0  0  0  0  0  0
  -29.6059    1.2495   29.6193 C   0  0  0  0  0  0  0  0  0  0  0  0
  -27.3362    0.3775   26.5214 Cl  0  0  0  0  0  0  0  0  0  0  0  0
  -30.0314   -0.0282   31.7602 C   0  0  0  0  0  0  0  0  0  0  0  0
  -30.2789   -1.0493   32.2760 C   0  0  0  0  0  0  0  0  0  0  0  0
  -29.9945   -2.3090   31.5570 C   0  0  0  0  0  0  0  0  0  0  0  0
  -28.8682   -2.2125   30.6004 C   0  0  0  0  0  0  0  0  0  0  0  0
  -28.2820   -3.3039   30.1159 O   0  0  0  0  0  0  0  0  0  0  0  0
  3  7  1  0
  5  8  1  0
  9 10  1  0
  2 11  1  0
 10 11  1  0
 11 12  2  0
  8  9  1  0
  1  2  2  0
  2  5  1  0
  5  6  2  0
  6  4  1  0
  4  3  2  0
  3  1  1  0
M  END

$$$$
