No_1337-gen_results/8p0m/2024-11-27-11-27-31/
     RDKit          3D

 26 28  0  0  0  0  0  0  0  0999 V2000
  -28.0162   -0.8135   28.8779 C   0  0  0  0  0  0  0  0  0  0  0  0
  -28.4690   -0.7850   29.8287 C   0  0  0  0  0  0  0  0  0  0  0  0
  -26.5042   -0.7777   28.8766 C   0  0  0  0  0  0  0  0  0  0  0  0
  -25.9500    0.1157   29.4052 C   0  0  0  0  0  0  0  0  0  0  0  0
  -29.9713   -0.8318   29.8595 C   0  0  0  0  0  0  0  0  0  0  0  0
  -24.4521    0.1950   29.4758 C   0  0  0  0  0  0  0  0  0  0  0  0
  -23.8116    1.4248   29.3432 C   0  0  0  0  0  0  0  0  0  0  0  0
  -22.6132    1.4218   28.6352 C   0  0  0  0  0  0  0  0  0  0  0  0
  -30.5844   -0.5775   28.7139 C   0  0  0  0  0  0  0  0  0  0  0  0
  -29.8667   -0.4003   27.5660 C   0  0  0  0  0  0  0  0  0  0  0  0
  -28.5446   -0.4372   27.6032 C   0  0  0  0  0  0  0  0  0  0  0  0
  -30.4883   -0.2004   26.2188 C   0  0  0  0  0  0  0  0  0  0  0  0
  -22.3439    2.2836   27.6780 N   0  0  0  0  0  0  0  0  0  0  0  0
  -30.8096    0.9243   25.8887 O   0  0  0  0  0  0  0  0  0  0  0  0
  -30.5371   -1.1587   25.3005 O   0  0  0  0  0  0  0  0  0  0  0  0
  -21.5819    0.6802   29.0412 O   0  0  0  0  0  0  0  0  0  0  0  0
  -28.0515   -1.0057   31.1977 N   0  0  0  0  0  0  0  0  0  0  0  0
  -27.6154   -0.0120   31.9948 C   0  0  0  0  0  0  0  0  0  0  0  0
  -27.8527   -2.3641   31.5304 C   0  0  0  0  0  0  0  0  0  0  0  0
  -28.5492    0.3037   32.9625 C   0  0  0  0  0  0  0  0  0  0  0  0
  -28.3150    1.4019   33.5421 C   0  0  0  0  0  0  0  0  0  0  0  0
  -27.1226    2.2200   33.4490 C   0  0  0  0  0  0  0  0  0  0  0  0
  -26.2267    1.8481   32.4384 C   0  0  0  0  0  0  0  0  0  0  0  0
  -26.5033    0.7114   31.7247 C   0  0  0  0  0  0  0  0  0  0  0  0
  -25.5168    0.2906   30.7754 C   0  0  0  0  0  0  0  0  0  0  0  0
  -24.5566   -0.8210   31.5113 C   0  0  0  0  0  0  0  0  0  0  0  0
  1  3  1  0
  3  4  2  3
  4  6  1  0
  6  7  1  0
  7  8  1  0
 10 12  1  0
  8 13  1  0
 12 14  2  0
 12 15  1  0
  8 16  2  0
  2 17  1  0
 17 18  1  0
 17 19  1  0
  4 25  1  0
 24 25  1  0
 25 26  1  0
  1  2  2  0
  2  5  1  0
  5  9  2  0
  9 10  1  0
 10 11  2  0
 11  1  1  0
 18 20  2  0
 20 21  1  0
 21 22  2  0
 22 23  1  0
 23 24  2  0
 24 18  1  0
M  END

$$$$
