No_1001-gen_results/8p0m/2024-11-27-11-27-31/
     RDKit          3D

 25 27  0  0  0  0  0  0  0  0999 V2000
  -28.0162   -0.8135   28.8779 C   0  0  0  0  0  0  0  0  0  0  0  0
  -27.0636   -0.1190   28.6079 C   0  0  0  0  0  0  0  0  0  0  0  0
  -25.7923   -0.4302   29.0761 C   0  0  0  0  0  0  0  0  0  0  0  0
  -24.5456    0.3494   28.8225 C   0  0  0  0  0  0  0  0  0  0  0  0
  -24.6586    1.4196   27.8878 C   0  0  0  0  0  0  0  0  0  0  0  0
  -23.5403    2.1791   27.5500 C   0  0  0  0  0  0  0  0  0  0  0  0
  -22.4138    1.6982   27.7279 C   0  0  0  0  0  0  0  0  0  0  0  0
  -22.1404    0.6034   28.6213 C   0  0  0  0  0  0  0  0  0  0  0  0
  -23.2900   -0.1688   29.0717 C   0  0  0  0  0  0  0  0  0  0  0  0
  -27.9531   -1.8578   29.9018 C   0  0  0  0  0  0  0  0  0  0  0  0
  -26.7277   -2.2981   30.3422 C   0  0  0  0  0  0  0  0  0  0  0  0
  -25.5938   -1.5496   29.9860 C   0  0  0  0  0  0  0  0  0  0  0  0
  -29.1244   -2.6552   30.3069 C   0  0  0  0  0  0  0  0  0  0  0  0
  -29.4460   -2.7235   31.5669 N   0  0  0  0  0  0  0  0  0  0  0  0
  -29.8334   -3.8039   32.0979 C   0  0  0  0  0  0  0  0  0  0  0  0
  -30.3129   -1.5654   31.9400 C   0  0  0  0  0  0  0  0  0  0  0  0
  -30.6705   -1.6363   33.1669 C   0  0  0  0  0  0  0  0  0  0  0  0
  -30.0903   -3.8302   33.6047 C   0  0  0  0  0  0  0  0  0  0  0  0
  -31.0552   -2.8286   33.9074 N   0  0  0  0  0  0  0  0  0  0  0  0
  -31.2878   -2.6718   35.3441 C   0  0  0  0  0  0  0  0  0  0  0  0
  -31.0477   -0.3312   33.9603 C   0  0  0  0  0  0  0  0  0  0  0  0
  -29.4211   -1.4160   33.8318 C   0  0  0  0  0  0  0  0  0  0  0  0
  -32.3935   -3.3030   33.2786 C   0  0  0  0  0  0  0  0  0  0  0  0
  -29.0010   -0.3736   34.6755 C   0  0  0  0  0  0  0  0  0  0  0  0
  -30.1478    0.4449   34.5524 C   0  0  0  0  0  0  0  0  0  0  0  0
  3  4  1  0
 10 13  1  0
 13 14  1  0
 14 15  1  0
 14 16  1  0
 16 17  2  3
 15 18  1  0
 18 19  1  0
 19 20  1  0
 17 21  1  0
 17 22  1  0
 19 23  1  0
 22 24  2  0
 21 25  2  0
 24 25  1  0
  1  2  2  0
  2  3  1  0
  3 12  2  0
 12 11  1  0
 11 10  2  0
 10  1  1  0
  4  5  2  0
  5  6  1  0
  6  7  2  0
  7  8  1  0
  8  9  2  0
  9  4  1  0
M  END

$$$$
