No_1762-gen_results/8p0m/2024-11-27-11-27-31/
     RDKit          3D

 25 27  0  0  0  0  0  0  0  0999 V2000
  -28.0162   -0.8135   28.8779 C   0  0  0  0  0  0  0  0  0  0  0  0
  -28.4690   -0.7850   29.8287 C   0  0  0  0  0  0  0  0  0  0  0  0
  -27.1356    0.2359   28.5352 C   0  0  0  0  0  0  0  0  0  0  0  0
  -26.8745    1.2825   29.3982 C   0  0  0  0  0  0  0  0  0  0  0  0
  -27.5070    1.2380   30.6295 C   0  0  0  0  0  0  0  0  0  0  0  0
  -28.3293    0.1745   30.9350 C   0  0  0  0  0  0  0  0  0  0  0  0
  -26.4077    0.3070   27.2259 C   0  0  0  0  0  0  0  0  0  0  0  0
  -25.0105    0.3902   27.3228 C   0  0  0  0  0  0  0  0  0  0  0  0
  -24.3683    0.2207   28.5237 C   0  0  0  0  0  0  0  0  0  0  0  0
  -23.1662    0.6628   28.7374 C   0  0  0  0  0  0  0  0  0  0  0  0
  -22.4319    1.3029   27.6534 C   0  0  0  0  0  0  0  0  0  0  0  0
  -23.1111    1.6207   26.5046 C   0  0  0  0  0  0  0  0  0  0  0  0
  -24.4286    1.2494   26.3309 C   0  0  0  0  0  0  0  0  0  0  0  0
  -27.1152    1.1656   26.3023 C   0  0  0  0  0  0  0  0  0  0  0  0
  -27.3644    1.2115   25.3331 C   0  0  0  0  0  0  0  0  0  0  0  0
  -27.3038   -0.0288   24.4901 C   0  0  0  0  0  0  0  0  0  0  0  0
  -28.3083   -0.8922   24.5985 C   0  0  0  0  0  0  0  0  0  0  0  0
  -29.5993   -0.5205   25.0464 C   0  0  0  0  0  0  0  0  0  0  0  0
  -30.7482   -1.3436   24.6809 C   0  0  0  0  0  0  0  0  0  0  0  0
  -31.9937   -1.0869   25.0449 C   0  0  0  0  0  0  0  0  0  0  0  0
  -32.2952    0.0720   25.7755 C   0  0  0  0  0  0  0  0  0  0  0  0
  -31.2512    0.9077   26.1487 C   0  0  0  0  0  0  0  0  0  0  0  0
  -29.9834    0.6523   25.8061 C   0  0  0  0  0  0  0  0  0  0  0  0
  -21.1889    1.7429   27.8564 O   0  0  0  0  0  0  0  0  0  0  0  0
  -29.4137   -1.8169   30.1889 F   0  0  0  0  0  0  0  0  0  0  0  0
  3  7  1  0
  7 14  1  0
 14 15  2  3
 15 16  1  0
 16 17  2  3
 17 18  1  0
 11 24  1  0
  2 25  1  0
  7  8  1  0
 18 19  2  0
 19 20  1  0
 20 21  2  0
 21 22  1  0
 22 23  2  0
 23 18  1  0
  1  2  2  0
  2  6  1  0
  6  5  2  0
  5  4  1  0
  4  3  2  0
  3  1  1  0
  8  9  2  0
  9 10  1  0
 10 11  2  0
 11 12  1  0
 12 13  2  0
 13  8  1  0
M  END

$$$$
