No_1000-gen_results/8p0m/2024-11-27-11-27-31/
     RDKit          3D

 10  9  0  0  0  0  0  0  0  0999 V2000
  -28.0727   -1.2542   28.5316 F   0  0  0  0  0  0  0  0  0  0  0  0
  -27.3591   -0.3792   28.7224 C   0  0  0  0  0  0  0  0  0  0  0  0
  -26.3323   -0.6441   29.4520 C   0  0  0  0  0  0  0  0  0  0  0  0
  -28.0071    0.6981   29.3340 F   0  0  0  0  0  0  0  0  0  0  0  0
  -25.2035    0.2178   29.5553 C   0  0  0  0  0  0  0  0  0  0  0  0
  -25.2766    1.3987   28.6998 C   0  0  0  0  0  0  0  0  0  0  0  0
  -24.5591    1.3465   27.6930 C   0  0  0  0  0  0  0  0  0  0  0  0
  -24.4473    2.5598   26.8029 C   0  0  0  0  0  0  0  0  0  0  0  0
  -25.1790    3.7198   27.1643 C   0  0  0  0  0  0  0  0  0  0  0  0
  -25.9352    3.6666   28.3087 C   0  0  0  0  0  0  0  0  0  0  0  0
  1  2  1  0
  2  3  1  0
  2  4  1  0
  3  5  2  3
  5  6  1  0
  6  7  2  3
  7  8  1  0
  8  9  2  3
  9 10  1  0
M  END

$$$$
