No_1336-gen_results/8p0m/2024-11-27-11-27-31/
     RDKit          3D

 15 16  0  0  0  0  0  0  0  0999 V2000
  -28.0162   -0.8135   28.8779 C   0  0  0  0  0  0  0  0  0  0  0  0
  -27.0636   -0.1190   28.6079 C   0  0  0  0  0  0  0  0  0  0  0  0
  -25.7647   -0.3897   29.0360 C   0  0  0  0  0  0  0  0  0  0  0  0
  -24.5516    0.4058   28.7646 C   0  0  0  0  0  0  0  0  0  0  0  0
  -24.6957    1.4480   27.7988 C   0  0  0  0  0  0  0  0  0  0  0  0
  -23.5821    2.2166   27.4626 C   0  0  0  0  0  0  0  0  0  0  0  0
  -22.3211    1.8240   27.9807 C   0  0  0  0  0  0  0  0  0  0  0  0
  -22.1777    0.8172   28.8883 C   0  0  0  0  0  0  0  0  0  0  0  0
  -23.3181    0.0417   29.2597 C   0  0  0  0  0  0  0  0  0  0  0  0
  -27.8970   -1.8952   29.8587 C   0  0  0  0  0  0  0  0  0  0  0  0
  -26.6530   -2.3396   30.2731 C   0  0  0  0  0  0  0  0  0  0  0  0
  -25.5330   -1.5566   29.9092 C   0  0  0  0  0  0  0  0  0  0  0  0
  -28.9376   -2.6530   30.1517 F   0  0  0  0  0  0  0  0  0  0  0  0
  -23.6492    3.1776   26.5884 F   0  0  0  0  0  0  0  0  0  0  0  0
  -23.8342   -2.0502   30.5526 Br  0  0  0  0  0  0  0  0  0  0  0  0
  3  4  1  0
 10 13  1  0
  6 14  1  0
 12 15  1  0
  1  2  2  0
  2  3  1  0
  3 12  2  0
 12 11  1  0
 11 10  2  0
 10  1  1  0
  4  5  2  0
  5  6  1  0
  6  7  2  0
  7  8  1  0
  8  9  2  0
  9  4  1  0
M  END

$$$$
