No_1365-gen_results/8p0m/2024-11-27-11-27-31/
     RDKit          3D

 28 30  0  0  0  0  0  0  0  0999 V2000
  -28.0162   -0.8135   28.8779 C   0  0  0  0  0  0  0  0  0  0  0  0
  -27.0636   -0.1189   28.6079 C   0  0  0  0  0  0  0  0  0  0  0  0
  -25.7923   -0.4302   29.0761 C   0  0  0  0  0  0  0  0  0  0  0  0
  -24.5456    0.3494   28.8225 C   0  0  0  0  0  0  0  0  0  0  0  0
  -23.2409    0.0217   29.3323 C   0  0  0  0  0  0  0  0  0  0  0  0
  -22.1362    0.7695   29.0059 C   0  0  0  0  0  0  0  0  0  0  0  0
  -27.9050   -1.8984   29.8729 C   0  0  0  0  0  0  0  0  0  0  0  0
  -26.6795   -2.3145   30.3184 C   0  0  0  0  0  0  0  0  0  0  0  0
  -25.5203   -1.5564   29.9775 C   0  0  0  0  0  0  0  0  0  0  0  0
  -22.1155    1.7338   28.0257 C   0  0  0  0  0  0  0  0  0  0  0  0
  -24.5222    1.3908   27.7909 C   0  0  0  0  0  0  0  0  0  0  0  0
  -23.3248    2.0519   27.4472 C   0  0  0  0  0  0  0  0  0  0  0  0
  -28.9445   -2.6425   30.2016 F   0  0  0  0  0  0  0  0  0  0  0  0
  -23.4184    2.9909   26.4900 O   0  0  0  0  0  0  0  0  0  0  0  0
  -27.1543    0.9158   27.7321 O   0  0  0  0  0  0  0  0  0  0  0  0
  -28.4096    1.3377   27.3279 C   0  0  0  0  0  0  0  0  0  0  0  0
  -29.1307    2.1337   28.0540 C   0  0  0  0  0  0  0  0  0  0  0  0
  -30.4017    2.4562   27.7649 C   0  0  0  0  0  0  0  0  0  0  0  0
  -28.8438    0.9308   26.0826 C   0  0  0  0  0  0  0  0  0  0  0  0
  -30.1341    1.1976   25.6803 C   0  0  0  0  0  0  0  0  0  0  0  0
  -30.8896    2.0834   26.4661 C   0  0  0  0  0  0  0  0  0  0  0  0
  -27.8001   -0.1745   24.9864 Br  0  0  0  0  0  0  0  0  0  0  0  0
  -31.1569    3.2766   28.4830 F   0  0  0  0  0  0  0  0  0  0  0  0
  -28.6514    2.5108   29.3174 O   0  0  0  0  0  0  0  0  0  0  0  0
  -27.6953    3.4641   29.3620 C   0  0  0  0  0  0  0  0  0  0  0  0
  -27.9379    4.5370   30.2765 C   0  0  0  0  0  0  0  0  0  0  0  0
  -28.3178    4.4857   31.3486 C   0  0  0  0  0  0  0  0  0  0  0  0
  -28.5355    5.5828   32.2656 C   0  0  0  0  0  0  0  0  0  0  0  0
  3  4  1  0
  4  5  1  0
  6 10  1  0
  4 11  1  0
 10 12  1  0
 11 12  1  0
  7 13  1  0
 12 14  2  0
  2 15  1  0
 15 16  1  0
 19 22  1  0
 18 23  1  0
 17 24  1  0
 24 25  1  0
 25 26  1  0
 26 27  2  3
 27 28  1  0
  6  5  1  0
  1  2  2  0
  2  3  1  0
  3  9  2  0
  9  8  1  0
  8  7  2  0
  7  1  1  0
 16 17  2  0
 17 18  1  0
 18 21  2  0
 21 20  1  0
 20 19  2  0
 19 16  1  0
M  END

$$$$
