No_1303-gen_results/8p0m/2024-11-27-11-27-31/
     RDKit          3D

 23 25  0  0  0  0  0  0  0  0999 V2000
  -28.0162   -0.8135   28.8779 C   0  0  0  0  0  0  0  0  0  0  0  0
  -28.4690   -0.7850   29.8287 C   0  0  0  0  0  0  0  0  0  0  0  0
  -26.5042   -0.7777   28.8766 C   0  0  0  0  0  0  0  0  0  0  0  0
  -25.8103   -0.8531   30.1028 C   0  0  0  0  0  0  0  0  0  0  0  0
  -27.9906   -0.8916   31.2257 C   0  0  0  0  0  0  0  0  0  0  0  0
  -26.6042   -0.8676   31.2652 C   0  0  0  0  0  0  0  0  0  0  0  0
  -30.0773   -0.8857   30.0240 C   0  0  0  0  0  0  0  0  0  0  0  0
  -30.6406   -1.8993   30.1420 O   0  0  0  0  0  0  0  0  0  0  0  0
  -30.7443    0.3043   29.7721 N   0  0  0  0  0  0  0  0  0  0  0  0
  -32.1554    0.2895   29.7136 C   0  0  0  0  0  0  0  0  0  0  0  0
  -30.0476    1.5766   29.6037 C   0  0  0  0  0  0  0  0  0  0  0  0
  -30.1896    2.0500   28.4534 C   0  0  0  0  0  0  0  0  0  0  0  0
  -31.5978    2.3398   28.0222 C   0  0  0  0  0  0  0  0  0  0  0  0
  -32.4366    1.1302   28.3811 C   0  0  0  0  0  0  0  0  0  0  0  0
  -25.6664   -0.6872   27.6633 C   0  0  0  0  0  0  0  0  0  0  0  0
  -25.2792    0.6917   27.3233 C   0  0  0  0  0  0  0  0  0  0  0  0
  -24.0058    1.0146   27.7223 C   0  0  0  0  0  0  0  0  0  0  0  0
  -23.2093    0.5853   28.7421 C   0  0  0  0  0  0  0  0  0  0  0  0
  -21.8143    0.7715   28.8162 C   0  0  0  0  0  0  0  0  0  0  0  0
  -21.2062    1.6607   27.9509 C   0  0  0  0  0  0  0  0  0  0  0  0
  -23.1399    1.6707   26.6803 C   0  0  0  0  0  0  0  0  0  0  0  0
  -21.8776    2.0800   26.8291 C   0  0  0  0  0  0  0  0  0  0  0  0
  -25.5897    0.9999   25.8555 C   0  0  0  0  0  0  0  0  0  0  0  0
  2  7  1  0
  7  8  2  0
  7  9  1  0
  9 10  1  0
  9 11  1  0
 12 13  1  0
 10 14  1  0
 13 14  1  0
  3 15  1  0
 15 16  1  0
 16 17  1  0
 16 23  1  0
 12 11  1  0
  1  2  2  0
  2  5  1  0
  5  6  2  0
  6  4  1  0
  4  3  2  0
  3  1  1  0
 17 18  2  0
 18 19  1  0
 19 20  2  0
 20 22  1  0
 22 21  2  0
 21 17  1  0
M  END

$$$$
