No_165-gen_results/8p0m/2024-11-27-11-27-31/
     RDKit          3D

 31 32  0  0  0  0  0  0  0  0999 V2000
  -28.0162   -0.8135   28.8779 C   0  0  0  0  0  0  0  0  0  0  0  0
  -27.0636   -0.1190   28.6079 C   0  0  0  0  0  0  0  0  0  0  0  0
  -27.0010    0.6913   27.4910 C   0  0  0  0  0  0  0  0  0  0  0  0
  -25.8548    1.4825   27.0830 C   0  0  0  0  0  0  0  0  0  0  0  0
  -24.6901    1.4526   27.8807 C   0  0  0  0  0  0  0  0  0  0  0  0
  -23.4878    2.1451   27.6011 C   0  0  0  0  0  0  0  0  0  0  0  0
  -25.7206   -0.1766   29.3315 C   0  0  0  0  0  0  0  0  0  0  0  0
  -24.6020    0.5547   29.0326 C   0  0  0  0  0  0  0  0  0  0  0  0
  -28.8084   -0.5412   30.1332 Cl  0  0  0  0  0  0  0  0  0  0  0  0
  -23.4863    3.1145   26.8577 O   0  0  0  0  0  0  0  0  0  0  0  0
  -22.3619    1.9363   28.2702 O   0  0  0  0  0  0  0  0  0  0  0  0
  -28.1208    0.7974   26.5849 C   0  0  0  0  0  0  0  0  0  0  0  0
  -27.9639    0.5742   25.2463 C   0  0  0  0  0  0  0  0  0  0  0  0
  -28.7872    0.3783   24.5580 C   0  0  0  0  0  0  0  0  0  0  0  0
  -30.2098    0.4000   24.8716 C   0  0  0  0  0  0  0  0  0  0  0  0
  -30.4555    0.6186   26.2308 C   0  0  0  0  0  0  0  0  0  0  0  0
  -29.4339    0.7364   27.1370 C   0  0  0  0  0  0  0  0  0  0  0  0
  -31.8593    0.5856   26.6792 C   0  0  0  0  0  0  0  0  0  0  0  0
  -32.2944    1.2589   27.5345 O   0  0  0  0  0  0  0  0  0  0  0  0
  -32.6767   -0.1164   25.9159 O   0  0  0  0  0  0  0  0  0  0  0  0
  -25.5988   -1.1052   30.4798 C   0  0  0  0  0  0  0  0  0  0  0  0
  -24.7862   -1.8615   30.5683 O   0  0  0  0  0  0  0  0  0  0  0  0
  -26.5031   -0.9507   31.4004 O   0  0  0  0  0  0  0  0  0  0  0  0
  -33.7895   -0.6543   26.4900 C   0  0  0  0  0  0  0  0  0  0  0  0
  -33.4514   -1.8080   27.1401 C   0  0  0  0  0  0  0  0  0  0  0  0
  -32.4195   -2.1829   27.4704 F   0  0  0  0  0  0  0  0  0  0  0  0
  -34.0323   -2.9743   26.4574 F   0  0  0  0  0  0  0  0  0  0  0  0
  -34.3209   -1.9898   28.2971 F   0  0  0  0  0  0  0  0  0  0  0  0
  -34.7704   -0.8015   25.4250 N   0  0  0  0  0  0  0  0  0  0  0  0
  -34.5988   -0.0547   24.3375 C   0  0  0  0  0  0  0  0  0  0  0  0
  -35.9554   -1.5296   25.4910 C   0  0  0  0  0  0  0  0  0  0  0  0
  1  2  1  0
  5  6  1  0
  1  9  1  0
  6 10  2  0
  6 11  1  0
  3 12  1  0
 16 18  1  0
 18 19  2  0
 18 20  1  0
  7 21  1  0
 21 22  2  0
 21 23  1  0
 20 24  1  0
 24 25  1  0
 25 26  1  0
 25 27  1  0
 25 28  1  0
 24 29  1  0
 29 30  1  0
 29 31  1  0
  2  3  2  0
  3  4  1  0
  4  5  2  0
  5  8  1  0
  8  7  2  0
  7  2  1  0
 12 13  2  0
 13 14  1  0
 14 15  2  0
 15 16  1  0
 16 17  2  0
 17 12  1  0
M  END

$$$$
