No_1501-gen_results/8p0m/2024-11-27-11-27-31/
     RDKit          3D

 14 15  0  0  0  0  0  0  0  0999 V2000
  -28.0162   -0.8135   28.8779 C   0  0  0  0  0  0  0  0  0  0  0  0
  -28.4690   -0.7850   29.8287 C   0  0  0  0  0  0  0  0  0  0  0  0
  -26.5042   -0.7777   28.8766 C   0  0  0  0  0  0  0  0  0  0  0  0
  -25.8552   -1.6534   29.6136 N   0  0  0  0  0  0  0  0  0  0  0  0
  -28.1381   -1.8885   30.9026 C   0  0  0  0  0  0  0  0  0  0  0  0
  -24.4999   -1.7721   29.7313 C   0  0  0  0  0  0  0  0  0  0  0  0
  -26.6500   -2.4274   30.6196 C   0  0  0  0  0  0  0  0  0  0  0  0
  -23.7782   -0.6158   30.2709 C   0  0  0  0  0  0  0  0  0  0  0  0
  -22.5709   -0.2769   29.7173 C   0  0  0  0  0  0  0  0  0  0  0  0
  -23.8448   -2.0125   28.4124 C   0  0  0  0  0  0  0  0  0  0  0  0
  -22.3571   -0.2641   28.7348 C   0  0  0  0  0  0  0  0  0  0  0  0
  -22.8011   -1.3457   27.9354 C   0  0  0  0  0  0  0  0  0  0  0  0
  -25.7926   -0.3327   27.9140 O   0  0  0  0  0  0  0  0  0  0  0  0
  -28.7488   -2.3802   31.8238 F   0  0  0  0  0  0  0  0  0  0  0  0
  1  2  1  0
  1  3  1  0
  3  4  1  0
  2  5  1  0
  4  6  1  0
  4  7  1  0
  5  7  1  0
  3 13  2  0
  5 14  1  0
  6  8  2  0
  8  9  1  0
  9 11  2  0
 11 12  1  0
 12 10  2  0
 10  6  1  0
M  END

$$$$
