No_1223-gen_results/8p0m/2024-11-27-11-27-31/
     RDKit          3D

 13 13  0  0  0  0  0  0  0  0999 V2000
  -28.0162   -0.8135   28.8779 C   0  0  0  0  0  0  0  0  0  0  0  0
  -27.0636   -0.1189   28.6079 C   0  0  0  0  0  0  0  0  0  0  0  0
  -26.9716    0.7139   27.5060 C   0  0  0  0  0  0  0  0  0  0  0  0
  -25.8206    1.4910   27.1160 C   0  0  0  0  0  0  0  0  0  0  0  0
  -24.6562    1.4242   27.9180 C   0  0  0  0  0  0  0  0  0  0  0  0
  -24.6847    0.5901   29.0659 C   0  0  0  0  0  0  0  0  0  0  0  0
  -25.8099   -0.1265   29.3338 C   0  0  0  0  0  0  0  0  0  0  0  0
  -27.9680   -1.6901   30.0059 N   0  0  0  0  0  0  0  0  0  0  0  0
  -23.4715    2.1888   27.6131 C   0  0  0  0  0  0  0  0  0  0  0  0
  -23.2745    2.6995   26.5020 O   0  0  0  0  0  0  0  0  0  0  0  0
  -22.4242    2.2527   28.4927 N   0  0  0  0  0  0  0  0  0  0  0  0
  -29.0635   -2.3504   30.4811 C   0  0  0  0  0  0  0  0  0  0  0  0
  -28.8408   -3.5530   31.3630 C   0  0  0  0  0  0  0  0  0  0  0  0
  1  8  1  0
  5  9  1  0
  9 10  2  0
  9 11  1  0
  8 12  2  3
 12 13  1  0
  1  2  1  0
  2  3  2  0
  3  4  1  0
  4  5  2  0
  5  6  1  0
  6  7  2  0
  7  2  1  0
M  END

$$$$
