No_1984-gen_results/8p0m/2024-11-27-11-27-31/
     RDKit          3D

 12 13  0  0  0  0  0  0  0  0999 V2000
  -28.0162   -0.8135   28.8779 C   0  0  0  0  0  0  0  0  0  0  0  0
  -28.4690   -0.7850   29.8287 C   0  0  0  0  0  0  0  0  0  0  0  0
  -27.1356    0.2359   28.5352 C   0  0  0  0  0  0  0  0  0  0  0  0
  -26.8050    1.0509   29.2763 C   0  0  0  0  0  0  0  0  0  0  0  0
  -28.2372    0.1503   30.9300 C   0  0  0  0  0  0  0  0  0  0  0  0
  -27.3522    1.1239   30.6071 C   0  0  0  0  0  0  0  0  0  0  0  0
  -26.4705    0.1962   27.1308 C   0  0  0  0  0  0  0  0  0  0  0  0
  -25.0393    0.1871   27.1090 C   0  0  0  0  0  0  0  0  0  0  0  0
  -27.1793    0.3412   25.9392 C   0  0  0  0  0  0  0  0  0  0  0  0
  -26.5603    0.2965   24.7486 C   0  0  0  0  0  0  0  0  0  0  0  0
  -24.4175    0.2871   25.8785 C   0  0  0  0  0  0  0  0  0  0  0  0
  -25.1798    0.2597   24.7040 C   0  0  0  0  0  0  0  0  0  0  0  0
  3  7  1  0
  7  8  2  0
  8 11  1  0
 11 12  2  0
 12 10  1  0
 10  9  2  0
  9  7  1  0
  1  2  2  0
  2  5  1  0
  5  6  2  0
  6  4  1  0
  4  3  2  0
  3  1  1  0
M  END

$$$$
