No_1290-gen_results/8p0m/2024-11-27-11-27-31/
     RDKit          3D

 11 12  0  0  0  0  0  0  0  0999 V2000
  -28.1493   -0.8198   28.9079 Cl  0  0  0  0  0  0  0  0  0  0  0  0
  -27.8339    0.4961   29.0598 C   0  0  0  0  0  0  0  0  0  0  0  0
  -27.6022    1.0128   30.2974 C   0  0  0  0  0  0  0  0  0  0  0  0
  -27.1451    2.3729   30.4401 C   0  0  0  0  0  0  0  0  0  0  0  0
  -26.8861    3.1358   29.2778 C   0  0  0  0  0  0  0  0  0  0  0  0
  -27.0434    2.5541   28.0610 C   0  0  0  0  0  0  0  0  0  0  0  0
  -27.4682    1.2781   27.9400 C   0  0  0  0  0  0  0  0  0  0  0  0
  -27.5987    0.7569   26.5787 C   0  0  0  0  0  0  0  0  0  0  0  0
  -26.6079    0.9838   25.6122 C   0  0  0  0  0  0  0  0  0  0  0  0
  -25.4221    1.6838   26.0433 C   0  0  0  0  0  0  0  0  0  0  0  0
  -25.7156    2.7200   27.0876 C   0  0  0  0  0  0  0  0  0  0  0  0
  1  2  1  0
  2  3  2  0
  3  4  1  0
  4  5  2  0
  5  6  1  0
  7  2  1  0
  6  7  2  0
  7  8  1  0
  8  9  2  0
  9 10  1  0
 10 11  2  0
 11  6  1  0
M  END

$$$$
