No_1765-gen_results/8p0m/2024-11-27-11-27-31/
     RDKit          3D

 30 32  0  0  0  0  0  0  0  0999 V2000
  -28.0544   -1.0498   28.7246 N   0  0  0  0  0  0  0  0  0  0  0  0
  -28.6544   -0.5669   29.5076 C   0  0  0  0  0  0  0  0  0  0  0  0
  -26.7777   -0.5807   28.6029 C   0  0  0  0  0  0  0  0  0  0  0  0
  -25.9635   -0.6759   27.6551 C   0  0  0  0  0  0  0  0  0  0  0  0
  -24.5712   -0.1771   27.6912 C   0  0  0  0  0  0  0  0  0  0  0  0
  -24.1250    0.3842   28.9013 C   0  0  0  0  0  0  0  0  0  0  0  0
  -25.9426   -0.0160   29.7708 C   0  0  0  0  0  0  0  0  0  0  0  0
  -24.8485    0.4232   29.9598 C   0  0  0  0  0  0  0  0  0  0  0  0
  -30.1137   -0.9966   29.5446 C   0  0  0  0  0  0  0  0  0  0  0  0
  -28.5009    0.1897   30.5694 O   0  0  0  0  0  0  0  0  0  0  0  0
  -22.6688    0.8610   28.7896 C   0  0  0  0  0  0  0  0  0  0  0  0
  -21.7172    0.3867   29.3266 O   0  0  0  0  0  0  0  0  0  0  0  0
  -22.4493    1.8824   27.8749 O   0  0  0  0  0  0  0  0  0  0  0  0
  -30.8575   -0.4554   30.4058 O   0  0  0  0  0  0  0  0  0  0  0  0
  -30.5517   -1.7835   28.7080 O   0  0  0  0  0  0  0  0  0  0  0  0
  -24.3304    1.0457   31.1838 C   0  0  0  0  0  0  0  0  0  0  0  0
  -25.0939    0.9595   32.3787 C   0  0  0  0  0  0  0  0  0  0  0  0
  -25.6988    2.0859   32.9655 C   0  0  0  0  0  0  0  0  0  0  0  0
  -25.5144    3.3828   32.3722 C   0  0  0  0  0  0  0  0  0  0  0  0
  -26.4686    4.1313   31.9478 C   0  0  0  0  0  0  0  0  0  0  0  0
  -26.2267    5.2567   31.1750 C   0  0  0  0  0  0  0  0  0  0  0  0
  -26.6629    5.2284   29.8844 C   0  0  0  0  0  0  0  0  0  0  0  0
  -27.6177    4.4063   29.5530 C   0  0  0  0  0  0  0  0  0  0  0  0
  -28.1451    3.4384   30.4578 C   0  0  0  0  0  0  0  0  0  0  0  0
  -27.3990    3.2362   31.6220 C   0  0  0  0  0  0  0  0  0  0  0  0
  -25.1763   -0.2993   32.9970 C   0  0  0  0  0  0  0  0  0  0  0  0
  -26.0076   -0.4190   34.2228 C   0  0  0  0  0  0  0  0  0  0  0  0
  -26.5337    0.7243   34.8359 C   0  0  0  0  0  0  0  0  0  0  0  0
  -26.3847    1.9543   34.2283 C   0  0  0  0  0  0  0  0  0  0  0  0
  -28.3312    4.5467   28.2192 C   0  0  0  0  0  0  0  0  0  0  0  0
  1  2  1  0
  1  3  1  0
  2  9  1  0
  2 10  2  0
  6 11  1  0
 11 12  2  0
 11 13  1  0
  9 14  1  0
  9 15  2  0
  8 16  1  0
 16 17  1  0
 18 19  1  0
 23 30  1  0
 19 20  1  0
 20 21  2  0
 21 22  1  0
 22 23  2  0
 23 24  1  0
 24 25  2  0
 25 20  1  0
  3  4  2  0
  4  5  1  0
  5  6  2  0
  6  8  1  0
  8  7  2  0
  7  3  1  0
 17 18  2  0
 18 29  1  0
 29 28  2  0
 28 27  1  0
 27 26  2  0
 26 17  1  0
M  END

$$$$
