No_1588-gen_results/8p0m/2024-11-27-11-27-31/
     RDKit          3D

 25 28  0  0  0  0  0  0  0  0999 V2000
  -28.0162   -0.8135   28.8779 C   0  0  0  0  0  0  0  0  0  0  0  0
  -28.4690   -0.7850   29.8287 C   0  0  0  0  0  0  0  0  0  0  0  0
  -26.5455   -0.8762   28.8500 C   0  0  0  0  0  0  0  0  0  0  0  0
  -25.8041   -1.0324   30.0571 C   0  0  0  0  0  0  0  0  0  0  0  0
  -27.9437   -0.9869   31.2075 C   0  0  0  0  0  0  0  0  0  0  0  0
  -26.5825   -1.0386   31.2231 C   0  0  0  0  0  0  0  0  0  0  0  0
  -30.0279   -0.6588   29.6965 C   0  0  0  0  0  0  0  0  0  0  0  0
  -30.4353   -0.2357   28.7529 O   0  0  0  0  0  0  0  0  0  0  0  0
  -30.8388   -1.1077   30.7955 N   0  0  0  0  0  0  0  0  0  0  0  0
  -32.2498   -1.0053   30.6600 C   0  0  0  0  0  0  0  0  0  0  0  0
  -24.3716   -1.0975   30.0905 C   0  0  0  0  0  0  0  0  0  0  0  0
  -23.7280   -1.4302   30.7832 C   0  0  0  0  0  0  0  0  0  0  0  0
  -22.1999   -1.2521   30.8437 C   0  0  0  0  0  0  0  0  0  0  0  0
  -21.7077   -0.7179   29.6539 C   0  0  0  0  0  0  0  0  0  0  0  0
  -23.7235   -0.4639   28.8623 C   0  0  0  0  0  0  0  0  0  0  0  0
  -22.4518   -0.2786   28.7494 C   0  0  0  0  0  0  0  0  0  0  0  0
  -32.8763   -1.8095   31.3337 C   0  0  0  0  0  0  0  0  0  0  0  0
  -32.2912   -2.5317   32.2471 C   0  0  0  0  0  0  0  0  0  0  0  0
  -30.9185   -2.8268   32.3951 C   0  0  0  0  0  0  0  0  0  0  0  0
  -30.2220   -2.1112   31.5846 C   0  0  0  0  0  0  0  0  0  0  0  0
  -28.7568   -2.0711   31.8384 C   0  0  0  0  0  0  0  0  0  0  0  0
  -34.3924   -1.7012   31.3411 C   0  0  0  0  0  0  0  0  0  0  0  0
  -34.9958   -2.6151   31.5871 F   0  0  0  0  0  0  0  0  0  0  0  0
  -34.7158   -0.6066   32.1303 F   0  0  0  0  0  0  0  0  0  0  0  0
  -34.7302   -1.2999   30.0615 F   0  0  0  0  0  0  0  0  0  0  0  0
  2  7  1  0
  7  8  2  0
  7  9  1  0
  9 10  1  0
  4 11  1  0
 10 17  1  0
 17 18  1  0
  9 20  1  0
 19 20  1  0
  5 21  1  0
 20 21  1  0
 17 22  1  0
 22 23  1  0
 22 24  1  0
 22 25  1  0
 18 19  1  0
 11 12  2  0
 12 13  1  0
 13 14  2  0
 14 16  1  0
 16 15  2  0
 15 11  1  0
  1  2  2  0
  2  5  1  0
  5  6  2  0
  6  4  1  0
  4  3  2  0
  3  1  1  0
M  END

$$$$
