No_153-gen_results/8p0m/2024-11-27-11-27-31/
     RDKit          3D

 27 29  0  0  0  0  0  0  0  0999 V2000
  -28.0162   -0.8135   28.8779 C   0  0  0  0  0  0  0  0  0  0  0  0
  -27.0636   -0.1190   28.6079 C   0  0  0  0  0  0  0  0  0  0  0  0
  -26.9287    1.1713   29.0083 C   0  0  0  0  0  0  0  0  0  0  0  0
  -25.7702    2.0341   28.6884 C   0  0  0  0  0  0  0  0  0  0  0  0
  -24.7141    1.4431   27.9188 C   0  0  0  0  0  0  0  0  0  0  0  0
  -24.8590    0.0783   27.5836 C   0  0  0  0  0  0  0  0  0  0  0  0
  -25.9647   -0.6606   27.9164 C   0  0  0  0  0  0  0  0  0  0  0  0
  -28.6995   -0.6441   30.0766 N   0  0  0  0  0  0  0  0  0  0  0  0
  -29.8035   -1.3645   30.5061 C   0  0  0  0  0  0  0  0  0  0  0  0
  -30.3751   -2.1790   29.7448 C   0  0  0  0  0  0  0  0  0  0  0  0
  -30.4580   -3.5170   30.2214 C   0  0  0  0  0  0  0  0  0  0  0  0
  -29.4448   -4.0488   30.5743 O   0  0  0  0  0  0  0  0  0  0  0  0
  -31.5976   -4.2633   30.1593 N   0  0  0  0  0  0  0  0  0  0  0  0
  -23.5285    2.1592   27.5666 C   0  0  0  0  0  0  0  0  0  0  0  0
  -22.6817    1.6551   27.1662 F   0  0  0  0  0  0  0  0  0  0  0  0
  -23.1387    2.9328   28.6750 F   0  0  0  0  0  0  0  0  0  0  0  0
  -23.9420    3.1983   26.7069 F   0  0  0  0  0  0  0  0  0  0  0  0
  -32.8304   -3.8099   29.6051 C   0  0  0  0  0  0  0  0  0  0  0  0
  -33.4548   -4.5996   28.9940 C   0  0  0  0  0  0  0  0  0  0  0  0
  -33.0198   -5.2929   28.1144 C   0  0  0  0  0  0  0  0  0  0  0  0
  -31.6181   -5.9480   28.3514 C   0  0  0  0  0  0  0  0  0  0  0  0
  -31.4117   -5.6592   29.8401 C   0  0  0  0  0  0  0  0  0  0  0  0
  -33.5403   -5.9253   26.8389 C   0  0  0  0  0  0  0  0  0  0  0  0
  -32.8807   -6.7837   26.1054 C   0  0  0  0  0  0  0  0  0  0  0  0
  -31.6211   -7.3450   26.5101 C   0  0  0  0  0  0  0  0  0  0  0  0
  -31.0118   -6.9329   27.6221 C   0  0  0  0  0  0  0  0  0  0  0  0
  -31.0294   -1.7208   28.7417 O   0  0  0  0  0  0  0  0  0  0  0  0
  1  2  1  0
  1  8  1  0
  8  9  1  0
  9 10  1  0
 10 11  1  0
 11 12  2  0
 11 13  1  0
  5 14  1  0
 14 15  1  0
 14 16  1  0
 14 17  1  0
 13 18  1  0
 19 20  1  0
 13 22  1  0
 21 22  1  0
 10 27  2  0
 18 19  1  0
  2  3  2  0
  3  4  1  0
  4  5  2  0
  5  6  1  0
  6  7  2  0
  7  2  1  0
 20 21  2  0
 21 26  1  0
 26 25  2  0
 25 24  1  0
 24 23  2  0
 23 20  1  0
M  END

$$$$
