No_103-gen_results/8p0m/2024-11-27-11-27-31/
     RDKit          3D

 27 29  0  0  0  0  0  0  0  0999 V2000
  -28.1493   -0.8198   28.9079 Cl  0  0  0  0  0  0  0  0  0  0  0  0
  -26.9116   -0.0797   28.9452 C   0  0  0  0  0  0  0  0  0  0  0  0
  -26.7384    1.0439   29.2534 C   0  0  0  0  0  0  0  0  0  0  0  0
  -27.8546    1.8906   29.5550 C   0  0  0  0  0  0  0  0  0  0  0  0
  -27.7153    3.2169   29.9194 C   0  0  0  0  0  0  0  0  0  0  0  0
  -26.3931    3.7972   29.9327 C   0  0  0  0  0  0  0  0  0  0  0  0
  -25.2601    2.9864   29.5933 C   0  0  0  0  0  0  0  0  0  0  0  0
  -25.4493    1.6785   29.3037 C   0  0  0  0  0  0  0  0  0  0  0  0
  -25.6254   -0.8845   28.5359 C   0  0  0  0  0  0  0  0  0  0  0  0
  -24.4084   -0.3295   28.3553 C   0  0  0  0  0  0  0  0  0  0  0  0
  -24.2215    1.0167   28.8542 C   0  0  0  0  0  0  0  0  0  0  0  0
  -23.0161    1.4912   28.8478 F   0  0  0  0  0  0  0  0  0  0  0  0
  -26.1413    5.2383   30.3232 C   0  0  0  0  0  0  0  0  0  0  0  0
  -25.7032    6.0435   29.4174 O   0  0  0  0  0  0  0  0  0  0  0  0
  -26.3730    5.6226   31.4761 O   0  0  0  0  0  0  0  0  0  0  0  0
  -25.9000    5.9834   28.1472 C   0  0  0  0  0  0  0  0  0  0  0  0
  -26.2925    7.0557   27.4929 C   0  0  0  0  0  0  0  0  0  0  0  0
  -25.4153    4.8999   27.3108 C   0  0  0  0  0  0  0  0  0  0  0  0
  -25.1087    4.5391   26.3476 C   0  0  0  0  0  0  0  0  0  0  0  0
  -26.1334    6.9537   26.0004 C   0  0  0  0  0  0  0  0  0  0  0  0
  -25.5143    5.8326   25.4154 C   0  0  0  0  0  0  0  0  0  0  0  0
  -24.6246    3.5192   25.5532 C   0  0  0  0  0  0  0  0  0  0  0  0
  -24.1223    2.3412   25.6291 C   0  0  0  0  0  0  0  0  0  0  0  0
  -23.6499    1.3583   24.9241 C   0  0  0  0  0  0  0  0  0  0  0  0
  -28.8594    4.0814   30.2456 C   0  0  0  0  0  0  0  0  0  0  0  0
  -29.3824    3.9447   31.2229 O   0  0  0  0  0  0  0  0  0  0  0  0
  -29.2027    4.8908   29.2614 O   0  0  0  0  0  0  0  0  0  0  0  0
  1  2  1  0
 11 12  1  0
  6 13  1  0
 13 14  1  0
 13 15  2  0
 14 16  1  0
 19 22  1  0
 22 23  2  3
 23 24  1  0
  5 25  1  0
 25 26  2  0
 25 27  1  0
  2  3  2  0
  8 11  2  0
 11 10  1  0
 10  9  2  0
  9  2  1  0
  3  4  1  0
  4  5  2  0
  5  6  1  0
  6  7  2  0
  7  8  1  0
  8  3  1  0
 16 17  2  0
 17 20  1  0
 20 21  2  0
 21 19  1  0
 19 18  2  0
 18 16  1  0
M  END

$$$$
