No_1041-gen_results/8p0m/2024-11-27-11-27-31/
     RDKit          3D

 25 26  0  0  0  0  0  0  0  0999 V2000
  -28.0162   -0.8135   28.8779 C   0  0  0  0  0  0  0  0  0  0  0  0
  -27.0636   -0.1189   28.6079 C   0  0  0  0  0  0  0  0  0  0  0  0
  -25.7923   -0.4302   29.0761 C   0  0  0  0  0  0  0  0  0  0  0  0
  -25.5756   -1.5654   29.9363 C   0  0  0  0  0  0  0  0  0  0  0  0
  -26.7354   -2.3004   30.2173 C   0  0  0  0  0  0  0  0  0  0  0  0
  -27.9184   -1.9537   29.7629 C   0  0  0  0  0  0  0  0  0  0  0  0
  -29.0001   -2.7012   30.1151 O   0  0  0  0  0  0  0  0  0  0  0  0
  -24.5290    0.3490   28.7998 C   0  0  0  0  0  0  0  0  0  0  0  0
  -24.1172    1.3368   29.6649 C   0  0  0  0  0  0  0  0  0  0  0  0
  -22.9715    2.1021   29.3757 C   0  0  0  0  0  0  0  0  0  0  0  0
  -22.1956    1.8326   28.1865 C   0  0  0  0  0  0  0  0  0  0  0  0
  -22.7138    0.9368   27.2972 C   0  0  0  0  0  0  0  0  0  0  0  0
  -23.8267    0.2198   27.5847 C   0  0  0  0  0  0  0  0  0  0  0  0
  -29.3573   -2.8220   31.4388 C   0  0  0  0  0  0  0  0  0  0  0  0
  -30.7231   -2.7067   31.6403 C   0  0  0  0  0  0  0  0  0  0  0  0
  -31.4811   -2.2259   30.6887 C   0  0  0  0  0  0  0  0  0  0  0  0
  -31.1397   -1.0879   30.0939 C   0  0  0  0  0  0  0  0  0  0  0  0
  -32.2094   -0.0790   29.9504 C   0  0  0  0  0  0  0  0  0  0  0  0
  -31.9314    0.9829   29.1903 C   0  0  0  0  0  0  0  0  0  0  0  0
  -30.7435    1.1625   28.5388 C   0  0  0  0  0  0  0  0  0  0  0  0
  -30.6386    1.7125   27.6403 C   0  0  0  0  0  0  0  0  0  0  0  0
  -31.5744    2.6705   27.1342 C   0  0  0  0  0  0  0  0  0  0  0  0
  -31.3682    3.4341   25.9813 C   0  0  0  0  0  0  0  0  0  0  0  0
  -30.1909    3.1834   25.1841 C   0  0  0  0  0  0  0  0  0  0  0  0
  -29.2059    2.2921   25.5654 C   0  0  0  0  0  0  0  0  0  0  0  0
  6  7  1  0
  3  8  1  0
  7 14  1  0
 14 15  1  0
 15 16  1  0
 16 17  1  0
 17 18  1  0
 18 19  2  3
 19 20  1  0
 20 21  2  3
 21 22  1  0
 22 23  2  3
 23 24  1  0
 24 25  2  0
  1  2  2  0
  2  3  1  0
  3  4  2  0
  4  5  1  0
  5  6  2  0
  6  1  1  0
  8  9  2  0
  9 10  1  0
 10 11  2  0
 11 12  1  0
 12 13  2  0
 13  8  1  0
M  END

$$$$
