No_1572-gen_results/8p0m/2024-11-27-11-27-31/
     RDKit          3D

 25 28  0  0  0  0  0  0  0  0999 V2000
  -28.0162   -0.8135   28.8779 C   0  0  0  0  0  0  0  0  0  0  0  0
  -28.4690   -0.7850   29.8287 C   0  0  0  0  0  0  0  0  0  0  0  0
  -26.5455   -0.8762   28.8500 C   0  0  0  0  0  0  0  0  0  0  0  0
  -25.8041   -1.0324   30.0571 C   0  0  0  0  0  0  0  0  0  0  0  0
  -27.9437   -0.9869   31.2075 C   0  0  0  0  0  0  0  0  0  0  0  0
  -26.5825   -1.0386   31.2231 C   0  0  0  0  0  0  0  0  0  0  0  0
  -29.9648   -0.7353   29.8902 N   0  0  0  0  0  0  0  0  0  0  0  0
  -30.7710   -1.5353   30.3549 C   0  0  0  0  0  0  0  0  0  0  0  0
  -30.4814   -2.5338   30.9481 C   0  0  0  0  0  0  0  0  0  0  0  0
  -31.4460   -3.5884   31.4600 C   0  0  0  0  0  0  0  0  0  0  0  0
  -32.7028   -3.2127   31.2217 C   0  0  0  0  0  0  0  0  0  0  0  0
  -32.1672   -1.3752   30.1789 C   0  0  0  0  0  0  0  0  0  0  0  0
  -33.0877   -2.1674   30.5698 C   0  0  0  0  0  0  0  0  0  0  0  0
  -30.3680    0.4787   29.1492 C   0  0  0  0  0  0  0  0  0  0  0  0
  -30.5956    0.4629   27.8102 C   0  0  0  0  0  0  0  0  0  0  0  0
  -31.0117    1.5634   27.2144 C   0  0  0  0  0  0  0  0  0  0  0  0
  -30.6575    1.5872   29.9219 C   0  0  0  0  0  0  0  0  0  0  0  0
  -31.0934    2.7443   29.3481 C   0  0  0  0  0  0  0  0  0  0  0  0
  -31.2923    2.7408   27.9625 C   0  0  0  0  0  0  0  0  0  0  0  0
  -25.5520   -0.7521   27.4257 Cl  0  0  0  0  0  0  0  0  0  0  0  0
  -31.2081    1.5886   25.7384 C   0  0  0  0  0  0  0  0  0  0  0  0
  -30.5211    0.8136   24.9908 C   0  0  0  0  0  0  0  0  0  0  0  0
  -29.4889   -0.0082   25.5552 C   0  0  0  0  0  0  0  0  0  0  0  0
  -29.6587   -0.3519   26.9616 C   0  0  0  0  0  0  0  0  0  0  0  0
  -31.9743    4.1141   27.2062 Cl  0  0  0  0  0  0  0  0  0  0  0  0
  2  7  1  0
  7  8  1  0
  7 14  1  0
  3 20  1  0
 19 25  1  0
 16 21  1  0
 21 22  2  0
 22 23  1  0
 23 24  2  0
 24 15  1  0
  1  2  2  0
  2  5  1  0
  5  6  2  0
  6  4  1  0
  4  3  2  0
  3  1  1  0
 14 15  2  0
 15 16  1  0
 16 19  2  0
 19 18  1  0
 18 17  2  0
 17 14  1  0
  8  9  2  0
  9 10  1  0
 10 11  2  0
 11 13  1  0
 13 12  2  0
 12  8  1  0
M  END

$$$$
