No_1795-gen_results/8p0m/2024-11-27-11-27-31/
     RDKit          3D

 23 25  0  0  0  0  0  0  0  0999 V2000
  -28.0162   -0.8135   28.8779 C   0  0  0  0  0  0  0  0  0  0  0  0
  -28.4690   -0.7850   29.8287 C   0  0  0  0  0  0  0  0  0  0  0  0
  -26.5042   -0.7777   28.8766 C   0  0  0  0  0  0  0  0  0  0  0  0
  -25.8103   -0.8531   30.1028 C   0  0  0  0  0  0  0  0  0  0  0  0
  -27.9906   -0.8916   31.2257 C   0  0  0  0  0  0  0  0  0  0  0  0
  -26.6042   -0.8676   31.2652 C   0  0  0  0  0  0  0  0  0  0  0  0
  -29.9385   -0.8194   29.8358 O   0  0  0  0  0  0  0  0  0  0  0  0
  -30.5356   -0.1119   28.9448 C   0  0  0  0  0  0  0  0  0  0  0  0
  -31.4501   -0.5433   28.1111 C   0  0  0  0  0  0  0  0  0  0  0  0
  -31.8722   -1.9167   28.3390 C   0  0  0  0  0  0  0  0  0  0  0  0
  -32.7506   -2.5838   27.3852 C   0  0  0  0  0  0  0  0  0  0  0  0
  -33.0066   -3.9499   27.5007 C   0  0  0  0  0  0  0  0  0  0  0  0
  -33.6033   -4.6049   26.4748 C   0  0  0  0  0  0  0  0  0  0  0  0
  -34.0211   -3.9128   25.3021 C   0  0  0  0  0  0  0  0  0  0  0  0
  -33.6765   -2.6107   25.1518 C   0  0  0  0  0  0  0  0  0  0  0  0
  -32.9155   -1.9512   26.1657 C   0  0  0  0  0  0  0  0  0  0  0  0
  -32.5853    0.1849   27.7535 C   0  0  0  0  0  0  0  0  0  0  0  0
  -30.6240    1.3200   29.1815 C   0  0  0  0  0  0  0  0  0  0  0  0
  -31.3310    2.2028   28.5159 C   0  0  0  0  0  0  0  0  0  0  0  0
  -32.3631    1.6801   27.7267 C   0  0  0  0  0  0  0  0  0  0  0  0
  -33.3982    2.4770   27.0860 C   0  0  0  0  0  0  0  0  0  0  0  0
  -33.2323    3.4607   26.6222 O   0  0  0  0  0  0  0  0  0  0  0  0
  -34.6255    2.0985   27.3946 O   0  0  0  0  0  0  0  0  0  0  0  0
  2  7  1  0
  7  8  1  0
  9 10  1  0
 20 21  1  0
 21 22  2  0
 21 23  1  0
 10 11  1  0
 11 12  2  0
 12 13  1  0
 13 14  2  0
 14 15  1  0
 15 16  2  0
 16 11  1  0
  8  9  1  0
  9 17  2  0
 17 20  1  0
 20 19  2  0
 19 18  1  0
 18  8  2  0
  1  2  2  0
  2  5  1  0
  5  6  2  0
  6  4  1  0
  4  3  2  0
  3  1  1  0
M  END

$$$$
