No_1018-gen_results/8p0m/2024-11-27-11-27-31/
     RDKit          3D

 13 13  0  0  0  0  0  0  0  0999 V2000
  -28.0162   -0.8135   28.8779 C   0  0  0  0  0  0  0  0  0  0  0  0
  -27.0636   -0.1189   28.6079 C   0  0  0  0  0  0  0  0  0  0  0  0
  -26.9716    0.7139   27.5060 C   0  0  0  0  0  0  0  0  0  0  0  0
  -25.8205    1.4909   27.1160 C   0  0  0  0  0  0  0  0  0  0  0  0
  -24.8579    1.3421   27.6008 C   0  0  0  0  0  0  0  0  0  0  0  0
  -24.6224    0.5295   28.8144 C   0  0  0  0  0  0  0  0  0  0  0  0
  -23.3412    0.3976   29.5010 C   0  0  0  0  0  0  0  0  0  0  0  0
  -25.7444   -0.2202   29.2289 C   0  0  0  0  0  0  0  0  0  0  0  0
  -23.2738    0.2784   30.8350 C   0  0  0  0  0  0  0  0  0  0  0  0
  -22.1126    0.4001   28.7436 C   0  0  0  0  0  0  0  0  0  0  0  0
  -29.2092   -0.0765   29.3287 C   0  0  0  0  0  0  0  0  0  0  0  0
  -30.1744   -0.7641   29.7253 O   0  0  0  0  0  0  0  0  0  0  0  0
  -29.2928    1.1263   29.2551 O   0  0  0  0  0  0  0  0  0  0  0  0
  1  2  2  3
  2  3  1  0
  3  4  1  0
  4  5  1  0
  5  6  1  0
  6  7  1  0
  2  8  1  0
  6  8  1  0
  7  9  1  0
  7 10  1  0
  1 11  1  0
 11 12  1  0
 11 13  2  0
M  END

$$$$
