No_1723-gen_results/8p0m/2024-11-27-11-27-31/
     RDKit          3D

 18 20  0  0  0  0  0  0  0  0999 V2000
  -28.0162   -0.8135   28.8779 C   0  0  0  0  0  0  0  0  0  0  0  0
  -27.0636   -0.1189   28.6079 C   0  0  0  0  0  0  0  0  0  0  0  0
  -25.7923   -0.4302   29.0761 C   0  0  0  0  0  0  0  0  0  0  0  0
  -25.5756   -1.5654   29.9363 C   0  0  0  0  0  0  0  0  0  0  0  0
  -26.7354   -2.3004   30.2173 C   0  0  0  0  0  0  0  0  0  0  0  0
  -27.9184   -1.9537   29.7629 C   0  0  0  0  0  0  0  0  0  0  0  0
  -27.1057    1.1023   27.7593 C   0  0  0  0  0  0  0  0  0  0  0  0
  -26.1219    1.4820   27.0232 C   0  0  0  0  0  0  0  0  0  0  0  0
  -24.7142    1.1299   27.4889 C   0  0  0  0  0  0  0  0  0  0  0  0
  -24.5718    0.0966   28.4066 C   0  0  0  0  0  0  0  0  0  0  0  0
  -23.5476    1.7679   26.9015 C   0  0  0  0  0  0  0  0  0  0  0  0
  -22.3959    1.9123   27.7199 C   0  0  0  0  0  0  0  0  0  0  0  0
  -22.1510    0.9229   28.7176 C   0  0  0  0  0  0  0  0  0  0  0  0
  -23.3115   -0.4163   28.5536 C   0  0  0  0  0  0  0  0  0  0  0  0
  -28.4655    1.6685   27.5826 C   0  0  0  0  0  0  0  0  0  0  0  0
  -28.6080    2.0857   26.4583 F   0  0  0  0  0  0  0  0  0  0  0  0
  -29.4256    0.8097   27.8496 F   0  0  0  0  0  0  0  0  0  0  0  0
  -28.5537    2.7045   28.4579 F   0  0  0  0  0  0  0  0  0  0  0  0
  7 15  1  0
 15 16  1  0
 15 17  1  0
 15 18  1  0
  1  2  2  0
  3  4  2  0
  4  5  1  0
  5  6  2  0
  6  1  1  0
  2  3  1  0
  3 10  1  0
  9  8  1  0
  8  7  2  0
  7  2  1  0
  9 10  2  0
 10 14  1  0
 14 13  2  0
 13 12  1  0
 12 11  2  0
 11  9  1  0
M  END

$$$$
