No_1407-gen_results/8p0m/2024-11-27-11-27-31/
     RDKit          3D

 17 18  0  0  0  0  0  0  0  0999 V2000
  -28.0162   -0.8135   28.8779 C   0  0  0  0  0  0  0  0  0  0  0  0
  -27.0636   -0.1189   28.6079 C   0  0  0  0  0  0  0  0  0  0  0  0
  -26.8756    1.1325   28.9134 C   0  0  0  0  0  0  0  0  0  0  0  0
  -25.6883    1.9515   28.5672 C   0  0  0  0  0  0  0  0  0  0  0  0
  -24.6394    1.2834   27.8753 C   0  0  0  0  0  0  0  0  0  0  0  0
  -24.8181   -0.0802   27.6166 C   0  0  0  0  0  0  0  0  0  0  0  0
  -25.9311   -0.7717   27.9696 C   0  0  0  0  0  0  0  0  0  0  0  0
  -27.9999   -1.6138   30.0712 N   0  0  0  0  0  0  0  0  0  0  0  0
  -23.4537    1.9616   27.4722 C   0  0  0  0  0  0  0  0  0  0  0  0
  -22.3356    2.3113   27.9404 N   0  0  0  0  0  0  0  0  0  0  0  0
  -23.5864    2.4612   25.9959 C   0  0  0  0  0  0  0  0  0  0  0  0
  -29.0518   -2.3984   30.5284 C   0  0  0  0  0  0  0  0  0  0  0  0
  -29.5151   -3.3148   30.0717 C   0  0  0  0  0  0  0  0  0  0  0  0
  -29.9518   -4.1322   30.6251 C   0  0  0  0  0  0  0  0  0  0  0  0
  -30.4986   -4.0644   31.9760 C   0  0  0  0  0  0  0  0  0  0  0  0
  -30.0823   -2.9720   32.6756 C   0  0  0  0  0  0  0  0  0  0  0  0
  -29.1841   -2.0806   31.9786 C   0  0  0  0  0  0  0  0  0  0  0  0
  1  8  1  0
  5  9  1  0
  9 10  2  0
  9 11  1  0
  8 12  1  0
  1  2  1  0
 12 13  2  0
 13 14  1  0
 14 15  2  0
 15 16  1  0
 16 17  2  0
 17 12  1  0
  2  3  2  0
  3  4  1  0
  4  5  2  0
  5  6  1  0
  6  7  2  0
  7  2  1  0
M  END

$$$$
