No_1479-gen_results/8p0m/2024-11-27-11-27-31/
     RDKit          3D

 32 33  0  0  0  0  0  0  0  0999 V2000
  -28.0162   -0.8135   28.8779 C   0  0  0  0  0  0  0  0  0  0  0  0
  -27.0636   -0.1189   28.6079 C   0  0  0  0  0  0  0  0  0  0  0  0
  -26.9287    1.1713   29.0083 C   0  0  0  0  0  0  0  0  0  0  0  0
  -25.7702    2.0341   28.6884 C   0  0  0  0  0  0  0  0  0  0  0  0
  -24.7141    1.4431   27.9188 C   0  0  0  0  0  0  0  0  0  0  0  0
  -24.8590    0.0783   27.5836 C   0  0  0  0  0  0  0  0  0  0  0  0
  -25.9647   -0.6606   27.9164 C   0  0  0  0  0  0  0  0  0  0  0  0
  -29.0591   -0.5087   28.2818 F   0  0  0  0  0  0  0  0  0  0  0  0
  -27.9950   -1.8369   29.6552 F   0  0  0  0  0  0  0  0  0  0  0  0
  -23.5400    2.1438   27.5689 C   0  0  0  0  0  0  0  0  0  0  0  0
  -22.3778    2.1966   27.9276 N   0  0  0  0  0  0  0  0  0  0  0  0
  -23.7748    2.9183   26.4172 O   0  0  0  0  0  0  0  0  0  0  0  0
  -21.9315    1.2128   28.8996 C   0  0  0  0  0  0  0  0  0  0  0  0
  -20.8234    0.3685   28.3798 C   0  0  0  0  0  0  0  0  0  0  0  0
  -22.5931    0.9921   29.8896 O   0  0  0  0  0  0  0  0  0  0  0  0
  -25.6979    3.4195   29.1051 C   0  0  0  0  0  0  0  0  0  0  0  0
  -26.4094    4.2925   28.5169 O   0  0  0  0  0  0  0  0  0  0  0  0
  -25.0905    3.6531   30.2304 O   0  0  0  0  0  0  0  0  0  0  0  0
  -25.6860    4.4859   31.1583 C   0  0  0  0  0  0  0  0  0  0  0  0
  -25.3507    5.7333   31.1310 C   0  0  0  0  0  0  0  0  0  0  0  0
  -25.7704    6.6028   30.2988 C   0  0  0  0  0  0  0  0  0  0  0  0
  -25.3485    8.0207   30.2254 C   0  0  0  0  0  0  0  0  0  0  0  0
  -24.5137    8.5017   31.2521 C   0  0  0  0  0  0  0  0  0  0  0  0
  -24.4546    6.3033   32.2278 C   0  0  0  0  0  0  0  0  0  0  0  0
  -24.0746    7.6410   32.2666 C   0  0  0  0  0  0  0  0  0  0  0  0
  -27.0821    4.1060   31.4936 C   0  0  0  0  0  0  0  0  0  0  0  0
  -27.2686    3.9405   33.0152 C   0  0  0  0  0  0  0  0  0  0  0  0
  -26.3588    3.5517   33.7142 C   0  0  0  0  0  0  0  0  0  0  0  0
  -28.5622    4.3135   33.3902 C   0  0  0  0  0  0  0  0  0  0  0  0
  -29.5305    4.8505   32.6591 C   0  0  0  0  0  0  0  0  0  0  0  0
  -26.5750    3.3069   35.1533 C   0  0  0  0  0  0  0  0  0  0  0  0
  -27.8171    3.6427   35.6644 C   0  0  0  0  0  0  0  0  0  0  0  0
  1  2  1  0
  1  8  1  0
  1  9  1  0
  5 10  1  0
 10 11  1  0
 10 12  2  0
 11 13  1  0
 13 14  1  0
 13 15  2  0
  4 16  1  0
 16 17  2  0
 16 18  1  0
 18 19  1  0
 19 20  1  0
 19 26  1  0
 26 27  1  0
 27 28  1  0
 27 29  1  0
 29 30  2  0
 28 31  2  3
 31 32  1  0
  2  3  2  0
  3  4  1  0
  4  5  2  0
  5  6  1  0
  6  7  2  0
  7  2  1  0
 20 21  2  0
 21 22  1  0
 22 23  2  0
 23 25  1  0
 25 24  2  0
 24 20  1  0
M  END

$$$$
