No_181-gen_results/8p0m/2024-11-27-11-27-31/
     RDKit          3D

 35 38  0  0  0  0  0  0  0  0999 V2000
  -28.0162   -0.8135   28.8779 C   0  0  0  0  0  0  0  0  0  0  0  0
  -27.0636   -0.1190   28.6079 C   0  0  0  0  0  0  0  0  0  0  0  0
  -26.9287    1.1713   29.0083 C   0  0  0  0  0  0  0  0  0  0  0  0
  -25.7702    2.0341   28.6884 C   0  0  0  0  0  0  0  0  0  0  0  0
  -24.7141    1.4431   27.9188 C   0  0  0  0  0  0  0  0  0  0  0  0
  -24.8590    0.0783   27.5836 C   0  0  0  0  0  0  0  0  0  0  0  0
  -25.9647   -0.6606   27.9164 C   0  0  0  0  0  0  0  0  0  0  0  0
  -27.9820   -1.6112   30.1028 N   0  0  0  0  0  0  0  0  0  0  0  0
  -23.5351    2.1704   27.5550 C   0  0  0  0  0  0  0  0  0  0  0  0
  -22.4638    1.6493   27.0986 N   0  0  0  0  0  0  0  0  0  0  0  0
  -23.7619    3.4100   27.2000 O   0  0  0  0  0  0  0  0  0  0  0  0
  -29.2102   -0.5847   28.5087 O   0  0  0  0  0  0  0  0  0  0  0  0
  -29.0441   -2.4905   30.5751 C   0  0  0  0  0  0  0  0  0  0  0  0
  -26.6890   -1.8894   30.7765 C   0  0  0  0  0  0  0  0  0  0  0  0
  -29.4078   -2.1596   31.8796 C   0  0  0  0  0  0  0  0  0  0  0  0
  -28.7512   -1.0340   32.3612 C   0  0  0  0  0  0  0  0  0  0  0  0
  -27.2415   -1.1540   32.3626 C   0  0  0  0  0  0  0  0  0  0  0  0
  -26.5081    0.0237   32.5020 O   0  0  0  0  0  0  0  0  0  0  0  0
  -29.2956   -3.3870   32.7637 C   0  0  0  0  0  0  0  0  0  0  0  0
  -30.1411   -4.4160   32.2164 C   0  0  0  0  0  0  0  0  0  0  0  0
  -30.5846   -4.4573   31.0119 C   0  0  0  0  0  0  0  0  0  0  0  0
  -31.3195   -5.5282   30.4135 C   0  0  0  0  0  0  0  0  0  0  0  0
  -31.5565   -5.5065   29.0408 C   0  0  0  0  0  0  0  0  0  0  0  0
  -30.0734   -3.3755   30.1015 C   0  0  0  0  0  0  0  0  0  0  0  0
  -31.2359   -4.4070   28.3109 C   0  0  0  0  0  0  0  0  0  0  0  0
  -31.5833   -4.3478   27.0417 O   0  0  0  0  0  0  0  0  0  0  0  0
  -30.4882   -3.3903   28.9419 C   0  0  0  0  0  0  0  0  0  0  0  0
  -25.1884   -0.0073   32.4028 C   0  0  0  0  0  0  0  0  0  0  0  0
  -24.6589    0.5689   31.2428 C   0  0  0  0  0  0  0  0  0  0  0  0
  -23.2372    0.3602   30.9618 C   0  0  0  0  0  0  0  0  0  0  0  0
  -30.4476   -5.5129   33.2158 C   0  0  0  0  0  0  0  0  0  0  0  0
  -29.7513   -6.6583   33.1956 C   0  0  0  0  0  0  0  0  0  0  0  0
  -31.4992   -5.3755   34.1247 C   0  0  0  0  0  0  0  0  0  0  0  0
  -32.1371   -4.2013   34.3577 C   0  0  0  0  0  0  0  0  0  0  0  0
  -33.2381   -4.1274   35.2278 C   0  0  0  0  0  0  0  0  0  0  0  0
  1  2  1  0
  1  8  1  0
  5  9  1  0
  9 10  1  0
  9 11  2  0
  1 12  2  0
  8 13  1  0
  8 14  1  0
 13 15  1  0
 15 16  1  0
 14 17  1  0
 16 17  1  0
 17 18  1  0
 15 19  1  0
 19 20  1  0
 20 21  1  0
 13 24  1  0
 25 26  1  0
 18 28  1  0
 28 29  1  0
 29 30  2  0
 20 31  1  0
 31 32  1  0
 31 33  1  0
 33 34  2  3
 34 35  1  0
  2  3  2  0
  3  4  1  0
  4  5  2  0
  5  6  1  0
  6  7  2  0
  7  2  1  0
 21 22  2  0
 22 23  1  0
 23 25  2  0
 25 27  1  0
 27 24  2  0
 24 21  1  0
M  END

$$$$
