No_1431-gen_results/8p0m/2024-11-27-11-27-31/
     RDKit          3D

 15 15  0  0  0  0  0  0  0  0999 V2000
  -28.0162   -0.8135   28.8779 C   0  0  0  0  0  0  0  0  0  0  0  0
  -28.4690   -0.7850   29.8287 C   0  0  0  0  0  0  0  0  0  0  0  0
  -28.1816    0.4277   28.1134 C   0  0  0  0  0  0  0  0  0  0  0  0
  -27.0280    0.9338   27.5279 C   0  0  0  0  0  0  0  0  0  0  0  0
  -29.8654   -0.6573   30.0468 C   0  0  0  0  0  0  0  0  0  0  0  0
  -30.2490    0.4806   29.5488 F   0  0  0  0  0  0  0  0  0  0  0  0
  -30.2407   -0.7376   31.4554 O   0  0  0  0  0  0  0  0  0  0  0  0
  -25.8677    0.7961   28.2511 C   0  0  0  0  0  0  0  0  0  0  0  0
  -25.3240    1.5085   28.9094 C   0  0  0  0  0  0  0  0  0  0  0  0
  -24.0149    1.3350   29.5867 C   0  0  0  0  0  0  0  0  0  0  0  0
  -23.3898    0.4669   29.2928 C   0  0  0  0  0  0  0  0  0  0  0  0
  -23.7730   -0.6108   28.4678 C   0  0  0  0  0  0  0  0  0  0  0  0
  -25.0660   -0.4412   27.8634 C   0  0  0  0  0  0  0  0  0  0  0  0
  -30.5443   -1.6325   29.4694 F   0  0  0  0  0  0  0  0  0  0  0  0
  -27.1198    1.6133   26.3090 C   0  0  0  0  0  0  0  0  0  0  0  0
  1  2  1  0
  1  3  1  0
  3  4  1  0
  2  5  1  0
  5  6  1  0
  5  7  1  0
  4  8  1  0
  5 14  1  0
  4 15  1  0
  8  9  2  0
  9 10  1  0
 10 11  2  0
 11 12  1  0
 12 13  2  0
 13  8  1  0
M  END

$$$$
