No_1436-gen_results/8p0m/2024-11-27-11-27-31/
     RDKit          3D

 30 32  0  0  0  0  0  0  0  0999 V2000
  -28.0162   -0.8135   28.8779 C   0  0  0  0  0  0  0  0  0  0  0  0
  -27.0636   -0.1189   28.6079 C   0  0  0  0  0  0  0  0  0  0  0  0
  -27.0010    0.6913   27.4910 C   0  0  0  0  0  0  0  0  0  0  0  0
  -28.1373    0.7363   26.6350 C   0  0  0  0  0  0  0  0  0  0  0  0
  -29.2360    0.0765   27.0690 C   0  0  0  0  0  0  0  0  0  0  0  0
  -29.2177   -0.6429   28.1747 C   0  0  0  0  0  0  0  0  0  0  0  0
  -30.4152    0.1590   26.1820 C   0  0  0  0  0  0  0  0  0  0  0  0
  -31.2774   -0.5117   26.4083 O   0  0  0  0  0  0  0  0  0  0  0  0
  -30.2201    0.6553   24.9449 O   0  0  0  0  0  0  0  0  0  0  0  0
  -25.7108   -0.1989   29.4316 C   0  0  0  0  0  0  0  0  0  0  0  0
  -24.5789   -0.6035   28.8778 C   0  0  0  0  0  0  0  0  0  0  0  0
  -23.3316   -0.6478   29.5433 C   0  0  0  0  0  0  0  0  0  0  0  0
  -22.1241   -0.9084   28.8483 C   0  0  0  0  0  0  0  0  0  0  0  0
  -20.9084   -0.8039   29.6062 C   0  0  0  0  0  0  0  0  0  0  0  0
  -23.4161   -0.3930   30.9906 C   0  0  0  0  0  0  0  0  0  0  0  0
  -24.6174   -0.0446   31.5314 C   0  0  0  0  0  0  0  0  0  0  0  0
  -25.7601    0.0468   30.8276 C   0  0  0  0  0  0  0  0  0  0  0  0
  -19.8410   -0.8284   28.7601 N   0  0  0  0  0  0  0  0  0  0  0  0
  -28.1097   -1.5971   30.0124 O   0  0  0  0  0  0  0  0  0  0  0  0
  -28.9910   -2.4063   30.4042 C   0  0  0  0  0  0  0  0  0  0  0  0
  -28.5660   -3.7336   30.5362 C   0  0  0  0  0  0  0  0  0  0  0  0
  -29.3646   -4.7147   30.2969 O   0  0  0  0  0  0  0  0  0  0  0  0
  -27.4925   -4.0236   31.1697 O   0  0  0  0  0  0  0  0  0  0  0  0
  -30.1980   -1.9954   30.6265 N   0  0  0  0  0  0  0  0  0  0  0  0
  -31.0089   -2.6485   31.2885 C   0  0  0  0  0  0  0  0  0  0  0  0
  -31.3303   -2.3938   32.4538 C   0  0  0  0  0  0  0  0  0  0  0  0
  -32.3118   -3.0572   33.2410 C   0  0  0  0  0  0  0  0  0  0  0  0
  -33.0472   -4.0290   32.5406 C   0  0  0  0  0  0  0  0  0  0  0  0
  -32.7694   -4.3424   31.2458 C   0  0  0  0  0  0  0  0  0  0  0  0
  -31.8341   -3.6083   30.5465 C   0  0  0  0  0  0  0  0  0  0  0  0
  5  7  1  0
  7  8  1  0
  7  9  2  0
  2 10  1  0
 13 14  1  0
 14 18  1  0
  1 19  1  0
 19 20  1  0
 20 21  1  0
 21 22  2  0
 21 23  1  0
 20 24  2  3
 24 25  1  0
 13 12  1  0
 10 11  2  0
 11 12  1  0
 12 15  2  0
 15 16  1  0
 16 17  2  0
 17 10  1  0
  1  2  1  0
  2  3  2  0
  3  4  1  0
  4  5  2  0
  5  6  1  0
  6  1  2  0
 25 26  2  0
 26 27  1  0
 27 28  2  0
 28 29  1  0
 29 30  2  0
 30 25  1  0
M  END

$$$$
