No_1876-gen_results/8p0m/2024-11-27-11-27-31/
     RDKit          3D

 17 18  0  0  0  0  0  0  0  0999 V2000
  -28.0162   -0.8135   28.8779 C   0  0  0  0  0  0  0  0  0  0  0  0
  -27.0636   -0.1190   28.6079 C   0  0  0  0  0  0  0  0  0  0  0  0
  -27.0010    0.6913   27.4910 C   0  0  0  0  0  0  0  0  0  0  0  0
  -25.7770    1.0214   26.9135 C   0  0  0  0  0  0  0  0  0  0  0  0
  -24.5088    0.7364   27.5686 C   0  0  0  0  0  0  0  0  0  0  0  0
  -24.5104    0.5132   28.5850 C   0  0  0  0  0  0  0  0  0  0  0  0
  -25.7477   -0.3195   29.2844 C   0  0  0  0  0  0  0  0  0  0  0  0
  -29.2141   -0.0222   29.2759 C   0  0  0  0  0  0  0  0  0  0  0  0
  -30.3228   -0.7846   29.7124 C   0  0  0  0  0  0  0  0  0  0  0  0
  -31.5664   -0.2164   29.6690 C   0  0  0  0  0  0  0  0  0  0  0  0
  -31.6781    1.1673   29.3800 C   0  0  0  0  0  0  0  0  0  0  0  0
  -30.5709    1.8603   28.9714 C   0  0  0  0  0  0  0  0  0  0  0  0
  -29.3342    1.2548   28.8154 C   0  0  0  0  0  0  0  0  0  0  0  0
  -23.3194    1.4754   26.9494 C   0  0  0  0  0  0  0  0  0  0  0  0
  -23.3180    2.1708   25.8559 N   0  0  0  0  0  0  0  0  0  0  0  0
  -22.0405    1.3834   27.6607 C   0  0  0  0  0  0  0  0  0  0  0  0
  -21.9212    0.7809   28.7882 N   0  0  0  0  0  0  0  0  0  0  0  0
  1  2  1  0
  1  8  1  0
  5 14  1  0
 14 15  2  0
 14 16  1  0
 16 17  1  0
  2  3  2  0
  3  4  1  0
  4  5  2  0
  5  6  1  0
  6  7  2  0
  7  2  1  0
  8  9  2  0
  9 10  1  0
 10 11  2  0
 11 12  1  0
 12 13  2  0
 13  8  1  0
M  END

$$$$
