No_1692-gen_results/8p0m/2024-11-27-11-27-31/
     RDKit          3D

 35 39  0  0  0  0  0  0  0  0999 V2000
  -28.0162   -0.8135   28.8779 C   0  0  0  0  0  0  0  0  0  0  0  0
  -28.4690   -0.7850   29.8287 C   0  0  0  0  0  0  0  0  0  0  0  0
  -26.5042   -0.7777   28.8766 C   0  0  0  0  0  0  0  0  0  0  0  0
  -25.6540   -0.6597   27.7191 C   0  0  0  0  0  0  0  0  0  0  0  0
  -27.9180   -0.9374   31.1824 C   0  0  0  0  0  0  0  0  0  0  0  0
  -26.5423   -0.9399   31.2606 C   0  0  0  0  0  0  0  0  0  0  0  0
  -25.7832   -0.8935   30.1201 C   0  0  0  0  0  0  0  0  0  0  0  0
  -25.2393    0.5761   27.4012 N   0  0  0  0  0  0  0  0  0  0  0  0
  -25.4184    1.0491   26.1661 C   0  0  0  0  0  0  0  0  0  0  0  0
  -24.5161    1.4055   28.2552 C   0  0  0  0  0  0  0  0  0  0  0  0
  -24.0489    2.5843   27.8712 C   0  0  0  0  0  0  0  0  0  0  0  0
  -26.2124    0.2998   25.2340 C   0  0  0  0  0  0  0  0  0  0  0  0
  -24.2148    3.0308   26.5775 C   0  0  0  0  0  0  0  0  0  0  0  0
  -24.9374    2.2667   25.7210 C   0  0  0  0  0  0  0  0  0  0  0  0
  -27.5682    0.5408   25.0016 C   0  0  0  0  0  0  0  0  0  0  0  0
  -28.1399    1.6309   25.7327 C   0  0  0  0  0  0  0  0  0  0  0  0
  -29.5297    1.8897   25.6332 C   0  0  0  0  0  0  0  0  0  0  0  0
  -30.2252    1.1164   24.7022 C   0  0  0  0  0  0  0  0  0  0  0  0
  -28.4342   -0.0708   24.2906 C   0  0  0  0  0  0  0  0  0  0  0  0
  -29.7051    0.1010   24.0599 C   0  0  0  0  0  0  0  0  0  0  0  0
  -25.4984   -0.6685   24.4081 C   0  0  0  0  0  0  0  0  0  0  0  0
  -30.0749   -0.6825   29.8814 C   0  0  0  0  0  0  0  0  0  0  0  0
  -30.6549    0.0714   30.7582 O   0  0  0  0  0  0  0  0  0  0  0  0
  -30.6588   -0.8255   28.7542 O   0  0  0  0  0  0  0  0  0  0  0  0
  -30.2144    2.9931   26.3941 C   0  0  0  0  0  0  0  0  0  0  0  0
  -29.5958    3.8978   26.9528 C   0  0  0  0  0  0  0  0  0  0  0  0
  -29.7759    4.7778   27.7432 C   0  0  0  0  0  0  0  0  0  0  0  0
  -28.9287    5.8124   28.3185 C   0  0  0  0  0  0  0  0  0  0  0  0
  -29.1377    6.6884   29.3173 C   0  0  0  0  0  0  0  0  0  0  0  0
  -31.1248    4.8646   28.4506 C   0  0  0  0  0  0  0  0  0  0  0  0
  -31.3907    5.7840   29.4833 C   0  0  0  0  0  0  0  0  0  0  0  0
  -30.4496    6.6678   29.9094 C   0  0  0  0  0  0  0  0  0  0  0  0
  -31.5796    2.7760   26.7649 C   0  0  0  0  0  0  0  0  0  0  0  0
  -32.0311    3.6524   27.9611 C   0  0  0  0  0  0  0  0  0  0  0  0
  -33.3230    3.4794   28.5160 C   0  0  0  0  0  0  0  0  0  0  0  0
  3  4  1  0
  4  8  1  0
  8  9  1  0
  8 10  1  0
  9 12  1  0
 11 13  1  0
  9 14  1  0
 12 15  1  0
 12 21  1  0
  2 22  1  0
 22 23  2  0
 22 24  1  0
 17 25  1  0
 34 35  1  0
 14 13  1  0
 11 10  1  0
  1  2  2  0
  2  5  1  0
  5  6  2  0
  6  7  1  0
  7  3  2  0
  3  1  1  0
 25 26  2  0
 26 27  1  0
 30 34  1  0
 34 33  2  0
 33 25  1  0
 15 16  2  0
 16 17  1  0
 17 18  2  0
 18 20  1  0
 20 19  2  0
 19 15  1  0
 27 28  2  0
 28 29  1  0
 29 32  2  0
 32 31  1  0
 31 30  2  0
 30 27  1  0
M  END

$$$$
