No_1796-gen_results/8p0m/2024-11-27-11-27-31/
     RDKit          3D

 27 30  0  0  0  0  0  0  0  0999 V2000
  -28.0162   -0.8135   28.8779 C   0  0  0  0  0  0  0  0  0  0  0  0
  -27.0636   -0.1189   28.6079 C   0  0  0  0  0  0  0  0  0  0  0  0
  -26.9716    0.7139   27.5060 C   0  0  0  0  0  0  0  0  0  0  0  0
  -28.1053    0.7744   26.6421 C   0  0  0  0  0  0  0  0  0  0  0  0
  -29.2041    0.1179   27.0477 C   0  0  0  0  0  0  0  0  0  0  0  0
  -29.2127   -0.6088   28.1281 C   0  0  0  0  0  0  0  0  0  0  0  0
  -30.3709    0.2326   26.1381 C   0  0  0  0  0  0  0  0  0  0  0  0
  -30.9633    1.2270   26.0808 O   0  0  0  0  0  0  0  0  0  0  0  0
  -30.5064   -0.7464   25.2086 O   0  0  0  0  0  0  0  0  0  0  0  0
  -25.6697    1.4154   27.1299 C   0  0  0  0  0  0  0  0  0  0  0  0
  -24.5484    1.1080   27.7496 C   0  0  0  0  0  0  0  0  0  0  0  0
  -24.3194    0.2342   28.7963 C   0  0  0  0  0  0  0  0  0  0  0  0
  -25.6056   -0.4220   29.2064 C   0  0  0  0  0  0  0  0  0  0  0  0
  -23.2449    1.8554   27.3929 C   0  0  0  0  0  0  0  0  0  0  0  0
  -22.0039    1.3535   27.8100 C   0  0  0  0  0  0  0  0  0  0  0  0
  -21.9698    0.4338   28.8786 C   0  0  0  0  0  0  0  0  0  0  0  0
  -23.1605   -0.1910   29.3361 C   0  0  0  0  0  0  0  0  0  0  0  0
  -25.5719   -1.3029   30.1621 O   0  0  0  0  0  0  0  0  0  0  0  0
  -25.7663    2.3101   26.0961 N   0  0  0  0  0  0  0  0  0  0  0  0
  -28.1241   -1.6181   29.9487 O   0  0  0  0  0  0  0  0  0  0  0  0
  -29.0212   -1.4212   30.9353 C   0  0  0  0  0  0  0  0  0  0  0  0
  -28.7076   -0.5754   31.8534 C   0  0  0  0  0  0  0  0  0  0  0  0
  -27.6331   -0.3919   32.3575 C   0  0  0  0  0  0  0  0  0  0  0  0
  -27.1726    0.6164   33.3234 C   0  0  0  0  0  0  0  0  0  0  0  0
  -28.1542    1.4356   33.8181 C   0  0  0  0  0  0  0  0  0  0  0  0
  -29.4675    1.2747   33.3020 C   0  0  0  0  0  0  0  0  0  0  0  0
  -29.7558    0.3347   32.3639 C   0  0  0  0  0  0  0  0  0  0  0  0
  5  7  1  0
  7  8  2  0
  7  9  1  0
  3 10  1  0
  2 13  1  0
 12 13  1  0
 13 18  2  0
 10 19  1  0
  1 20  1  0
 20 21  1  0
 21 22  1  0
 10 11  1  0
  1  2  2  0
  2  3  1  0
  3  4  2  0
  4  5  1  0
  5  6  2  0
  6  1  1  0
 22 23  2  0
 23 24  1  0
 24 25  2  0
 25 26  1  0
 26 27  2  0
 27 22  1  0
 11 12  2  0
 12 17  1  0
 17 16  2  0
 16 15  1  0
 15 14  2  0
 14 11  1  0
M  END

$$$$
