No_1899-gen_results/8p0m/2024-11-27-11-27-31/
     RDKit          3D

 15 16  0  0  0  0  0  0  0  0999 V2000
  -28.0162   -0.8135   28.8779 C   0  0  0  0  0  0  0  0  0  0  0  0
  -27.0636   -0.1189   28.6079 C   0  0  0  0  0  0  0  0  0  0  0  0
  -25.7647   -0.3897   29.0360 C   0  0  0  0  0  0  0  0  0  0  0  0
  -25.5296   -1.5302   29.9014 C   0  0  0  0  0  0  0  0  0  0  0  0
  -26.6577   -2.2915   30.2035 C   0  0  0  0  0  0  0  0  0  0  0  0
  -27.8548   -1.9555   29.7630 C   0  0  0  0  0  0  0  0  0  0  0  0
  -24.5349    0.4128   28.7431 C   0  0  0  0  0  0  0  0  0  0  0  0
  -24.4835    1.2431   27.7398 C   0  0  0  0  0  0  0  0  0  0  0  0
  -23.4717    1.9016   27.3846 C   0  0  0  0  0  0  0  0  0  0  0  0
  -22.1793    1.7156   27.9288 C   0  0  0  0  0  0  0  0  0  0  0  0
  -23.2884    0.1334   29.4280 C   0  0  0  0  0  0  0  0  0  0  0  0
  -22.1983    0.7636   29.1524 C   0  0  0  0  0  0  0  0  0  0  0  0
  -29.0217   -2.7948   30.1856 C   0  0  0  0  0  0  0  0  0  0  0  0
  -29.3488   -2.7514   31.2536 O   0  0  0  0  0  0  0  0  0  0  0  0
  -29.2248   -3.9468   29.5343 O   0  0  0  0  0  0  0  0  0  0  0  0
  3  7  1  0
  6 13  1  0
 13 14  2  0
 13 15  1  0
  7  8  2  0
  8  9  1  0
  9 10  2  0
 10 12  1  0
 12 11  2  0
 11  7  1  0
  1  2  2  0
  2  3  1  0
  3  4  2  0
  4  5  1  0
  5  6  2  0
  6  1  1  0
M  END

$$$$
