No_1787-gen_results/8p0m/2024-11-27-11-27-31/
     RDKit          3D

 18 18  0  0  0  0  0  0  0  0999 V2000
  -27.9505   -0.5786   29.0402 P   0  0  0  0  0  0  0  0  0  0  0  0
  -27.2401    0.0613   28.4283 O   0  0  0  0  0  0  0  0  0  0  0  0
  -29.3621   -0.5774   28.6194 O   0  0  0  0  0  0  0  0  0  0  0  0
  -27.9298   -0.0063   30.5563 O   0  0  0  0  0  0  0  0  0  0  0  0
  -27.5440   -2.0509   29.4296 O   0  0  0  0  0  0  0  0  0  0  0  0
  -26.8322    1.3498   28.4349 C   0  0  0  0  0  0  0  0  0  0  0  0
  -25.5660    1.6228   27.8297 C   0  0  0  0  0  0  0  0  0  0  0  0
  -25.4843    2.4287   26.8150 C   0  0  0  0  0  0  0  0  0  0  0  0
  -24.1810    2.7042   26.1461 C   0  0  0  0  0  0  0  0  0  0  0  0
  -22.9967    2.1496   26.6078 C   0  0  0  0  0  0  0  0  0  0  0  0
  -23.1065    1.2911   27.7762 C   0  0  0  0  0  0  0  0  0  0  0  0
  -24.3400    1.0561   28.3019 C   0  0  0  0  0  0  0  0  0  0  0  0
  -21.8421    0.7500   28.2977 C   0  0  0  0  0  0  0  0  0  0  0  0
  -21.1947    0.0951   28.9038 N   0  0  0  0  0  0  0  0  0  0  0  0
  -26.2541   -2.2886   29.7667 C   0  0  0  0  0  0  0  0  0  0  0  0
  -25.4944   -2.9898   29.0827 C   0  0  0  0  0  0  0  0  0  0  0  0
  -24.0573   -3.0205   29.4034 C   0  0  0  0  0  0  0  0  0  0  0  0
  -23.4784   -1.7205   29.3820 C   0  0  0  0  0  0  0  0  0  0  0  0
  1  2  1  0
  1  3  2  0
  1  4  1  0
  1  5  1  0
  2  6  1  0
  6  7  1  0
 11 13  1  0
 13 14  3  0
  5 15  1  0
 15 16  2  3
 16 17  1  0
 17 18  1  0
  7  8  2  0
  8  9  1  0
  9 10  2  0
 10 11  1  0
 11 12  2  0
 12  7  1  0
M  END

$$$$
