No_1714-gen_results/8p0m/2024-11-27-11-27-31/
     RDKit          3D

 22 24  0  0  0  0  0  0  0  0999 V2000
  -28.0162   -0.8135   28.8779 C   0  0  0  0  0  0  0  0  0  0  0  0
  -28.4690   -0.7850   29.8287 C   0  0  0  0  0  0  0  0  0  0  0  0
  -28.1816    0.4277   28.1134 C   0  0  0  0  0  0  0  0  0  0  0  0
  -27.4498    0.6435   26.8500 C   0  0  0  0  0  0  0  0  0  0  0  0
  -26.4529    0.9939   26.6681 C   0  0  0  0  0  0  0  0  0  0  0  0
  -25.5857    1.7329   27.3465 C   0  0  0  0  0  0  0  0  0  0  0  0
  -24.5656    1.6487   27.8437 C   0  0  0  0  0  0  0  0  0  0  0  0
  -23.6372    2.6199   28.4394 C   0  0  0  0  0  0  0  0  0  0  0  0
  -29.4277    0.1021   30.4418 C   0  0  0  0  0  0  0  0  0  0  0  0
  -29.6418    1.2189   29.7204 C   0  0  0  0  0  0  0  0  0  0  0  0
  -29.0203    1.4247   28.5457 C   0  0  0  0  0  0  0  0  0  0  0  0
  -24.1821    3.8768   28.3107 C   0  0  0  0  0  0  0  0  0  0  0  0
  -25.8424    3.3126   27.3317 C   0  0  0  0  0  0  0  0  0  0  0  0
  -25.0899    4.1774   27.8933 C   0  0  0  0  0  0  0  0  0  0  0  0
  -25.7216    0.4669   25.4360 C   0  0  0  0  0  0  0  0  0  0  0  0
  -28.4236    0.4456   25.9019 O   0  0  0  0  0  0  0  0  0  0  0  0
  -29.6430    0.7939   25.8529 C   0  0  0  0  0  0  0  0  0  0  0  0
  -30.4854   -0.0946   25.2134 C   0  0  0  0  0  0  0  0  0  0  0  0
  -31.7677   -0.3552   25.7240 C   0  0  0  0  0  0  0  0  0  0  0  0
  -32.3563    0.5887   26.5716 C   0  0  0  0  0  0  0  0  0  0  0  0
  -31.6118    1.6387   27.0844 C   0  0  0  0  0  0  0  0  0  0  0  0
  -30.2154    1.6824   26.7764 C   0  0  0  0  0  0  0  0  0  0  0  0
  3  4  1  0
  4  5  2  3
  5  6  1  0
  5 15  1  0
  4 16  1  0
 16 17  1  0
 17 18  2  0
 18 19  1  0
 19 20  2  0
 20 21  1  0
 21 22  2  0
 22 17  1  0
  6  7  2  0
  7  8  1  0
  8 12  2  0
 12 14  1  0
 14 13  2  0
 13  6  1  0
  1  2  2  0
  2  9  1  0
  9 10  2  0
 10 11  1  0
 11  3  2  0
  3  1  1  0
M  END

$$$$
