No_1216-gen_results/8p0m/2024-11-27-11-27-31/
     RDKit          3D

 16 16  0  0  0  0  0  0  0  0999 V2000
  -28.0162   -0.8135   28.8779 C   0  0  0  0  0  0  0  0  0  0  0  0
  -28.4690   -0.7850   29.8287 C   0  0  0  0  0  0  0  0  0  0  0  0
  -28.1816    0.4277   28.1134 C   0  0  0  0  0  0  0  0  0  0  0  0
  -28.9841    1.4155   28.5154 C   0  0  0  0  0  0  0  0  0  0  0  0
  -28.3375   -2.0481   30.7873 C   0  0  0  0  0  0  0  0  0  0  0  0
  -29.5615    1.2930   29.7416 C   0  0  0  0  0  0  0  0  0  0  0  0
  -29.3196    0.1647   30.4451 C   0  0  0  0  0  0  0  0  0  0  0  0
  -28.8291   -2.9407   30.7341 O   0  0  0  0  0  0  0  0  0  0  0  0
  -27.2317   -1.9601   31.6542 O   0  0  0  0  0  0  0  0  0  0  0  0
  -27.3425    0.5000   26.5509 Cl  0  0  0  0  0  0  0  0  0  0  0  0
  -30.4207    2.3803   30.2529 C   0  0  0  0  0  0  0  0  0  0  0  0
  -30.0632    2.9031   31.4068 C   0  0  0  0  0  0  0  0  0  0  0  0
  -28.9255    2.8421   31.9697 C   0  0  0  0  0  0  0  0  0  0  0  0
  -28.5424    3.5251   33.2408 C   0  0  0  0  0  0  0  0  0  0  0  0
  -27.1987    3.4807   33.7724 C   0  0  0  0  0  0  0  0  0  0  0  0
  -26.7585    4.1055   34.8394 C   0  0  0  0  0  0  0  0  0  0  0  0
  2  5  1  0
  5  8  2  0
  5  9  1  0
  3 10  1  0
  6 11  1  0
 11 12  1  0
 12 13  2  3
 13 14  1  0
 14 15  2  3
 15 16  1  0
  1  2  2  0
  2  7  1  0
  7  6  2  0
  6  4  1  0
  4  3  2  0
  3  1  1  0
M  END

$$$$
