No_1352-gen_results/8p0m/2024-11-27-11-27-31/
     RDKit          3D

 31 34  0  0  0  0  0  0  0  0999 V2000
  -28.1229   -1.3353   28.4874 O   0  0  0  0  0  0  0  0  0  0  0  0
  -27.4806   -0.4044   28.7094 C   0  0  0  0  0  0  0  0  0  0  0  0
  -26.3804   -0.0867   27.9394 C   0  0  0  0  0  0  0  0  0  0  0  0
  -27.6664    0.4468   29.8988 N   0  0  0  0  0  0  0  0  0  0  0  0
  -26.4086    0.8567   26.8802 C   0  0  0  0  0  0  0  0  0  0  0  0
  -25.2466    1.1198   26.1102 C   0  0  0  0  0  0  0  0  0  0  0  0
  -23.9991    0.7500   26.5964 C   0  0  0  0  0  0  0  0  0  0  0  0
  -23.9411    0.0388   27.7865 C   0  0  0  0  0  0  0  0  0  0  0  0
  -25.0420   -0.3844   28.4675 C   0  0  0  0  0  0  0  0  0  0  0  0
  -26.9353    1.5560   30.3219 C   0  0  0  0  0  0  0  0  0  0  0  0
  -27.0455    1.8376   31.5107 C   0  0  0  0  0  0  0  0  0  0  0  0
  -26.3212    3.0066   32.0756 C   0  0  0  0  0  0  0  0  0  0  0  0
  -25.4748    3.7512   31.1837 C   0  0  0  0  0  0  0  0  0  0  0  0
  -25.3673    3.3038   29.8768 C   0  0  0  0  0  0  0  0  0  0  0  0
  -26.0739    2.2110   29.4130 C   0  0  0  0  0  0  0  0  0  0  0  0
  -24.8682   -1.1653   29.6764 C   0  0  0  0  0  0  0  0  0  0  0  0
  -28.8086   -0.0109   30.7281 C   0  0  0  0  0  0  0  0  0  0  0  0
  -27.6084    1.2104   26.3525 N   0  0  0  0  0  0  0  0  0  0  0  0
  -28.3033    1.8489   26.7421 C   0  0  0  0  0  0  0  0  0  0  0  0
  -29.6380    2.1519   26.1534 C   0  0  0  0  0  0  0  0  0  0  0  0
  -27.9815    0.5381   25.1116 C   0  0  0  0  0  0  0  0  0  0  0  0
  -29.1285    0.6044   24.4786 C   0  0  0  0  0  0  0  0  0  0  0  0
  -29.9630    1.5995   24.9923 C   0  0  0  0  0  0  0  0  0  0  0  0
  -28.7048   -0.6292   31.8660 C   0  0  0  0  0  0  0  0  0  0  0  0
  -29.7309   -1.0619   32.6121 C   0  0  0  0  0  0  0  0  0  0  0  0
  -31.0213   -0.9458   32.1118 C   0  0  0  0  0  0  0  0  0  0  0  0
  -30.0868    0.3338   30.2285 C   0  0  0  0  0  0  0  0  0  0  0  0
  -31.1904   -0.1217   30.9548 C   0  0  0  0  0  0  0  0  0  0  0  0
  -23.8529   -0.8583   30.5767 C   0  0  0  0  0  0  0  0  0  0  0  0
  -24.8299   -2.6333   29.3678 C   0  0  0  0  0  0  0  0  0  0  0  0
  -24.5785    3.9981   29.0566 O   0  0  0  0  0  0  0  0  0  0  0  0
  1  2  2  0
  2  3  1  0
  2  4  1  0
  4 10  1  0
  9 16  1  0
  4 17  1  0
  5 18  1  0
 18 19  1  0
 18 21  1  0
 20 23  1  0
 22 23  1  0
 16 29  1  0
 16 30  1  0
 14 31  1  0
 19 20  1  0
 22 21  1  0
  3  5  1  0
  5  6  2  0
  6  7  1  0
  7  8  2  0
  8  9  1  0
  9  3  2  0
 17 24  2  0
 24 25  1  0
 25 26  2  0
 26 28  1  0
 28 27  2  0
 27 17  1  0
 10 11  2  0
 11 12  1  0
 12 13  2  0
 13 14  1  0
 14 15  2  0
 15 10  1  0
M  END

$$$$
