No_1375-gen_results/8p0m/2024-11-27-11-27-31/
     RDKit          3D

  4  3  0  0  0  0  0  0  0  0999 V2000
  -28.1146   -0.6256   29.0813 Br  0  0  0  0  0  0  0  0  0  0  0  0
  -28.0686    0.2105   30.1716 C   0  0  0  0  0  0  0  0  0  0  0  0
  -28.0003    0.8873   30.9176 C   0  0  0  0  0  0  0  0  0  0  0  0
  -28.3480    0.6087   31.8536 F   0  0  0  0  0  0  0  0  0  0  0  0
  1  2  1  0
  2  3  3  0
  3  4  1  0
M  END

$$$$
