No_1537-gen_results/8p0m/2024-11-27-11-27-31/
     RDKit          3D

 13 14  0  0  0  0  0  0  0  0999 V2000
  -28.1229   -1.3353   28.4874 O   0  0  0  0  0  0  0  0  0  0  0  0
  -28.5208   -0.4363   29.0779 C   0  0  0  0  0  0  0  0  0  0  0  0
  -29.6180    0.0238   29.0240 N   0  0  0  0  0  0  0  0  0  0  0  0
  -27.4467    0.2645   30.0356 C   0  0  0  0  0  0  0  0  0  0  0  0
  -27.7606    0.6089   31.0621 C   0  0  0  0  0  0  0  0  0  0  0  0
  -30.0628    0.9340   30.1080 C   0  0  0  0  0  0  0  0  0  0  0  0
  -29.1672    1.3003   31.0956 C   0  0  0  0  0  0  0  0  0  0  0  0
  -31.4257    1.3396   30.1503 C   0  0  0  0  0  0  0  0  0  0  0  0
  -31.9053    1.8989   30.9940 C   0  0  0  0  0  0  0  0  0  0  0  0
  -33.2614    2.3925   31.1176 C   0  0  0  0  0  0  0  0  0  0  0  0
  -34.0541    2.0387   29.9790 C   0  0  0  0  0  0  0  0  0  0  0  0
  -32.2074    0.9959   29.0415 C   0  0  0  0  0  0  0  0  0  0  0  0
  -33.4964    1.3558   28.9615 C   0  0  0  0  0  0  0  0  0  0  0  0
  1  2  2  0
  2  3  1  0
  2  4  1  0
  3  6  1  0
  5  7  1  0
  6  7  1  0
  6  8  1  0
  5  4  1  0
  8  9  2  0
  9 10  1  0
 10 11  2  0
 11 13  1  0
 13 12  2  0
 12  8  1  0
M  END

$$$$
