No_108-gen_results/8p0m/2024-11-27-11-27-31/
     RDKit          3D

 17 18  0  0  0  0  0  0  0  0999 V2000
  -28.0162   -0.8135   28.8779 C   0  0  0  0  0  0  0  0  0  0  0  0
  -27.0636   -0.1189   28.6079 C   0  0  0  0  0  0  0  0  0  0  0  0
  -25.7923   -0.4302   29.0761 C   0  0  0  0  0  0  0  0  0  0  0  0
  -25.5756   -1.5654   29.9363 C   0  0  0  0  0  0  0  0  0  0  0  0
  -26.7354   -2.3004   30.2173 C   0  0  0  0  0  0  0  0  0  0  0  0
  -27.9184   -1.9537   29.7629 C   0  0  0  0  0  0  0  0  0  0  0  0
  -29.2678   -2.8890   30.2152 Cl  0  0  0  0  0  0  0  0  0  0  0  0
  -27.1068    1.1096   27.7591 C   0  0  0  0  0  0  0  0  0  0  0  0
  -26.2403    1.3313   26.8308 C   0  0  0  0  0  0  0  0  0  0  0  0
  -25.1051    0.4831   26.6996 C   0  0  0  0  0  0  0  0  0  0  0  0
  -24.7225   -0.3100   27.8747 C   0  0  0  0  0  0  0  0  0  0  0  0
  -28.3984    1.8358   27.6996 C   0  0  0  0  0  0  0  0  0  0  0  0
  -28.8814    2.2200   28.8110 C   0  0  0  0  0  0  0  0  0  0  0  0
  -29.0295    1.9818   26.4619 C   0  0  0  0  0  0  0  0  0  0  0  0
  -30.2565    2.5142   29.0379 C   0  0  0  0  0  0  0  0  0  0  0  0
  -28.6823    1.3782   25.3516 C   0  0  0  0  0  0  0  0  0  0  0  0
  -30.7180    2.9367   30.2508 C   0  0  0  0  0  0  0  0  0  0  0  0
  6  7  1  0
  8 12  1  0
 12 13  1  0
 12 14  1  0
 13 15  2  3
 14 16  1  0
 15 17  1  0
  1  2  2  0
  3  4  2  0
  4  5  1  0
  5  6  2  0
  6  1  1  0
  2  3  1  0
  3 11  1  0
 11 10  2  0
 10  9  1  0
  9  8  2  0
  8  2  1  0
M  END

$$$$
