No_1268-gen_results/8p0m/2024-11-27-11-27-31/
     RDKit          3D

 19 21  0  0  0  0  0  0  0  0999 V2000
  -28.0162   -0.8135   28.8779 C   0  0  0  0  0  0  0  0  0  0  0  0
  -28.4690   -0.7850   29.8287 C   0  0  0  0  0  0  0  0  0  0  0  0
  -26.5042   -0.7777   28.8766 C   0  0  0  0  0  0  0  0  0  0  0  0
  -25.8103   -0.8531   30.1028 C   0  0  0  0  0  0  0  0  0  0  0  0
  -27.9906   -0.8916   31.2257 C   0  0  0  0  0  0  0  0  0  0  0  0
  -26.6042   -0.8676   31.2652 C   0  0  0  0  0  0  0  0  0  0  0  0
  -30.0739   -0.8360   29.8615 C   0  0  0  0  0  0  0  0  0  0  0  0
  -30.6825   -0.0696   30.6918 O   0  0  0  0  0  0  0  0  0  0  0  0
  -30.6203   -1.8425   29.3350 O   0  0  0  0  0  0  0  0  0  0  0  0
  -25.8627   -0.6658   27.6897 O   0  0  0  0  0  0  0  0  0  0  0  0
  -24.5450   -0.2027   27.8555 C   0  0  0  0  0  0  0  0  0  0  0  0
  -23.6846   -0.6368   28.7762 C   0  0  0  0  0  0  0  0  0  0  0  0
  -22.3204   -0.3822   28.8311 C   0  0  0  0  0  0  0  0  0  0  0  0
  -24.4037   -1.0113   30.0932 C   0  0  0  0  0  0  0  0  0  0  0  0
  -21.8755    0.7898   28.2582 N   0  0  0  0  0  0  0  0  0  0  0  0
  -21.5022   -1.1665   29.3226 O   0  0  0  0  0  0  0  0  0  0  0  0
  -22.6938    1.8509   27.7501 C   0  0  0  0  0  0  0  0  0  0  0  0
  -24.1589    0.7269   26.7788 C   0  0  0  0  0  0  0  0  0  0  0  0
  -23.4995    1.7795   26.8440 N   0  0  0  0  0  0  0  0  0  0  0  0
  2  7  1  0
  7  8  2  0
  7  9  1  0
  3 10  1  0
 10 11  1  0
 11 12  2  0
 12 13  1  0
  4 14  1  0
 12 14  1  0
 13 15  1  0
 13 16  2  0
 15 17  1  0
 11 18  1  0
 17 19  1  0
 18 19  2  0
  1  2  2  0
  2  5  1  0
  5  6  2  0
  6  4  1  0
  4  3  2  0
  3  1  1  0
M  END

$$$$
