No_1923-gen_results/8p0m/2024-11-27-11-27-31/
     RDKit          3D

 18 21  0  0  0  0  0  0  0  0999 V2000
  -28.0162   -0.8135   28.8779 C   0  0  0  0  0  0  0  0  0  0  0  0
  -27.0636   -0.1190   28.6079 C   0  0  0  0  0  0  0  0  0  0  0  0
  -25.7923   -0.4302   29.0761 C   0  0  0  0  0  0  0  0  0  0  0  0
  -25.5756   -1.5654   29.9363 C   0  0  0  0  0  0  0  0  0  0  0  0
  -26.7354   -2.3004   30.2173 C   0  0  0  0  0  0  0  0  0  0  0  0
  -27.9184   -1.9537   29.7629 C   0  0  0  0  0  0  0  0  0  0  0  0
  -29.2678   -2.8890   30.2152 Cl  0  0  0  0  0  0  0  0  0  0  0  0
  -27.1068    1.1096   27.7591 C   0  0  0  0  0  0  0  0  0  0  0  0
  -27.8945    1.6904   27.4787 C   0  0  0  0  0  0  0  0  0  0  0  0
  -28.2887    2.5947   26.8701 C   0  0  0  0  0  0  0  0  0  0  0  0
  -27.2069    3.3140   26.1083 C   0  0  0  0  0  0  0  0  0  0  0  0
  -25.9319    2.7696   26.2467 C   0  0  0  0  0  0  0  0  0  0  0  0
  -25.7961    1.6711   27.0944 C   0  0  0  0  0  0  0  0  0  0  0  0
  -24.7017    3.3957   25.7444 C   0  0  0  0  0  0  0  0  0  0  0  0
  -23.5202    3.3098   26.5774 C   0  0  0  0  0  0  0  0  0  0  0  0
  -23.2372    1.9915   27.1116 C   0  0  0  0  0  0  0  0  0  0  0  0
  -24.4784    1.3532   27.6716 C   0  0  0  0  0  0  0  0  0  0  0  0
  -24.3914    0.1564   28.5623 C   0  0  0  0  0  0  0  0  0  0  0  0
  6  7  1  0
  2  8  1  0
 12 14  1  0
 14 15  1  0
 15 16  1  0
 13 17  1  0
 16 17  1  0
  3 18  1  0
 17 18  1  0
  1  2  2  0
  2  3  1  0
  3  4  2  0
  4  5  1  0
  5  6  2  0
  6  1  1  0
  8  9  2  0
  9 10  1  0
 10 11  2  0
 11 12  1  0
 12 13  2  0
 13  8  1  0
M  END

$$$$
