No_1864-gen_results/8p0m/2024-11-27-11-27-31/
     RDKit          3D

 20 21  0  0  0  0  0  0  0  0999 V2000
  -28.0162   -0.8135   28.8779 C   0  0  0  0  0  0  0  0  0  0  0  0
  -27.0636   -0.1190   28.6079 C   0  0  0  0  0  0  0  0  0  0  0  0
  -25.7923   -0.4302   29.0761 C   0  0  0  0  0  0  0  0  0  0  0  0
  -25.5756   -1.5654   29.9363 C   0  0  0  0  0  0  0  0  0  0  0  0
  -26.7354   -2.3004   30.2173 C   0  0  0  0  0  0  0  0  0  0  0  0
  -27.9184   -1.9537   29.7629 C   0  0  0  0  0  0  0  0  0  0  0  0
  -27.1057    1.1023   27.7593 C   0  0  0  0  0  0  0  0  0  0  0  0
  -27.8512    1.5044   27.1726 N   0  0  0  0  0  0  0  0  0  0  0  0
  -25.7921    1.8172   27.5941 N   0  0  0  0  0  0  0  0  0  0  0  0
  -25.6205    2.7123   26.9566 C   0  0  0  0  0  0  0  0  0  0  0  0
  -24.2617    3.4475   26.8365 C   0  0  0  0  0  0  0  0  0  0  0  0
  -27.8792    2.6027   26.3112 C   0  0  0  0  0  0  0  0  0  0  0  0
  -26.7115    3.3353   26.1369 C   0  0  0  0  0  0  0  0  0  0  0  0
  -23.4906    3.1488   25.6953 C   0  0  0  0  0  0  0  0  0  0  0  0
  -28.9791   -2.7158   30.1425 O   0  0  0  0  0  0  0  0  0  0  0  0
  -29.4044   -2.6726   31.4594 C   0  0  0  0  0  0  0  0  0  0  0  0
  -29.8665   -1.5928   31.9177 C   0  0  0  0  0  0  0  0  0  0  0  0
  -30.4691   -0.7427   31.2919 N   0  0  0  0  0  0  0  0  0  0  0  0
  -31.5647   -0.2195   31.6081 C   0  0  0  0  0  0  0  0  0  0  0  0
  -32.1549    0.8258   30.7583 C   0  0  0  0  0  0  0  0  0  0  0  0
  2  7  1  0
 10 11  1  0
 11 14  1  0
  6 15  1  0
 15 16  1  0
 16 17  1  0
 17 18  1  0
 18 19  1  0
 19 20  2  0
  1  2  2  0
  2  3  1  0
  3  4  2  0
  4  5  1  0
  5  6  2  0
  6  1  1  0
  7  8  2  0
  8 12  1  0
 12 13  2  0
 13 10  1  0
 10  9  2  0
  9  7  1  0
M  END

$$$$
