No_1064-gen_results/8p0m/2024-11-27-11-27-31/
     RDKit          3D

 35 38  0  0  0  0  0  0  0  0999 V2000
  -28.0162   -0.8135   28.8779 C   0  0  0  0  0  0  0  0  0  0  0  0
  -28.4690   -0.7850   29.8287 C   0  0  0  0  0  0  0  0  0  0  0  0
  -26.5042   -0.7777   28.8766 C   0  0  0  0  0  0  0  0  0  0  0  0
  -25.8103   -0.8531   30.1028 C   0  0  0  0  0  0  0  0  0  0  0  0
  -27.9906   -0.8916   31.2257 C   0  0  0  0  0  0  0  0  0  0  0  0
  -26.6042   -0.8676   31.2652 C   0  0  0  0  0  0  0  0  0  0  0  0
  -24.3894   -0.8049   30.1638 C   0  0  0  0  0  0  0  0  0  0  0  0
  -23.7660   -0.9500   31.0679 C   0  0  0  0  0  0  0  0  0  0  0  0
  -22.2665   -0.8379   31.2250 C   0  0  0  0  0  0  0  0  0  0  0  0
  -21.6700   -0.5264   30.0648 C   0  0  0  0  0  0  0  0  0  0  0  0
  -23.4566   -0.3984   29.0360 C   0  0  0  0  0  0  0  0  0  0  0  0
  -22.2352   -0.2689   28.9791 C   0  0  0  0  0  0  0  0  0  0  0  0
  -30.0918   -0.7853   29.8432 C   0  0  0  0  0  0  0  0  0  0  0  0
  -30.4974   -0.3215   28.8798 O   0  0  0  0  0  0  0  0  0  0  0  0
  -30.7865   -1.2172   30.8226 O   0  0  0  0  0  0  0  0  0  0  0  0
  -25.8366   -0.7276   27.7196 O   0  0  0  0  0  0  0  0  0  0  0  0
  -25.6987    0.4350   27.0064 C   0  0  0  0  0  0  0  0  0  0  0  0
  -25.5269    0.2665   25.6067 C   0  0  0  0  0  0  0  0  0  0  0  0
  -25.8298    1.7038   27.4989 C   0  0  0  0  0  0  0  0  0  0  0  0
  -25.7214    2.8223   26.7614 C   0  0  0  0  0  0  0  0  0  0  0  0
  -25.2745    2.6908   25.4104 C   0  0  0  0  0  0  0  0  0  0  0  0
  -25.1726    1.4227   24.8741 C   0  0  0  0  0  0  0  0  0  0  0  0
  -25.6726    4.1576   27.3857 C   0  0  0  0  0  0  0  0  0  0  0  0
  -24.9788    4.4999   28.3459 N   0  0  0  0  0  0  0  0  0  0  0  0
  -26.6795    5.1223   26.9781 C   0  0  0  0  0  0  0  0  0  0  0  0
  -26.6356    6.4424   27.4712 C   0  0  0  0  0  0  0  0  0  0  0  0
  -25.7653    6.7537   28.5227 C   0  0  0  0  0  0  0  0  0  0  0  0
  -24.8693    5.7480   28.9323 C   0  0  0  0  0  0  0  0  0  0  0  0
  -25.6875    8.0657   29.1521 C   0  0  0  0  0  0  0  0  0  0  0  0
  -24.9437    8.8996   28.7143 O   0  0  0  0  0  0  0  0  0  0  0  0
  -26.5230    8.3275   30.1699 N   0  0  0  0  0  0  0  0  0  0  0  0
  -26.4925    9.6473   30.8439 C   0  0  0  0  0  0  0  0  0  0  0  0
  -25.4764    9.8311   31.5976 C   0  0  0  0  0  0  0  0  0  0  0  0
  -25.1111    8.9012   32.5792 C   0  0  0  0  0  0  0  0  0  0  0  0
  -26.0383    8.0530   33.0889 C   0  0  0  0  0  0  0  0  0  0  0  0
  4  7  1  0
  2 13  1  0
 13 14  2  0
 13 15  1  0
  3 16  1  0
 16 17  1  0
 20 23  1  0
 27 29  1  0
 29 30  2  0
 29 31  1  0
 31 32  1  0
 32 33  2  3
 33 34  1  0
 34 35  1  0
  7  8  2  0
  8  9  1  0
  9 10  2  0
 10 12  1  0
 12 11  2  0
 11  7  1  0
 23 24  2  0
 24 28  1  0
 28 27  2  0
 27 26  1  0
 26 25  2  0
 25 23  1  0
  1  2  2  0
  2  5  1  0
  5  6  2  0
  6  4  1  0
  4  3  2  0
  3  1  1  0
 17 18  2  0
 18 22  1  0
 22 21  2  0
 21 20  1  0
 20 19  2  0
 19 17  1  0
M  END

$$$$
