No_1344-gen_results/8p0m/2024-11-27-11-27-31/
     RDKit          3D

 35 37  0  0  0  0  0  0  0  0999 V2000
  -28.0162   -0.8135   28.8779 C   0  0  0  0  0  0  0  0  0  0  0  0
  -27.0636   -0.1189   28.6079 C   0  0  0  0  0  0  0  0  0  0  0  0
  -25.7647   -0.3897   29.0360 C   0  0  0  0  0  0  0  0  0  0  0  0
  -24.5516    0.4058   28.7646 C   0  0  0  0  0  0  0  0  0  0  0  0
  -23.2300    0.1178   29.2575 C   0  0  0  0  0  0  0  0  0  0  0  0
  -23.0942   -1.1309   29.8730 C   0  0  0  0  0  0  0  0  0  0  0  0
  -27.7980   -1.9341   29.8560 C   0  0  0  0  0  0  0  0  0  0  0  0
  -26.5420   -2.3269   30.2580 C   0  0  0  0  0  0  0  0  0  0  0  0
  -25.4514   -1.5516   29.9079 C   0  0  0  0  0  0  0  0  0  0  0  0
  -24.1562   -1.9097   30.2809 C   0  0  0  0  0  0  0  0  0  0  0  0
  -24.6450    1.6582   27.9464 C   0  0  0  0  0  0  0  0  0  0  0  0
  -23.7170    1.8151   26.9240 C   0  0  0  0  0  0  0  0  0  0  0  0
  -24.5764    2.9312   28.7738 C   0  0  0  0  0  0  0  0  0  0  0  0
  -25.3063    4.0157   28.0795 C   0  0  0  0  0  0  0  0  0  0  0  0
  -25.4238    5.0252   28.7927 O   0  0  0  0  0  0  0  0  0  0  0  0
  -25.4583    3.9886   26.8650 O   0  0  0  0  0  0  0  0  0  0  0  0
  -28.9150   -2.6841   30.1621 O   0  0  0  0  0  0  0  0  0  0  0  0
  -28.7763   -3.9576   30.5878 C   0  0  0  0  0  0  0  0  0  0  0  0
  -30.1032   -4.6942   30.3440 C   0  0  0  0  0  0  0  0  0  0  0  0
  -30.6123   -4.7656   29.2999 O   0  0  0  0  0  0  0  0  0  0  0  0
  -30.5501   -5.4998   31.4180 N   0  0  0  0  0  0  0  0  0  0  0  0
  -31.7247   -6.3292   31.2765 C   0  0  0  0  0  0  0  0  0  0  0  0
  -29.9538   -5.4087   32.7903 C   0  0  0  0  0  0  0  0  0  0  0  0
  -26.0608    6.1831   28.2278 C   0  0  0  0  0  0  0  0  0  0  0  0
  -26.5388    7.1762   29.1739 C   0  0  0  0  0  0  0  0  0  0  0  0
  -26.4919    7.0268   30.3000 O   0  0  0  0  0  0  0  0  0  0  0  0
  -26.8640    7.3524   31.2193 C   0  0  0  0  0  0  0  0  0  0  0  0
  -27.3581    6.7826   32.2536 C   0  0  0  0  0  0  0  0  0  0  0  0
  -26.7790    8.9193   31.4842 C   0  0  0  0  0  0  0  0  0  0  0  0
  -27.3361    9.4976   32.5971 C   0  0  0  0  0  0  0  0  0  0  0  0
  -27.9236    7.3572   33.4584 C   0  0  0  0  0  0  0  0  0  0  0  0
  -27.8470    8.7403   33.6037 C   0  0  0  0  0  0  0  0  0  0  0  0
  -27.3673    5.2890   32.1970 C   0  0  0  0  0  0  0  0  0  0  0  0
  -27.6976    4.5833   31.5358 C   0  0  0  0  0  0  0  0  0  0  0  0
  -27.5819    3.1306   31.5191 C   0  0  0  0  0  0  0  0  0  0  0  0
  4 11  1  0
 11 12  1  0
 11 13  1  0
 13 14  1  0
 14 15  1  0
 14 16  2  0
  7 17  1  0
 17 18  1  0
 18 19  1  0
 19 20  2  0
 19 21  1  0
 21 22  1  0
 21 23  1  0
 15 24  1  0
 24 25  1  0
 25 26  1  0
 26 27  1  0
 28 33  1  0
 33 34  2  3
 34 35  1  0
  1  2  2  0
  2  3  1  0
  9  8  1  0
  8  7  2  0
  7  1  1  0
 27 28  2  0
 28 31  1  0
 31 32  2  0
 32 30  1  0
 30 29  2  0
 29 27  1  0
  3  4  2  0
  4  5  1  0
  5  6  2  0
  6 10  1  0
 10  9  2  0
  9  3  1  0
M  END

$$$$
