No_1321-gen_results/8p0m/2024-11-27-11-27-31/
     RDKit          3D

 14 14  0  0  0  0  0  0  0  0999 V2000
  -28.0162   -0.8135   28.8779 C   0  0  0  0  0  0  0  0  0  0  0  0
  -27.0636   -0.1190   28.6079 C   0  0  0  0  0  0  0  0  0  0  0  0
  -26.9716    0.7139   27.5060 C   0  0  0  0  0  0  0  0  0  0  0  0
  -28.1053    0.7744   26.6421 C   0  0  0  0  0  0  0  0  0  0  0  0
  -29.2008    0.1044   27.0527 C   0  0  0  0  0  0  0  0  0  0  0  0
  -29.2096   -0.6029   28.1853 C   0  0  0  0  0  0  0  0  0  0  0  0
  -30.3702    0.2264   26.1604 C   0  0  0  0  0  0  0  0  0  0  0  0
  -30.4773    0.3993   24.5926 Cl  0  0  0  0  0  0  0  0  0  0  0  0
  -31.5756   -0.0377   26.7857 O   0  0  0  0  0  0  0  0  0  0  0  0
  -25.6991   -0.2231   29.4289 C   0  0  0  0  0  0  0  0  0  0  0  0
  -24.5963   -0.3165   28.9048 N   0  0  0  0  0  0  0  0  0  0  0  0
  -23.7404    0.3318   28.6154 C   0  0  0  0  0  0  0  0  0  0  0  0
  -23.5844    1.5058   27.9587 C   0  0  0  0  0  0  0  0  0  0  0  0
  -22.3719    2.1589   27.6317 C   0  0  0  0  0  0  0  0  0  0  0  0
  5  7  1  0
  7  8  1  0
  7  9  1  0
  2 10  1  0
 10 11  1  0
 11 12  1  0
 12 13  2  3
 13 14  1  0
  1  2  2  0
  2  3  1  0
  3  4  2  0
  4  5  1  0
  5  6  2  0
  6  1  1  0
M  END

$$$$
