No_1755-gen_results/8p0m/2024-11-27-11-27-31/
     RDKit          3D

 24 25  0  0  0  0  0  0  0  0999 V2000
  -28.0162   -0.8135   28.8779 C   0  0  0  0  0  0  0  0  0  0  0  0
  -28.4690   -0.7850   29.8287 C   0  0  0  0  0  0  0  0  0  0  0  0
  -26.5042   -0.7777   28.8766 C   0  0  0  0  0  0  0  0  0  0  0  0
  -25.8103   -0.8531   30.1028 C   0  0  0  0  0  0  0  0  0  0  0  0
  -27.9906   -0.8916   31.2257 C   0  0  0  0  0  0  0  0  0  0  0  0
  -26.6042   -0.8676   31.2652 C   0  0  0  0  0  0  0  0  0  0  0  0
  -30.0739   -0.8360   29.8615 C   0  0  0  0  0  0  0  0  0  0  0  0
  -30.5608   -0.4418   28.9417 O   0  0  0  0  0  0  0  0  0  0  0  0
  -30.7486   -1.4028   30.9474 N   0  0  0  0  0  0  0  0  0  0  0  0
  -32.1749   -1.4682   30.8889 C   0  0  0  0  0  0  0  0  0  0  0  0
  -32.6810   -2.3081   31.6134 C   0  0  0  0  0  0  0  0  0  0  0  0
  -34.0954   -2.5687   31.5966 C   0  0  0  0  0  0  0  0  0  0  0  0
  -34.8542   -1.7456   30.7034 C   0  0  0  0  0  0  0  0  0  0  0  0
  -34.2006   -0.8452   29.9005 C   0  0  0  0  0  0  0  0  0  0  0  0
  -32.8365   -0.6633   29.9584 C   0  0  0  0  0  0  0  0  0  0  0  0
  -34.9971    0.0030   28.9745 C   0  0  0  0  0  0  0  0  0  0  0  0
  -36.0535    0.1445   28.9583 O   0  0  0  0  0  0  0  0  0  0  0  0
  -34.1434    0.9295   28.2558 N   0  0  0  0  0  0  0  0  0  0  0  0
  -34.6855    1.9955   27.5357 C   0  0  0  0  0  0  0  0  0  0  0  0
  -33.8808    2.4657   26.6767 C   0  0  0  0  0  0  0  0  0  0  0  0
  -34.1973    3.5457   25.8317 C   0  0  0  0  0  0  0  0  0  0  0  0
  -33.2788    4.1118   24.8840 C   0  0  0  0  0  0  0  0  0  0  0  0
  -31.9839    3.4996   24.7619 C   0  0  0  0  0  0  0  0  0  0  0  0
  -31.6320    2.4551   25.5755 C   0  0  0  0  0  0  0  0  0  0  0  0
  2  7  1  0
  7  8  2  0
  7  9  1  0
  9 10  1  0
 14 16  1  0
 16 17  2  0
 16 18  1  0
 18 19  1  0
 19 20  2  3
 20 21  1  0
 21 22  2  3
 22 23  1  0
 23 24  2  0
  1  2  2  0
  2  5  1  0
  5  6  2  0
  6  4  1  0
  4  3  2  0
  3  1  1  0
 10 11  2  0
 11 12  1  0
 12 13  2  0
 13 14  1  0
 14 15  2  0
 15 10  1  0
M  END

$$$$
