No_1520-gen_results/8p0m/2024-11-27-11-27-31/
     RDKit          3D

 18 19  0  0  0  0  0  0  0  0999 V2000
  -28.0162   -0.8135   28.8779 C   0  0  0  0  0  0  0  0  0  0  0  0
  -27.0636   -0.1189   28.6079 C   0  0  0  0  0  0  0  0  0  0  0  0
  -25.7647   -0.3897   29.0360 C   0  0  0  0  0  0  0  0  0  0  0  0
  -25.5296   -1.5302   29.9014 C   0  0  0  0  0  0  0  0  0  0  0  0
  -26.6888   -2.2893   30.1810 C   0  0  0  0  0  0  0  0  0  0  0  0
  -27.8727   -1.9508   29.7373 C   0  0  0  0  0  0  0  0  0  0  0  0
  -28.7636   -2.8289   30.2096 O   0  0  0  0  0  0  0  0  0  0  0  0
  -24.6982    0.3798   28.7771 F   0  0  0  0  0  0  0  0  0  0  0  0
  -29.4352   -2.5791   31.3390 C   0  0  0  0  0  0  0  0  0  0  0  0
  -29.7991   -3.6702   31.9889 C   0  0  0  0  0  0  0  0  0  0  0  0
  -29.7610   -4.9251   31.4217 C   0  0  0  0  0  0  0  0  0  0  0  0
  -30.8935   -5.3800   30.8207 C   0  0  0  0  0  0  0  0  0  0  0  0
  -30.9247   -6.2395   29.8890 C   0  0  0  0  0  0  0  0  0  0  0  0
  -32.1080   -6.7135   29.2988 C   0  0  0  0  0  0  0  0  0  0  0  0
  -32.9551   -6.0892   29.4692 C   0  0  0  0  0  0  0  0  0  0  0  0
  -32.3201   -4.9936   30.8290 C   0  0  0  0  0  0  0  0  0  0  0  0
  -29.4624   -1.4687   31.8523 F   0  0  0  0  0  0  0  0  0  0  0  0
  -31.2044   -3.4971   32.3193 F   0  0  0  0  0  0  0  0  0  0  0  0
  6  7  1  0
  3  8  1  0
  7  9  1  0
  9 10  2  3
 10 11  1  0
 11 12  1  0
 12 13  2  0
 13 14  1  0
 14 15  2  0
 12 16  1  0
 15 16  1  0
  9 17  1  0
 10 18  1  0
  1  2  2  0
  2  3  1  0
  3  4  2  0
  4  5  1  0
  5  6  2  0
  6  1  1  0
M  END

$$$$
