No_1985-gen_results/8p0m/2024-11-27-11-27-31/
     RDKit          3D

 21 25  0  0  0  0  0  0  0  0999 V2000
  -28.0162   -0.8135   28.8779 C   0  0  0  0  0  0  0  0  0  0  0  0
  -28.4690   -0.7850   29.8287 C   0  0  0  0  0  0  0  0  0  0  0  0
  -26.5042   -0.7777   28.8766 C   0  0  0  0  0  0  0  0  0  0  0  0
  -25.8103   -0.8531   30.1028 C   0  0  0  0  0  0  0  0  0  0  0  0
  -27.9906   -0.8916   31.2257 C   0  0  0  0  0  0  0  0  0  0  0  0
  -26.6042   -0.8676   31.2652 C   0  0  0  0  0  0  0  0  0  0  0  0
  -30.0739   -0.8360   29.8615 C   0  0  0  0  0  0  0  0  0  0  0  0
  -30.6891   -1.6554   30.2229 O   0  0  0  0  0  0  0  0  0  0  0  0
  -30.5868    0.0939   28.8678 N   0  0  0  0  0  0  0  0  0  0  0  0
  -31.9585    0.0495   28.5916 C   0  0  0  0  0  0  0  0  0  0  0  0
  -32.2307    0.3503   27.3307 C   0  0  0  0  0  0  0  0  0  0  0  0
  -31.2885    0.8825   26.5640 C   0  0  0  0  0  0  0  0  0  0  0  0
  -29.9374    0.9615   26.8104 C   0  0  0  0  0  0  0  0  0  0  0  0
  -29.6395    0.5121   27.9832 C   0  0  0  0  0  0  0  0  0  0  0  0
  -28.3086    0.1673   28.1405 N   0  0  0  0  0  0  0  0  0  0  0  0
  -27.4310    0.8832   27.2092 C   0  0  0  0  0  0  0  0  0  0  0  0
  -27.9393    1.5714   26.2355 C   0  0  0  0  0  0  0  0  0  0  0  0
  -29.1266    1.5791   25.9377 C   0  0  0  0  0  0  0  0  0  0  0  0
  -25.5922   -0.5539   27.7828 C   0  0  0  0  0  0  0  0  0  0  0  0
  -26.1424    0.4141   26.9185 C   0  0  0  0  0  0  0  0  0  0  0  0
  -25.2738    0.9705   25.9413 C   0  0  0  0  0  0  0  0  0  0  0  0
  2  7  1  0
  7  8  2  0
  7  9  1  0
  9 10  1  0
 10 11  1  0
 12 13  1  0
  9 14  1  0
  1 15  1  0
 14 15  1  0
 15 16  1  0
 13 18  1  0
 17 18  1  0
  3 19  1  0
 16 20  1  0
 19 20  1  0
 20 21  1  0
 11 12  1  0
 13 14  1  0
 17 16  1  0
  1  2  1  0
  2  5  2  0
  5  6  1  0
  6  4  2  0
  4  3  1  0
  3  1  2  0
M  END

$$$$
