No_175-gen_results/8p0m/2024-11-27-11-27-31/
     RDKit          3D

 17 18  0  0  0  0  0  0  0  0999 V2000
  -28.0162   -0.8135   28.8779 C   0  0  0  0  0  0  0  0  0  0  0  0
  -27.0636   -0.1189   28.6079 C   0  0  0  0  0  0  0  0  0  0  0  0
  -25.7923   -0.4302   29.0761 C   0  0  0  0  0  0  0  0  0  0  0  0
  -24.5456    0.3494   28.8225 C   0  0  0  0  0  0  0  0  0  0  0  0
  -23.2409    0.0217   29.3323 C   0  0  0  0  0  0  0  0  0  0  0  0
  -27.8820   -1.8995   29.8633 C   0  0  0  0  0  0  0  0  0  0  0  0
  -26.6526   -2.3141   30.3138 C   0  0  0  0  0  0  0  0  0  0  0  0
  -25.5153   -1.5607   29.9787 C   0  0  0  0  0  0  0  0  0  0  0  0
  -23.2160   -1.2277   30.0505 C   0  0  0  0  0  0  0  0  0  0  0  0
  -24.2438   -1.9369   30.3995 C   0  0  0  0  0  0  0  0  0  0  0  0
  -24.5818    1.5617   27.9589 C   0  0  0  0  0  0  0  0  0  0  0  0
  -24.7873    2.5407   28.4098 O   0  0  0  0  0  0  0  0  0  0  0  0
  -24.3581    1.3167   26.6649 O   0  0  0  0  0  0  0  0  0  0  0  0
  -29.1175   -2.6855   30.2282 C   0  0  0  0  0  0  0  0  0  0  0  0
  -30.1588   -2.0692   30.1253 O   0  0  0  0  0  0  0  0  0  0  0  0
  -28.9767   -3.8438   30.6950 O   0  0  0  0  0  0  0  0  0  0  0  0
  -21.8149    0.8253   28.9591 Cl  0  0  0  0  0  0  0  0  0  0  0  0
  4 11  1  0
 11 12  2  0
 11 13  1  0
  6 14  1  0
 14 15  2  0
 14 16  1  0
  5 17  1  0
  1  2  2  0
  2  3  1  0
  8  7  1  0
  7  6  2  0
  6  1  1  0
  3  4  2  0
  4  5  1  0
  5  9  2  0
  9 10  1  0
 10  8  2  0
  8  3  1  0
M  END

$$$$
