No_1500-gen_results/8p0m/2024-11-27-11-27-31/
     RDKit          3D

 13 13  0  0  0  0  0  0  0  0999 V2000
  -28.0162   -0.8135   28.8779 C   0  0  0  0  0  0  0  0  0  0  0  0
  -28.4690   -0.7850   29.8287 C   0  0  0  0  0  0  0  0  0  0  0  0
  -28.1816    0.4277   28.1134 C   0  0  0  0  0  0  0  0  0  0  0  0
  -28.9841    1.4155   28.5154 C   0  0  0  0  0  0  0  0  0  0  0  0
  -29.3802    0.1384   30.4612 C   0  0  0  0  0  0  0  0  0  0  0  0
  -29.5415    1.2736   29.7242 C   0  0  0  0  0  0  0  0  0  0  0  0
  -27.4452    0.4872   26.7726 C   0  0  0  0  0  0  0  0  0  0  0  0
  -26.0008    0.3969   26.7906 C   0  0  0  0  0  0  0  0  0  0  0  0
  -25.3172   -0.0117   27.8848 C   0  0  0  0  0  0  0  0  0  0  0  0
  -23.8902    0.0318   27.8973 C   0  0  0  0  0  0  0  0  0  0  0  0
  -23.1462   -0.4528   29.0421 C   0  0  0  0  0  0  0  0  0  0  0  0
  -23.7699   -1.3885   29.8640 C   0  0  0  0  0  0  0  0  0  0  0  0
  -25.1544   -1.5672   29.7779 C   0  0  0  0  0  0  0  0  0  0  0  0
  3  7  1  0
  7  8  1  0
  8  9  2  3
  9 10  1  0
 10 11  1  0
 11 12  2  3
 12 13  1  0
  1  2  2  0
  2  5  1  0
  5  6  2  0
  6  4  1  0
  4  3  2  0
  3  1  1  0
M  END

$$$$
