No_1785-gen_results/8p0m/2024-11-27-11-27-31/
     RDKit          3D

 35 37  0  0  0  0  0  0  0  0999 V2000
  -28.0162   -0.8135   28.8779 C   0  0  0  0  0  0  0  0  0  0  0  0
  -28.4690   -0.7850   29.8287 C   0  0  0  0  0  0  0  0  0  0  0  0
  -27.1356    0.2359   28.5352 C   0  0  0  0  0  0  0  0  0  0  0  0
  -26.8745    1.2825   29.3982 C   0  0  0  0  0  0  0  0  0  0  0  0
  -28.3613    0.1987   30.9244 C   0  0  0  0  0  0  0  0  0  0  0  0
  -27.5277    1.2234   30.6356 C   0  0  0  0  0  0  0  0  0  0  0  0
  -26.3879    0.2914   27.2334 C   0  0  0  0  0  0  0  0  0  0  0  0
  -25.7787   -0.5228   27.0340 F   0  0  0  0  0  0  0  0  0  0  0  0
  -25.6034    1.4597   27.1041 F   0  0  0  0  0  0  0  0  0  0  0  0
  -27.3759    0.5234   26.2013 F   0  0  0  0  0  0  0  0  0  0  0  0
  -29.3958   -2.0216   30.3203 C   0  0  0  0  0  0  0  0  0  0  0  0
  -29.7706   -2.0127   31.5080 O   0  0  0  0  0  0  0  0  0  0  0  0
  -29.5199   -2.9933   29.6021 O   0  0  0  0  0  0  0  0  0  0  0  0
  -27.2777    2.3337   31.6061 C   0  0  0  0  0  0  0  0  0  0  0  0
  -27.5740    2.4804   32.5828 C   0  0  0  0  0  0  0  0  0  0  0  0
  -27.2411    3.6429   33.5118 C   0  0  0  0  0  0  0  0  0  0  0  0
  -26.4233    4.6401   32.9844 C   0  0  0  0  0  0  0  0  0  0  0  0
  -25.9737    4.4773   31.6492 C   0  0  0  0  0  0  0  0  0  0  0  0
  -26.3131    3.3757   30.9271 C   0  0  0  0  0  0  0  0  0  0  0  0
  -26.0056    5.8134   33.7931 C   0  0  0  0  0  0  0  0  0  0  0  0
  -25.0552    6.2446   33.7342 O   0  0  0  0  0  0  0  0  0  0  0  0
  -26.9808    6.2762   34.5947 O   0  0  0  0  0  0  0  0  0  0  0  0
  -26.7833    7.3354   35.2568 C   0  0  0  0  0  0  0  0  0  0  0  0
  -26.9121    8.4901   34.7793 C   0  0  0  0  0  0  0  0  0  0  0  0
  -27.7175    8.6732   33.6482 C   0  0  0  0  0  0  0  0  0  0  0  0
  -28.7559    7.8677   33.4060 C   0  0  0  0  0  0  0  0  0  0  0  0
  -29.6255    8.1552   32.2438 C   0  0  0  0  0  0  0  0  0  0  0  0
  -29.2371    9.1895   31.4202 C   0  0  0  0  0  0  0  0  0  0  0  0
  -28.1890   10.0010   31.6885 C   0  0  0  0  0  0  0  0  0  0  0  0
  -27.4302    9.8146   32.8121 C   0  0  0  0  0  0  0  0  0  0  0  0
  -27.9186   11.1440   30.7845 C   0  0  0  0  0  0  0  0  0  0  0  0
  -27.1646   11.1731   30.1209 O   0  0  0  0  0  0  0  0  0  0  0  0
  -28.7749   12.1632   31.0628 O   0  0  0  0  0  0  0  0  0  0  0  0
  -30.7142    7.2671   31.9606 C   0  0  0  0  0  0  0  0  0  0  0  0
  -31.7276    7.3080   32.6924 N   0  0  0  0  0  0  0  0  0  0  0  0
  3  7  1  0
  7  8  1  0
  7  9  1  0
  7 10  1  0
  2 11  1  0
 11 12  2  0
 11 13  1  0
  6 14  1  0
 17 20  1  0
 20 21  2  0
 20 22  1  0
 22 23  1  0
 23 24  2  3
 24 25  1  0
 29 31  1  0
 31 32  2  0
 31 33  1  0
 27 34  1  0
 34 35  1  0
 14 15  2  0
 15 16  1  0
 16 17  2  0
 17 18  1  0
 18 19  2  0
 19 14  1  0
 25 26  2  0
 26 27  1  0
 27 28  2  0
 28 29  1  0
 29 30  2  0
 30 25  1  0
  1  2  2  0
  2  5  1  0
  5  6  2  0
  6  4  1  0
  4  3  2  0
  3  1  1  0
M  END

$$$$
