No_1649-gen_results/8p0m/2024-11-27-11-27-31/
     RDKit          3D

 12 13  0  0  0  0  0  0  0  0999 V2000
  -28.1229   -1.3353   28.4874 O   0  0  0  0  0  0  0  0  0  0  0  0
  -27.4806   -0.4044   28.7094 C   0  0  0  0  0  0  0  0  0  0  0  0
  -26.3804   -0.0867   27.9394 C   0  0  0  0  0  0  0  0  0  0  0  0
  -27.4232    0.1749   30.0549 N   0  0  0  0  0  0  0  0  0  0  0  0
  -25.8482    1.0048   27.9942 C   0  0  0  0  0  0  0  0  0  0  0  0
  -24.7250    1.4898   27.1703 C   0  0  0  0  0  0  0  0  0  0  0  0
  -23.7604    2.3802   27.6117 C   0  0  0  0  0  0  0  0  0  0  0  0
  -24.0818    2.8961   28.7637 N   0  0  0  0  0  0  0  0  0  0  0  0
  -26.7090    1.3337   30.2968 C   0  0  0  0  0  0  0  0  0  0  0  0
  -25.7874    1.8280   29.2603 C   0  0  0  0  0  0  0  0  0  0  0  0
  -24.8793    2.7779   29.5854 C   0  0  0  0  0  0  0  0  0  0  0  0
  -24.9269    3.3883   30.6823 O   0  0  0  0  0  0  0  0  0  0  0  0
  1  2  2  0
  2  3  1  0
  2  4  1  0
  3  5  1  0
  5  6  1  0
  6  7  1  0
  7  8  1  0
  5 10  1  0
  9 10  1  0
  8 11  1  0
 10 11  1  0
 11 12  2  0
  9  4  1  0
M  END

$$$$
