No_1952-gen_results/8p0m/2024-11-27-11-27-31/
     RDKit          3D

 27 29  0  0  0  0  0  0  0  0999 V2000
  -28.0162   -0.8135   28.8779 C   0  0  0  0  0  0  0  0  0  0  0  0
  -28.4690   -0.7850   29.8287 C   0  0  0  0  0  0  0  0  0  0  0  0
  -26.5042   -0.7777   28.8766 C   0  0  0  0  0  0  0  0  0  0  0  0
  -25.6540   -0.6597   27.7191 C   0  0  0  0  0  0  0  0  0  0  0  0
  -27.9180   -0.9374   31.1824 C   0  0  0  0  0  0  0  0  0  0  0  0
  -26.5423   -0.9399   31.2606 C   0  0  0  0  0  0  0  0  0  0  0  0
  -25.7832   -0.8935   30.1201 C   0  0  0  0  0  0  0  0  0  0  0  0
  -24.3096   -0.3015   27.8531 C   0  0  0  0  0  0  0  0  0  0  0  0
  -23.6669   -0.4595   29.0986 C   0  0  0  0  0  0  0  0  0  0  0  0
  -24.3700   -0.6645   30.2027 C   0  0  0  0  0  0  0  0  0  0  0  0
  -22.1946   -0.2290   29.1314 C   0  0  0  0  0  0  0  0  0  0  0  0
  -21.2882    0.5665   28.7715 N   0  0  0  0  0  0  0  0  0  0  0  0
  -21.6674   -1.0322   30.0762 O   0  0  0  0  0  0  0  0  0  0  0  0
  -30.0674   -0.8839   29.8756 C   0  0  0  0  0  0  0  0  0  0  0  0
  -30.5853   -0.0391   30.7634 F   0  0  0  0  0  0  0  0  0  0  0  0
  -30.4833   -2.1229   30.1425 F   0  0  0  0  0  0  0  0  0  0  0  0
  -30.5110   -0.5654   28.6931 F   0  0  0  0  0  0  0  0  0  0  0  0
  -21.6147    1.5587   27.7280 C   0  0  0  0  0  0  0  0  0  0  0  0
  -22.6802    2.4902   28.1077 C   0  0  0  0  0  0  0  0  0  0  0  0
  -23.5035    2.9792   27.0392 C   0  0  0  0  0  0  0  0  0  0  0  0
  -24.7141    3.6766   27.3307 C   0  0  0  0  0  0  0  0  0  0  0  0
  -25.5883    3.1466   27.7212 C   0  0  0  0  0  0  0  0  0  0  0  0
  -26.8923    3.8873   28.0346 C   0  0  0  0  0  0  0  0  0  0  0  0
  -26.9285    5.1736   27.6971 C   0  0  0  0  0  0  0  0  0  0  0  0
  -25.8540    5.8399   27.1388 C   0  0  0  0  0  0  0  0  0  0  0  0
  -24.6919    5.1371   26.9265 C   0  0  0  0  0  0  0  0  0  0  0  0
  -23.2262    2.6523   25.6756 C   0  0  0  0  0  0  0  0  0  0  0  0
  9 11  1  0
 11 12  1  0
 11 13  2  0
  2 14  1  0
 14 15  1  0
 14 16  1  0
 14 17  1  0
 12 18  1  0
 18 19  1  0
 19 20  1  0
 20 21  1  0
 20 27  1  0
 21 22  2  0
 22 23  1  0
 23 24  2  0
 24 25  1  0
 25 26  2  0
 26 21  1  0
  1  2  2  0
  2  5  1  0
  5  6  2  0
  6  7  1  0
  3  1  1  0
  3  4  2  0
  4  8  1  0
  8  9  2  0
  9 10  1  0
 10  7  2  0
  7  3  1  0
M  END

$$$$
