No_1106-gen_results/8p0m/2024-11-27-11-27-31/
     RDKit          3D

 19 21  0  0  0  0  0  0  0  0999 V2000
  -28.0162   -0.8135   28.8779 C   0  0  0  0  0  0  0  0  0  0  0  0
  -27.0636   -0.1189   28.6079 C   0  0  0  0  0  0  0  0  0  0  0  0
  -27.0010    0.6913   27.4910 C   0  0  0  0  0  0  0  0  0  0  0  0
  -28.1420    0.8282   26.7994 C   0  0  0  0  0  0  0  0  0  0  0  0
  -29.2898   -0.4871   28.3661 C   0  0  0  0  0  0  0  0  0  0  0  0
  -29.2849    0.2608   27.2623 C   0  0  0  0  0  0  0  0  0  0  0  0
  -27.9479   -1.7992   30.3321 Cl  0  0  0  0  0  0  0  0  0  0  0  0
  -30.6242    0.3775   26.6697 C   0  0  0  0  0  0  0  0  0  0  0  0
  -31.5445    0.2843   27.2212 O   0  0  0  0  0  0  0  0  0  0  0  0
  -30.6402    0.6010   25.3165 O   0  0  0  0  0  0  0  0  0  0  0  0
  -25.6277   -0.3714   29.3098 C   0  0  0  0  0  0  0  0  0  0  0  0
  -24.9514   -1.3901   29.0171 N   0  0  0  0  0  0  0  0  0  0  0  0
  -24.9116   -2.3204   28.5466 C   0  0  0  0  0  0  0  0  0  0  0  0
  -23.8092   -3.1619   28.6640 N   0  0  0  0  0  0  0  0  0  0  0  0
  -23.5440   -1.4139   29.4989 C   0  0  0  0  0  0  0  0  0  0  0  0
  -22.9748   -0.3284   30.1713 N   0  0  0  0  0  0  0  0  0  0  0  0
  -23.0025   -2.5590   29.2416 N   0  0  0  0  0  0  0  0  0  0  0  0
  -25.3107    0.7735   30.1151 C   0  0  0  0  0  0  0  0  0  0  0  0
  -24.2787    0.9264   30.6225 C   0  0  0  0  0  0  0  0  0  0  0  0
  1  7  1  0
  6  8  1  0
  8  9  1  0
  8 10  2  0
  2 11  1  0
 11 12  1  0
 12 13  1  0
 13 14  2  0
 12 15  1  0
 15 16  1  0
 14 17  1  0
 11 18  1  0
 17 15  1  0
 18 19  1  0
 19 16  1  0
  1  2  2  0
  2  3  1  0
  3  4  2  0
  4  6  1  0
  6  5  2  0
  5  1  1  0
M  END

$$$$
