No_1110-gen_results/8p0m/2024-11-27-11-27-31/
     RDKit          3D

 15 16  0  0  0  0  0  0  0  0999 V2000
  -28.0162   -0.8135   28.8779 C   0  0  0  0  0  0  0  0  0  0  0  0
  -28.4690   -0.7850   29.8287 C   0  0  0  0  0  0  0  0  0  0  0  0
  -26.5455   -0.8762   28.8500 C   0  0  0  0  0  0  0  0  0  0  0  0
  -25.6825   -0.7773   27.6829 C   0  0  0  0  0  0  0  0  0  0  0  0
  -27.9181   -1.0034   31.1877 C   0  0  0  0  0  0  0  0  0  0  0  0
  -26.5308   -1.0794   31.2463 C   0  0  0  0  0  0  0  0  0  0  0  0
  -25.7798   -1.0462   30.0905 C   0  0  0  0  0  0  0  0  0  0  0  0
  -24.3676   -0.2501   27.7917 C   0  0  0  0  0  0  0  0  0  0  0  0
  -23.8326    0.8345   27.1121 C   0  0  0  0  0  0  0  0  0  0  0  0
  -24.6327    1.7409   26.3811 C   0  0  0  0  0  0  0  0  0  0  0  0
  -23.9587    2.9052   25.8379 C   0  0  0  0  0  0  0  0  0  0  0  0
  -22.4871    1.3714   27.4612 C   0  0  0  0  0  0  0  0  0  0  0  0
  -21.7216    0.6422   28.4638 C   0  0  0  0  0  0  0  0  0  0  0  0
  -23.5200   -0.7779   28.7854 N   0  0  0  0  0  0  0  0  0  0  0  0
  -22.2508   -0.4101   29.0436 C   0  0  0  0  0  0  0  0  0  0  0  0
  3  4  1  0
  4  8  1  0
  9 10  1  0
 10 11  2  0
  1  2  2  0
  2  5  1  0
  5  6  2  0
  6  7  1  0
  7  3  2  0
  3  1  1  0
  8  9  2  0
  9 12  1  0
 12 13  2  0
 13 15  1  0
 15 14  2  0
 14  8  1  0
M  END

$$$$
