No_1544-gen_results/8p0m/2024-11-27-11-27-31/
     RDKit          3D

 28 31  0  0  0  0  0  0  0  0999 V2000
  -28.0162   -0.8135   28.8779 C   0  0  0  0  0  0  0  0  0  0  0  0
  -27.0636   -0.1189   28.6079 C   0  0  0  0  0  0  0  0  0  0  0  0
  -25.7923   -0.4302   29.0761 C   0  0  0  0  0  0  0  0  0  0  0  0
  -24.5456    0.3494   28.8225 C   0  0  0  0  0  0  0  0  0  0  0  0
  -24.6586    1.4196   27.8878 C   0  0  0  0  0  0  0  0  0  0  0  0
  -25.9471    1.6811   27.3792 C   0  0  0  0  0  0  0  0  0  0  0  0
  -27.0439    0.9739   27.6871 C   0  0  0  0  0  0  0  0  0  0  0  0
  -28.0485   -1.5981   30.1629 C   0  0  0  0  0  0  0  0  0  0  0  0
  -26.7598   -2.0713   30.6119 C   0  0  0  0  0  0  0  0  0  0  0  0
  -25.6104   -1.4023   30.1709 C   0  0  0  0  0  0  0  0  0  0  0  0
  -23.4418    2.1630   27.5308 C   0  0  0  0  0  0  0  0  0  0  0  0
  -21.9171    1.7496   27.9301 Cl  0  0  0  0  0  0  0  0  0  0  0  0
  -23.5872    3.2031   26.6924 O   0  0  0  0  0  0  0  0  0  0  0  0
  -28.3047    1.3039   26.9757 C   0  0  0  0  0  0  0  0  0  0  0  0
  -29.0247    2.1410   27.4725 C   0  0  0  0  0  0  0  0  0  0  0  0
  -28.5713    0.6468   25.7686 C   0  0  0  0  0  0  0  0  0  0  0  0
  -29.7375    0.8120   25.0618 C   0  0  0  0  0  0  0  0  0  0  0  0
  -30.3009    2.4582   26.7955 C   0  0  0  0  0  0  0  0  0  0  0  0
  -30.5786    1.8263   25.5566 C   0  0  0  0  0  0  0  0  0  0  0  0
  -29.2440   -2.3541   30.5152 C   0  0  0  0  0  0  0  0  0  0  0  0
  -29.2927   -3.5003   30.7110 O   0  0  0  0  0  0  0  0  0  0  0  0
  -30.3425   -1.6392   30.7003 O   0  0  0  0  0  0  0  0  0  0  0  0
  -31.3779   -1.8674   30.9886 C   0  0  0  0  0  0  0  0  0  0  0  0
  -31.8887   -1.6455   32.2241 C   0  0  0  0  0  0  0  0  0  0  0  0
  -33.1808   -1.9612   32.6269 C   0  0  0  0  0  0  0  0  0  0  0  0
  -32.2716   -2.4873   30.0491 C   0  0  0  0  0  0  0  0  0  0  0  0
  -33.6035   -2.8058   30.3703 C   0  0  0  0  0  0  0  0  0  0  0  0
  -34.0269   -2.5168   31.6762 C   0  0  0  0  0  0  0  0  0  0  0  0
  5 11  1  0
 11 12  1  0
 11 13  2  0
  7 14  1  0
  8 20  1  0
 20 21  2  0
 20 22  1  0
 22 23  1  0
 23 24  2  0
 24 25  1  0
 25 28  2  0
 28 27  1  0
 27 26  2  0
 26 23  1  0
  3  4  1  0
  4  5  2  0
  5  6  1  0
  6  7  2  0
  7  2  1  0
 14 15  2  0
 15 18  1  0
 18 19  2  0
 19 17  1  0
 17 16  2  0
 16 14  1  0
  1  2  2  0
  2  3  1  0
  3 10  2  0
 10  9  1  0
  9  8  2  0
  8  1  1  0
M  END

$$$$
