No_1945-gen_results/8p0m/2024-11-27-11-27-31/
     RDKit          3D

 15 16  0  0  0  0  0  0  0  0999 V2000
  -28.1229   -1.3353   28.4874 O   0  0  0  0  0  0  0  0  0  0  0  0
  -28.5208   -0.4363   29.0779 C   0  0  0  0  0  0  0  0  0  0  0  0
  -28.5894    0.5916   28.9464 C   0  0  0  0  0  0  0  0  0  0  0  0
  -29.1246   -0.9399   30.4266 N   0  0  0  0  0  0  0  0  0  0  0  0
  -27.6200    1.2738   28.1389 C   0  0  0  0  0  0  0  0  0  0  0  0
  -27.1304    2.5005   28.1391 C   0  0  0  0  0  0  0  0  0  0  0  0
  -27.3522    3.2713   29.2975 C   0  0  0  0  0  0  0  0  0  0  0  0
  -28.3576    2.8028   30.1255 C   0  0  0  0  0  0  0  0  0  0  0  0
  -28.7582    1.5192   30.0619 C   0  0  0  0  0  0  0  0  0  0  0  0
  -29.2926   -1.9755   30.8641 C   0  0  0  0  0  0  0  0  0  0  0  0
  -28.8773   -3.1566   30.1914 C   0  0  0  0  0  0  0  0  0  0  0  0
  -29.4993   -4.4782   30.5660 C   0  0  0  0  0  0  0  0  0  0  0  0
  -29.5946   -4.7702   31.7688 C   0  0  0  0  0  0  0  0  0  0  0  0
  -29.8306   -3.6526   32.7267 C   0  0  0  0  0  0  0  0  0  0  0  0
  -29.7636   -2.3441   32.2499 C   0  0  0  0  0  0  0  0  0  0  0  0
  1  2  2  0
  2  3  1  0
  2  4  1  0
  4 10  1  0
  3  5  2  0
  5  6  1  0
  6  7  2  0
  7  8  1  0
  8  9  2  0
  9  3  1  0
 10 11  2  0
 11 12  1  0
 12 13  2  0
 13 14  1  0
 14 15  2  0
 15 10  1  0
M  END

$$$$
