No_1111-gen_results/8p0m/2024-11-27-11-27-31/
     RDKit          3D

  9  9  0  0  0  0  0  0  0  0999 V2000
  -28.1229   -1.3353   28.4874 O   0  0  0  0  0  0  0  0  0  0  0  0
  -27.4806   -0.4044   28.7094 C   0  0  0  0  0  0  0  0  0  0  0  0
  -27.1904    0.2460   29.5268 C   0  0  0  0  0  0  0  0  0  0  0  0
  -26.6574   -0.2360   27.5632 O   0  0  0  0  0  0  0  0  0  0  0  0
  -27.9992    0.1556   30.9910 Cl  0  0  0  0  0  0  0  0  0  0  0  0
  -26.1558    1.4079   29.6650 C   0  0  0  0  0  0  0  0  0  0  0  0
  -25.6962    1.8792   28.7659 C   0  0  0  0  0  0  0  0  0  0  0  0
  -25.7262    0.8673   27.4818 C   0  0  0  0  0  0  0  0  0  0  0  0
  -24.8802    1.2044   26.0539 Cl  0  0  0  0  0  0  0  0  0  0  0  0
  1  2  2  0
  2  3  1  0
  2  4  1  0
  3  5  1  0
  3  6  1  0
  6  7  2  0
  4  8  1  0
  7  8  1  0
  8  9  1  0
M  END

$$$$
