No_1343-gen_results/8p0m/2024-11-27-11-27-31/
     RDKit          3D

 20 21  0  0  0  0  0  0  0  0999 V2000
  -28.0162   -0.8135   28.8779 C   0  0  0  0  0  0  0  0  0  0  0  0
  -27.0636   -0.1190   28.6079 C   0  0  0  0  0  0  0  0  0  0  0  0
  -26.9716    0.7139   27.5060 C   0  0  0  0  0  0  0  0  0  0  0  0
  -25.8205    1.4909   27.1160 C   0  0  0  0  0  0  0  0  0  0  0  0
  -24.8579    1.3421   27.6008 C   0  0  0  0  0  0  0  0  0  0  0  0
  -24.6224    0.5295   28.8144 C   0  0  0  0  0  0  0  0  0  0  0  0
  -25.7344   -0.1811   29.1908 C   0  0  0  0  0  0  0  0  0  0  0  0
  -29.1915   -0.1569   29.1318 N   0  0  0  0  0  0  0  0  0  0  0  0
  -23.5190    2.1289   27.2971 C   0  0  0  0  0  0  0  0  0  0  0  0
  -29.5945    0.1977   30.2897 C   0  0  0  0  0  0  0  0  0  0  0  0
  -22.7742    2.6405   28.2917 C   0  0  0  0  0  0  0  0  0  0  0  0
  -22.5556    1.5721   29.3510 C   0  0  0  0  0  0  0  0  0  0  0  0
  -23.5333    0.6811   29.6965 C   0  0  0  0  0  0  0  0  0  0  0  0
  -30.0637    0.0060   28.0277 C   0  0  0  0  0  0  0  0  0  0  0  0
  -31.4200   -0.2783   28.2808 C   0  0  0  0  0  0  0  0  0  0  0  0
  -31.8764   -1.4156   28.2244 C   0  0  0  0  0  0  0  0  0  0  0  0
  -31.1595   -2.4771   27.9809 C   0  0  0  0  0  0  0  0  0  0  0  0
  -31.7051   -3.7479   28.2689 C   0  0  0  0  0  0  0  0  0  0  0  0
  -33.0091   -3.9230   28.4348 C   0  0  0  0  0  0  0  0  0  0  0  0
  -33.8294   -2.8262   28.6085 C   0  0  0  0  0  0  0  0  0  0  0  0
  1  8  1  0
  8 10  1  0
  8 14  1  0
 14 15  1  0
 15 16  2  3
 16 17  1  0
 17 18  2  3
 18 19  1  0
 19 20  2  0
  1  2  1  0
  2  3  2  0
  3  4  1  0
  4  5  2  0
  6  7  2  0
  7  2  1  0
  5  6  1  0
  6 13  1  0
 13 12  2  0
 12 11  1  0
 11  9  2  0
  9  5  1  0
M  END

$$$$
