No_1334-gen_results/8p0m/2024-11-27-11-27-31/
     RDKit          3D

 14 15  0  0  0  0  0  0  0  0999 V2000
  -28.1229   -1.3353   28.4874 O   0  0  0  0  0  0  0  0  0  0  0  0
  -27.4806   -0.4044   28.7094 C   0  0  0  0  0  0  0  0  0  0  0  0
  -27.1904    0.2460   29.5268 C   0  0  0  0  0  0  0  0  0  0  0  0
  -26.8157    0.1371   27.4262 N   0  0  0  0  0  0  0  0  0  0  0  0
  -27.5787    0.0639   30.8960 C   0  0  0  0  0  0  0  0  0  0  0  0
  -25.9496    0.8465   27.3468 C   0  0  0  0  0  0  0  0  0  0  0  0
  -25.6090    1.6542   28.4822 C   0  0  0  0  0  0  0  0  0  0  0  0
  -26.1237    1.3390   29.6348 C   0  0  0  0  0  0  0  0  0  0  0  0
  -27.1539    0.2331   31.8904 C   0  0  0  0  0  0  0  0  0  0  0  0
  -26.1446    1.4158   31.9541 C   0  0  0  0  0  0  0  0  0  0  0  0
  -25.6345    1.9304   30.8552 C   0  0  0  0  0  0  0  0  0  0  0  0
  -24.5290    2.7229   28.3089 C   0  0  0  0  0  0  0  0  0  0  0  0
  -23.9908    2.9462   27.3260 O   0  0  0  0  0  0  0  0  0  0  0  0
  -24.2183    3.4180   29.4266 O   0  0  0  0  0  0  0  0  0  0  0  0
  1  2  2  0
  2  3  1  0
  2  4  1  0
  6  7  1  0
  7  8  1  0
  7 12  1  0
 12 13  2  0
 12 14  1  0
  6  4  1  0
  3  5  2  0
  5  9  1  0
  9 10  2  0
 10 11  1  0
 11  8  2  0
  8  3  1  0
M  END

$$$$
