No_1563-gen_results/8p0m/2024-11-27-11-27-31/
     RDKit          3D

 35 39  0  0  0  0  0  0  0  0999 V2000
  -28.0162   -0.8135   28.8779 C   0  0  0  0  0  0  0  0  0  0  0  0
  -28.4690   -0.7850   29.8287 C   0  0  0  0  0  0  0  0  0  0  0  0
  -28.1960    0.3478   28.0550 C   0  0  0  0  0  0  0  0  0  0  0  0
  -29.0191    1.3501   28.3782 C   0  0  0  0  0  0  0  0  0  0  0  0
  -29.6249    1.2683   29.6012 C   0  0  0  0  0  0  0  0  0  0  0  0
  -29.3821    0.1816   30.4004 C   0  0  0  0  0  0  0  0  0  0  0  0
  -27.5513    0.3303   26.8432 F   0  0  0  0  0  0  0  0  0  0  0  0
  -29.9195    0.0109   31.6552 O   0  0  0  0  0  0  0  0  0  0  0  0
  -29.2108    2.4597   27.4720 C   0  0  0  0  0  0  0  0  0  0  0  0
  -29.8112    2.3859   26.2834 C   0  0  0  0  0  0  0  0  0  0  0  0
  -30.3705    1.1686   25.9040 C   0  0  0  0  0  0  0  0  0  0  0  0
  -30.9632    1.0684   24.6051 C   0  0  0  0  0  0  0  0  0  0  0  0
  -31.5342   -0.0956   24.1694 C   0  0  0  0  0  0  0  0  0  0  0  0
  -31.3988   -1.2914   24.9467 C   0  0  0  0  0  0  0  0  0  0  0  0
  -30.8528   -1.1311   26.2311 C   0  0  0  0  0  0  0  0  0  0  0  0
  -30.3695    0.0151   26.6934 C   0  0  0  0  0  0  0  0  0  0  0  0
  -30.5634    0.0343   27.9018 O   0  0  0  0  0  0  0  0  0  0  0  0
  -31.9601   -0.5675   28.3166 C   0  0  0  0  0  0  0  0  0  0  0  0
  -29.5329    2.4745   30.3801 O   0  0  0  0  0  0  0  0  0  0  0  0
  -32.4749    0.1723   29.3997 C   0  0  0  0  0  0  0  0  0  0  0  0
  -33.7296   -0.1735   29.9316 C   0  0  0  0  0  0  0  0  0  0  0  0
  -34.3387   -1.2833   29.3808 C   0  0  0  0  0  0  0  0  0  0  0  0
  -33.7810   -1.9838   28.3203 C   0  0  0  0  0  0  0  0  0  0  0  0
  -32.5664   -1.5662   27.8940 C   0  0  0  0  0  0  0  0  0  0  0  0
  -31.8755   -1.7961   27.0981 O   0  0  0  0  0  0  0  0  0  0  0  0
  -29.4298   -0.5581   32.6851 C   0  0  0  0  0  0  0  0  0  0  0  0
  -30.0542   -1.7870   32.9189 C   0  0  0  0  0  0  0  0  0  0  0  0
  -29.5668   -2.5070   33.6338 O   0  0  0  0  0  0  0  0  0  0  0  0
  -31.1458   -2.0366   32.3059 O   0  0  0  0  0  0  0  0  0  0  0  0
  -28.4670    3.1030   30.7445 C   0  0  0  0  0  0  0  0  0  0  0  0
  -28.5557    3.9476   31.7981 C   0  0  0  0  0  0  0  0  0  0  0  0
  -27.4089    4.4029   32.2711 C   0  0  0  0  0  0  0  0  0  0  0  0
  -26.0844    4.2421   31.6821 C   0  0  0  0  0  0  0  0  0  0  0  0
  -26.0655    3.3360   30.6107 C   0  0  0  0  0  0  0  0  0  0  0  0
  -27.2365    2.7876   30.1657 C   0  0  0  0  0  0  0  0  0  0  0  0
  3  7  1  0
  6  8  1  0
  4  9  1  0
  9 10  2  3
 10 11  1  0
 16 17  1  0
 17 18  1  0
  5 19  1  0
 15 25  1  0
 24 25  1  0
  8 26  1  0
 26 27  1  0
 27 28  1  0
 27 29  2  0
 19 30  1  0
 11 12  2  0
 12 13  1  0
 13 14  2  0
 14 15  1  0
 15 16  2  0
 16 11  1  0
  1  2  2  0
  2  6  1  0
  6  5  2  0
  5  4  1  0
  4  3  2  0
  3  1  1  0
 18 20  2  0
 20 21  1  0
 21 22  2  0
 22 23  1  0
 23 24  2  0
 24 18  1  0
 30 31  2  0
 31 32  1  0
 32 33  2  0
 33 34  1  0
 34 35  2  0
 35 30  1  0
M  END

$$$$
