No_1927-gen_results/8p0m/2024-11-27-11-27-31/
     RDKit          3D

 34 36  0  0  0  0  0  0  0  0999 V2000
  -28.0162   -0.8135   28.8779 C   0  0  0  0  0  0  0  0  0  0  0  0
  -28.4690   -0.7850   29.8287 C   0  0  0  0  0  0  0  0  0  0  0  0
  -26.5455   -0.8762   28.8500 C   0  0  0  0  0  0  0  0  0  0  0  0
  -25.8041   -1.0324   30.0571 C   0  0  0  0  0  0  0  0  0  0  0  0
  -26.5373   -1.0386   31.2171 C   0  0  0  0  0  0  0  0  0  0  0  0
  -27.8843   -0.9532   31.1862 C   0  0  0  0  0  0  0  0  0  0  0  0
  -24.3655   -1.1134   30.0483 C   0  0  0  0  0  0  0  0  0  0  0  0
  -23.6925    0.1188   29.9185 C   0  0  0  0  0  0  0  0  0  0  0  0
  -23.1776    0.5817   28.7884 C   0  0  0  0  0  0  0  0  0  0  0  0
  -22.7285    1.8795   28.5450 C   0  0  0  0  0  0  0  0  0  0  0  0
  -22.3364    2.0294   27.1673 C   0  0  0  0  0  0  0  0  0  0  0  0
  -30.0693   -0.6827   29.9088 C   0  0  0  0  0  0  0  0  0  0  0  0
  -30.5245   -0.1690   29.0438 O   0  0  0  0  0  0  0  0  0  0  0  0
  -30.7216   -1.1337   30.9233 O   0  0  0  0  0  0  0  0  0  0  0  0
  -25.5901   -0.8827   27.6718 C   0  0  0  0  0  0  0  0  0  0  0  0
  -23.6230    0.9856   31.1488 C   0  0  0  0  0  0  0  0  0  0  0  0
  -24.2124    0.6574   32.2008 N   0  0  0  0  0  0  0  0  0  0  0  0
  -24.9785    1.5650   32.9715 C   0  0  0  0  0  0  0  0  0  0  0  0
  -25.8423    1.0592   33.9717 C   0  0  0  0  0  0  0  0  0  0  0  0
  -25.0695    2.9394   32.5906 C   0  0  0  0  0  0  0  0  0  0  0  0
  -25.9154    3.8264   33.2464 C   0  0  0  0  0  0  0  0  0  0  0  0
  -26.6645    1.9951   34.6907 C   0  0  0  0  0  0  0  0  0  0  0  0
  -26.7022    3.3620   34.2870 C   0  0  0  0  0  0  0  0  0  0  0  0
  -23.4249   -0.1743   33.0996 C   0  0  0  0  0  0  0  0  0  0  0  0
  -22.1652   -0.3406   28.3373 O   0  0  0  0  0  0  0  0  0  0  0  0
  -23.4312    2.0950   26.1312 C   0  0  0  0  0  0  0  0  0  0  0  0
  -24.6394    2.5889   26.5202 C   0  0  0  0  0  0  0  0  0  0  0  0
  -25.8041    1.9897   25.9964 C   0  0  0  0  0  0  0  0  0  0  0  0
  -27.0768    2.5619   26.2291 C   0  0  0  0  0  0  0  0  0  0  0  0
  -28.2507    1.9442   25.8014 C   0  0  0  0  0  0  0  0  0  0  0  0
  -28.0810    0.8243   24.9698 C   0  0  0  0  0  0  0  0  0  0  0  0
  -26.8471    0.3068   24.6666 C   0  0  0  0  0  0  0  0  0  0  0  0
  -25.6953    0.8883   25.1926 C   0  0  0  0  0  0  0  0  0  0  0  0
  -24.7198    3.8749   27.2358 C   0  0  0  0  0  0  0  0  0  0  0  0
  4  7  1  0
  7  8  1  0
  8  9  2  3
  9 10  1  0
 10 11  1  0
  2 12  1  0
 12 13  2  0
 12 14  1  0
  3 15  1  0
  8 16  1  0
 16 17  1  0
 17 18  1  0
 17 24  1  0
  9 25  1  0
 11 26  1  0
 26 27  1  0
 27 28  1  0
 27 34  1  0
 28 29  2  0
 29 30  1  0
 30 31  2  0
 31 32  1  0
 32 33  2  0
 33 28  1  0
  1  2  2  0
  2  6  1  0
  6  5  2  0
  5  4  1  0
  4  3  2  0
  3  1  1  0
 18 19  2  0
 19 22  1  0
 22 23  2  0
 23 21  1  0
 21 20  2  0
 20 18  1  0
M  END

$$$$
