No_1867-gen_results/8p0m/2024-11-27-11-27-31/
     RDKit          3D

 11 10  0  0  0  0  0  0  0  0999 V2000
  -28.1493   -0.8198   28.9079 Cl  0  0  0  0  0  0  0  0  0  0  0  0
  -27.8339    0.4961   29.0598 C   0  0  0  0  0  0  0  0  0  0  0  0
  -27.8833    1.0376   30.1944 F   0  0  0  0  0  0  0  0  0  0  0  0
  -26.3797    0.7729   28.5385 C   0  0  0  0  0  0  0  0  0  0  0  0
  -28.6112    1.2493   28.2241 F   0  0  0  0  0  0  0  0  0  0  0  0
  -25.8804    2.0485   28.6372 C   0  0  0  0  0  0  0  0  0  0  0  0
  -24.8220    2.1910   28.4092 F   0  0  0  0  0  0  0  0  0  0  0  0
  -26.5701    2.8234   27.6401 F   0  0  0  0  0  0  0  0  0  0  0  0
  -26.1735    2.6314   29.8224 F   0  0  0  0  0  0  0  0  0  0  0  0
  -26.2404    0.3198   27.2769 F   0  0  0  0  0  0  0  0  0  0  0  0
  -25.5079   -0.0892   29.2269 F   0  0  0  0  0  0  0  0  0  0  0  0
  1  2  1  0
  2  3  1  0
  2  4  1  0
  2  5  1  0
  4  6  1  0
  6  7  1  0
  6  8  1  0
  6  9  1  0
  4 10  1  0
  4 11  1  0
M  END

$$$$
