No_1911-gen_results/8p0m/2024-11-27-11-27-31/
     RDKit          3D

 35 39  0  0  0  0  0  0  0  0999 V2000
  -28.0162   -0.8135   28.8779 C   0  0  0  0  0  0  0  0  0  0  0  0
  -27.0636   -0.1190   28.6079 C   0  0  0  0  0  0  0  0  0  0  0  0
  -26.8756    1.1325   28.9134 C   0  0  0  0  0  0  0  0  0  0  0  0
  -27.9014    1.8066   29.6436 C   0  0  0  0  0  0  0  0  0  0  0  0
  -28.9449    1.0388   30.0360 C   0  0  0  0  0  0  0  0  0  0  0  0
  -29.0273   -0.2890   29.7051 C   0  0  0  0  0  0  0  0  0  0  0  0
  -25.6959    1.9505   28.4764 C   0  0  0  0  0  0  0  0  0  0  0  0
  -24.7049    1.7243   28.1388 C   0  0  0  0  0  0  0  0  0  0  0  0
  -23.6089    2.6292   27.6365 C   0  0  0  0  0  0  0  0  0  0  0  0
  -22.3590    2.1173   27.2592 C   0  0  0  0  0  0  0  0  0  0  0  0
  -21.9815    0.7956   27.7434 C   0  0  0  0  0  0  0  0  0  0  0  0
  -22.8198    0.0178   28.4707 C   0  0  0  0  0  0  0  0  0  0  0  0
  -24.0719    0.4333   28.7052 C   0  0  0  0  0  0  0  0  0  0  0  0
  -26.1526    3.5033   28.3965 C   0  0  0  0  0  0  0  0  0  0  0  0
  -30.0236   -1.1334   30.0767 O   0  0  0  0  0  0  0  0  0  0  0  0
  -29.8267   -2.1854   30.8625 C   0  0  0  0  0  0  0  0  0  0  0  0
  -28.9142   -2.2954   31.6042 C   0  0  0  0  0  0  0  0  0  0  0  0
  -30.7825   -3.3108   30.5844 C   0  0  0  0  0  0  0  0  0  0  0  0
  -28.7444   -3.5942   32.2403 N   0  0  0  0  0  0  0  0  0  0  0  0
  -31.7890   -3.1618   29.6541 N   0  0  0  0  0  0  0  0  0  0  0  0
  -30.6309   -4.5300   31.2782 C   0  0  0  0  0  0  0  0  0  0  0  0
  -29.5902   -4.5836   32.1764 C   0  0  0  0  0  0  0  0  0  0  0  0
  -32.3277   -2.0756   29.3284 C   0  0  0  0  0  0  0  0  0  0  0  0
  -33.3272   -2.1084   28.2701 C   0  0  0  0  0  0  0  0  0  0  0  0
  -32.1850   -4.2537   28.8517 C   0  0  0  0  0  0  0  0  0  0  0  0
  -33.0251   -4.2796   27.8591 C   0  0  0  0  0  0  0  0  0  0  0  0
  -33.6278   -3.1260   27.5396 C   0  0  0  0  0  0  0  0  0  0  0  0
  -26.2661    4.2488   29.1777 N   0  0  0  0  0  0  0  0  0  0  0  0
  -26.5319    5.3567   29.3011 C   0  0  0  0  0  0  0  0  0  0  0  0
  -26.2513    3.8256   27.1200 N   0  0  0  0  0  0  0  0  0  0  0  0
  -26.7341    6.0142   28.0529 C   0  0  0  0  0  0  0  0  0  0  0  0
  -26.5090    5.1679   26.9327 C   0  0  0  0  0  0  0  0  0  0  0  0
  -26.6333    6.1001   30.4323 N   0  0  0  0  0  0  0  0  0  0  0  0
  -26.3283    6.1329   31.5055 C   0  0  0  0  0  0  0  0  0  0  0  0
  -25.8718    5.1315   32.1735 C   0  0  0  0  0  0  0  0  0  0  0  0
  3  7  1  0
  7 14  1  0
  6 15  1  0
 15 16  1  0
 18 20  1  0
 20 23  1  0
 20 25  1  0
 24 27  1  0
 26 27  1  0
 29 33  1  0
 33 34  1  0
 34 35  2  0
  7  8  1  0
 23 24  1  0
 26 25  1  0
  1  2  2  0
  2  3  1  0
  3  4  2  0
  4  5  1  0
  5  6  2  0
  6  1  1  0
 14 28  2  0
 28 29  1  0
 29 31  2  0
 31 32  1  0
 32 30  2  0
 30 14  1  0
 16 17  2  0
 17 19  1  0
 19 22  2  0
 22 21  1  0
 21 18  2  0
 18 16  1  0
  8  9  2  0
  9 10  1  0
 10 11  2  0
 11 12  1  0
 12 13  2  0
 13  8  1  0
M  END

$$$$
