No_1131-gen_results/8p0m/2024-11-27-11-27-31/
     RDKit          3D

 21 22  0  0  0  0  0  0  0  0999 V2000
  -28.0162   -0.8135   28.8779 C   0  0  0  0  0  0  0  0  0  0  0  0
  -27.0636   -0.1189   28.6079 C   0  0  0  0  0  0  0  0  0  0  0  0
  -26.9287    1.1713   29.0083 C   0  0  0  0  0  0  0  0  0  0  0  0
  -25.7702    2.0341   28.6884 C   0  0  0  0  0  0  0  0  0  0  0  0
  -24.7141    1.4431   27.9188 C   0  0  0  0  0  0  0  0  0  0  0  0
  -24.8590    0.0783   27.5836 C   0  0  0  0  0  0  0  0  0  0  0  0
  -25.9647   -0.6606   27.9164 C   0  0  0  0  0  0  0  0  0  0  0  0
  -27.9821   -1.6367   30.0748 N   0  0  0  0  0  0  0  0  0  0  0  0
  -29.2163   -0.4132   28.6627 O   0  0  0  0  0  0  0  0  0  0  0  0
  -26.7315   -2.0678   30.6432 C   0  0  0  0  0  0  0  0  0  0  0  0
  -28.9739   -2.7502   30.2027 C   0  0  0  0  0  0  0  0  0  0  0  0
  -28.5069   -3.8549   30.9091 C   0  0  0  0  0  0  0  0  0  0  0  0
  -29.6052   -4.7039   31.4023 C   0  0  0  0  0  0  0  0  0  0  0  0
  -29.4714   -5.4666   32.4230 C   0  0  0  0  0  0  0  0  0  0  0  0
  -30.3076   -5.9804   33.2758 C   0  0  0  0  0  0  0  0  0  0  0  0
  -31.6869   -5.9328   32.8306 C   0  0  0  0  0  0  0  0  0  0  0  0
  -31.9748   -5.2086   31.6815 C   0  0  0  0  0  0  0  0  0  0  0  0
  -30.9705   -4.5103   31.0684 C   0  0  0  0  0  0  0  0  0  0  0  0
  -23.5037    2.1458   27.5586 C   0  0  0  0  0  0  0  0  0  0  0  0
  -22.3254    1.6922   27.4326 N   0  0  0  0  0  0  0  0  0  0  0  0
  -23.6456    3.4395   27.4464 O   0  0  0  0  0  0  0  0  0  0  0  0
  1  2  1  0
  1  8  1  0
  1  9  2  0
  8 10  1  0
  8 11  1  0
 11 12  2  3
 12 13  1  0
  5 19  1  0
 19 20  1  0
 19 21  2  0
  2  3  2  0
  3  4  1  0
  4  5  2  0
  5  6  1  0
  6  7  2  0
  7  2  1  0
 13 14  2  0
 14 15  1  0
 15 16  2  0
 16 17  1  0
 17 18  2  0
 18 13  1  0
M  END

$$$$
