No_1039-gen_results/8p0m/2024-11-27-11-27-31/
     RDKit          3D

 33 35  0  0  0  0  0  0  0  0999 V2000
  -28.0162   -0.8135   28.8779 C   0  0  0  0  0  0  0  0  0  0  0  0
  -27.0636   -0.1189   28.6079 C   0  0  0  0  0  0  0  0  0  0  0  0
  -25.7923   -0.4302   29.0761 C   0  0  0  0  0  0  0  0  0  0  0  0
  -25.5756   -1.5654   29.9363 C   0  0  0  0  0  0  0  0  0  0  0  0
  -26.7354   -2.3004   30.2173 C   0  0  0  0  0  0  0  0  0  0  0  0
  -27.9184   -1.9537   29.7629 C   0  0  0  0  0  0  0  0  0  0  0  0
  -27.1057    1.1023   27.7593 C   0  0  0  0  0  0  0  0  0  0  0  0
  -26.7157    2.2350   27.9945 C   0  0  0  0  0  0  0  0  0  0  0  0
  -26.0688    2.4770   29.3567 C   0  0  0  0  0  0  0  0  0  0  0  0
  -25.4405    3.7637   29.5605 C   0  0  0  0  0  0  0  0  0  0  0  0
  -25.5223    4.7219   28.6223 C   0  0  0  0  0  0  0  0  0  0  0  0
  -26.0122    4.4992   27.3532 C   0  0  0  0  0  0  0  0  0  0  0  0
  -26.5923    3.2654   27.0520 C   0  0  0  0  0  0  0  0  0  0  0  0
  -27.3428    0.7722   26.2582 C   0  0  0  0  0  0  0  0  0  0  0  0
  -28.1993    0.0153   25.8661 N   0  0  0  0  0  0  0  0  0  0  0  0
  -26.1949    0.9934   25.4944 C   0  0  0  0  0  0  0  0  0  0  0  0
  -29.0211    0.3538   24.8985 C   0  0  0  0  0  0  0  0  0  0  0  0
  -30.3271    0.5963   25.1248 C   0  0  0  0  0  0  0  0  0  0  0  0
  -30.8462    0.5152   26.1630 C   0  0  0  0  0  0  0  0  0  0  0  0
  -32.2733    0.5310   26.4598 C   0  0  0  0  0  0  0  0  0  0  0  0
  -33.0484    0.8147   25.3729 C   0  0  0  0  0  0  0  0  0  0  0  0
  -32.5687    0.9172   24.0855 C   0  0  0  0  0  0  0  0  0  0  0  0
  -31.1887    0.7921   23.9167 C   0  0  0  0  0  0  0  0  0  0  0  0
  -28.4497    0.4128   23.7648 O   0  0  0  0  0  0  0  0  0  0  0  0
  -29.0074   -2.6578   30.1340 O   0  0  0  0  0  0  0  0  0  0  0  0
  -30.1196   -2.0709   30.5946 C   0  0  0  0  0  0  0  0  0  0  0  0
  -31.2801   -2.6680   30.0364 C   0  0  0  0  0  0  0  0  0  0  0  0
  -32.2007   -1.8813   29.7119 O   0  0  0  0  0  0  0  0  0  0  0  0
  -31.3852   -3.8635   29.8081 O   0  0  0  0  0  0  0  0  0  0  0  0
  -30.1654   -2.1132   32.1110 C   0  0  0  0  0  0  0  0  0  0  0  0
  -29.2736   -1.4078   32.5760 F   0  0  0  0  0  0  0  0  0  0  0  0
  -31.3163   -1.6191   32.4902 F   0  0  0  0  0  0  0  0  0  0  0  0
  -30.0452   -3.4088   32.4725 F   0  0  0  0  0  0  0  0  0  0  0  0
  2  7  1  0
  7 14  1  0
 14 15  1  0
 14 16  1  0
 15 17  1  0
 17 18  1  0
 17 24  2  0
  6 25  1  0
 25 26  1  0
 26 27  1  0
 27 28  1  0
 27 29  2  0
 26 30  1  0
 30 31  1  0
 30 32  1  0
 30 33  1  0
  7  8  1  0
 18 19  2  0
 19 20  1  0
 20 21  2  0
 21 22  1  0
 22 23  2  0
 23 18  1  0
  1  2  2  0
  2  3  1  0
  3  4  2  0
  4  5  1  0
  5  6  2  0
  6  1  1  0
  8  9  2  0
  9 10  1  0
 10 11  2  0
 11 12  1  0
 12 13  2  0
 13  8  1  0
M  END

$$$$
