No_1414-gen_results/8p0m/2024-11-27-11-27-31/
     RDKit          3D

 10 10  0  0  0  0  0  0  0  0999 V2000
  -28.1229   -1.3353   28.4874 O   0  0  0  0  0  0  0  0  0  0  0  0
  -27.4806   -0.4044   28.7094 C   0  0  0  0  0  0  0  0  0  0  0  0
  -27.1904    0.2460   29.5268 C   0  0  0  0  0  0  0  0  0  0  0  0
  -27.0111    0.1131   27.3653 F   0  0  0  0  0  0  0  0  0  0  0  0
  -27.6714    0.2474   30.8519 C   0  0  0  0  0  0  0  0  0  0  0  0
  -28.8382   -0.3049   31.0615 C   0  0  0  0  0  0  0  0  0  0  0  0
  -29.6351    0.0355   32.0144 C   0  0  0  0  0  0  0  0  0  0  0  0
  -29.0145    0.7818   33.1494 C   0  0  0  0  0  0  0  0  0  0  0  0
  -27.7528    1.3606   33.0109 C   0  0  0  0  0  0  0  0  0  0  0  0
  -27.1037    1.1821   31.8581 C   0  0  0  0  0  0  0  0  0  0  0  0
  1  2  2  0
  2  3  1  0
  2  4  1  0
  3  5  1  0
  5  6  2  0
  6  7  1  0
  7  8  2  0
  8  9  1  0
  9 10  2  0
 10  5  1  0
M  END

$$$$
