No_1045-gen_results/8p0m/2024-11-27-11-27-31/
     RDKit          3D

 16 17  0  0  0  0  0  0  0  0999 V2000
  -28.0162   -0.8135   28.8779 C   0  0  0  0  0  0  0  0  0  0  0  0
  -28.4690   -0.7850   29.8287 C   0  0  0  0  0  0  0  0  0  0  0  0
  -26.5042   -0.7777   28.8766 C   0  0  0  0  0  0  0  0  0  0  0  0
  -25.8103   -0.8531   30.1028 C   0  0  0  0  0  0  0  0  0  0  0  0
  -27.9906   -0.8916   31.2257 C   0  0  0  0  0  0  0  0  0  0  0  0
  -26.6042   -0.8676   31.2652 C   0  0  0  0  0  0  0  0  0  0  0  0
  -30.0739   -0.8360   29.8615 C   0  0  0  0  0  0  0  0  0  0  0  0
  -30.6891   -1.6554   30.2229 O   0  0  0  0  0  0  0  0  0  0  0  0
  -30.6139    0.2846   29.2227 N   0  0  0  0  0  0  0  0  0  0  0  0
  -32.0200    0.3382   29.0215 C   0  0  0  0  0  0  0  0  0  0  0  0
  -29.8434    1.4263   28.7504 C   0  0  0  0  0  0  0  0  0  0  0  0
  -29.9129    1.6502   27.5085 C   0  0  0  0  0  0  0  0  0  0  0  0
  -29.0580    2.6682   26.9841 C   0  0  0  0  0  0  0  0  0  0  0  0
  -28.1618    3.3853   27.7899 C   0  0  0  0  0  0  0  0  0  0  0  0
  -28.1369    3.0181   29.1767 C   0  0  0  0  0  0  0  0  0  0  0  0
  -28.8992    2.0227   29.6356 C   0  0  0  0  0  0  0  0  0  0  0  0
  2  7  1  0
  7  8  2  0
  7  9  1  0
  9 10  1  0
  9 11  1  0
 11 12  2  0
 12 13  1  0
 13 14  2  0
 14 15  1  0
 15 16  2  0
 16 11  1  0
  1  2  2  0
  2  5  1  0
  5  6  2  0
  6  4  1  0
  4  3  2  0
  3  1  1  0
M  END

$$$$
