No_193-gen_results/8p0m/2024-11-27-11-27-31/
     RDKit          3D

 25 28  0  0  0  0  0  0  0  0999 V2000
  -28.0162   -0.8135   28.8779 C   0  0  0  0  0  0  0  0  0  0  0  0
  -27.0636   -0.1189   28.6079 C   0  0  0  0  0  0  0  0  0  0  0  0
  -26.9716    0.7139   27.5060 C   0  0  0  0  0  0  0  0  0  0  0  0
  -25.8206    1.4910   27.1160 C   0  0  0  0  0  0  0  0  0  0  0  0
  -24.6562    1.4242   27.9180 C   0  0  0  0  0  0  0  0  0  0  0  0
  -24.7114    0.5419   29.0507 C   0  0  0  0  0  0  0  0  0  0  0  0
  -25.8042   -0.2058   29.3881 C   0  0  0  0  0  0  0  0  0  0  0  0
  -28.0309   -1.5903   30.1490 C   0  0  0  0  0  0  0  0  0  0  0  0
  -26.8104   -1.7964   30.8511 C   0  0  0  0  0  0  0  0  0  0  0  0
  -25.6958   -1.0684   30.5035 C   0  0  0  0  0  0  0  0  0  0  0  0
  -28.0906    0.8797   26.5377 C   0  0  0  0  0  0  0  0  0  0  0  0
  -27.9741    1.0303   25.2685 C   0  0  0  0  0  0  0  0  0  0  0  0
  -26.7097    1.7921   24.8792 C   0  0  0  0  0  0  0  0  0  0  0  0
  -25.6643    2.0587   25.8142 C   0  0  0  0  0  0  0  0  0  0  0  0
  -23.4466    0.5697   29.9116 C   0  0  0  0  0  0  0  0  0  0  0  0
  -22.3628    0.6890   29.4057 O   0  0  0  0  0  0  0  0  0  0  0  0
  -23.5927    0.9284   31.2398 O   0  0  0  0  0  0  0  0  0  0  0  0
  -29.2144   -2.4179   30.4758 C   0  0  0  0  0  0  0  0  0  0  0  0
  -29.1172   -3.6214   30.6025 O   0  0  0  0  0  0  0  0  0  0  0  0
  -30.3807   -1.8187   30.6474 N   0  0  0  0  0  0  0  0  0  0  0  0
  -31.5957   -2.5680   30.9720 C   0  0  0  0  0  0  0  0  0  0  0  0
  -32.6369   -1.9035   30.9966 C   0  0  0  0  0  0  0  0  0  0  0  0
  -32.6887   -0.4994   30.7217 C   0  0  0  0  0  0  0  0  0  0  0  0
  -31.5273    0.2093   30.3687 C   0  0  0  0  0  0  0  0  0  0  0  0
  -30.4266   -0.4266   30.3332 C   0  0  0  0  0  0  0  0  0  0  0  0
  6 15  1  0
 15 16  2  0
 15 17  1  0
  8 18  1  0
 18 19  2  0
 18 20  1  0
 20 21  1  0
 22 23  1  0
 20 25  1  0
 24 25  1  0
 21 22  1  0
 23 24  1  0
  2  3  1  0
  4  5  1  0
  5  6  2  0
  6  7  1  0
  3  4  2  0
  4 14  1  0
 14 13  2  0
 13 12  1  0
 12 11  2  0
 11  3  1  0
  1  2  2  0
  2  7  1  0
  7 10  2  0
 10  9  1  0
  9  8  2  0
  8  1  1  0
M  END

$$$$
