No_1209-gen_results/8p0m/2024-11-27-11-27-31/
     RDKit          3D

 16 17  0  0  0  0  0  0  0  0999 V2000
  -28.0162   -0.8135   28.8779 C   0  0  0  0  0  0  0  0  0  0  0  0
  -28.4690   -0.7850   29.8287 C   0  0  0  0  0  0  0  0  0  0  0  0
  -26.5042   -0.7777   28.8766 C   0  0  0  0  0  0  0  0  0  0  0  0
  -25.9150   -0.6580   29.9230 C   0  0  0  0  0  0  0  0  0  0  0  0
  -27.9691   -0.7243   31.2047 C   0  0  0  0  0  0  0  0  0  0  0  0
  -26.5847   -0.6393   31.2062 C   0  0  0  0  0  0  0  0  0  0  0  0
  -30.0752   -0.8832   29.9049 C   0  0  0  0  0  0  0  0  0  0  0  0
  -30.5929   -0.4839   28.9435 O   0  0  0  0  0  0  0  0  0  0  0  0
  -30.7080   -1.4070   30.9252 O   0  0  0  0  0  0  0  0  0  0  0  0
  -24.3754   -0.5890   30.0149 C   0  0  0  0  0  0  0  0  0  0  0  0
  -23.7114    0.1962   29.0788 C   0  0  0  0  0  0  0  0  0  0  0  0
  -24.0517    1.2741   28.4755 C   0  0  0  0  0  0  0  0  0  0  0  0
  -23.6228    1.8547   27.7230 C   0  0  0  0  0  0  0  0  0  0  0  0
  -22.1869    1.5649   27.3156 C   0  0  0  0  0  0  0  0  0  0  0  0
  -22.2781   -0.1214   28.8951 C   0  0  0  0  0  0  0  0  0  0  0  0
  -21.5391    0.6757   28.1174 C   0  0  0  0  0  0  0  0  0  0  0  0
  2  7  1  0
  7  8  2  0
  7  9  1  0
  4 10  1  0
 10 11  1  0
 11 12  2  0
 12 13  1  0
 13 14  2  0
 14 16  1  0
 16 15  2  0
 15 11  1  0
  1  2  2  0
  2  5  1  0
  5  6  2  0
  6  4  1  0
  4  3  2  0
  3  1  1  0
M  END

$$$$
