No_1935-gen_results/8p0m/2024-11-27-11-27-31/
     RDKit          3D

 28 30  0  0  0  0  0  0  0  0999 V2000
  -28.0162   -0.8135   28.8779 C   0  0  0  0  0  0  0  0  0  0  0  0
  -28.4690   -0.7850   29.8287 C   0  0  0  0  0  0  0  0  0  0  0  0
  -26.5455   -0.8762   28.8500 C   0  0  0  0  0  0  0  0  0  0  0  0
  -25.8041   -1.0324   30.0571 C   0  0  0  0  0  0  0  0  0  0  0  0
  -26.5373   -1.0386   31.2171 C   0  0  0  0  0  0  0  0  0  0  0  0
  -27.8843   -0.9532   31.1862 C   0  0  0  0  0  0  0  0  0  0  0  0
  -24.3555   -1.1121   30.0346 C   0  0  0  0  0  0  0  0  0  0  0  0
  -23.6610    0.1027   29.8448 C   0  0  0  0  0  0  0  0  0  0  0  0
  -22.4205    0.1575   29.1928 C   0  0  0  0  0  0  0  0  0  0  0  0
  -21.8312    1.3420   28.8564 C   0  0  0  0  0  0  0  0  0  0  0  0
  -24.1357    1.3453   30.3719 C   0  0  0  0  0  0  0  0  0  0  0  0
  -23.6601    2.5799   29.9545 C   0  0  0  0  0  0  0  0  0  0  0  0
  -22.4267    2.5972   29.1994 C   0  0  0  0  0  0  0  0  0  0  0  0
  -25.8103   -0.8486   27.7336 F   0  0  0  0  0  0  0  0  0  0  0  0
  -30.2910   -0.6961   29.8637 Cl  0  0  0  0  0  0  0  0  0  0  0  0
  -20.6896    1.4114   28.1065 O   0  0  0  0  0  0  0  0  0  0  0  0
  -23.8305   -2.2269   30.1866 O   0  0  0  0  0  0  0  0  0  0  0  0
  -28.6620   -0.9916   32.3188 O   0  0  0  0  0  0  0  0  0  0  0  0
  -29.0080   -2.1342   32.8345 C   0  0  0  0  0  0  0  0  0  0  0  0
  -29.8028   -3.0036   32.0293 C   0  0  0  0  0  0  0  0  0  0  0  0
  -30.6939   -3.2610   32.4839 O   0  0  0  0  0  0  0  0  0  0  0  0
  -29.2791   -3.5126   30.9778 O   0  0  0  0  0  0  0  0  0  0  0  0
  -29.8731   -4.5806   30.2898 C   0  0  0  0  0  0  0  0  0  0  0  0
  -30.1329   -4.3662   28.9533 C   0  0  0  0  0  0  0  0  0  0  0  0
  -31.0153   -5.4395   28.3528 C   0  0  0  0  0  0  0  0  0  0  0  0
  -31.2149   -6.4907   29.0211 N   0  0  0  0  0  0  0  0  0  0  0  0
  -30.9517   -6.6469   30.3487 C   0  0  0  0  0  0  0  0  0  0  0  0
  -30.2434   -5.6321   31.0096 C   0  0  0  0  0  0  0  0  0  0  0  0
  4  7  1  0
  7  8  1  0
  3 14  1  0
  2 15  1  0
 10 16  1  0
  7 17  2  0
  6 18  1  0
 18 19  1  0
 19 20  1  0
 20 21  2  0
 20 22  1  0
 22 23  1  0
  1  2  2  0
  2  6  1  0
  6  5  2  0
  5  4  1  0
  4  3  2  0
  3  1  1  0
  8  9  2  0
  9 10  1  0
 10 13  2  0
 13 12  1  0
 12 11  2  0
 11  8  1  0
 23 24  2  0
 24 25  1  0
 25 26  2  0
 26 27  1  0
 27 28  2  0
 28 23  1  0
M  END

$$$$
