No_1399-gen_results/8p0m/2024-11-27-11-27-31/
     RDKit          3D

 22 23  0  0  0  0  0  0  0  0999 V2000
  -28.0162   -0.8135   28.8779 C   0  0  0  0  0  0  0  0  0  0  0  0
  -28.4690   -0.7850   29.8287 C   0  0  0  0  0  0  0  0  0  0  0  0
  -27.1356    0.2359   28.5352 C   0  0  0  0  0  0  0  0  0  0  0  0
  -26.8050    1.0509   29.2763 C   0  0  0  0  0  0  0  0  0  0  0  0
  -28.2372    0.1503   30.9300 C   0  0  0  0  0  0  0  0  0  0  0  0
  -27.3522    1.1239   30.6071 C   0  0  0  0  0  0  0  0  0  0  0  0
  -26.5529   -0.0024   27.1448 C   0  0  0  0  0  0  0  0  0  0  0  0
  -25.2534   -0.0616   27.0421 N   0  0  0  0  0  0  0  0  0  0  0  0
  -27.2102    0.1752   26.0849 O   0  0  0  0  0  0  0  0  0  0  0  0
  -24.5065    0.0629   25.8062 C   0  0  0  0  0  0  0  0  0  0  0  0
  -24.3678   -0.3598   28.1804 C   0  0  0  0  0  0  0  0  0  0  0  0
  -24.2148   -1.5783   28.6075 C   0  0  0  0  0  0  0  0  0  0  0  0
  -23.3289   -1.7821   29.7164 C   0  0  0  0  0  0  0  0  0  0  0  0
  -22.5724   -0.7236   30.2072 C   0  0  0  0  0  0  0  0  0  0  0  0
  -23.5661    0.7371   28.7089 C   0  0  0  0  0  0  0  0  0  0  0  0
  -22.6826    0.5020   29.6807 C   0  0  0  0  0  0  0  0  0  0  0  0
  -27.0159    2.2291   31.5641 C   0  0  0  0  0  0  0  0  0  0  0  0
  -26.0908    2.0657   32.3736 N   0  0  0  0  0  0  0  0  0  0  0  0
  -25.7191    1.0922   32.9421 C   0  0  0  0  0  0  0  0  0  0  0  0
  -25.2882    3.3376   32.6433 C   0  0  0  0  0  0  0  0  0  0  0  0
  -25.1391    4.4883   32.6795 C   0  0  0  0  0  0  0  0  0  0  0  0
  -27.6944    3.3010   31.3261 O   0  0  0  0  0  0  0  0  0  0  0  0
  3  7  1  0
  7  8  1  0
  7  9  2  0
  8 10  1  0
  8 11  1  0
  6 17  1  0
 17 18  1  0
 18 19  1  0
 18 20  1  0
 20 21  3  0
 17 22  2  0
 11 12  2  0
 12 13  1  0
 13 14  2  0
 14 16  1  0
 16 15  2  0
 15 11  1  0
  1  2  2  0
  2  5  1  0
  5  6  2  0
  6  4  1  0
  4  3  2  0
  3  1  1  0
M  END

$$$$
