No_131-gen_results/8p0m/2024-11-27-11-27-31/
     RDKit          3D

 19 20  0  0  0  0  0  0  0  0999 V2000
  -28.0162   -0.8135   28.8779 C   0  0  0  0  0  0  0  0  0  0  0  0
  -27.0636   -0.1189   28.6079 C   0  0  0  0  0  0  0  0  0  0  0  0
  -25.7647   -0.3897   29.0360 C   0  0  0  0  0  0  0  0  0  0  0  0
  -25.5296   -1.5302   29.9014 C   0  0  0  0  0  0  0  0  0  0  0  0
  -26.6888   -2.2893   30.1810 C   0  0  0  0  0  0  0  0  0  0  0  0
  -27.8727   -1.9508   29.7373 C   0  0  0  0  0  0  0  0  0  0  0  0
  -24.5491    0.4100   28.7341 C   0  0  0  0  0  0  0  0  0  0  0  0
  -23.3309    0.0437   29.0569 C   0  0  0  0  0  0  0  0  0  0  0  0
  -23.2108   -1.2231   29.7977 C   0  0  0  0  0  0  0  0  0  0  0  0
  -24.2359   -1.9569   30.2201 C   0  0  0  0  0  0  0  0  0  0  0  0
  -22.1219    0.7661   28.7282 C   0  0  0  0  0  0  0  0  0  0  0  0
  -22.1062    1.4729   27.8675 F   0  0  0  0  0  0  0  0  0  0  0  0
  -21.1023   -0.2586   28.3874 F   0  0  0  0  0  0  0  0  0  0  0  0
  -21.6353    1.3190   29.9431 O   0  0  0  0  0  0  0  0  0  0  0  0
  -27.2141    1.2828   27.5614 Cl  0  0  0  0  0  0  0  0  0  0  0  0
  -29.4143   -2.9291   30.2465 Br  0  0  0  0  0  0  0  0  0  0  0  0
  -29.3239   -0.5391   28.5118 O   0  0  0  0  0  0  0  0  0  0  0  0
  -29.7268    0.7698   28.4875 C   0  0  0  0  0  0  0  0  0  0  0  0
  -29.7389    1.2487   27.5712 C   0  0  0  0  0  0  0  0  0  0  0  0
  8 11  1  0
 11 12  1  0
 11 13  1  0
 11 14  1  0
  2 15  1  0
  6 16  1  0
  1 17  1  0
 17 18  1  0
 18 19  2  0
  1  2  2  0
  2  3  1  0
  4  5  1  0
  5  6  2  0
  6  1  1  0
  3  4  2  0
  4 10  1  0
 10  9  2  0
  9  8  1  0
  8  7  2  0
  7  3  1  0
M  END

$$$$
