No_1254-gen_results/8p0m/2024-11-27-11-27-31/
     RDKit          3D

 17 19  0  0  0  0  0  0  0  0999 V2000
  -28.0162   -0.8135   28.8779 C   0  0  0  0  0  0  0  0  0  0  0  0
  -27.0636   -0.1189   28.6079 C   0  0  0  0  0  0  0  0  0  0  0  0
  -25.7923   -0.4302   29.0761 C   0  0  0  0  0  0  0  0  0  0  0  0
  -24.5456    0.3494   28.8225 C   0  0  0  0  0  0  0  0  0  0  0  0
  -23.2409    0.0217   29.3323 C   0  0  0  0  0  0  0  0  0  0  0  0
  -27.8820   -1.8995   29.8633 C   0  0  0  0  0  0  0  0  0  0  0  0
  -26.6526   -2.3142   30.3138 C   0  0  0  0  0  0  0  0  0  0  0  0
  -25.5153   -1.5607   29.9787 C   0  0  0  0  0  0  0  0  0  0  0  0
  -22.1588    0.7866   28.9507 C   0  0  0  0  0  0  0  0  0  0  0  0
  -22.1309    1.7439   27.9818 C   0  0  0  0  0  0  0  0  0  0  0  0
  -24.6218    1.5666   28.0091 C   0  0  0  0  0  0  0  0  0  0  0  0
  -23.3878    2.1563   27.5546 C   0  0  0  0  0  0  0  0  0  0  0  0
  -29.2348   -2.8521   30.3366 Cl  0  0  0  0  0  0  0  0  0  0  0  0
  -23.6504    3.2292   26.7541 O   0  0  0  0  0  0  0  0  0  0  0  0
  -24.9756    3.3133   26.2544 C   0  0  0  0  0  0  0  0  0  0  0  0
  -25.7070    1.9622   27.4751 N   0  0  0  0  0  0  0  0  0  0  0  0
  -25.7607    2.7648   26.8496 C   0  0  0  0  0  0  0  0  0  0  0  0
  1  2  1  0
  2  3  2  0
  3  4  1  0
  4  5  2  0
  1  6  2  0
  6  7  1  0
  3  8  1  0
  7  8  2  0
  5  9  1  0
  9 10  2  0
  4 11  1  0
 10 12  1  0
 11 12  1  0
  6 13  1  0
 12 14  1  0
 14 15  1  0
 11 16  2  0
 15 17  2  0
 16 17  1  0
M  END

$$$$
