No_1335-gen_results/8p0m/2024-11-27-11-27-31/
     RDKit          3D

 29 31  0  0  0  0  0  0  0  0999 V2000
  -28.0162   -0.8135   28.8779 C   0  0  0  0  0  0  0  0  0  0  0  0
  -28.4690   -0.7850   29.8287 C   0  0  0  0  0  0  0  0  0  0  0  0
  -27.1356    0.2359   28.5352 C   0  0  0  0  0  0  0  0  0  0  0  0
  -26.8745    1.2825   29.3982 C   0  0  0  0  0  0  0  0  0  0  0  0
  -28.3613    0.1987   30.9244 C   0  0  0  0  0  0  0  0  0  0  0  0
  -27.5277    1.2234   30.6356 C   0  0  0  0  0  0  0  0  0  0  0  0
  -26.4533    0.0749   27.2390 C   0  0  0  0  0  0  0  0  0  0  0  0
  -26.9238    0.6625   26.0373 C   0  0  0  0  0  0  0  0  0  0  0  0
  -28.1521    1.3009   26.0737 C   0  0  0  0  0  0  0  0  0  0  0  0
  -28.7645    1.7095   27.1674 C   0  0  0  0  0  0  0  0  0  0  0  0
  -30.0161    2.5538   26.8784 C   0  0  0  0  0  0  0  0  0  0  0  0
  -30.4108    2.7109   25.5776 C   0  0  0  0  0  0  0  0  0  0  0  0
  -28.5942    1.7744   24.7682 C   0  0  0  0  0  0  0  0  0  0  0  0
  -29.7075    2.4219   24.5452 C   0  0  0  0  0  0  0  0  0  0  0  0
  -25.3469   -0.5773   27.3260 O   0  0  0  0  0  0  0  0  0  0  0  0
  -26.1290    0.4182   24.8741 C   0  0  0  0  0  0  0  0  0  0  0  0
  -24.7566   -0.8946   28.5763 C   0  0  0  0  0  0  0  0  0  0  0  0
  -29.4346   -1.9905   30.3647 C   0  0  0  0  0  0  0  0  0  0  0  0
  -29.3397   -2.9598   30.0267 O   0  0  0  0  0  0  0  0  0  0  0  0
  -30.4547   -1.6883   31.1909 O   0  0  0  0  0  0  0  0  0  0  0  0
  -30.8148    2.9115   27.9606 O   0  0  0  0  0  0  0  0  0  0  0  0
  -31.1897    2.0271   28.8802 C   0  0  0  0  0  0  0  0  0  0  0  0
  -32.2937    1.2455   28.5938 C   0  0  0  0  0  0  0  0  0  0  0  0
  -32.5283    0.1912   29.4588 C   0  0  0  0  0  0  0  0  0  0  0  0
  -33.3918   -0.7897   29.0402 C   0  0  0  0  0  0  0  0  0  0  0  0
  -34.1013   -0.6589   27.8324 C   0  0  0  0  0  0  0  0  0  0  0  0
  -33.8231    0.4313   27.0120 C   0  0  0  0  0  0  0  0  0  0  0  0
  -32.8935    1.3064   27.3678 C   0  0  0  0  0  0  0  0  0  0  0  0
  -30.7230    2.2502   30.1098 O   0  0  0  0  0  0  0  0  0  0  0  0
  3  7  1  0
  7  8  2  3
  8  9  1  0
  7 15  1  0
  8 16  1  0
 15 17  1  0
  2 18  1  0
 18 19  1  0
 18 20  2  0
 11 21  1  0
 21 22  1  0
 22 23  1  0
 22 29  2  0
 23 24  2  0
 24 25  1  0
 25 26  2  0
 26 27  1  0
 27 28  2  0
 28 23  1  0
  1  2  2  0
  2  5  1  0
  5  6  2  0
  6  4  1  0
  4  3  2  0
  3  1  1  0
  9 10  2  0
 10 11  1  0
 11 12  2  0
 12 14  1  0
 14 13  2  0
 13  9  1  0
M  END

$$$$
