No_1749-gen_results/8p0m/2024-11-27-11-27-31/
     RDKit          3D

 34 37  0  0  0  0  0  0  0  0999 V2000
  -28.0162   -0.8135   28.8779 C   0  0  0  0  0  0  0  0  0  0  0  0
  -28.4690   -0.7850   29.8287 C   0  0  0  0  0  0  0  0  0  0  0  0
  -28.1816    0.4277   28.1134 C   0  0  0  0  0  0  0  0  0  0  0  0
  -27.4498    0.6435   26.8500 C   0  0  0  0  0  0  0  0  0  0  0  0
  -26.4529    0.9939   26.6681 C   0  0  0  0  0  0  0  0  0  0  0  0
  -25.1811    0.8624   26.8164 C   0  0  0  0  0  0  0  0  0  0  0  0
  -24.2187    1.6769   26.2404 C   0  0  0  0  0  0  0  0  0  0  0  0
  -29.4213    0.0902   30.4451 C   0  0  0  0  0  0  0  0  0  0  0  0
  -29.0456    1.3709   28.5903 C   0  0  0  0  0  0  0  0  0  0  0  0
  -29.6394    1.1968   29.7666 C   0  0  0  0  0  0  0  0  0  0  0  0
  -23.7837    2.6590   25.8999 C   0  0  0  0  0  0  0  0  0  0  0  0
  -28.3584    0.3078   25.6866 C   0  0  0  0  0  0  0  0  0  0  0  0
  -28.0168    1.1122   24.7027 C   0  0  0  0  0  0  0  0  0  0  0  0
  -26.7378    1.8706   25.3620 C   0  0  0  0  0  0  0  0  0  0  0  0
  -24.5921   -0.1762   27.7018 C   0  0  0  0  0  0  0  0  0  0  0  0
  -23.4821    0.1902   28.5226 C   0  0  0  0  0  0  0  0  0  0  0  0
  -23.1947   -0.7633   29.5878 C   0  0  0  0  0  0  0  0  0  0  0  0
  -23.7972   -1.9942   29.5204 C   0  0  0  0  0  0  0  0  0  0  0  0
  -24.7765   -2.3496   28.6853 C   0  0  0  0  0  0  0  0  0  0  0  0
  -25.2318   -1.3512   27.7965 C   0  0  0  0  0  0  0  0  0  0  0  0
  -28.2351   -2.1071   30.8069 C   0  0  0  0  0  0  0  0  0  0  0  0
  -27.1623   -2.4528   30.9057 O   0  0  0  0  0  0  0  0  0  0  0  0
  -29.3338   -2.8291   31.0731 O   0  0  0  0  0  0  0  0  0  0  0  0
  -24.2568    3.9035   26.7326 C   0  0  0  0  0  0  0  0  0  0  0  0
  -24.7442    5.1242   26.1527 C   0  0  0  0  0  0  0  0  0  0  0  0
  -25.0311    6.1790   27.0113 C   0  0  0  0  0  0  0  0  0  0  0  0
  -25.2588    5.9737   28.3828 C   0  0  0  0  0  0  0  0  0  0  0  0
  -25.0308    4.6577   28.8908 C   0  0  0  0  0  0  0  0  0  0  0  0
  -24.5410    3.6584   28.1182 C   0  0  0  0  0  0  0  0  0  0  0  0
  -25.8006    7.2175   29.3697 Cl  0  0  0  0  0  0  0  0  0  0  0  0
  -29.6737   -0.3293   25.6657 C   0  0  0  0  0  0  0  0  0  0  0  0
  -30.5616    0.1580   25.1176 O   0  0  0  0  0  0  0  0  0  0  0  0
  -29.7235   -1.5297   26.0698 O   0  0  0  0  0  0  0  0  0  0  0  0
  -31.0164   -2.0778   25.8228 C   0  0  0  0  0  0  0  0  0  0  0  0
  3  4  1  0
  4  5  2  0
  5  6  1  0
  6  7  2  3
  7 11  1  0
  4 12  1  0
 12 13  2  0
  5 14  1  0
 13 14  1  0
  6 15  1  0
  2 21  1  0
 21 22  2  0
 21 23  1  0
 11 24  1  0
 27 30  1  0
 12 31  1  0
 31 32  2  0
 31 33  1  0
 33 34  1  0
 15 16  2  0
 16 17  1  0
 17 18  2  0
 18 19  1  0
 19 20  2  0
 20 15  1  0
  1  2  2  0
  2  8  1  0
  8 10  2  0
 10  9  1  0
  9  3  2  0
  3  1  1  0
 24 25  2  0
 25 26  1  0
 26 27  2  0
 27 28  1  0
 28 29  2  0
 29 24  1  0
M  END

$$$$
