No_1922-gen_results/8p0m/2024-11-27-11-27-31/
     RDKit          3D

 35 39  0  0  0  0  0  0  0  0999 V2000
  -28.0162   -0.8135   28.8779 C   0  0  0  0  0  0  0  0  0  0  0  0
  -28.4690   -0.7850   29.8287 C   0  0  0  0  0  0  0  0  0  0  0  0
  -27.0871    0.2903   28.6377 C   0  0  0  0  0  0  0  0  0  0  0  0
  -26.2516    0.4114   27.4223 C   0  0  0  0  0  0  0  0  0  0  0  0
  -28.3913    0.1041   30.9805 C   0  0  0  0  0  0  0  0  0  0  0  0
  -27.5332    1.1666   30.7866 C   0  0  0  0  0  0  0  0  0  0  0  0
  -26.8281    1.2557   29.6454 C   0  0  0  0  0  0  0  0  0  0  0  0
  -25.1383    0.6747   27.2309 C   0  0  0  0  0  0  0  0  0  0  0  0
  -24.3156    0.8665   28.4421 C   0  0  0  0  0  0  0  0  0  0  0  0
  -23.3530    0.3538   28.6370 C   0  0  0  0  0  0  0  0  0  0  0  0
  -22.3332    0.6856   29.7210 C   0  0  0  0  0  0  0  0  0  0  0  0
  -21.3528   -0.0517   29.8904 N   0  0  0  0  0  0  0  0  0  0  0  0
  -25.0015    1.7806   29.4938 C   0  0  0  0  0  0  0  0  0  0  0  0
  -29.6785   -1.8599   30.1422 C   0  0  0  0  0  0  0  0  0  0  0  0
  -30.6434   -1.6520   29.5922 O   0  0  0  0  0  0  0  0  0  0  0  0
  -29.3941   -2.9181   30.9692 N   0  0  0  0  0  0  0  0  0  0  0  0
  -28.1156   -3.2473   31.5959 C   0  0  0  0  0  0  0  0  0  0  0  0
  -30.4647   -3.8719   31.1509 C   0  0  0  0  0  0  0  0  0  0  0  0
  -30.8884   -4.6197   30.5351 C   0  0  0  0  0  0  0  0  0  0  0  0
  -31.9308   -5.6019   30.7501 C   0  0  0  0  0  0  0  0  0  0  0  0
  -32.3850   -5.6529   32.0624 C   0  0  0  0  0  0  0  0  0  0  0  0
  -30.8209   -3.9371   32.6756 C   0  0  0  0  0  0  0  0  0  0  0  0
  -31.8182   -4.8003   33.0197 C   0  0  0  0  0  0  0  0  0  0  0  0
  -27.0928    2.1242   31.8164 C   0  0  0  0  0  0  0  0  0  0  0  0
  -26.8411    1.8044   32.9536 C   0  0  0  0  0  0  0  0  0  0  0  0
  -27.2777    3.5158   31.4141 C   0  0  0  0  0  0  0  0  0  0  0  0
  -27.9418    4.0155   30.5648 C   0  0  0  0  0  0  0  0  0  0  0  0
  -29.2714    3.8805   30.4663 C   0  0  0  0  0  0  0  0  0  0  0  0
  -30.0593    4.4139   29.3684 C   0  0  0  0  0  0  0  0  0  0  0  0
  -27.3560    4.7839   29.4203 C   0  0  0  0  0  0  0  0  0  0  0  0
  -28.1310    5.3455   28.3759 C   0  0  0  0  0  0  0  0  0  0  0  0
  -29.4741    5.1927   28.4211 C   0  0  0  0  0  0  0  0  0  0  0  0
  -26.7781    4.4933   32.4227 C   0  0  0  0  0  0  0  0  0  0  0  0
  -26.4023    4.0911   33.7170 C   0  0  0  0  0  0  0  0  0  0  0  0
  -26.2426    2.7483   33.9554 C   0  0  0  0  0  0  0  0  0  0  0  0
 10 11  1  0
 11 12  1  0
  2 14  1  0
 14 15  2  0
 14 16  1  0
 16 17  1  0
 16 18  1  0
  6 24  1  0
 26 27  1  0
 10  9  1  0
 24 25  2  0
 25 35  1  0
 35 34  2  0
 34 33  1  0
 33 26  2  0
 26 24  1  0
  1  2  2  0
  2  5  1  0
  5  6  2  0
  6  7  1  0
  3  1  1  0
  3  4  2  0
  4  8  1  0
  8  9  2  0
  9 13  1  0
 13  7  2  0
  7  3  1  0
 18 19  2  0
 19 20  1  0
 20 21  2  0
 21 23  1  0
 23 22  2  0
 22 18  1  0
 27 28  2  0
 28 29  1  0
 29 32  2  0
 32 31  1  0
 31 30  2  0
 30 27  1  0
M  END

$$$$
