No_1822-gen_results/8p0m/2024-11-27-11-27-31/
     RDKit          3D

 23 23  0  0  0  0  0  0  0  0999 V2000
  -28.0162   -0.8135   28.8779 C   0  0  0  0  0  0  0  0  0  0  0  0
  -28.4690   -0.7850   29.8287 C   0  0  0  0  0  0  0  0  0  0  0  0
  -26.5455   -0.8762   28.8500 C   0  0  0  0  0  0  0  0  0  0  0  0
  -25.8041   -1.0324   30.0571 C   0  0  0  0  0  0  0  0  0  0  0  0
  -27.9437   -0.9869   31.2075 C   0  0  0  0  0  0  0  0  0  0  0  0
  -26.5825   -1.0386   31.2231 C   0  0  0  0  0  0  0  0  0  0  0  0
  -24.3810   -1.1082   30.0855 C   0  0  0  0  0  0  0  0  0  0  0  0
  -23.8094   -1.5826   29.2252 O   0  0  0  0  0  0  0  0  0  0  0  0
  -23.7651   -0.6512   31.1924 O   0  0  0  0  0  0  0  0  0  0  0  0
  -30.0765   -0.6275   29.7162 C   0  0  0  0  0  0  0  0  0  0  0  0
  -30.8381   -1.3252   30.2309 O   0  0  0  0  0  0  0  0  0  0  0  0
  -30.4366    0.3948   29.0578 O   0  0  0  0  0  0  0  0  0  0  0  0
  -31.5254    0.8853   28.9099 C   0  0  0  0  0  0  0  0  0  0  0  0
  -32.0672    0.7313   27.7419 C   0  0  0  0  0  0  0  0  0  0  0  0
  -33.1761    0.7399   27.6270 F   0  0  0  0  0  0  0  0  0  0  0  0
  -31.5177    1.6985   26.8897 F   0  0  0  0  0  0  0  0  0  0  0  0
  -31.6694   -0.4221   27.0489 F   0  0  0  0  0  0  0  0  0  0  0  0
  -32.2716    0.3013   29.8691 F   0  0  0  0  0  0  0  0  0  0  0  0
  -31.4214    2.1963   29.3074 F   0  0  0  0  0  0  0  0  0  0  0  0
  -25.8371   -0.8111   27.7311 O   0  0  0  0  0  0  0  0  0  0  0  0
  -26.1065    0.2318   26.8981 C   0  0  0  0  0  0  0  0  0  0  0  0
  -26.3608    1.2645   27.1502 C   0  0  0  0  0  0  0  0  0  0  0  0
  -26.6428    2.3439   26.1720 C   0  0  0  0  0  0  0  0  0  0  0  0
  4  7  1  0
  7  8  2  0
  7  9  1  0
  2 10  1  0
 10 11  2  0
 10 12  1  0
 12 13  1  0
 13 14  1  0
 14 15  1  0
 14 16  1  0
 14 17  1  0
 13 18  1  0
 13 19  1  0
  3 20  1  0
 20 21  1  0
 21 22  2  3
 22 23  1  0
  1  2  2  0
  2  5  1  0
  5  6  2  0
  6  4  1  0
  4  3  2  0
  3  1  1  0
M  END

$$$$
