No_125-gen_results/8p0m/2024-11-27-11-27-31/
     RDKit          3D

 28 31  0  0  0  0  0  0  0  0999 V2000
  -28.0727   -1.2542   28.5316 F   0  0  0  0  0  0  0  0  0  0  0  0
  -27.3591   -0.3792   28.7224 C   0  0  0  0  0  0  0  0  0  0  0  0
  -26.8100    0.1885   27.6513 C   0  0  0  0  0  0  0  0  0  0  0  0
  -25.6015    0.9529   27.6828 C   0  0  0  0  0  0  0  0  0  0  0  0
  -25.0371    1.2332   29.0000 C   0  0  0  0  0  0  0  0  0  0  0  0
  -25.6162    0.5855   30.0870 C   0  0  0  0  0  0  0  0  0  0  0  0
  -26.6061   -0.2296   29.9624 C   0  0  0  0  0  0  0  0  0  0  0  0
  -23.7151    2.2724   29.1059 Cl  0  0  0  0  0  0  0  0  0  0  0  0
  -27.2652    0.0382   26.3899 O   0  0  0  0  0  0  0  0  0  0  0  0
  -28.3333    0.7572   26.1332 C   0  0  0  0  0  0  0  0  0  0  0  0
  -28.9834    0.4321   24.9747 C   0  0  0  0  0  0  0  0  0  0  0  0
  -30.2108    1.1374   24.6199 C   0  0  0  0  0  0  0  0  0  0  0  0
  -30.5561    2.2841   25.4118 C   0  0  0  0  0  0  0  0  0  0  0  0
  -29.7853    2.6198   26.5245 C   0  0  0  0  0  0  0  0  0  0  0  0
  -28.7037    1.8704   26.9127 C   0  0  0  0  0  0  0  0  0  0  0  0
  -28.7237   -0.5848   24.2410 F   0  0  0  0  0  0  0  0  0  0  0  0
  -25.0259    1.6772   26.5570 C   0  0  0  0  0  0  0  0  0  0  0  0
  -31.6296    3.0153   24.9922 O   0  0  0  0  0  0  0  0  0  0  0  0
  -31.9255    4.0834   25.5982 C   0  0  0  0  0  0  0  0  0  0  0  0
  -30.2011    3.8413   27.2557 C   0  0  0  0  0  0  0  0  0  0  0  0
  -31.3525    4.5576   26.7820 C   0  0  0  0  0  0  0  0  0  0  0  0
  -29.5375    4.2782   28.4650 C   0  0  0  0  0  0  0  0  0  0  0  0
  -28.4949    4.4689   28.8006 C   0  0  0  0  0  0  0  0  0  0  0  0
  -27.9676    4.8171   30.0940 C   0  0  0  0  0  0  0  0  0  0  0  0
  -26.5962    5.0422   30.4573 C   0  0  0  0  0  0  0  0  0  0  0  0
  -25.7028    4.9690   29.3607 C   0  0  0  0  0  0  0  0  0  0  0  0
  -26.0639    4.7298   28.0807 C   0  0  0  0  0  0  0  0  0  0  0  0
  -27.3793    4.4847   27.8065 C   0  0  0  0  0  0  0  0  0  0  0  0
  1  2  1  0
  5  8  1  0
  3  9  1  0
  9 10  1  0
 11 16  1  0
  4 17  1  0
 13 18  1  0
 18 19  1  0
 14 20  1  0
 19 21  2  0
 20 21  1  0
 20 22  1  0
 22 23  1  0
  2  3  2  0
  3  4  1  0
  4  5  2  0
  5  6  1  0
  6  7  2  0
  7  2  1  0
 23 24  2  0
 24 25  1  0
 25 26  2  0
 26 27  1  0
 27 28  2  0
 28 23  1  0
 10 11  2  0
 11 12  1  0
 12 13  2  0
 13 14  1  0
 14 15  2  0
 15 10  1  0
M  END

$$$$
