No_1030-gen_results/8p0m/2024-11-27-11-27-31/
     RDKit          3D

 15 17  0  0  0  0  0  0  0  0999 V2000
  -28.0162   -0.8135   28.8779 C   0  0  0  0  0  0  0  0  0  0  0  0
  -28.4690   -0.7850   29.8287 C   0  0  0  0  0  0  0  0  0  0  0  0
  -28.1960    0.3478   28.0550 C   0  0  0  0  0  0  0  0  0  0  0  0
  -27.4421    0.5100   26.7946 C   0  0  0  0  0  0  0  0  0  0  0  0
  -26.1689   -0.0794   26.6787 C   0  0  0  0  0  0  0  0  0  0  0  0
  -25.7312   -0.9607   27.6875 C   0  0  0  0  0  0  0  0  0  0  0  0
  -26.5043   -1.2222   28.7582 C   0  0  0  0  0  0  0  0  0  0  0  0
  -29.6530   -0.2892   30.1660 C   0  0  0  0  0  0  0  0  0  0  0  0
  -30.0958    0.7019   29.2325 C   0  0  0  0  0  0  0  0  0  0  0  0
  -29.3946    1.0067   28.0841 C   0  0  0  0  0  0  0  0  0  0  0  0
  -25.9323   -2.2672   29.7020 C   0  0  0  0  0  0  0  0  0  0  0  0
  -24.9935   -3.0388   29.2417 C   0  0  0  0  0  0  0  0  0  0  0  0
  -23.7554   -2.4330   28.9352 C   0  0  0  0  0  0  0  0  0  0  0  0
  -23.3927   -1.4246   28.0808 C   0  0  0  0  0  0  0  0  0  0  0  0
  -24.4373   -0.5755   27.7395 C   0  0  0  0  0  0  0  0  0  0  0  0
  7 11  1  0
 11 12  1  0
 12 13  1  0
 13 14  2  0
  6 15  1  0
 14 15  1  0
  1  2  2  0
  2  8  1  0
  8  9  2  0
  9 10  1  0
 10  3  2  0
  1  3  1  0
  3  4  1  0
  4  5  2  0
  5  6  1  0
  6  7  2  0
  7  1  1  0
M  END

$$$$
