No_1930-gen_results/8p0m/2024-11-27-11-27-31/
     RDKit          3D

 19 21  0  0  0  0  0  0  0  0999 V2000
  -28.0162   -0.8135   28.8779 C   0  0  0  0  0  0  0  0  0  0  0  0
  -28.4690   -0.7850   29.8287 C   0  0  0  0  0  0  0  0  0  0  0  0
  -26.5455   -0.8762   28.8500 C   0  0  0  0  0  0  0  0  0  0  0  0
  -25.8041   -1.0324   30.0571 C   0  0  0  0  0  0  0  0  0  0  0  0
  -27.9437   -0.9869   31.2075 C   0  0  0  0  0  0  0  0  0  0  0  0
  -26.5825   -1.0386   31.2231 C   0  0  0  0  0  0  0  0  0  0  0  0
  -30.0606   -0.7371   29.9024 C   0  0  0  0  0  0  0  0  0  0  0  0
  -30.7252   -1.5544   30.2697 O   0  0  0  0  0  0  0  0  0  0  0  0
  -30.5563    0.4242   29.3124 N   0  0  0  0  0  0  0  0  0  0  0  0
  -31.9645    0.5638   29.1626 C   0  0  0  0  0  0  0  0  0  0  0  0
  -32.2853    1.2697   28.1338 C   0  0  0  0  0  0  0  0  0  0  0  0
  -31.3616    2.1105   27.3886 C   0  0  0  0  0  0  0  0  0  0  0  0
  -29.9730    1.8990   27.6231 C   0  0  0  0  0  0  0  0  0  0  0  0
  -29.6126    1.0500   28.4871 C   0  0  0  0  0  0  0  0  0  0  0  0
  -28.2032    0.8405   28.4206 C   0  0  0  0  0  0  0  0  0  0  0  0
  -24.3590   -1.2658   30.1047 C   0  0  0  0  0  0  0  0  0  0  0  0
  -23.8916   -1.3841   31.1362 F   0  0  0  0  0  0  0  0  0  0  0  0
  -23.7710   -0.1957   29.4497 F   0  0  0  0  0  0  0  0  0  0  0  0
  -24.0606   -2.3723   29.3070 F   0  0  0  0  0  0  0  0  0  0  0  0
  2  7  1  0
  7  8  2  0
  7  9  1  0
  9 10  1  0
 11 12  1  0
  9 14  1  0
 13 14  1  0
  1 15  1  0
 14 15  1  0
  4 16  1  0
 16 17  1  0
 16 18  1  0
 16 19  1  0
 10 11  1  0
 12 13  1  0
  1  3  2  0
  3  4  1  0
  4  6  2  0
  6  5  1  0
  5  2  2  0
  2  1  1  0
M  END

$$$$
