No_1078-gen_results/8p0m/2024-11-27-11-27-31/
     RDKit          3D

 19 21  0  0  0  0  0  0  0  0999 V2000
  -28.0162   -0.8135   28.8779 C   0  0  0  0  0  0  0  0  0  0  0  0
  -27.0636   -0.1189   28.6079 C   0  0  0  0  0  0  0  0  0  0  0  0
  -26.9716    0.7139   27.5060 C   0  0  0  0  0  0  0  0  0  0  0  0
  -28.1053    0.7744   26.6421 C   0  0  0  0  0  0  0  0  0  0  0  0
  -29.2008    0.1044   27.0527 C   0  0  0  0  0  0  0  0  0  0  0  0
  -29.2096   -0.6029   28.1853 C   0  0  0  0  0  0  0  0  0  0  0  0
  -30.5746    0.2529   26.0154 S   0  0  0  0  0  0  0  0  0  0  0  0
  -30.1368    0.1978   24.6621 O   0  0  0  0  0  0  0  0  0  0  0  0
  -31.2412    1.5389   26.2974 O   0  0  0  0  0  0  0  0  0  0  0  0
  -31.5758   -0.8988   26.2908 N   0  0  0  0  0  0  0  0  0  0  0  0
  -25.6180   -0.1198   29.2632 C   0  0  0  0  0  0  0  0  0  0  0  0
  -25.1995   -1.1490   29.9092 C   0  0  0  0  0  0  0  0  0  0  0  0
  -23.9450   -1.2349   30.4850 C   0  0  0  0  0  0  0  0  0  0  0  0
  -23.0587   -0.1375   30.3851 C   0  0  0  0  0  0  0  0  0  0  0  0
  -23.4715    0.9811   29.6443 C   0  0  0  0  0  0  0  0  0  0  0  0
  -24.7629    0.9998   29.0897 C   0  0  0  0  0  0  0  0  0  0  0  0
  -25.0804    2.1415   28.2806 C   0  0  0  0  0  0  0  0  0  0  0  0
  -26.1742    2.0425   27.3460 C   0  0  0  0  0  0  0  0  0  0  0  0
  -23.8596    2.6545   27.4513 C   0  0  0  0  0  0  0  0  0  0  0  0
  5  7  1  0
  7  8  2  0
  7  9  2  0
  7 10  1  0
 17 19  1  0
 11 12  2  0
 12 13  1  0
 13 14  2  0
 14 15  1  0
 15 16  2  0
  1  2  2  0
  3  4  2  0
  4  5  1  0
  5  6  2  0
  6  1  1  0
  2  3  1  0
  3 18  1  0
 18 17  2  0
 17 16  1  0
 16 11  1  0
 11  2  1  0
M  END

$$$$
