No_1979-gen_results/8p0m/2024-11-27-11-27-31/
     RDKit          3D

 19 19  0  0  0  0  0  0  0  0999 V2000
  -28.0162   -0.8135   28.8779 C   0  0  0  0  0  0  0  0  0  0  0  0
  -27.0636   -0.1189   28.6079 C   0  0  0  0  0  0  0  0  0  0  0  0
  -26.9716    0.7139   27.5060 C   0  0  0  0  0  0  0  0  0  0  0  0
  -25.8205    1.4910   27.1160 C   0  0  0  0  0  0  0  0  0  0  0  0
  -24.6562    1.4242   27.9180 C   0  0  0  0  0  0  0  0  0  0  0  0
  -24.6847    0.5901   29.0659 C   0  0  0  0  0  0  0  0  0  0  0  0
  -25.8099   -0.1265   29.3338 C   0  0  0  0  0  0  0  0  0  0  0  0
  -28.7093   -0.4588   30.1754 C   0  0  0  0  0  0  0  0  0  0  0  0
  -29.6183   -1.3904   30.7163 C   0  0  0  0  0  0  0  0  0  0  0  0
  -23.2875    2.3385   27.5512 Cl  0  0  0  0  0  0  0  0  0  0  0  0
  -29.3946    0.8824   30.0862 C   0  0  0  0  0  0  0  0  0  0  0  0
  -27.6946    0.0056   31.4961 Cl  0  0  0  0  0  0  0  0  0  0  0  0
  -29.2348   -2.4363   31.0410 O   0  0  0  0  0  0  0  0  0  0  0  0
  -30.8883   -1.2771   30.7166 O   0  0  0  0  0  0  0  0  0  0  0  0
  -28.7022    1.9560   30.3829 C   0  0  0  0  0  0  0  0  0  0  0  0
  -29.0495    3.0806   30.6712 C   0  0  0  0  0  0  0  0  0  0  0  0
  -28.1431    4.2141   31.0035 C   0  0  0  0  0  0  0  0  0  0  0  0
  -26.7575    3.9326   30.8781 C   0  0  0  0  0  0  0  0  0  0  0  0
  -26.3096    2.7152   30.4706 C   0  0  0  0  0  0  0  0  0  0  0  0
  1  2  2  3
  2  3  1  0
  3  4  1  0
  4  5  1  0
  5  6  1  0
  2  7  1  0
  6  7  1  0
  1  8  1  0
  8  9  1  0
  5 10  1  0
  8 11  1  0
  8 12  1  0
  9 13  2  0
  9 14  1  0
 11 15  2  3
 15 16  1  0
 16 17  2  3
 17 18  1  0
 18 19  2  0
M  END

$$$$
