No_1214-gen_results/8p0m/2024-11-27-11-27-31/
     RDKit          3D

 18 19  0  0  0  0  0  0  0  0999 V2000
  -28.0727   -1.2542   28.5316 F   0  0  0  0  0  0  0  0  0  0  0  0
  -27.3591   -0.3792   28.7224 C   0  0  0  0  0  0  0  0  0  0  0  0
  -26.3323   -0.6441   29.4520 C   0  0  0  0  0  0  0  0  0  0  0  0
  -25.2562    0.3203   29.7818 C   0  0  0  0  0  0  0  0  0  0  0  0
  -24.0409    0.1023   30.5300 C   0  0  0  0  0  0  0  0  0  0  0  0
  -23.0851    1.0901   30.7717 C   0  0  0  0  0  0  0  0  0  0  0  0
  -27.4670    0.9223   28.1346 C   0  0  0  0  0  0  0  0  0  0  0  0
  -26.4868    1.9071   28.3289 C   0  0  0  0  0  0  0  0  0  0  0  0
  -25.3103    1.6682   29.1714 C   0  0  0  0  0  0  0  0  0  0  0  0
  -23.3800    2.3927   30.2172 C   0  0  0  0  0  0  0  0  0  0  0  0
  -24.4232    2.6583   29.3997 C   0  0  0  0  0  0  0  0  0  0  0  0
  -26.0597   -1.9632   30.1198 C   0  0  0  0  0  0  0  0  0  0  0  0
  -25.4306   -2.7921   29.9482 N   0  0  0  0  0  0  0  0  0  0  0  0
  -27.2933   -2.3127   30.8744 N   0  0  0  0  0  0  0  0  0  0  0  0
  -24.2417   -2.7043   29.1595 C   0  0  0  0  0  0  0  0  0  0  0  0
  -26.6580    3.2517   27.7462 C   0  0  0  0  0  0  0  0  0  0  0  0
  -27.4137    4.0651   28.0258 F   0  0  0  0  0  0  0  0  0  0  0  0
  -25.3510    3.7991   27.7681 F   0  0  0  0  0  0  0  0  0  0  0  0
  1  2  1  0
  3 12  1  0
 12 13  2  3
 12 14  1  0
 13 15  1  0
  8 16  1  0
 16 17  1  0
 16 18  1  0
  2  3  2  0
  3  4  1  0
  9  8  1  0
  8  7  2  0
  7  2  1  0
  4  5  2  0
  5  6  1  0
  6 10  2  0
 10 11  1  0
 11  9  2  0
  9  4  1  0
M  END

$$$$
