No_1633-gen_results/8p0m/2024-11-27-11-27-31/
     RDKit          3D

 15 16  0  0  0  0  0  0  0  0999 V2000
  -28.0162   -0.8135   28.8779 C   0  0  0  0  0  0  0  0  0  0  0  0
  -28.4690   -0.7850   29.8287 C   0  0  0  0  0  0  0  0  0  0  0  0
  -26.5455   -0.8762   28.8500 C   0  0  0  0  0  0  0  0  0  0  0  0
  -25.8974   -0.8267   29.8894 C   0  0  0  0  0  0  0  0  0  0  0  0
  -27.9129   -0.8385   31.1942 C   0  0  0  0  0  0  0  0  0  0  0  0
  -24.3990   -0.8610   29.9702 C   0  0  0  0  0  0  0  0  0  0  0  0
  -26.5235   -0.8574   31.1732 C   0  0  0  0  0  0  0  0  0  0  0  0
  -23.7647   -1.6314   30.4358 N   0  0  0  0  0  0  0  0  0  0  0  0
  -23.6972   -0.0629   29.0065 N   0  0  0  0  0  0  0  0  0  0  0  0
  -22.3589   -0.3069   29.2368 C   0  0  0  0  0  0  0  0  0  0  0  0
  -22.4188   -1.3746   30.1254 N   0  0  0  0  0  0  0  0  0  0  0  0
  -21.3729    0.2301   28.6380 N   0  0  0  0  0  0  0  0  0  0  0  0
  -30.0872   -0.7275   29.9148 C   0  0  0  0  0  0  0  0  0  0  0  0
  -30.5443   -0.2727   28.9903 O   0  0  0  0  0  0  0  0  0  0  0  0
  -30.7317   -1.1592   30.9375 O   0  0  0  0  0  0  0  0  0  0  0  0
  4  6  1  0
  6  8  2  0
  6  9  1  0
  9 10  2  0
  8 11  1  0
 10 11  1  0
 10 12  1  0
  2 13  1  0
 13 14  1  0
 13 15  2  0
  1  2  2  0
  2  5  1  0
  5  7  2  0
  7  4  1  0
  4  3  2  0
  3  1  1  0
M  END

$$$$
