No_1549-gen_results/8p0m/2024-11-27-11-27-31/
     RDKit          3D

 14 15  0  0  0  0  0  0  0  0999 V2000
  -28.1229   -1.3353   28.4874 O   0  0  0  0  0  0  0  0  0  0  0  0
  -27.0637   -0.8242   28.8687 C   0  0  0  0  0  0  0  0  0  0  0  0
  -26.4017   -0.0623   28.6224 C   0  0  0  0  0  0  0  0  0  0  0  0
  -26.3805   -1.7991   29.9619 N   0  0  0  0  0  0  0  0  0  0  0  0
  -25.0334    0.3743   29.0484 C   0  0  0  0  0  0  0  0  0  0  0  0
  -24.5462   -0.4703   30.1069 C   0  0  0  0  0  0  0  0  0  0  0  0
  -25.2361   -1.5529   30.4712 C   0  0  0  0  0  0  0  0  0  0  0  0
  -26.6639    1.0448   27.4798 C   0  0  0  0  0  0  0  0  0  0  0  0
  -25.8423    1.6705   26.7942 C   0  0  0  0  0  0  0  0  0  0  0  0
  -24.5162    1.9735   27.3605 C   0  0  0  0  0  0  0  0  0  0  0  0
  -24.1215    1.3345   28.5024 C   0  0  0  0  0  0  0  0  0  0  0  0
  -22.7448    1.4747   28.9557 C   0  0  0  0  0  0  0  0  0  0  0  0
  -22.1433    2.4186   28.4972 O   0  0  0  0  0  0  0  0  0  0  0  0
  -22.3335    0.8611   30.0067 F   0  0  0  0  0  0  0  0  0  0  0  0
  1  2  2  0
  2  3  1  0
  2  4  1  0
  6  7  1  0
 11 12  1  0
 12 13  2  0
 12 14  1  0
  5  6  1  0
  7  4  1  0
  3  5  2  0
  5 11  1  0
 11 10  2  0
 10  9  1  0
  9  8  2  0
  8  3  1  0
M  END

$$$$
