No_1231-gen_results/8p0m/2024-11-27-11-27-31/
     RDKit          3D

 19 20  0  0  0  0  0  0  0  0999 V2000
  -28.0162   -0.8135   28.8779 C   0  0  0  0  0  0  0  0  0  0  0  0
  -27.0636   -0.1189   28.6079 C   0  0  0  0  0  0  0  0  0  0  0  0
  -25.7923   -0.4302   29.0761 C   0  0  0  0  0  0  0  0  0  0  0  0
  -25.5756   -1.5654   29.9363 C   0  0  0  0  0  0  0  0  0  0  0  0
  -26.7354   -2.3004   30.2173 C   0  0  0  0  0  0  0  0  0  0  0  0
  -27.9184   -1.9537   29.7629 C   0  0  0  0  0  0  0  0  0  0  0  0
  -27.1057    1.1023   27.7593 C   0  0  0  0  0  0  0  0  0  0  0  0
  -26.7157    2.2350   27.9945 C   0  0  0  0  0  0  0  0  0  0  0  0
  -26.0688    2.4770   29.3567 C   0  0  0  0  0  0  0  0  0  0  0  0
  -25.5134    1.7699   30.1467 Cl  0  0  0  0  0  0  0  0  0  0  0  0
  -25.7370    4.0472   29.4879 C   0  0  0  0  0  0  0  0  0  0  0  0
  -25.4514    4.4030   30.5633 O   0  0  0  0  0  0  0  0  0  0  0  0
  -25.8778    4.8835   28.5229 O   0  0  0  0  0  0  0  0  0  0  0  0
  -27.8385    0.8034   26.4599 C   0  0  0  0  0  0  0  0  0  0  0  0
  -28.7741    1.1084   26.1694 C   0  0  0  0  0  0  0  0  0  0  0  0
  -29.4242    0.7931   24.8713 C   0  0  0  0  0  0  0  0  0  0  0  0
  -28.6549   -0.0048   24.0746 C   0  0  0  0  0  0  0  0  0  0  0  0
  -27.2088   -0.0589   25.3828 C   0  0  0  0  0  0  0  0  0  0  0  0
  -26.3695   -0.9041   24.7400 C   0  0  0  0  0  0  0  0  0  0  0  0
  2  7  1  0
  7  8  2  3
  8  9  1  0
  9 10  1  0
  9 11  1  0
 11 12  1  0
 11 13  2  0
  7 14  1  0
 14 15  2  0
 15 16  1  0
 16 17  2  0
 14 18  1  0
 17 18  1  0
 18 19  1  0
  1  2  2  0
  2  3  1  0
  3  4  2  0
  4  5  1  0
  5  6  2  0
  6  1  1  0
M  END

$$$$
