No_1378-gen_results/8p0m/2024-11-27-11-27-31/
     RDKit          3D

 20 21  0  0  0  0  0  0  0  0999 V2000
  -28.0162   -0.8135   28.8779 C   0  0  0  0  0  0  0  0  0  0  0  0
  -27.0636   -0.1189   28.6079 C   0  0  0  0  0  0  0  0  0  0  0  0
  -25.7647   -0.3897   29.0360 C   0  0  0  0  0  0  0  0  0  0  0  0
  -25.5296   -1.5302   29.9014 C   0  0  0  0  0  0  0  0  0  0  0  0
  -26.6888   -2.2893   30.1810 C   0  0  0  0  0  0  0  0  0  0  0  0
  -27.8727   -1.9508   29.7373 C   0  0  0  0  0  0  0  0  0  0  0  0
  -24.3819    0.5593   28.6789 Cl  0  0  0  0  0  0  0  0  0  0  0  0
  -28.9605   -2.7338   30.0969 O   0  0  0  0  0  0  0  0  0  0  0  0
  -30.0552   -2.1400   30.6083 C   0  0  0  0  0  0  0  0  0  0  0  0
  -30.6149   -2.9276   31.6189 C   0  0  0  0  0  0  0  0  0  0  0  0
  -31.5873   -2.4956   32.1700 O   0  0  0  0  0  0  0  0  0  0  0  0
  -29.9005   -3.7751   32.2153 O   0  0  0  0  0  0  0  0  0  0  0  0
  -30.5987   -1.3140   30.0168 O   0  0  0  0  0  0  0  0  0  0  0  0
  -27.1509    1.0785   27.6404 C   0  0  0  0  0  0  0  0  0  0  0  0
  -27.0648    2.2547   28.1524 C   0  0  0  0  0  0  0  0  0  0  0  0
  -27.1488    3.3861   27.2927 C   0  0  0  0  0  0  0  0  0  0  0  0
  -27.2641    3.1572   25.8971 C   0  0  0  0  0  0  0  0  0  0  0  0
  -27.2174    0.9472   26.2595 C   0  0  0  0  0  0  0  0  0  0  0  0
  -27.2824    1.9190   25.4114 C   0  0  0  0  0  0  0  0  0  0  0  0
  -23.9744   -1.8892   30.4185 Cl  0  0  0  0  0  0  0  0  0  0  0  0
  3  7  1  0
  6  8  1  0
  8  9  1  0
  9 10  1  0
 10 11  1  0
 10 12  2  0
  9 13  2  0
  2 14  1  0
  4 20  1  0
  1  2  2  0
  2  3  1  0
  3  4  2  0
  4  5  1  0
  5  6  2  0
  6  1  1  0
 14 15  2  0
 15 16  1  0
 16 17  2  0
 17 19  1  0
 19 18  2  0
 18 14  1  0
M  END

$$$$
