No_167-gen_results/8p0m/2024-11-27-11-27-31/
     RDKit          3D

 27 29  0  0  0  0  0  0  0  0999 V2000
  -28.1229   -1.3353   28.4874 O   0  0  0  0  0  0  0  0  0  0  0  0
  -27.4806   -0.4044   28.7094 C   0  0  0  0  0  0  0  0  0  0  0  0
  -26.3804   -0.0867   27.9394 C   0  0  0  0  0  0  0  0  0  0  0  0
  -27.6664    0.4468   29.8988 N   0  0  0  0  0  0  0  0  0  0  0  0
  -26.4086    0.8567   26.8802 C   0  0  0  0  0  0  0  0  0  0  0  0
  -25.0824   -0.6970   28.1699 C   0  0  0  0  0  0  0  0  0  0  0  0
  -25.2842    1.0488   26.0470 C   0  0  0  0  0  0  0  0  0  0  0  0
  -23.8947   -0.3310   27.4777 C   0  0  0  0  0  0  0  0  0  0  0  0
  -24.0554    0.5635   26.3806 C   0  0  0  0  0  0  0  0  0  0  0  0
  -28.7860    0.1100   30.7785 C   0  0  0  0  0  0  0  0  0  0  0  0
  -26.8471    1.5250   30.2217 C   0  0  0  0  0  0  0  0  0  0  0  0
  -26.1012    1.5052   31.0361 C   0  0  0  0  0  0  0  0  0  0  0  0
  -25.2190    1.8455   31.4973 C   0  0  0  0  0  0  0  0  0  0  0  0
  -24.3094    2.8407   30.8135 C   0  0  0  0  0  0  0  0  0  0  0  0
  -24.8807    3.1708   29.5858 C   0  0  0  0  0  0  0  0  0  0  0  0
  -26.1037    2.5267   29.1818 C   0  0  0  0  0  0  0  0  0  0  0  0
  -24.3054    3.9658   28.7206 O   0  0  0  0  0  0  0  0  0  0  0  0
  -27.6855    1.3984   26.4391 C   0  0  0  0  0  0  0  0  0  0  0  0
  -27.7963    2.1975   25.4537 C   0  0  0  0  0  0  0  0  0  0  0  0
  -29.0339    2.7366   25.2238 C   0  0  0  0  0  0  0  0  0  0  0  0
  -30.2226    2.3042   25.5967 C   0  0  0  0  0  0  0  0  0  0  0  0
  -31.4064    2.8642   25.3036 C   0  0  0  0  0  0  0  0  0  0  0  0
  -31.3797    3.9644   24.3958 C   0  0  0  0  0  0  0  0  0  0  0  0
  -30.2339    4.4294   23.8804 C   0  0  0  0  0  0  0  0  0  0  0  0
  -29.0235    3.8737   24.2506 C   0  0  0  0  0  0  0  0  0  0  0  0
  -32.5658    4.5580   24.0123 O   0  0  0  0  0  0  0  0  0  0  0  0
  -33.2583    5.3658   24.7860 C   0  0  0  0  0  0  0  0  0  0  0  0
  1  2  2  0
  2  3  1  0
  2  4  1  0
  4 10  1  0
  4 11  1  0
 15 17  1  0
  5 18  1  0
 18 19  2  3
 19 20  1  0
 23 26  1  0
 26 27  1  0
 20 21  2  0
 21 22  1  0
 22 23  2  0
 23 24  1  0
 24 25  2  0
 25 20  1  0
 11 12  2  0
 12 13  1  0
 13 14  2  0
 14 15  1  0
 15 16  2  0
 16 11  1  0
  3  5  2  0
  5  7  1  0
  7  9  2  0
  9  8  1  0
  8  6  2  0
  6  3  1  0
M  END

$$$$
