No_1326-gen_results/8p0m/2024-11-27-11-27-31/
     RDKit          3D

 19 19  0  0  0  0  0  0  0  0999 V2000
  -28.0162   -0.8135   28.8779 C   0  0  0  0  0  0  0  0  0  0  0  0
  -28.4690   -0.7850   29.8287 C   0  0  0  0  0  0  0  0  0  0  0  0
  -27.1356    0.2359   28.5352 C   0  0  0  0  0  0  0  0  0  0  0  0
  -26.8050    1.0509   29.2763 C   0  0  0  0  0  0  0  0  0  0  0  0
  -28.2372    0.1503   30.9300 C   0  0  0  0  0  0  0  0  0  0  0  0
  -27.3522    1.1239   30.6071 C   0  0  0  0  0  0  0  0  0  0  0  0
  -26.4705    0.1962   27.1308 C   0  0  0  0  0  0  0  0  0  0  0  0
  -27.0542    0.6657   26.1840 N   0  0  0  0  0  0  0  0  0  0  0  0
  -25.1628    0.0611   27.0806 O   0  0  0  0  0  0  0  0  0  0  0  0
  -26.5596    0.6296   24.8306 C   0  0  0  0  0  0  0  0  0  0  0  0
  -28.5109    0.9402   26.1426 C   0  0  0  0  0  0  0  0  0  0  0  0
  -28.7629    2.1645   25.9881 C   0  0  0  0  0  0  0  0  0  0  0  0
  -29.2165    0.1016   25.0963 C   0  0  0  0  0  0  0  0  0  0  0  0
  -29.4106   -1.8088   30.2731 O   0  0  0  0  0  0  0  0  0  0  0  0
  -30.3785   -1.9874   29.8863 C   0  0  0  0  0  0  0  0  0  0  0  0
  -31.4642   -2.1749   30.8076 C   0  0  0  0  0  0  0  0  0  0  0  0
  -31.3094   -2.5178   31.9355 C   0  0  0  0  0  0  0  0  0  0  0  0
  -30.1347   -2.8523   32.4080 C   0  0  0  0  0  0  0  0  0  0  0  0
  -29.6766   -3.2486   33.7571 C   0  0  0  0  0  0  0  0  0  0  0  0
  3  7  1  0
  7  8  1  0
  7  9  2  0
  8 10  1  0
  8 11  1  0
 11 12  1  0
 11 13  1  0
  2 14  1  0
 14 15  1  0
 15 16  1  0
 16 17  1  0
 17 18  2  3
 18 19  1  0
  1  2  2  0
  2  5  1  0
  5  6  2  0
  6  4  1  0
  4  3  2  0
  3  1  1  0
M  END

$$$$
