No_1561-gen_results/8p0m/2024-11-27-11-27-31/
     RDKit          3D

  9  8  0  0  0  0  0  0  0  0999 V2000
  -28.0544   -1.0498   28.7246 N   0  0  0  0  0  0  0  0  0  0  0  0
  -28.6544   -0.5669   29.5076 C   0  0  0  0  0  0  0  0  0  0  0  0
  -26.6945   -1.3221   29.0236 C   0  0  0  0  0  0  0  0  0  0  0  0
  -25.6511   -1.1026   28.1645 C   0  0  0  0  0  0  0  0  0  0  0  0
  -25.5937    0.1450   27.4821 C   0  0  0  0  0  0  0  0  0  0  0  0
  -24.3753    0.7888   27.4353 C   0  0  0  0  0  0  0  0  0  0  0  0
  -23.2314    0.3370   28.1315 C   0  0  0  0  0  0  0  0  0  0  0  0
  -21.9708    0.9993   28.0925 C   0  0  0  0  0  0  0  0  0  0  0  0
  -21.9322    2.0860   27.1684 C   0  0  0  0  0  0  0  0  0  0  0  0
  1  2  1  0
  1  3  1  0
  3  4  1  0
  4  5  1  0
  5  6  2  3
  6  7  1  0
  7  8  2  3
  8  9  1  0
M  END

$$$$
