No_1061-gen_results/8p0m/2024-11-27-11-27-31/
     RDKit          3D

 27 29  0  0  0  0  0  0  0  0999 V2000
  -28.0162   -0.8135   28.8779 C   0  0  0  0  0  0  0  0  0  0  0  0
  -27.0636   -0.1189   28.6079 C   0  0  0  0  0  0  0  0  0  0  0  0
  -25.7647   -0.3897   29.0360 C   0  0  0  0  0  0  0  0  0  0  0  0
  -25.5296   -1.5302   29.9014 C   0  0  0  0  0  0  0  0  0  0  0  0
  -26.6888   -2.2893   30.1810 C   0  0  0  0  0  0  0  0  0  0  0  0
  -27.8727   -1.9508   29.7373 C   0  0  0  0  0  0  0  0  0  0  0  0
  -24.5491    0.4100   28.7341 C   0  0  0  0  0  0  0  0  0  0  0  0
  -23.3309    0.0437   29.0569 C   0  0  0  0  0  0  0  0  0  0  0  0
  -22.1994    0.8236   28.7067 C   0  0  0  0  0  0  0  0  0  0  0  0
  -22.3657    1.8184   27.6957 C   0  0  0  0  0  0  0  0  0  0  0  0
  -24.7318    1.6447   27.9864 C   0  0  0  0  0  0  0  0  0  0  0  0
  -23.6152    2.2758   27.4603 C   0  0  0  0  0  0  0  0  0  0  0  0
  -29.2299   -2.8903   30.2072 Cl  0  0  0  0  0  0  0  0  0  0  0  0
  -23.7811    3.3878   26.6975 O   0  0  0  0  0  0  0  0  0  0  0  0
  -25.1418    3.7907   26.4565 C   0  0  0  0  0  0  0  0  0  0  0  0
  -29.2879   -0.5472   28.4847 O   0  0  0  0  0  0  0  0  0  0  0  0
  -30.1162    0.1637   29.2775 C   0  0  0  0  0  0  0  0  0  0  0  0
  -31.3824   -0.0981   29.0937 C   0  0  0  0  0  0  0  0  0  0  0  0
  -32.1727    0.1393   29.9249 O   0  0  0  0  0  0  0  0  0  0  0  0
  -31.8350   -0.6275   27.9824 O   0  0  0  0  0  0  0  0  0  0  0  0
  -29.6190    1.0745   30.0055 O   0  0  0  0  0  0  0  0  0  0  0  0
  -25.6961    4.6873   27.3058 C   0  0  0  0  0  0  0  0  0  0  0  0
  -26.2277    4.4008   28.2836 C   0  0  0  0  0  0  0  0  0  0  0  0
  -26.5451    4.9533   29.1871 C   0  0  0  0  0  0  0  0  0  0  0  0
  -26.4430    6.4307   29.1821 C   0  0  0  0  0  0  0  0  0  0  0  0
  -25.8265    7.0050   28.0928 C   0  0  0  0  0  0  0  0  0  0  0  0
  -25.3262    6.1048   27.0971 C   0  0  0  0  0  0  0  0  0  0  0  0
  3  7  1  0
  6 13  1  0
 12 14  1  0
 14 15  1  0
  1 16  1  0
 16 17  1  0
 17 18  1  0
 18 19  1  0
 18 20  2  0
 17 21  2  0
 15 22  1  0
  7  8  2  0
  8  9  1  0
  9 10  2  0
 10 12  1  0
 12 11  2  0
 11  7  1  0
  1  2  2  0
  2  3  1  0
  3  4  2  0
  4  5  1  0
  5  6  2  0
  6  1  1  0
 22 23  2  0
 23 24  1  0
 24 25  2  0
 25 26  1  0
 26 27  2  0
 27 22  1  0
M  END

$$$$
