No_133-gen_results/8p0m/2024-11-27-11-27-31/
     RDKit          3D

 13 13  0  0  0  0  0  0  0  0999 V2000
  -28.0162   -0.8135   28.8779 C   0  0  0  0  0  0  0  0  0  0  0  0
  -28.4690   -0.7850   29.8287 C   0  0  0  0  0  0  0  0  0  0  0  0
  -26.5042   -0.7777   28.8766 C   0  0  0  0  0  0  0  0  0  0  0  0
  -25.8103   -0.8531   30.1028 C   0  0  0  0  0  0  0  0  0  0  0  0
  -27.9906   -0.8916   31.2257 C   0  0  0  0  0  0  0  0  0  0  0  0
  -26.6042   -0.8676   31.2652 C   0  0  0  0  0  0  0  0  0  0  0  0
  -30.0773   -0.8858   30.0240 C   0  0  0  0  0  0  0  0  0  0  0  0
  -30.6821   -0.3163   29.2532 O   0  0  0  0  0  0  0  0  0  0  0  0
  -30.6270   -1.7345   30.9655 N   0  0  0  0  0  0  0  0  0  0  0  0
  -32.0481   -1.8836   30.9924 C   0  0  0  0  0  0  0  0  0  0  0  0
  -25.7599   -0.7418   27.7855 F   0  0  0  0  0  0  0  0  0  0  0  0
  -32.8898   -1.3014   30.7642 C   0  0  0  0  0  0  0  0  0  0  0  0
  -34.2899   -1.5908   30.8689 C   0  0  0  0  0  0  0  0  0  0  0  0
  2  7  1  0
  7  8  2  0
  7  9  1  0
  9 10  1  0
  3 11  1  0
 10 12  2  3
 12 13  1  0
  1  2  2  0
  2  5  1  0
  5  6  2  0
  6  4  1  0
  4  3  2  0
  3  1  1  0
M  END

$$$$
