No_1983-gen_results/8p0m/2024-11-27-11-27-31/
     RDKit          3D

 28 30  0  0  0  0  0  0  0  0999 V2000
  -28.0162   -0.8135   28.8779 C   0  0  0  0  0  0  0  0  0  0  0  0
  -27.0636   -0.1189   28.6079 C   0  0  0  0  0  0  0  0  0  0  0  0
  -25.7923   -0.4302   29.0761 C   0  0  0  0  0  0  0  0  0  0  0  0
  -24.5456    0.3494   28.8225 C   0  0  0  0  0  0  0  0  0  0  0  0
  -24.6586    1.4196   27.8878 C   0  0  0  0  0  0  0  0  0  0  0  0
  -25.9471    1.6811   27.3792 C   0  0  0  0  0  0  0  0  0  0  0  0
  -27.0439    0.9739   27.6871 C   0  0  0  0  0  0  0  0  0  0  0  0
  -27.9517   -1.7518   29.9375 N   0  0  0  0  0  0  0  0  0  0  0  0
  -29.1984   -0.5344   28.5255 O   0  0  0  0  0  0  0  0  0  0  0  0
  -29.0453   -2.5720   30.4456 C   0  0  0  0  0  0  0  0  0  0  0  0
  -23.4612    2.1665   27.5992 C   0  0  0  0  0  0  0  0  0  0  0  0
  -22.4914    1.7623   27.1707 N   0  0  0  0  0  0  0  0  0  0  0  0
  -23.6871    3.5570   27.5429 N   0  0  0  0  0  0  0  0  0  0  0  0
  -29.8191   -3.0425   29.7673 C   0  0  0  0  0  0  0  0  0  0  0  0
  -30.7061   -3.6767   30.3815 C   0  0  0  0  0  0  0  0  0  0  0  0
  -30.7409   -3.9787   31.7882 C   0  0  0  0  0  0  0  0  0  0  0  0
  -29.8057   -3.3982   32.5490 C   0  0  0  0  0  0  0  0  0  0  0  0
  -28.8466   -2.6309   31.9150 C   0  0  0  0  0  0  0  0  0  0  0  0
  -31.9850   -4.5565   29.4647 Cl  0  0  0  0  0  0  0  0  0  0  0  0
  -24.8476    4.2620   27.0970 C   0  0  0  0  0  0  0  0  0  0  0  0
  -24.8660    5.6274   27.2300 C   0  0  0  0  0  0  0  0  0  0  0  0
  -25.4115    6.2226   28.3559 C   0  0  0  0  0  0  0  0  0  0  0  0
  -25.3725    7.6344   28.5035 C   0  0  0  0  0  0  0  0  0  0  0  0
  -24.8970    8.3904   27.3997 C   0  0  0  0  0  0  0  0  0  0  0  0
  -24.3964    7.8242   26.2900 C   0  0  0  0  0  0  0  0  0  0  0  0
  -24.3590    6.4322   26.1933 C   0  0  0  0  0  0  0  0  0  0  0  0
  -26.0025    3.5695   27.0512 F   0  0  0  0  0  0  0  0  0  0  0  0
  -25.7963    1.5389   25.7040 C   0  0  0  0  0  0  0  0  0  0  0  0
  1  2  1  0
  1  8  1  0
  1  9  2  0
  8 10  1  0
  5 11  1  0
 11 12  2  0
 11 13  1  0
 15 19  1  0
 13 20  1  0
 20 21  1  0
 20 27  1  0
  6 28  1  0
  2  3  2  0
  3  4  1  0
  4  5  2  0
  5  6  1  0
  6  7  2  0
  7  2  1  0
 10 14  2  0
 14 15  1  0
 15 16  2  0
 16 17  1  0
 17 18  2  0
 18 10  1  0
 21 22  2  0
 22 23  1  0
 23 24  2  0
 24 25  1  0
 25 26  2  0
 26 21  1  0
M  END

$$$$
