No_1623-gen_results/8p0m/2024-11-27-11-27-31/
     RDKit          3D

  9  9  0  0  0  0  0  0  0  0999 V2000
  -28.0727   -1.2542   28.5316 F   0  0  0  0  0  0  0  0  0  0  0  0
  -27.0607   -0.6291   28.8721 C   0  0  0  0  0  0  0  0  0  0  0  0
  -26.3579   -0.0711   28.0115 C   0  0  0  0  0  0  0  0  0  0  0  0
  -26.9293    0.3401   26.6950 C   0  0  0  0  0  0  0  0  0  0  0  0
  -26.1547    0.6569   25.6608 C   0  0  0  0  0  0  0  0  0  0  0  0
  -24.7231    0.8742   25.8648 C   0  0  0  0  0  0  0  0  0  0  0  0
  -24.1598    0.7209   27.0864 C   0  0  0  0  0  0  0  0  0  0  0  0
  -24.9492    0.2685   28.1501 C   0  0  0  0  0  0  0  0  0  0  0  0
  -27.3665    0.2464   29.9521 F   0  0  0  0  0  0  0  0  0  0  0  0
  1  2  1  0
  2  9  1  0
  2  3  1  0
  3  4  2  0
  4  5  1  0
  5  6  2  0
  6  7  1  0
  7  8  2  0
  8  3  1  0
M  END

$$$$
