No_1700-gen_results/8p0m/2024-11-27-11-27-31/
     RDKit          3D

 11 11  0  0  0  0  0  0  0  0999 V2000
  -28.0162   -0.8135   28.8779 C   0  0  0  0  0  0  0  0  0  0  0  0
  -27.0636   -0.1189   28.6079 C   0  0  0  0  0  0  0  0  0  0  0  0
  -26.9716    0.7139   27.5060 C   0  0  0  0  0  0  0  0  0  0  0  0
  -25.8205    1.4910   27.1160 C   0  0  0  0  0  0  0  0  0  0  0  0
  -24.6562    1.4242   27.9180 C   0  0  0  0  0  0  0  0  0  0  0  0
  -23.4374    2.1089   27.6717 C   0  0  0  0  0  0  0  0  0  0  0  0
  -23.4645    2.6967   26.3322 C   0  0  0  0  0  0  0  0  0  0  0  0
  -28.0094   -1.6217   30.0916 C   0  0  0  0  0  0  0  0  0  0  0  0
  -26.7909   -1.7622   30.7852 C   0  0  0  0  0  0  0  0  0  0  0  0
  -25.6583   -1.1221   30.3821 C   0  0  0  0  0  0  0  0  0  0  0  0
  -25.7217   -0.2962   29.2879 C   0  0  0  0  0  0  0  0  0  0  0  0
  2  3  1  0
  3  4  1  0
  4  5  2  3
  5  6  1  0
  6  7  2  0
  1  2  2  0
  2 11  1  0
 11 10  2  0
 10  9  1  0
  9  8  2  0
  8  1  1  0
M  END

$$$$
