No_1010-gen_results/8p0m/2024-11-27-11-27-31/
     RDKit          3D

 31 33  0  0  0  0  0  0  0  0999 V2000
  -28.0162   -0.8135   28.8779 C   0  0  0  0  0  0  0  0  0  0  0  0
  -28.4690   -0.7850   29.8287 C   0  0  0  0  0  0  0  0  0  0  0  0
  -28.1960    0.3478   28.0550 C   0  0  0  0  0  0  0  0  0  0  0  0
  -29.0191    1.3501   28.3782 C   0  0  0  0  0  0  0  0  0  0  0  0
  -29.6249    1.2683   29.6012 C   0  0  0  0  0  0  0  0  0  0  0  0
  -29.3791    0.1470   30.3923 C   0  0  0  0  0  0  0  0  0  0  0  0
  -27.4550    0.3821   26.7102 C   0  0  0  0  0  0  0  0  0  0  0  0
  -27.9781    0.9476   25.1965 Br  0  0  0  0  0  0  0  0  0  0  0  0
  -25.9856    0.0265   26.7273 C   0  0  0  0  0  0  0  0  0  0  0  0
  -25.0708    0.8894   26.1498 C   0  0  0  0  0  0  0  0  0  0  0  0
  -24.4243    1.9434   26.9508 C   0  0  0  0  0  0  0  0  0  0  0  0
  -24.8274    2.3395   27.9865 C   0  0  0  0  0  0  0  0  0  0  0  0
  -24.1281    1.7358   29.2155 C   0  0  0  0  0  0  0  0  0  0  0  0
  -22.9626    1.5219   29.1775 O   0  0  0  0  0  0  0  0  0  0  0  0
  -24.7783    1.6662   30.4176 N   0  0  0  0  0  0  0  0  0  0  0  0
  -24.1806    0.9841   31.5829 C   0  0  0  0  0  0  0  0  0  0  0  0
  -26.1991    1.9334   30.4928 C   0  0  0  0  0  0  0  0  0  0  0  0
  -26.4513    3.0086   31.5678 C   0  0  0  0  0  0  0  0  0  0  0  0
  -26.8049    2.6072   32.6846 C   0  0  0  0  0  0  0  0  0  0  0  0
  -27.4076    1.5781   33.0196 C   0  0  0  0  0  0  0  0  0  0  0  0
  -27.7112    1.1809   34.4062 C   0  0  0  0  0  0  0  0  0  0  0  0
  -27.4774    2.1117   35.3779 C   0  0  0  0  0  0  0  0  0  0  0  0
  -26.8817    3.3222   35.1111 C   0  0  0  0  0  0  0  0  0  0  0  0
  -26.5504    3.6049   33.8111 C   0  0  0  0  0  0  0  0  0  0  0  0
  -26.4957    4.3588   30.9863 C   0  0  0  0  0  0  0  0  0  0  0  0
  -25.4949    5.1713   31.0847 N   0  0  0  0  0  0  0  0  0  0  0  0
  -25.4702    6.4024   30.3885 C   0  0  0  0  0  0  0  0  0  0  0  0
  -27.7297    4.8804   30.5096 C   0  0  0  0  0  0  0  0  0  0  0  0
  -27.7916    6.1175   29.8568 C   0  0  0  0  0  0  0  0  0  0  0  0
  -26.6258    6.8941   29.8953 C   0  0  0  0  0  0  0  0  0  0  0  0
  -26.6321    8.2290   29.2290 C   0  0  0  0  0  0  0  0  0  0  0  0
  3  7  1  0
  7  8  1  0
  7  9  1  0
  9 10  1  0
 10 11  1  0
 11 12  1  0
 12 13  1  0
 13 14  2  0
 13 15  1  0
 15 16  1  0
 15 17  1  0
 17 18  1  0
 18 19  1  0
 18 25  1  0
 30 31  1  0
  1  2  2  0
  2  6  1  0
  6  5  2  0
  5  4  1  0
  4  3  2  0
  3  1  1  0
 25 26  2  0
 26 27  1  0
 27 30  2  0
 30 29  1  0
 29 28  2  0
 28 25  1  0
 19 20  2  0
 20 21  1  0
 21 22  2  0
 22 23  1  0
 23 24  2  0
 24 19  1  0
M  END

$$$$
