No_10-gen_results/8p0m/2024-11-27-11-27-31/
     RDKit          3D

 16 17  0  0  0  0  0  0  0  0999 V2000
  -28.0162   -0.8135   28.8779 C   0  0  0  0  0  0  0  0  0  0  0  0
  -28.4690   -0.7850   29.8287 C   0  0  0  0  0  0  0  0  0  0  0  0
  -27.1356    0.2359   28.5352 C   0  0  0  0  0  0  0  0  0  0  0  0
  -26.8745    1.2825   29.3982 C   0  0  0  0  0  0  0  0  0  0  0  0
  -28.3613    0.1987   30.9244 C   0  0  0  0  0  0  0  0  0  0  0  0
  -27.5277    1.2234   30.6356 C   0  0  0  0  0  0  0  0  0  0  0  0
  -26.3879    0.2914   27.2334 C   0  0  0  0  0  0  0  0  0  0  0  0
  -25.1510    0.3034   27.2565 C   0  0  0  0  0  0  0  0  0  0  0  0
  -24.2763    0.0439   28.3453 C   0  0  0  0  0  0  0  0  0  0  0  0
  -23.3559    0.9430   28.8109 C   0  0  0  0  0  0  0  0  0  0  0  0
  -22.3505    0.6167   29.7259 C   0  0  0  0  0  0  0  0  0  0  0  0
  -24.0620   -1.2153   28.9550 C   0  0  0  0  0  0  0  0  0  0  0  0
  -23.2523   -1.5362   29.9874 C   0  0  0  0  0  0  0  0  0  0  0  0
  -22.3374   -0.5479   30.3766 C   0  0  0  0  0  0  0  0  0  0  0  0
  -27.2304    0.2690   26.0647 C   0  0  0  0  0  0  0  0  0  0  0  0
  -28.2031   -0.0927   25.9726 F   0  0  0  0  0  0  0  0  0  0  0  0
  3  7  1  0
  7  8  1  0
  8  9  1  0
  7 15  1  0
 15 16  1  0
  9 10  2  0
 10 11  1  0
 11 14  2  0
 14 13  1  0
 13 12  2  0
 12  9  1  0
  1  2  2  0
  2  5  1  0
  5  6  2  0
  6  4  1  0
  4  3  2  0
  3  1  1  0
M  END

$$$$
