No_1857-gen_results/8p0m/2024-11-27-11-27-31/
     RDKit          3D

 18 19  0  0  0  0  0  0  0  0999 V2000
  -28.0162   -0.8135   28.8779 C   0  0  0  0  0  0  0  0  0  0  0  0
  -27.0636   -0.1189   28.6079 C   0  0  0  0  0  0  0  0  0  0  0  0
  -26.9287    1.1713   29.0083 C   0  0  0  0  0  0  0  0  0  0  0  0
  -27.9560    1.7411   29.7840 C   0  0  0  0  0  0  0  0  0  0  0  0
  -29.0569   -0.3271   29.7466 C   0  0  0  0  0  0  0  0  0  0  0  0
  -28.9828    0.9722   30.1516 C   0  0  0  0  0  0  0  0  0  0  0  0
  -25.8815   -0.6260   27.7945 C   0  0  0  0  0  0  0  0  0  0  0  0
  -24.6972   -1.0572   28.6241 C   0  0  0  0  0  0  0  0  0  0  0  0
  -23.5810   -0.2730   28.8246 C   0  0  0  0  0  0  0  0  0  0  0  0
  -22.4967   -0.7887   29.5688 C   0  0  0  0  0  0  0  0  0  0  0  0
  -24.7363   -2.3397   29.2314 C   0  0  0  0  0  0  0  0  0  0  0  0
  -23.6092   -2.8367   29.8761 C   0  0  0  0  0  0  0  0  0  0  0  0
  -22.5153   -2.0095   30.0911 C   0  0  0  0  0  0  0  0  0  0  0  0
  -30.2965    1.5791   31.1332 Cl  0  0  0  0  0  0  0  0  0  0  0  0
  -27.7995    3.4130   30.2879 Cl  0  0  0  0  0  0  0  0  0  0  0  0
  -23.4880    1.0861   28.2193 C   0  0  0  0  0  0  0  0  0  0  0  0
  -24.1104    1.9427   28.5672 O   0  0  0  0  0  0  0  0  0  0  0  0
  -22.4543    1.3030   27.4243 O   0  0  0  0  0  0  0  0  0  0  0  0
  2  7  1  0
  7  8  1  0
  6 14  1  0
  4 15  1  0
  9 16  1  0
 16 17  2  0
 16 18  1  0
  8  9  2  0
  9 10  1  0
 10 13  2  0
 13 12  1  0
 12 11  2  0
 11  8  1  0
  1  2  2  0
  2  3  1  0
  3  4  2  0
  4  6  1  0
  6  5  2  0
  5  1  1  0
M  END

$$$$
