No_1656-gen_results/8p0m/2024-11-27-11-27-31/
     RDKit          3D

 24 25  0  0  0  0  0  0  0  0999 V2000
  -28.0162   -0.8135   28.8779 C   0  0  0  0  0  0  0  0  0  0  0  0
  -28.4690   -0.7850   29.8287 C   0  0  0  0  0  0  0  0  0  0  0  0
  -26.5455   -0.8762   28.8500 C   0  0  0  0  0  0  0  0  0  0  0  0
  -25.8041   -1.0324   30.0571 C   0  0  0  0  0  0  0  0  0  0  0  0
  -27.9437   -0.9869   31.2075 C   0  0  0  0  0  0  0  0  0  0  0  0
  -26.5825   -1.0386   31.2231 C   0  0  0  0  0  0  0  0  0  0  0  0
  -29.9086   -0.7397   29.8642 F   0  0  0  0  0  0  0  0  0  0  0  0
  -24.3767   -1.0979   30.0689 C   0  0  0  0  0  0  0  0  0  0  0  0
  -23.6966    0.1795   30.0897 C   0  0  0  0  0  0  0  0  0  0  0  0
  -23.1743    0.7694   28.9341 C   0  0  0  0  0  0  0  0  0  0  0  0
  -23.6349    1.9524   28.3810 C   0  0  0  0  0  0  0  0  0  0  0  0
  -24.7360    1.9189   27.6751 C   0  0  0  0  0  0  0  0  0  0  0  0
  -25.0941    3.0876   26.9519 C   0  0  0  0  0  0  0  0  0  0  0  0
  -26.1187    3.7835   27.3279 C   0  0  0  0  0  0  0  0  0  0  0  0
  -25.9018    4.8565   28.0382 C   0  0  0  0  0  0  0  0  0  0  0  0
  -26.9047    5.6422   28.6501 C   0  0  0  0  0  0  0  0  0  0  0  0
  -28.1966    5.3108   28.3120 C   0  0  0  0  0  0  0  0  0  0  0  0
  -28.4754    4.2699   27.4852 C   0  0  0  0  0  0  0  0  0  0  0  0
  -27.4230    3.4977   27.0059 C   0  0  0  0  0  0  0  0  0  0  0  0
  -25.8134   -0.8144   27.7507 F   0  0  0  0  0  0  0  0  0  0  0  0
  -22.0296    0.0634   28.3911 C   0  0  0  0  0  0  0  0  0  0  0  0
  -23.7238    0.9345   31.3619 C   0  0  0  0  0  0  0  0  0  0  0  0
  -25.1444    2.8118   25.4110 C   0  0  0  0  0  0  0  0  0  0  0  0
  -23.9513    3.9596   26.9985 F   0  0  0  0  0  0  0  0  0  0  0  0
  2  7  1  0
  4  8  1  0
  8  9  1  0
  9 10  1  0
 10 11  1  0
 11 12  3  0
 12 13  1  0
 13 14  1  0
  3 20  1  0
 10 21  1  0
  9 22  1  0
 13 23  1  0
 13 24  1  0
 14 15  2  0
 15 16  1  0
 16 17  2  0
 17 18  1  0
 18 19  2  0
 19 14  1  0
  1  2  2  0
  2  5  1  0
  5  6  2  0
  6  4  1  0
  4  3  2  0
  3  1  1  0
M  END

$$$$
