No_1211-gen_results/8p0m/2024-11-27-11-27-31/
     RDKit          3D

 35 37  0  0  0  0  0  0  0  0999 V2000
  -28.0162   -0.8135   28.8779 C   0  0  0  0  0  0  0  0  0  0  0  0
  -27.0636   -0.1189   28.6079 C   0  0  0  0  0  0  0  0  0  0  0  0
  -26.8756    1.1325   28.9134 C   0  0  0  0  0  0  0  0  0  0  0  0
  -25.6883    1.9515   28.5672 C   0  0  0  0  0  0  0  0  0  0  0  0
  -24.6394    1.2834   27.8753 C   0  0  0  0  0  0  0  0  0  0  0  0
  -24.8068   -0.0513   27.6040 C   0  0  0  0  0  0  0  0  0  0  0  0
  -25.9019   -0.7670   27.9511 C   0  0  0  0  0  0  0  0  0  0  0  0
  -28.7095   -0.5833   30.0504 N   0  0  0  0  0  0  0  0  0  0  0  0
  -23.4625    1.9806   27.4674 C   0  0  0  0  0  0  0  0  0  0  0  0
  -22.4497    1.4996   27.6174 F   0  0  0  0  0  0  0  0  0  0  0  0
  -23.5944    2.3684   26.0991 F   0  0  0  0  0  0  0  0  0  0  0  0
  -23.4134    3.2826   28.0834 F   0  0  0  0  0  0  0  0  0  0  0  0
  -29.4502   -0.9006   30.7044 C   0  0  0  0  0  0  0  0  0  0  0  0
  -30.1096   -1.9926   30.3829 O   0  0  0  0  0  0  0  0  0  0  0  0
  -29.9482   -0.2700   32.0503 C   0  0  0  0  0  0  0  0  0  0  0  0
  -29.7757   -0.8281   33.0658 C   0  0  0  0  0  0  0  0  0  0  0  0
  -30.0731   -0.1873   34.3616 C   0  0  0  0  0  0  0  0  0  0  0  0
  -30.5542    1.1215   34.3070 C   0  0  0  0  0  0  0  0  0  0  0  0
  -30.7116    1.7212   33.0881 C   0  0  0  0  0  0  0  0  0  0  0  0
  -30.3257    1.0746   31.8805 C   0  0  0  0  0  0  0  0  0  0  0  0
  -31.1441    3.1370   33.0164 C   0  0  0  0  0  0  0  0  0  0  0  0
  -31.9891    3.5313   32.6025 N   0  0  0  0  0  0  0  0  0  0  0  0
  -30.0643    3.9458   33.1411 F   0  0  0  0  0  0  0  0  0  0  0  0
  -32.4194    4.8938   32.4631 C   0  0  0  0  0  0  0  0  0  0  0  0
  -33.6789    5.1875   31.9693 C   0  0  0  0  0  0  0  0  0  0  0  0
  -34.6871    4.4501   32.2365 C   0  0  0  0  0  0  0  0  0  0  0  0
  -35.8142    4.4264   31.3419 C   0  0  0  0  0  0  0  0  0  0  0  0
  -35.9363    5.4698   30.4250 C   0  0  0  0  0  0  0  0  0  0  0  0
  -34.8931    6.3242   30.2252 C   0  0  0  0  0  0  0  0  0  0  0  0
  -33.6697    6.1585   30.9194 C   0  0  0  0  0  0  0  0  0  0  0  0
  -37.1796    5.5977   29.6920 C   0  0  0  0  0  0  0  0  0  0  0  0
  -37.7500    6.6296   29.6671 O   0  0  0  0  0  0  0  0  0  0  0  0
  -37.5829    4.4914   29.0196 N   0  0  0  0  0  0  0  0  0  0  0  0
  -38.7555    4.4862   28.2539 C   0  0  0  0  0  0  0  0  0  0  0  0
  -39.6305    4.9697   28.0226 C   0  0  0  0  0  0  0  0  0  0  0  0
  1  8  1  0
  5  9  1  0
  9 10  1  0
  9 11  1  0
  9 12  1  0
  8 13  1  0
 13 14  2  0
 13 15  1  0
 19 21  1  0
 21 22  2  3
 21 23  1  0
 22 24  1  0
 24 25  1  0
 28 31  1  0
 31 32  2  0
 31 33  1  0
 33 34  1  0
 34 35  2  0
  1  2  1  0
 15 16  2  0
 16 17  1  0
 17 18  2  0
 18 19  1  0
 19 20  2  0
 20 15  1  0
  2  3  2  0
  3  4  1  0
  4  5  2  0
  5  6  1  0
  6  7  2  0
  7  2  1  0
 25 26  2  0
 26 27  1  0
 27 28  2  0
 28 29  1  0
 29 30  2  0
 30 25  1  0
M  END

$$$$
