No_1330-gen_results/8p0m/2024-11-27-11-27-31/
     RDKit          3D

 30 32  0  0  0  0  0  0  0  0999 V2000
  -28.0162   -0.8135   28.8779 C   0  0  0  0  0  0  0  0  0  0  0  0
  -27.0636   -0.1190   28.6079 C   0  0  0  0  0  0  0  0  0  0  0  0
  -25.7923   -0.4302   29.0761 C   0  0  0  0  0  0  0  0  0  0  0  0
  -24.5456    0.3494   28.8225 C   0  0  0  0  0  0  0  0  0  0  0  0
  -24.6586    1.4196   27.8878 C   0  0  0  0  0  0  0  0  0  0  0  0
  -25.9471    1.6811   27.3792 C   0  0  0  0  0  0  0  0  0  0  0  0
  -27.0439    0.9739   27.6871 C   0  0  0  0  0  0  0  0  0  0  0  0
  -28.0241   -1.6475   30.1263 C   0  0  0  0  0  0  0  0  0  0  0  0
  -26.7278   -2.0846   30.5807 C   0  0  0  0  0  0  0  0  0  0  0  0
  -25.5915   -1.4064   30.1489 C   0  0  0  0  0  0  0  0  0  0  0  0
  -23.4486    2.1675   27.5241 C   0  0  0  0  0  0  0  0  0  0  0  0
  -22.4839    1.9325   27.0253 N   0  0  0  0  0  0  0  0  0  0  0  0
  -23.6992    3.6032   27.6919 N   0  0  0  0  0  0  0  0  0  0  0  0
  -29.1655   -2.4618   30.5270 C   0  0  0  0  0  0  0  0  0  0  0  0
  -29.1708   -3.6329   30.7872 O   0  0  0  0  0  0  0  0  0  0  0  0
  -30.2031   -1.6811   31.0184 N   0  0  0  0  0  0  0  0  0  0  0  0
  -31.4164   -2.3421   31.5615 C   0  0  0  0  0  0  0  0  0  0  0  0
  -32.4510   -1.6971   31.4048 C   0  0  0  0  0  0  0  0  0  0  0  0
  -32.4792   -0.2740   31.0933 C   0  0  0  0  0  0  0  0  0  0  0  0
  -31.2887    0.3067   30.6028 C   0  0  0  0  0  0  0  0  0  0  0  0
  -30.2485   -0.3867   30.4944 C   0  0  0  0  0  0  0  0  0  0  0  0
  -28.3114    1.3766   27.0171 C   0  0  0  0  0  0  0  0  0  0  0  0
  -28.4349    1.8552   26.0464 O   0  0  0  0  0  0  0  0  0  0  0  0
  -29.3999    1.1025   27.7488 O   0  0  0  0  0  0  0  0  0  0  0  0
  -24.7649    4.4100   27.1763 C   0  0  0  0  0  0  0  0  0  0  0  0
  -24.9483    4.4934   26.1018 C   0  0  0  0  0  0  0  0  0  0  0  0
  -25.4105    5.1778   28.2267 C   0  0  0  0  0  0  0  0  0  0  0  0
  -25.2941    5.1168   29.5733 C   0  0  0  0  0  0  0  0  0  0  0  0
  -25.9773    5.9095   30.4554 C   0  0  0  0  0  0  0  0  0  0  0  0
  -26.7770    6.9001   29.9117 C   0  0  0  0  0  0  0  0  0  0  0  0
  5 11  1  0
 11 12  2  0
 11 13  1  0
  8 14  1  0
 14 15  2  0
 14 16  1  0
 16 17  1  0
 18 19  1  0
 16 21  1  0
 20 21  1  0
  7 22  1  0
 22 23  2  0
 22 24  1  0
 13 25  1  0
 25 26  1  0
 25 27  1  0
 27 28  1  0
 28 29  2  3
 29 30  1  0
 17 18  1  0
 19 20  1  0
  3  4  1  0
  4  5  2  0
  5  6  1  0
  6  7  2  0
  7  2  1  0
  1  2  2  0
  2  3  1  0
  3 10  2  0
 10  9  1  0
  9  8  2  0
  8  1  1  0
M  END

$$$$
