No_1259-gen_results/8p0m/2024-11-27-11-27-31/
     RDKit          3D

 19 19  0  0  0  0  0  0  0  0999 V2000
  -28.0162   -0.8135   28.8779 C   0  0  0  0  0  0  0  0  0  0  0  0
  -27.0636   -0.1190   28.6079 C   0  0  0  0  0  0  0  0  0  0  0  0
  -26.9716    0.7139   27.5060 C   0  0  0  0  0  0  0  0  0  0  0  0
  -25.8205    1.4909   27.1160 C   0  0  0  0  0  0  0  0  0  0  0  0
  -24.6562    1.4242   27.9180 C   0  0  0  0  0  0  0  0  0  0  0  0
  -24.6847    0.5901   29.0659 C   0  0  0  0  0  0  0  0  0  0  0  0
  -25.8099   -0.1266   29.3338 C   0  0  0  0  0  0  0  0  0  0  0  0
  -28.0540   -1.5468   30.1892 C   0  0  0  0  0  0  0  0  0  0  0  0
  -29.1862   -2.2765   30.5561 C   0  0  0  0  0  0  0  0  0  0  0  0
  -23.4656    2.2222   27.6194 C   0  0  0  0  0  0  0  0  0  0  0  0
  -22.5887    2.2758   28.5061 O   0  0  0  0  0  0  0  0  0  0  0  0
  -23.3106    2.7404   26.4618 O   0  0  0  0  0  0  0  0  0  0  0  0
  -28.9091   -3.5488   30.2950 F   0  0  0  0  0  0  0  0  0  0  0  0
  -29.4338   -2.2061   31.9023 F   0  0  0  0  0  0  0  0  0  0  0  0
  -30.4404   -2.1595   30.1499 F   0  0  0  0  0  0  0  0  0  0  0  0
  -28.1328    0.7999   26.5812 C   0  0  0  0  0  0  0  0  0  0  0  0
  -29.1575    1.2160   26.9734 O   0  0  0  0  0  0  0  0  0  0  0  0
  -28.0498    0.0722   25.4393 O   0  0  0  0  0  0  0  0  0  0  0  0
  -26.8721   -2.2448   30.2702 F   0  0  0  0  0  0  0  0  0  0  0  0
  1  2  2  3
  2  3  1  0
  3  4  1  0
  4  5  1  0
  5  6  1  0
  2  7  1  0
  6  7  1  0
  1  8  1  0
  8  9  1  0
  5 10  1  0
 10 11  2  0
 10 12  1  0
  9 13  1  0
  9 14  1  0
  9 15  1  0
  3 16  1  0
 16 17  2  0
 16 18  1  0
  8 19  1  0
M  END

$$$$
