No_1629-gen_results/8p0m/2024-11-27-11-27-31/
     RDKit          3D

 15 16  0  0  0  0  0  0  0  0999 V2000
  -28.1229   -1.3353   28.4874 O   0  0  0  0  0  0  0  0  0  0  0  0
  -27.0637   -0.8242   28.8687 C   0  0  0  0  0  0  0  0  0  0  0  0
  -26.4017   -0.0623   28.6224 C   0  0  0  0  0  0  0  0  0  0  0  0
  -26.2652   -1.8674   29.7609 N   0  0  0  0  0  0  0  0  0  0  0  0
  -26.8442    1.1343   27.8797 C   0  0  0  0  0  0  0  0  0  0  0  0
  -25.0005   -1.6707   30.1794 C   0  0  0  0  0  0  0  0  0  0  0  0
  -24.9787    0.3185   29.1503 C   0  0  0  0  0  0  0  0  0  0  0  0
  -24.3650   -0.5407   29.9325 C   0  0  0  0  0  0  0  0  0  0  0  0
  -26.1624    1.7901   26.9824 C   0  0  0  0  0  0  0  0  0  0  0  0
  -24.7311    2.1207   27.4298 C   0  0  0  0  0  0  0  0  0  0  0  0
  -24.0959    1.2369   28.3465 C   0  0  0  0  0  0  0  0  0  0  0  0
  -22.7112    1.4614   28.6564 C   0  0  0  0  0  0  0  0  0  0  0  0
  -21.9098    1.1894   27.8269 F   0  0  0  0  0  0  0  0  0  0  0  0
  -22.5909    2.8651   29.0590 F   0  0  0  0  0  0  0  0  0  0  0  0
  -22.3095    0.9076   29.8828 F   0  0  0  0  0  0  0  0  0  0  0  0
  1  2  2  0
  2  3  1  0
  2  4  1  0
  6  8  1  0
 11 12  1  0
 12 13  1  0
 12 14  1  0
 12 15  1  0
  7  8  1  0
  6  4  1  0
  3  5  2  0
  5  9  1  0
  9 10  2  0
 10 11  1  0
 11  7  2  0
  7  3  1  0
M  END

$$$$
