No_1049-gen_results/8p0m/2024-11-27-11-27-31/
     RDKit          3D

 14 14  0  0  0  0  0  0  0  0999 V2000
  -28.0162   -0.8135   28.8779 C   0  0  0  0  0  0  0  0  0  0  0  0
  -28.4690   -0.7850   29.8287 C   0  0  0  0  0  0  0  0  0  0  0  0
  -28.1960    0.3478   28.0550 C   0  0  0  0  0  0  0  0  0  0  0  0
  -27.4421    0.5100   26.7946 C   0  0  0  0  0  0  0  0  0  0  0  0
  -27.8427    1.3330   25.8056 C   0  0  0  0  0  0  0  0  0  0  0  0
  -29.4956    0.1092   30.3452 C   0  0  0  0  0  0  0  0  0  0  0  0
  -29.7284    1.1870   29.5687 C   0  0  0  0  0  0  0  0  0  0  0  0
  -29.0420    1.3665   28.3718 C   0  0  0  0  0  0  0  0  0  0  0  0
  -26.1281   -0.0671   26.6257 C   0  0  0  0  0  0  0  0  0  0  0  0
  -25.2466   -0.2457   27.7552 C   0  0  0  0  0  0  0  0  0  0  0  0
  -24.7043    0.7314   28.5496 C   0  0  0  0  0  0  0  0  0  0  0  0
  -23.9115    0.4261   29.6214 C   0  0  0  0  0  0  0  0  0  0  0  0
  -23.1857    1.3815   30.4275 C   0  0  0  0  0  0  0  0  0  0  0  0
  -24.8862   -1.5873   28.2683 C   0  0  0  0  0  0  0  0  0  0  0  0
  3  4  1  0
  4  5  1  0
  4  9  1  0
  9 10  1  0
 10 11  1  0
 11 12  2  3
 12 13  1  0
 10 14  1  0
  1  2  2  0
  2  6  1  0
  6  7  2  0
  7  8  1  0
  8  3  2  0
  3  1  1  0
M  END

$$$$
