No_1307-gen_results/8p0m/2024-11-27-11-27-31/
     RDKit          3D

 21 23  0  0  0  0  0  0  0  0999 V2000
  -28.0727   -1.2542   28.5316 F   0  0  0  0  0  0  0  0  0  0  0  0
  -27.3591   -0.3792   28.7224 C   0  0  0  0  0  0  0  0  0  0  0  0
  -26.3180   -0.6608   29.1159 F   0  0  0  0  0  0  0  0  0  0  0  0
  -27.6804    0.9274   28.3001 C   0  0  0  0  0  0  0  0  0  0  0  0
  -26.7009    1.9033   28.5926 C   0  0  0  0  0  0  0  0  0  0  0  0
  -26.7227    2.6957   29.5151 C   0  0  0  0  0  0  0  0  0  0  0  0
  -27.7085    2.6614   30.4780 C   0  0  0  0  0  0  0  0  0  0  0  0
  -28.6110    1.8968   30.5894 C   0  0  0  0  0  0  0  0  0  0  0  0
  -29.3595    1.8001   31.8122 C   0  0  0  0  0  0  0  0  0  0  0  0
  -29.1338    2.7967   32.7723 C   0  0  0  0  0  0  0  0  0  0  0  0
  -28.1340    3.7245   32.6576 C   0  0  0  0  0  0  0  0  0  0  0  0
  -27.3164    3.6999   31.6226 C   0  0  0  0  0  0  0  0  0  0  0  0
  -28.8277    1.1741   27.6252 C   0  0  0  0  0  0  0  0  0  0  0  0
  -29.0907    2.3672   27.1580 C   0  0  0  0  0  0  0  0  0  0  0  0
  -29.7913    2.8171   26.5686 C   0  0  0  0  0  0  0  0  0  0  0  0
  -29.8305    4.2311   25.9942 C   0  0  0  0  0  0  0  0  0  0  0  0
  -28.7118    5.0428   26.3119 C   0  0  0  0  0  0  0  0  0  0  0  0
  -27.7450    4.5219   27.0793 C   0  0  0  0  0  0  0  0  0  0  0  0
  -27.7844    3.2423   27.4689 C   0  0  0  0  0  0  0  0  0  0  0  0
  -26.6967    2.9277   28.0329 N   0  0  0  0  0  0  0  0  0  0  0  0
  -25.2549    3.1772   30.0240 C   0  0  0  0  0  0  0  0  0  0  0  0
  1  2  1  0
  2  3  1  0
  2  4  1  0
  6  7  1  0
  6 21  1  0
  6  5  1  0
 14 15  1  0
 15 16  2  0
 16 17  1  0
 17 18  2  0
 18 19  1  0
  7  8  2  0
  8  9  1  0
  9 10  2  0
 10 11  1  0
 11 12  2  0
 12  7  1  0
  4  5  2  0
  5 20  1  0
 20 19  2  0
 19 14  1  0
 14 13  2  0
 13  4  1  0
M  END

$$$$
