No_1536-gen_results/8p0m/2024-11-27-11-27-31/
     RDKit          3D

 12 12  0  0  0  0  0  0  0  0999 V2000
  -28.0162   -0.8135   28.8779 C   0  0  0  0  0  0  0  0  0  0  0  0
  -28.4690   -0.7850   29.8287 C   0  0  0  0  0  0  0  0  0  0  0  0
  -28.1960    0.3478   28.0550 C   0  0  0  0  0  0  0  0  0  0  0  0
  -29.0191    1.3501   28.3782 C   0  0  0  0  0  0  0  0  0  0  0  0
  -29.4107    0.1803   30.3782 C   0  0  0  0  0  0  0  0  0  0  0  0
  -29.6059    1.2495   29.6193 C   0  0  0  0  0  0  0  0  0  0  0  0
  -27.3467    0.3759   26.5145 Cl  0  0  0  0  0  0  0  0  0  0  0  0
  -29.9413   -0.0067   31.6232 F   0  0  0  0  0  0  0  0  0  0  0  0
  -30.5528    2.3167   30.0397 C   0  0  0  0  0  0  0  0  0  0  0  0
  -30.1386    3.2227   30.7223 N   0  0  0  0  0  0  0  0  0  0  0  0
  -29.0276    3.5059   31.1001 C   0  0  0  0  0  0  0  0  0  0  0  0
  -28.7537    4.7074   31.9290 C   0  0  0  0  0  0  0  0  0  0  0  0
  3  7  1  0
  5  8  1  0
  6  9  1  0
  9 10  1  0
 10 11  1  0
 11 12  2  0
  1  2  2  0
  2  5  1  0
  5  6  2  0
  6  4  1  0
  4  3  2  0
  3  1  1  0
M  END

$$$$
