No_1196-gen_results/8p0m/2024-11-27-11-27-31/
     RDKit          3D

 15 15  0  0  0  0  0  0  0  0999 V2000
  -28.0162   -0.8135   28.8779 C   0  0  0  0  0  0  0  0  0  0  0  0
  -27.0636   -0.1190   28.6079 C   0  0  0  0  0  0  0  0  0  0  0  0
  -26.9716    0.7139   27.5060 C   0  0  0  0  0  0  0  0  0  0  0  0
  -28.1053    0.7744   26.6421 C   0  0  0  0  0  0  0  0  0  0  0  0
  -29.2041    0.1179   27.0477 C   0  0  0  0  0  0  0  0  0  0  0  0
  -29.2127   -0.6088   28.1281 C   0  0  0  0  0  0  0  0  0  0  0  0
  -25.8738    1.4073   27.1728 F   0  0  0  0  0  0  0  0  0  0  0  0
  -30.3669    0.2295   26.1371 C   0  0  0  0  0  0  0  0  0  0  0  0
  -30.8348    1.2486   25.8722 O   0  0  0  0  0  0  0  0  0  0  0  0
  -31.0734   -0.8706   25.9409 O   0  0  0  0  0  0  0  0  0  0  0  0
  -28.0166   -1.6682   30.1369 C   0  0  0  0  0  0  0  0  0  0  0  0
  -27.1261   -2.4771   30.3672 O   0  0  0  0  0  0  0  0  0  0  0  0
  -29.0477   -1.6528   30.8821 O   0  0  0  0  0  0  0  0  0  0  0  0
  -28.0081    1.5894   25.5860 O   0  0  0  0  0  0  0  0  0  0  0  0
  -27.3207    2.7090   25.7327 C   0  0  0  0  0  0  0  0  0  0  0  0
  3  7  1  0
  5  8  1  0
  8  9  2  0
  8 10  1  0
  1 11  1  0
 11 12  2  0
 11 13  1  0
  4 14  1  0
 14 15  1  0
  1  2  2  0
  2  3  1  0
  3  4  2  0
  4  5  1  0
  5  6  2  0
  6  1  1  0
M  END

$$$$
