No_1961-gen_results/8p0m/2024-11-27-11-27-31/
     RDKit          3D

 18 19  0  0  0  0  0  0  0  0999 V2000
  -28.0162   -0.8135   28.8779 C   0  0  0  0  0  0  0  0  0  0  0  0
  -28.4690   -0.7850   29.8287 C   0  0  0  0  0  0  0  0  0  0  0  0
  -28.1960    0.3478   28.0550 C   0  0  0  0  0  0  0  0  0  0  0  0
  -29.0191    1.3501   28.3782 C   0  0  0  0  0  0  0  0  0  0  0  0
  -29.4107    0.1803   30.3782 C   0  0  0  0  0  0  0  0  0  0  0  0
  -29.6059    1.2495   29.6193 C   0  0  0  0  0  0  0  0  0  0  0  0
  -27.2503    0.2232   26.6092 Cl  0  0  0  0  0  0  0  0  0  0  0  0
  -30.0440   -0.0195   31.7549 C   0  0  0  0  0  0  0  0  0  0  0  0
  -30.1707   -1.0256   32.3231 C   0  0  0  0  0  0  0  0  0  0  0  0
  -30.8354   -1.1656   33.5839 C   0  0  0  0  0  0  0  0  0  0  0  0
  -31.3449   -0.0115   34.1805 C   0  0  0  0  0  0  0  0  0  0  0  0
  -31.2068    1.1576   33.5474 C   0  0  0  0  0  0  0  0  0  0  0  0
  -30.5561    1.2550   32.3382 C   0  0  0  0  0  0  0  0  0  0  0  0
  -31.7310    2.4157   34.1414 C   0  0  0  0  0  0  0  0  0  0  0  0
  -32.1116    2.5792   35.5933 Cl  0  0  0  0  0  0  0  0  0  0  0  0
  -31.9253    3.5294   33.2131 C   0  0  0  0  0  0  0  0  0  0  0  0
  -32.7430    4.1578   33.4878 F   0  0  0  0  0  0  0  0  0  0  0  0
  -30.6867    4.2277   33.2565 F   0  0  0  0  0  0  0  0  0  0  0  0
  3  7  1  0
  5  8  1  0
 12 14  1  0
 14 15  1  0
 14 16  1  0
 16 17  1  0
 16 18  1  0
  8  9  2  0
  9 10  1  0
 10 11  2  0
 11 12  1  0
 12 13  2  0
 13  8  1  0
  1  2  2  0
  2  5  1  0
  5  6  2  0
  6  4  1  0
  4  3  2  0
  3  1  1  0
M  END

$$$$
