No_1260-gen_results/8p0m/2024-11-27-11-27-31/
     RDKit          3D

 18 20  0  0  0  0  0  0  0  0999 V2000
  -28.1229   -1.3353   28.4874 O   0  0  0  0  0  0  0  0  0  0  0  0
  -27.4806   -0.4044   28.7094 C   0  0  0  0  0  0  0  0  0  0  0  0
  -26.3804   -0.0867   27.9394 C   0  0  0  0  0  0  0  0  0  0  0  0
  -27.4232    0.1749   30.0549 N   0  0  0  0  0  0  0  0  0  0  0  0
  -25.8482    1.0048   27.9942 C   0  0  0  0  0  0  0  0  0  0  0  0
  -24.7250    1.4898   27.1703 C   0  0  0  0  0  0  0  0  0  0  0  0
  -23.9390    2.6224   27.4991 C   0  0  0  0  0  0  0  0  0  0  0  0
  -24.4728    3.4450   28.4380 C   0  0  0  0  0  0  0  0  0  0  0  0
  -25.5311    3.1110   29.2300 C   0  0  0  0  0  0  0  0  0  0  0  0
  -26.1505    1.9177   29.0435 C   0  0  0  0  0  0  0  0  0  0  0  0
  -28.3365   -0.2360   31.0348 C   0  0  0  0  0  0  0  0  0  0  0  0
  -26.8527    1.4711   30.1778 C   0  0  0  0  0  0  0  0  0  0  0  0
  -27.0179    2.1112   31.2200 O   0  0  0  0  0  0  0  0  0  0  0  0
  -29.6507   -0.2357   30.8996 C   0  0  0  0  0  0  0  0  0  0  0  0
  -30.3651   -0.9757   31.6856 C   0  0  0  0  0  0  0  0  0  0  0  0
  -29.8066   -1.6943   32.8335 C   0  0  0  0  0  0  0  0  0  0  0  0
  -28.4227   -1.7148   32.9332 C   0  0  0  0  0  0  0  0  0  0  0  0
  -27.6177   -1.0786   32.0234 C   0  0  0  0  0  0  0  0  0  0  0  0
  1  2  2  0
  2  3  1  0
  2  4  1  0
  3  5  1  0
  4 11  1  0
  4 12  1  0
 10 12  1  0
 12 13  2  0
  5  6  2  0
  6  7  1  0
  7  8  2  0
  8  9  1  0
  9 10  2  0
 10  5  1  0
 11 14  2  0
 14 15  1  0
 15 16  2  0
 16 17  1  0
 17 18  2  0
 18 11  1  0
M  END

$$$$
