No_1849-gen_results/8p0m/2024-11-27-11-27-31/
     RDKit          3D

 31 33  0  0  0  0  0  0  0  0999 V2000
  -28.0162   -0.8135   28.8779 C   0  0  0  0  0  0  0  0  0  0  0  0
  -27.0636   -0.1189   28.6079 C   0  0  0  0  0  0  0  0  0  0  0  0
  -25.7923   -0.4302   29.0761 C   0  0  0  0  0  0  0  0  0  0  0  0
  -25.5756   -1.5654   29.9363 C   0  0  0  0  0  0  0  0  0  0  0  0
  -26.7354   -2.3004   30.2173 C   0  0  0  0  0  0  0  0  0  0  0  0
  -27.9184   -1.9537   29.7629 C   0  0  0  0  0  0  0  0  0  0  0  0
  -29.0001   -2.7012   30.1151 O   0  0  0  0  0  0  0  0  0  0  0  0
  -24.5290    0.3490   28.7998 C   0  0  0  0  0  0  0  0  0  0  0  0
  -24.4808    1.2113   27.7998 C   0  0  0  0  0  0  0  0  0  0  0  0
  -23.2478    1.8974   27.4951 C   0  0  0  0  0  0  0  0  0  0  0  0
  -22.0497    1.5890   28.1642 C   0  0  0  0  0  0  0  0  0  0  0  0
  -23.3072    0.0149   29.4618 C   0  0  0  0  0  0  0  0  0  0  0  0
  -22.0852    0.6899   29.1374 C   0  0  0  0  0  0  0  0  0  0  0  0
  -29.3635   -2.8123   31.4419 C   0  0  0  0  0  0  0  0  0  0  0  0
  -29.7833   -4.1212   31.7495 C   0  0  0  0  0  0  0  0  0  0  0  0
  -29.8398   -5.0534   30.8143 C   0  0  0  0  0  0  0  0  0  0  0  0
  -28.9938   -4.5473   32.8948 O   0  0  0  0  0  0  0  0  0  0  0  0
  -30.7171   -6.2429   31.1110 C   0  0  0  0  0  0  0  0  0  0  0  0
  -31.3988   -6.7929   29.9787 C   0  0  0  0  0  0  0  0  0  0  0  0
  -29.7687   -1.4953   32.0792 C   0  0  0  0  0  0  0  0  0  0  0  0
  -31.9564   -8.0822   30.0429 C   0  0  0  0  0  0  0  0  0  0  0  0
  -28.9170   -0.9660   32.7976 O   0  0  0  0  0  0  0  0  0  0  0  0
  -31.8599   -8.7817   31.2812 C   0  0  0  0  0  0  0  0  0  0  0  0
  -31.1512   -8.2421   32.3440 C   0  0  0  0  0  0  0  0  0  0  0  0
  -30.4979   -7.0454   32.2304 C   0  0  0  0  0  0  0  0  0  0  0  0
  -30.8848   -1.0418   31.7845 N   0  0  0  0  0  0  0  0  0  0  0  0
  -31.2469    0.2701   32.3875 C   0  0  0  0  0  0  0  0  0  0  0  0
  -31.8580   -1.6099   30.9157 C   0  0  0  0  0  0  0  0  0  0  0  0
  -32.0841   -1.0051   29.7129 C   0  0  0  0  0  0  0  0  0  0  0  0
  -31.2279   -0.2165   29.3990 F   0  0  0  0  0  0  0  0  0  0  0  0
  -32.2729   -1.9237   28.7103 F   0  0  0  0  0  0  0  0  0  0  0  0
  6  7  1  0
  3  8  1  0
  7 14  1  0
 14 15  1  0
 15 16  1  0
 15 17  1  0
 16 18  1  0
 14 20  1  0
 20 22  2  0
 20 26  1  0
 26 27  1  0
 26 28  1  0
 28 29  2  3
 29 30  1  0
 29 31  1  0
  1  2  2  0
  2  3  1  0
  3  4  2  0
  4  5  1  0
  5  6  2  0
  6  1  1  0
 18 19  2  0
 19 21  1  0
 21 23  2  0
 23 24  1  0
 24 25  2  0
 25 18  1  0
  8  9  2  0
  9 10  1  0
 10 11  2  0
 11 13  1  0
 13 12  2  0
 12  8  1  0
M  END

$$$$
