No_1455-gen_results/8p0m/2024-11-27-11-27-31/
     RDKit          3D

 35 38  0  0  0  0  0  0  0  0999 V2000
  -28.0162   -0.8135   28.8779 C   0  0  0  0  0  0  0  0  0  0  0  0
  -27.0636   -0.1189   28.6079 C   0  0  0  0  0  0  0  0  0  0  0  0
  -25.7647   -0.3897   29.0360 C   0  0  0  0  0  0  0  0  0  0  0  0
  -25.5296   -1.5302   29.9014 C   0  0  0  0  0  0  0  0  0  0  0  0
  -26.6577   -2.2915   30.2035 C   0  0  0  0  0  0  0  0  0  0  0  0
  -27.8548   -1.9555   29.7630 C   0  0  0  0  0  0  0  0  0  0  0  0
  -24.5441    0.4126   28.7379 C   0  0  0  0  0  0  0  0  0  0  0  0
  -24.4731    1.2065   27.7114 C   0  0  0  0  0  0  0  0  0  0  0  0
  -23.2632    1.9110   27.3927 C   0  0  0  0  0  0  0  0  0  0  0  0
  -22.0960    1.7116   28.0459 C   0  0  0  0  0  0  0  0  0  0  0  0
  -23.3012    0.1559   29.4817 C   0  0  0  0  0  0  0  0  0  0  0  0
  -22.1018    0.8312   29.1085 C   0  0  0  0  0  0  0  0  0  0  0  0
  -28.9034   -2.7179   30.0874 F   0  0  0  0  0  0  0  0  0  0  0  0
  -23.3159    2.7771   26.3517 F   0  0  0  0  0  0  0  0  0  0  0  0
  -27.2492    1.2763   27.5163 Cl  0  0  0  0  0  0  0  0  0  0  0  0
  -29.2874   -0.6037   28.4996 O   0  0  0  0  0  0  0  0  0  0  0  0
  -30.1931   -0.0701   29.2867 C   0  0  0  0  0  0  0  0  0  0  0  0
  -31.3629   -0.4274   28.9838 C   0  0  0  0  0  0  0  0  0  0  0  0
  -31.7142   -0.6659   27.9150 O   0  0  0  0  0  0  0  0  0  0  0  0
  -32.3150   -0.5580   29.9498 O   0  0  0  0  0  0  0  0  0  0  0  0
  -29.8212    0.7729   30.2099 O   0  0  0  0  0  0  0  0  0  0  0  0
  -33.3440   -1.1379   30.0583 C   0  0  0  0  0  0  0  0  0  0  0  0
  -33.9374   -1.1942   31.2443 C   0  0  0  0  0  0  0  0  0  0  0  0
  -33.6526   -0.5411   32.2245 C   0  0  0  0  0  0  0  0  0  0  0  0
  -32.6590    0.4988   32.1424 C   0  0  0  0  0  0  0  0  0  0  0  0
  -32.1484    1.3627   33.2115 C   0  0  0  0  0  0  0  0  0  0  0  0
  -31.0923    2.2013   32.9323 C   0  0  0  0  0  0  0  0  0  0  0  0
  -31.0378    3.3969   33.1922 C   0  0  0  0  0  0  0  0  0  0  0  0
  -29.9286    4.2834   32.7675 C   0  0  0  0  0  0  0  0  0  0  0  0
  -28.9131    3.6672   32.0188 C   0  0  0  0  0  0  0  0  0  0  0  0
  -28.8864    2.3138   31.8903 C   0  0  0  0  0  0  0  0  0  0  0  0
  -29.9797    1.5695   32.2664 C   0  0  0  0  0  0  0  0  0  0  0  0
  -30.3667    0.3618   31.8572 N   0  0  0  0  0  0  0  0  0  0  0  0
  -29.8723   -0.8674   32.3260 C   0  0  0  0  0  0  0  0  0  0  0  0
  -31.7598    0.2487   31.6997 C   0  0  0  0  0  0  0  0  0  0  0  0
  3  7  1  0
  6 13  1  0
  9 14  1  0
  2 15  1  0
  1 16  1  0
 16 17  1  0
 17 18  1  0
 18 19  2  0
 18 20  1  0
 17 21  2  0
 20 22  1  0
 22 23  1  0
 23 24  2  3
 24 25  1  0
 25 26  1  0
 26 27  1  0
 32 33  1  0
 33 34  1  0
 25 35  1  0
 33 35  1  0
  7  8  2  0
  8  9  1  0
  9 10  2  0
 10 12  1  0
 12 11  2  0
 11  7  1  0
  1  2  2  0
  2  3  1  0
  3  4  2  0
  4  5  1  0
  5  6  2  0
  6  1  1  0
 27 28  2  0
 28 29  1  0
 29 30  2  0
 30 31  1  0
 31 32  2  0
 32 27  1  0
M  END

$$$$
