No_1053-gen_results/8p0m/2024-11-27-11-27-31/
     RDKit          3D

  9  9  0  0  0  0  0  0  0  0999 V2000
  -28.0162   -0.8135   28.8779 C   0  0  0  0  0  0  0  0  0  0  0  0
  -28.4690   -0.7850   29.8287 C   0  0  0  0  0  0  0  0  0  0  0  0
  -26.5042   -0.7777   28.8766 C   0  0  0  0  0  0  0  0  0  0  0  0
  -25.8103   -0.8531   30.1028 C   0  0  0  0  0  0  0  0  0  0  0  0
  -27.9864   -0.8420   31.0657 C   0  0  0  0  0  0  0  0  0  0  0  0
  -26.6147   -0.8427   31.2304 C   0  0  0  0  0  0  0  0  0  0  0  0
  -30.0705   -0.8392   29.7973 C   0  0  0  0  0  0  0  0  0  0  0  0
  -30.7049   -0.0607   30.6957 O   0  0  0  0  0  0  0  0  0  0  0  0
  -30.6442   -1.5122   28.9539 O   0  0  0  0  0  0  0  0  0  0  0  0
  2  7  1  0
  7  8  2  0
  7  9  1  0
  1  2  2  0
  2  5  1  0
  5  6  2  0
  6  4  1  0
  4  3  2  0
  3  1  1  0
M  END

$$$$
