No_1684-gen_results/8p0m/2024-11-27-11-27-31/
     RDKit          3D

 13 13  0  0  0  0  0  0  0  0999 V2000
  -28.0162   -0.8135   28.8779 C   0  0  0  0  0  0  0  0  0  0  0  0
  -27.0636   -0.1189   28.6079 C   0  0  0  0  0  0  0  0  0  0  0  0
  -26.9716    0.7139   27.5060 C   0  0  0  0  0  0  0  0  0  0  0  0
  -25.8206    1.4910   27.1160 C   0  0  0  0  0  0  0  0  0  0  0  0
  -24.6562    1.4242   27.9180 C   0  0  0  0  0  0  0  0  0  0  0  0
  -24.6847    0.5901   29.0659 C   0  0  0  0  0  0  0  0  0  0  0  0
  -25.8099   -0.1266   29.3338 C   0  0  0  0  0  0  0  0  0  0  0  0
  -29.2186   -0.0422   29.3127 C   0  0  0  0  0  0  0  0  0  0  0  0
  -30.1750   -0.7693   29.7129 O   0  0  0  0  0  0  0  0  0  0  0  0
  -29.3128    1.1255   29.1980 O   0  0  0  0  0  0  0  0  0  0  0  0
  -23.6198    2.1438   27.6328 F   0  0  0  0  0  0  0  0  0  0  0  0
  -23.2257    0.4987   30.0026 Cl  0  0  0  0  0  0  0  0  0  0  0  0
  -25.8379    2.2613   26.0470 O   0  0  0  0  0  0  0  0  0  0  0  0
  1  2  2  3
  2  3  1  0
  3  4  1  0
  4  5  1  0
  5  6  1  0
  2  7  1  0
  6  7  1  0
  1  8  1  0
  8  9  1  0
  8 10  2  0
  5 11  1  0
  6 12  1  0
  4 13  2  0
M  END

$$$$
