No_1199-gen_results/8p0m/2024-11-27-11-27-31/
     RDKit          3D

 16 17  0  0  0  0  0  0  0  0999 V2000
  -28.0162   -0.8135   28.8779 C   0  0  0  0  0  0  0  0  0  0  0  0
  -28.4690   -0.7850   29.8287 C   0  0  0  0  0  0  0  0  0  0  0  0
  -27.1356    0.2359   28.5352 C   0  0  0  0  0  0  0  0  0  0  0  0
  -26.3351    0.2900   27.2835 C   0  0  0  0  0  0  0  0  0  0  0  0
  -28.3692    0.1957   30.9236 C   0  0  0  0  0  0  0  0  0  0  0  0
  -27.5158    1.2655   30.6540 C   0  0  0  0  0  0  0  0  0  0  0  0
  -26.8411    1.2942   29.4761 C   0  0  0  0  0  0  0  0  0  0  0  0
  -25.3574    0.4805   26.9830 N   0  0  0  0  0  0  0  0  0  0  0  0
  -27.2900    0.2549   26.0023 C   0  0  0  0  0  0  0  0  0  0  0  0
  -24.3038    0.5422   27.9779 C   0  0  0  0  0  0  0  0  0  0  0  0
  -23.1608    1.4240   27.8414 C   0  0  0  0  0  0  0  0  0  0  0  0
  -21.9418    1.1294   28.5335 C   0  0  0  0  0  0  0  0  0  0  0  0
  -24.1141   -0.2568   29.1703 C   0  0  0  0  0  0  0  0  0  0  0  0
  -23.0246   -0.3026   29.9635 C   0  0  0  0  0  0  0  0  0  0  0  0
  -21.9262    0.4811   29.6150 C   0  0  0  0  0  0  0  0  0  0  0  0
  -26.6114    0.2266   24.8706 C   0  0  0  0  0  0  0  0  0  0  0  0
  3  4  1  0
  4  8  2  3
  4  9  1  0
  8 10  1  0
  9 16  1  0
  1  2  2  0
  2  5  1  0
  5  6  2  0
  6  7  1  0
  7  3  2  0
  3  1  1  0
 10 11  2  0
 11 12  1  0
 12 15  2  0
 15 14  1  0
 14 13  2  0
 13 10  1  0
M  END

$$$$
