No_1697-gen_results/8p0m/2024-11-27-11-27-31/
     RDKit          3D

 22 24  0  0  0  0  0  0  0  0999 V2000
  -28.0162   -0.8135   28.8779 C   0  0  0  0  0  0  0  0  0  0  0  0
  -27.0636   -0.1190   28.6079 C   0  0  0  0  0  0  0  0  0  0  0  0
  -25.7923   -0.4302   29.0761 C   0  0  0  0  0  0  0  0  0  0  0  0
  -25.5756   -1.5654   29.9363 C   0  0  0  0  0  0  0  0  0  0  0  0
  -26.7354   -2.3004   30.2173 C   0  0  0  0  0  0  0  0  0  0  0  0
  -27.9184   -1.9537   29.7629 C   0  0  0  0  0  0  0  0  0  0  0  0
  -27.1057    1.1023   27.7593 C   0  0  0  0  0  0  0  0  0  0  0  0
  -26.7157    2.2350   27.9945 C   0  0  0  0  0  0  0  0  0  0  0  0
  -26.6929    3.3459   27.0337 C   0  0  0  0  0  0  0  0  0  0  0  0
  -27.1962    3.0779   25.7437 C   0  0  0  0  0  0  0  0  0  0  0  0
  -27.5814    0.8882   26.3714 C   0  0  0  0  0  0  0  0  0  0  0  0
  -27.6131    1.8443   25.4645 C   0  0  0  0  0  0  0  0  0  0  0  0
  -29.1480   -2.6148   30.1849 C   0  0  0  0  0  0  0  0  0  0  0  0
  -30.2304   -2.0373   30.2309 N   0  0  0  0  0  0  0  0  0  0  0  0
  -29.0568   -3.8482   30.5510 O   0  0  0  0  0  0  0  0  0  0  0  0
  -31.5079   -2.6689   30.6180 C   0  0  0  0  0  0  0  0  0  0  0  0
  -31.7233   -3.3606   31.3326 C   0  0  0  0  0  0  0  0  0  0  0  0
  -32.5517   -2.0509   29.7347 C   0  0  0  0  0  0  0  0  0  0  0  0
  -33.0220   -3.9790   31.6378 C   0  0  0  0  0  0  0  0  0  0  0  0
  -33.8481   -2.5750   29.9333 C   0  0  0  0  0  0  0  0  0  0  0  0
  -34.0526   -3.4904   30.9139 C   0  0  0  0  0  0  0  0  0  0  0  0
  -35.6476   -4.0706   31.1479 Cl  0  0  0  0  0  0  0  0  0  0  0  0
  2  7  1  0
  6 13  1  0
 13 14  1  0
 13 15  2  0
 14 16  1  0
 21 22  1  0
  7  8  2  0
  8  9  1  0
  9 10  2  0
 10 12  1  0
 12 11  2  0
 11  7  1  0
  1  2  2  0
  2  3  1  0
  3  4  2  0
  4  5  1  0
  5  6  2  0
  6  1  1  0
 16 17  2  0
 17 19  1  0
 19 21  2  0
 21 20  1  0
 20 18  2  0
 18 16  1  0
M  END

$$$$
