No_1846-gen_results/8p0m/2024-11-27-11-27-31/
     RDKit          3D

 18 19  0  0  0  0  0  0  0  0999 V2000
  -28.0162   -0.8135   28.8779 C   0  0  0  0  0  0  0  0  0  0  0  0
  -28.4690   -0.7850   29.8287 C   0  0  0  0  0  0  0  0  0  0  0  0
  -27.1356    0.2359   28.5352 C   0  0  0  0  0  0  0  0  0  0  0  0
  -26.8745    1.2825   29.3982 C   0  0  0  0  0  0  0  0  0  0  0  0
  -28.3613    0.1987   30.9244 C   0  0  0  0  0  0  0  0  0  0  0  0
  -27.5277    1.2234   30.6356 C   0  0  0  0  0  0  0  0  0  0  0  0
  -26.3987    0.2949   27.2279 C   0  0  0  0  0  0  0  0  0  0  0  0
  -26.8914    0.5126   26.1471 N   0  0  0  0  0  0  0  0  0  0  0  0
  -25.0725    0.0393   27.2700 O   0  0  0  0  0  0  0  0  0  0  0  0
  -26.2290    0.4272   24.8723 C   0  0  0  0  0  0  0  0  0  0  0  0
  -28.3295    0.8125   25.9420 C   0  0  0  0  0  0  0  0  0  0  0  0
  -28.6582    1.8747   25.7851 C   0  0  0  0  0  0  0  0  0  0  0  0
  -30.0016    2.2566   25.3613 C   0  0  0  0  0  0  0  0  0  0  0  0
  -30.4027    3.6111   25.2772 C   0  0  0  0  0  0  0  0  0  0  0  0
  -31.6904    3.9714   24.8870 C   0  0  0  0  0  0  0  0  0  0  0  0
  -32.5214    2.9995   24.4306 C   0  0  0  0  0  0  0  0  0  0  0  0
  -32.1501    1.6855   24.3980 C   0  0  0  0  0  0  0  0  0  0  0  0
  -30.9389    1.3876   24.8756 C   0  0  0  0  0  0  0  0  0  0  0  0
  3  7  1  0
  7  8  1  0
  7  9  2  0
  8 10  1  0
  8 11  1  0
 11 12  2  3
 12 13  1  0
 13 14  2  0
 14 15  1  0
 15 16  2  0
 16 17  1  0
 17 18  2  0
 18 13  1  0
  1  2  2  0
  2  5  1  0
  5  6  2  0
  6  4  1  0
  4  3  2  0
  3  1  1  0
M  END

$$$$
