No_1293-gen_results/8p0m/2024-11-27-11-27-31/
     RDKit          3D

 16 17  0  0  0  0  0  0  0  0999 V2000
  -28.0162   -0.8135   28.8779 C   0  0  0  0  0  0  0  0  0  0  0  0
  -27.0636   -0.1189   28.6079 C   0  0  0  0  0  0  0  0  0  0  0  0
  -26.9287    1.1713   29.0083 C   0  0  0  0  0  0  0  0  0  0  0  0
  -25.7702    2.0341   28.6884 C   0  0  0  0  0  0  0  0  0  0  0  0
  -24.7141    1.4431   27.9188 C   0  0  0  0  0  0  0  0  0  0  0  0
  -24.8590    0.0783   27.5836 C   0  0  0  0  0  0  0  0  0  0  0  0
  -25.9647   -0.6606   27.9164 C   0  0  0  0  0  0  0  0  0  0  0  0
  -28.6995   -0.6441   30.0766 N   0  0  0  0  0  0  0  0  0  0  0  0
  -29.4717   -1.1161   30.6970 C   0  0  0  0  0  0  0  0  0  0  0  0
  -30.0670   -2.3591   30.2418 C   0  0  0  0  0  0  0  0  0  0  0  0
  -31.2965   -2.3152   29.6817 C   0  0  0  0  0  0  0  0  0  0  0  0
  -31.8442   -1.1186   29.3940 C   0  0  0  0  0  0  0  0  0  0  0  0
  -32.9525   -1.0819   28.5968 C   0  0  0  0  0  0  0  0  0  0  0  0
  -33.5032   -2.3444   28.1644 C   0  0  0  0  0  0  0  0  0  0  0  0
  -32.9273   -3.5324   28.4250 C   0  0  0  0  0  0  0  0  0  0  0  0
  -31.7731   -3.5254   29.1414 C   0  0  0  0  0  0  0  0  0  0  0  0
  1  2  1  0
  1  8  1  0
  8  9  2  3
  9 10  1  0
 10 11  1  0
 11 12  2  0
 12 13  1  0
 13 14  2  0
 14 15  1  0
 15 16  2  0
 16 11  1  0
  2  3  2  0
  3  4  1  0
  4  5  2  0
  5  6  1  0
  6  7  2  0
  7  2  1  0
M  END

$$$$
