No_1889-gen_results/8p0m/2024-11-27-11-27-31/
     RDKit          3D

 24 27  0  0  0  0  0  0  0  0999 V2000
  -28.0162   -0.8135   28.8779 C   0  0  0  0  0  0  0  0  0  0  0  0
  -28.4690   -0.7850   29.8287 C   0  0  0  0  0  0  0  0  0  0  0  0
  -26.5455   -0.8762   28.8500 C   0  0  0  0  0  0  0  0  0  0  0  0
  -25.6825   -0.7773   27.6829 C   0  0  0  0  0  0  0  0  0  0  0  0
  -27.9181   -1.0034   31.1877 C   0  0  0  0  0  0  0  0  0  0  0  0
  -26.5308   -1.0794   31.2463 C   0  0  0  0  0  0  0  0  0  0  0  0
  -25.7798   -1.0462   30.0905 C   0  0  0  0  0  0  0  0  0  0  0  0
  -25.8976    0.2387   26.7449 C   0  0  0  0  0  0  0  0  0  0  0  0
  -25.6318    1.4984   27.0379 C   0  0  0  0  0  0  0  0  0  0  0  0
  -24.8915    1.8299   28.2575 C   0  0  0  0  0  0  0  0  0  0  0  0
  -23.7185    1.2879   28.5049 C   0  0  0  0  0  0  0  0  0  0  0  0
  -22.5572    1.7539   27.7961 C   0  0  0  0  0  0  0  0  0  0  0  0
  -21.2764    1.1395   28.0482 C   0  0  0  0  0  0  0  0  0  0  0  0
  -21.1811    0.0310   28.8178 C   0  0  0  0  0  0  0  0  0  0  0  0
  -22.3103   -0.5595   29.3561 C   0  0  0  0  0  0  0  0  0  0  0  0
  -23.5064    0.0951   29.2479 C   0  0  0  0  0  0  0  0  0  0  0  0
  -24.4933   -0.1270   30.2251 C   0  0  0  0  0  0  0  0  0  0  0  0
  -24.5795    0.6733   31.3428 O   0  0  0  0  0  0  0  0  0  0  0  0
  -26.0402    2.5776   26.1408 C   0  0  0  0  0  0  0  0  0  0  0  0
  -26.5597   -0.0873   25.5395 C   0  0  0  0  0  0  0  0  0  0  0  0
  -25.2168   -2.0388   27.1582 C   0  0  0  0  0  0  0  0  0  0  0  0
  -27.3044    0.8060   24.7371 C   0  0  0  0  0  0  0  0  0  0  0  0
  -26.8616    2.2149   24.9959 C   0  0  0  0  0  0  0  0  0  0  0  0
  -25.0597   -2.4878   30.0375 C   0  0  0  0  0  0  0  0  0  0  0  0
  1  3  1  0
  3  4  1  0
  2  5  1  0
  3  7  1  0
  6  7  1  0
  4  8  1  0
  9 10  1  0
 10 11  1  0
  7 17  1  0
 16 17  1  0
 17 18  2  0
  4 21  1  0
  7 24  1  0
  1  2  1  0
  5  6  1  0
  8  9  2  0
  9 19  1  0
 19 23  2  0
 23 22  1  0
 22 20  2  0
 20  8  1  0
 11 12  2  0
 12 13  1  0
 13 14  2  0
 14 15  1  0
 15 16  2  0
 16 11  1  0
M  END

$$$$
