No_152-gen_results/8p0m/2024-11-27-11-27-31/
     RDKit          3D

 31 35  0  0  0  0  0  0  0  0999 V2000
  -28.0162   -0.8135   28.8779 C   0  0  0  0  0  0  0  0  0  0  0  0
  -27.0636   -0.1190   28.6079 C   0  0  0  0  0  0  0  0  0  0  0  0
  -25.7923   -0.4302   29.0761 C   0  0  0  0  0  0  0  0  0  0  0  0
  -24.5456    0.3494   28.8225 C   0  0  0  0  0  0  0  0  0  0  0  0
  -23.2409    0.0217   29.3323 C   0  0  0  0  0  0  0  0  0  0  0  0
  -27.8820   -1.8995   29.8633 C   0  0  0  0  0  0  0  0  0  0  0  0
  -26.6706   -2.3272   30.3212 C   0  0  0  0  0  0  0  0  0  0  0  0
  -25.5433   -1.5852   29.9316 C   0  0  0  0  0  0  0  0  0  0  0  0
  -22.1918    0.8302   29.0004 C   0  0  0  0  0  0  0  0  0  0  0  0
  -22.1472    1.7783   28.0287 C   0  0  0  0  0  0  0  0  0  0  0  0
  -24.3170    1.1382   27.6172 C   0  0  0  0  0  0  0  0  0  0  0  0
  -23.2808    1.9246   27.3468 C   0  0  0  0  0  0  0  0  0  0  0  0
  -29.0647   -2.7203   30.3033 C   0  0  0  0  0  0  0  0  0  0  0  0
  -29.2824   -2.7413   31.5116 O   0  0  0  0  0  0  0  0  0  0  0  0
  -29.9295   -3.1033   29.5373 O   0  0  0  0  0  0  0  0  0  0  0  0
  -23.3680    2.7980   26.3118 O   0  0  0  0  0  0  0  0  0  0  0  0
  -24.5859    2.7229   25.6658 C   0  0  0  0  0  0  0  0  0  0  0  0
  -25.3840    1.6045   26.7895 N   0  0  0  0  0  0  0  0  0  0  0  0
  -26.5921    1.2042   26.3925 C   0  0  0  0  0  0  0  0  0  0  0  0
  -27.2382    0.4466   27.5518 C   0  0  0  0  0  0  0  0  0  0  0  0
  -26.7935    0.8703   25.2483 O   0  0  0  0  0  0  0  0  0  0  0  0
  -28.6270    0.6244   27.0706 O   0  0  0  0  0  0  0  0  0  0  0  0
  -29.2879    1.7282   27.4886 C   0  0  0  0  0  0  0  0  0  0  0  0
  -30.5752    1.4762   27.6402 C   0  0  0  0  0  0  0  0  0  0  0  0
  -31.1113    1.9134   28.5808 O   0  0  0  0  0  0  0  0  0  0  0  0
  -31.2176    0.5765   26.8461 N   0  0  0  0  0  0  0  0  0  0  0  0
  -32.5436    0.0808   27.0428 C   0  0  0  0  0  0  0  0  0  0  0  0
  -32.8184   -0.9568   26.4065 C   0  0  0  0  0  0  0  0  0  0  0  0
  -32.0574   -1.4589   25.4292 C   0  0  0  0  0  0  0  0  0  0  0  0
  -30.7633   -0.9385   25.1492 C   0  0  0  0  0  0  0  0  0  0  0  0
  -30.2241   -0.0596   26.0796 C   0  0  0  0  0  0  0  0  0  0  0  0
  3  4  1  0
  6 13  1  0
 13 14  2  0
 13 15  1  0
 12 16  1  0
 16 17  1  0
 11 18  1  0
 17 18  1  0
 18 19  1  0
  2 20  1  0
 19 20  1  0
 19 21  2  0
 20 22  1  0
 22 23  1  0
 23 24  1  0
 24 25  2  0
 24 26  1  0
 26 27  1  0
 28 29  1  0
 26 31  1  0
 30 31  1  0
 27 28  1  0
 29 30  1  0
  1  2  2  0
  2  3  1  0
  3  8  2  0
  8  7  1  0
  7  6  2  0
  6  1  1  0
  4  5  2  0
  5  9  1  0
  9 10  2  0
 10 12  1  0
 12 11  2  0
 11  4  1  0
M  END

$$$$
