No_1363-gen_results/8p0m/2024-11-27-11-27-31/
     RDKit          3D

  8  7  0  0  0  0  0  0  0  0999 V2000
  -28.0162   -0.8135   28.8779 C   0  0  0  0  0  0  0  0  0  0  0  0
  -28.4690   -0.7850   29.8287 C   0  0  0  0  0  0  0  0  0  0  0  0
  -28.1915    0.1474   27.8714 C   0  0  0  0  0  0  0  0  0  0  0  0
  -27.3336    0.3041   26.7482 C   0  0  0  0  0  0  0  0  0  0  0  0
  -27.6635    0.9845   25.6288 C   0  0  0  0  0  0  0  0  0  0  0  0
  -28.2385   -1.7782   30.9914 C   0  0  0  0  0  0  0  0  0  0  0  0
  -27.3800   -2.8219   30.6443 C   0  0  0  0  0  0  0  0  0  0  0  0
  -26.6192   -2.7274   29.4903 C   0  0  0  0  0  0  0  0  0  0  0  0
  1  2  3  0
  1  3  1  0
  3  4  1  0
  4  5  2  0
  2  6  1  0
  6  7  2  3
  7  8  1  0
M  END

$$$$
