No_1152-gen_results/8p0m/2024-11-27-11-27-31/
     RDKit          3D

 13 14  0  0  0  0  0  0  0  0999 V2000
  -28.0162   -0.8135   28.8779 C   0  0  0  0  0  0  0  0  0  0  0  0
  -28.4690   -0.7850   29.8287 C   0  0  0  0  0  0  0  0  0  0  0  0
  -28.1960    0.3478   28.0550 C   0  0  0  0  0  0  0  0  0  0  0  0
  -29.0191    1.3501   28.3782 C   0  0  0  0  0  0  0  0  0  0  0  0
  -29.4107    0.1803   30.3782 C   0  0  0  0  0  0  0  0  0  0  0  0
  -29.6059    1.2495   29.6193 C   0  0  0  0  0  0  0  0  0  0  0  0
  -27.4597    0.3802   26.7091 C   0  0  0  0  0  0  0  0  0  0  0  0
  -26.4659    1.4084   26.5648 C   0  0  0  0  0  0  0  0  0  0  0  0
  -25.5919    1.3278   25.4523 C   0  0  0  0  0  0  0  0  0  0  0  0
  -24.4480    2.1660   25.4944 C   0  0  0  0  0  0  0  0  0  0  0  0
  -24.3042    3.1041   26.5676 C   0  0  0  0  0  0  0  0  0  0  0  0
  -25.1846    3.1897   27.5803 C   0  0  0  0  0  0  0  0  0  0  0  0
  -26.2544    2.2966   27.6427 C   0  0  0  0  0  0  0  0  0  0  0  0
  3  7  1  0
  7  8  1  0
  8  9  2  0
  9 10  1  0
 10 11  2  0
 11 12  1  0
 12 13  2  0
 13  8  1  0
  1  2  2  0
  2  5  1  0
  5  6  2  0
  6  4  1  0
  4  3  2  0
  3  1  1  0
M  END

$$$$
