No_1828-gen_results/8p0m/2024-11-27-11-27-31/
     RDKit          3D

 21 22  0  0  0  0  0  0  0  0999 V2000
  -28.0162   -0.8135   28.8779 C   0  0  0  0  0  0  0  0  0  0  0  0
  -27.0636   -0.1189   28.6079 C   0  0  0  0  0  0  0  0  0  0  0  0
  -26.9716    0.7139   27.5060 C   0  0  0  0  0  0  0  0  0  0  0  0
  -28.1053    0.7744   26.6421 C   0  0  0  0  0  0  0  0  0  0  0  0
  -29.2008    0.1044   27.0527 C   0  0  0  0  0  0  0  0  0  0  0  0
  -29.2096   -0.6029   28.1853 C   0  0  0  0  0  0  0  0  0  0  0  0
  -30.3702    0.2264   26.1604 C   0  0  0  0  0  0  0  0  0  0  0  0
  -30.8993    1.2632   26.1932 F   0  0  0  0  0  0  0  0  0  0  0  0
  -29.9765   -0.1507   24.9278 F   0  0  0  0  0  0  0  0  0  0  0  0
  -31.2911   -0.7591   26.4456 F   0  0  0  0  0  0  0  0  0  0  0  0
  -25.6829    1.4114   27.1188 C   0  0  0  0  0  0  0  0  0  0  0  0
  -25.1933    2.3339   28.1099 C   0  0  0  0  0  0  0  0  0  0  0  0
  -24.0870    2.5800   28.4859 C   0  0  0  0  0  0  0  0  0  0  0  0
  -26.2428    3.3968   28.5106 C   0  0  0  0  0  0  0  0  0  0  0  0
  -27.4193    3.5550   28.0020 C   0  0  0  0  0  0  0  0  0  0  0  0
  -23.1185    2.9480   27.7889 F   0  0  0  0  0  0  0  0  0  0  0  0
  -23.9584    3.3838   29.6023 F   0  0  0  0  0  0  0  0  0  0  0  0
  -28.2408    4.6021   28.5497 C   0  0  0  0  0  0  0  0  0  0  0  0
  -27.7935    5.3260   29.5640 C   0  0  0  0  0  0  0  0  0  0  0  0
  -26.5423    5.2270   30.1075 C   0  0  0  0  0  0  0  0  0  0  0  0
  -25.7751    4.2608   29.6080 C   0  0  0  0  0  0  0  0  0  0  0  0
  5  7  1  0
  7  8  1  0
  7  9  1  0
  7 10  1  0
  3 11  1  0
 11 12  1  0
 12 13  2  3
 12 14  1  0
 13 16  1  0
 13 17  1  0
  1  2  2  0
  2  3  1  0
  3  4  2  0
  4  5  1  0
  5  6  2  0
  6  1  1  0
 14 15  2  0
 15 18  1  0
 18 19  2  0
 19 20  1  0
 20 21  2  0
 21 14  1  0
M  END

$$$$
