No_182-gen_results/8p0m/2024-11-27-11-27-31/
     RDKit          3D

 27 29  0  0  0  0  0  0  0  0999 V2000
  -28.0162   -0.8135   28.8779 C   0  0  0  0  0  0  0  0  0  0  0  0
  -28.4690   -0.7850   29.8287 C   0  0  0  0  0  0  0  0  0  0  0  0
  -27.0871    0.2903   28.6377 C   0  0  0  0  0  0  0  0  0  0  0  0
  -26.8317    1.2487   29.5869 C   0  0  0  0  0  0  0  0  0  0  0  0
  -28.3914    0.0801   31.0065 C   0  0  0  0  0  0  0  0  0  0  0  0
  -27.4940    1.1521   30.7841 C   0  0  0  0  0  0  0  0  0  0  0  0
  -26.3172    0.3994   27.3653 C   0  0  0  0  0  0  0  0  0  0  0  0
  -25.2713   -0.0464   27.3589 O   0  0  0  0  0  0  0  0  0  0  0  0
  -27.0395    0.5982   26.2658 O   0  0  0  0  0  0  0  0  0  0  0  0
  -29.4567   -2.0052   30.2811 C   0  0  0  0  0  0  0  0  0  0  0  0
  -30.1882   -1.9423   31.1693 O   0  0  0  0  0  0  0  0  0  0  0  0
  -28.9523   -3.2003   30.0306 O   0  0  0  0  0  0  0  0  0  0  0  0
  -24.2333    0.8418   26.9864 C   0  0  0  0  0  0  0  0  0  0  0  0
  -23.1403    0.9862   27.9485 C   0  0  0  0  0  0  0  0  0  0  0  0
  -23.0562    0.2687   29.1366 C   0  0  0  0  0  0  0  0  0  0  0  0
  -24.0419   -0.0629   29.8009 C   0  0  0  0  0  0  0  0  0  0  0  0
  -23.7513   -0.8036   31.0919 C   0  0  0  0  0  0  0  0  0  0  0  0
  -24.8917   -1.1626   31.9289 C   0  0  0  0  0  0  0  0  0  0  0  0
  -24.2699    1.5736   25.8086 C   0  0  0  0  0  0  0  0  0  0  0  0
  -23.1408    2.3309   25.5557 N   0  0  0  0  0  0  0  0  0  0  0  0
  -22.0875    1.8648   27.3934 C   0  0  0  0  0  0  0  0  0  0  0  0
  -22.1157    2.4884   26.2256 C   0  0  0  0  0  0  0  0  0  0  0  0
  -21.7594   -0.1115   29.6081 C   0  0  0  0  0  0  0  0  0  0  0  0
  -22.4601   -1.1011   31.3768 C   0  0  0  0  0  0  0  0  0  0  0  0
  -21.5153   -0.7628   30.6795 N   0  0  0  0  0  0  0  0  0  0  0  0
  -25.0029   -0.6190   33.0761 O   0  0  0  0  0  0  0  0  0  0  0  0
  -25.8505   -1.8836   31.4584 O   0  0  0  0  0  0  0  0  0  0  0  0
  3  7  1  0
  7  8  1  0
  7  9  2  0
  2 10  1  0
 10 11  2  0
 10 12  1  0
  8 13  1  0
 14 15  1  0
 17 18  1  0
 18 26  2  0
 18 27  1  0
 15 16  2  0
 16 17  1  0
 17 24  2  0
 24 25  1  0
 25 23  2  0
 23 15  1  0
  1  2  2  0
  2  5  1  0
  5  6  2  0
  6  4  1  0
  4  3  2  0
  3  1  1  0
 13 14  2  0
 14 21  1  0
 21 22  2  0
 22 20  1  0
 20 19  2  0
 19 13  1  0
M  END

$$$$
