No_1940-gen_results/8p0m/2024-11-27-11-27-31/
     RDKit          3D

 16 16  0  0  0  0  0  0  0  0999 V2000
  -28.0162   -0.8135   28.8779 C   0  0  0  0  0  0  0  0  0  0  0  0
  -27.0636   -0.1189   28.6079 C   0  0  0  0  0  0  0  0  0  0  0  0
  -25.7647   -0.3897   29.0360 C   0  0  0  0  0  0  0  0  0  0  0  0
  -24.5516    0.4058   28.7646 C   0  0  0  0  0  0  0  0  0  0  0  0
  -24.6957    1.4480   27.7988 C   0  0  0  0  0  0  0  0  0  0  0  0
  -25.9755    1.7250   27.3077 C   0  0  0  0  0  0  0  0  0  0  0  0
  -27.0718    1.0134   27.6535 C   0  0  0  0  0  0  0  0  0  0  0  0
  -28.6247   -0.5797   30.0969 N   0  0  0  0  0  0  0  0  0  0  0  0
  -23.4943    2.1676   27.4757 C   0  0  0  0  0  0  0  0  0  0  0  0
  -22.6134    1.3573   26.4678 C   0  0  0  0  0  0  0  0  0  0  0  0
  -29.6353   -1.3258   30.6478 C   0  0  0  0  0  0  0  0  0  0  0  0
  -30.2102   -2.2482   29.9650 C   0  0  0  0  0  0  0  0  0  0  0  0
  -30.0384   -1.0633   31.8785 O   0  0  0  0  0  0  0  0  0  0  0  0
  -31.3820   -3.2077   29.8993 P   0  0  0  0  0  0  0  0  0  0  0  0
  -31.3272   -4.1890   29.3717 O   0  0  0  0  0  0  0  0  0  0  0  0
  -31.7444   -3.3780   31.4494 O   0  0  0  0  0  0  0  0  0  0  0  0
  1  8  1  0
  5  9  1  0
  9 10  1  0
  8 11  1  0
 11 12  1  0
 11 13  2  0
 12 14  3  0
 14 15  1  0
 14 16  1  0
  1  2  1  0
  2  3  2  0
  3  4  1  0
  4  5  2  0
  5  6  1  0
  6  7  2  0
  7  2  1  0
M  END

$$$$
