No_1564-gen_results/8p0m/2024-11-27-11-27-31/
     RDKit          3D

 18 18  0  0  0  0  0  0  0  0999 V2000
  -28.0162   -0.8135   28.8779 C   0  0  0  0  0  0  0  0  0  0  0  0
  -27.0636   -0.1189   28.6079 C   0  0  0  0  0  0  0  0  0  0  0  0
  -25.7923   -0.4302   29.0761 C   0  0  0  0  0  0  0  0  0  0  0  0
  -25.5756   -1.5654   29.9363 C   0  0  0  0  0  0  0  0  0  0  0  0
  -26.7354   -2.3004   30.2173 C   0  0  0  0  0  0  0  0  0  0  0  0
  -27.9184   -1.9537   29.7629 C   0  0  0  0  0  0  0  0  0  0  0  0
  -27.1057    1.1023   27.7593 C   0  0  0  0  0  0  0  0  0  0  0  0
  -26.3437    1.1720   26.9645 F   0  0  0  0  0  0  0  0  0  0  0  0
  -28.3885    1.0720   27.1630 F   0  0  0  0  0  0  0  0  0  0  0  0
  -27.1802    2.2639   28.5192 F   0  0  0  0  0  0  0  0  0  0  0  0
  -29.0641   -2.7697   30.2050 C   0  0  0  0  0  0  0  0  0  0  0  0
  -29.4419   -2.6834   31.2335 O   0  0  0  0  0  0  0  0  0  0  0  0
  -29.3722   -3.8034   29.4473 O   0  0  0  0  0  0  0  0  0  0  0  0
  -24.2374   -1.8557   30.4011 C   0  0  0  0  0  0  0  0  0  0  0  0
  -23.7511   -0.9274   31.4213 C   0  0  0  0  0  0  0  0  0  0  0  0
  -24.5282   -0.1559   32.0293 C   0  0  0  0  0  0  0  0  0  0  0  0
  -25.0311   -0.5839   33.2639 C   0  0  0  0  0  0  0  0  0  0  0  0
  -25.9076    0.3014   34.0659 C   0  0  0  0  0  0  0  0  0  0  0  0
  2  7  1  0
  7  8  1  0
  7  9  1  0
  7 10  1  0
  6 11  1  0
 11 12  2  0
 11 13  1  0
  4 14  1  0
 14 15  1  0
 15 16  2  3
 16 17  1  0
 17 18  2  0
  1  2  2  0
  2  3  1  0
  3  4  2  0
  4  5  1  0
  5  6  2  0
  6  1  1  0
M  END

$$$$
