No_1752-gen_results/8p0m/2024-11-27-11-27-31/
     RDKit          3D

 25 27  0  0  0  0  0  0  0  0999 V2000
  -28.0162   -0.8135   28.8779 C   0  0  0  0  0  0  0  0  0  0  0  0
  -27.0636   -0.1190   28.6079 C   0  0  0  0  0  0  0  0  0  0  0  0
  -26.9287    1.1713   29.0083 C   0  0  0  0  0  0  0  0  0  0  0  0
  -27.9560    1.7411   29.7840 C   0  0  0  0  0  0  0  0  0  0  0  0
  -29.0569   -0.3271   29.7466 C   0  0  0  0  0  0  0  0  0  0  0  0
  -28.9828    0.9722   30.1516 C   0  0  0  0  0  0  0  0  0  0  0  0
  -25.7352   -0.7297   27.6631 Cl  0  0  0  0  0  0  0  0  0  0  0  0
  -30.0810    1.5109   31.0108 C   0  0  0  0  0  0  0  0  0  0  0  0
  -29.7604    2.4457   31.8403 C   0  0  0  0  0  0  0  0  0  0  0  0
  -30.7132    3.0329   32.7662 C   0  0  0  0  0  0  0  0  0  0  0  0
  -30.3345    4.0275   33.6818 C   0  0  0  0  0  0  0  0  0  0  0  0
  -29.0029    4.4970   33.6761 C   0  0  0  0  0  0  0  0  0  0  0  0
  -28.0405    3.9493   32.8067 C   0  0  0  0  0  0  0  0  0  0  0  0
  -28.3992    2.9539   31.9491 C   0  0  0  0  0  0  0  0  0  0  0  0
  -27.4079    2.5688   30.9239 C   0  0  0  0  0  0  0  0  0  0  0  0
  -26.5799    3.8204   30.4020 C   0  0  0  0  0  0  0  0  0  0  0  0
  -28.6186    2.8572   28.7608 C   0  0  0  0  0  0  0  0  0  0  0  0
  -26.4028    1.6022   31.7863 C   0  0  0  0  0  0  0  0  0  0  0  0
  -27.0264    3.4879   30.6417 C   0  0  0  0  0  0  0  0  0  0  0  0
  -28.2235    4.5062   30.8138 N   0  0  0  0  0  0  0  0  0  0  0  0
  -25.9409    3.4823   30.4542 O   0  0  0  0  0  0  0  0  0  0  0  0
  -27.9127    4.0088   30.5221 N   0  0  0  0  0  0  0  0  0  0  0  0
  -28.7205    3.5304   29.3717 C   0  0  0  0  0  0  0  0  0  0  0  0
  -26.8621    3.7054   31.6308 F   0  0  0  0  0  0  0  0  0  0  0  0
  -27.6676    5.1160   29.4678 C   0  0  0  0  0  0  0  0  0  0  0  0
  2  7  1  0
  6  8  1  0
 14 15  1  0
 15 16  1  0
  4 17  1  0
 15 18  1  0
 16 19  1  0
 19 20  1  0
 16 21  1  0
 20 22  1  0
 17 23  2  3
 22 23  1  0
 19 24  1  0
 20 25  1  0
  8  9  1  0
  1  2  2  0
  2  3  1  0
  3  4  2  0
  4  6  1  0
  6  5  2  0
  5  1  1  0
  9 10  2  0
 10 11  1  0
 11 12  2  0
 12 13  1  0
 13 14  2  0
 14  9  1  0
M  END

$$$$
