No_1472-gen_results/8p0m/2024-11-27-11-27-31/
     RDKit          3D

 35 38  0  0  0  0  0  0  0  0999 V2000
  -28.0162   -0.8135   28.8779 C   0  0  0  0  0  0  0  0  0  0  0  0
  -27.0636   -0.1189   28.6079 C   0  0  0  0  0  0  0  0  0  0  0  0
  -25.7923   -0.4302   29.0761 C   0  0  0  0  0  0  0  0  0  0  0  0
  -25.5756   -1.5654   29.9363 C   0  0  0  0  0  0  0  0  0  0  0  0
  -26.7354   -2.3004   30.2173 C   0  0  0  0  0  0  0  0  0  0  0  0
  -27.9184   -1.9537   29.7629 C   0  0  0  0  0  0  0  0  0  0  0  0
  -27.3552    1.2839   27.7056 Cl  0  0  0  0  0  0  0  0  0  0  0  0
  -29.0553   -2.8109   30.1824 C   0  0  0  0  0  0  0  0  0  0  0  0
  -29.4017   -2.7135   31.3200 N   0  0  0  0  0  0  0  0  0  0  0  0
  -30.4950   -2.3911   31.7839 C   0  0  0  0  0  0  0  0  0  0  0  0
  -31.4685   -2.0607   30.9225 C   0  0  0  0  0  0  0  0  0  0  0  0
  -31.4848   -2.7157   29.7647 C   0  0  0  0  0  0  0  0  0  0  0  0
  -30.6476   -3.5214   29.4800 C   0  0  0  0  0  0  0  0  0  0  0  0
  -32.6665   -2.7653   28.8411 C   0  0  0  0  0  0  0  0  0  0  0  0
  -32.7269   -3.3288   27.8244 O   0  0  0  0  0  0  0  0  0  0  0  0
  -33.7323   -1.9478   29.0952 O   0  0  0  0  0  0  0  0  0  0  0  0
  -24.5524    0.3924   28.6993 C   0  0  0  0  0  0  0  0  0  0  0  0
  -24.0753    1.3215   29.6540 C   0  0  0  0  0  0  0  0  0  0  0  0
  -22.9405    2.1182   29.2735 C   0  0  0  0  0  0  0  0  0  0  0  0
  -22.4090    1.9794   27.9676 C   0  0  0  0  0  0  0  0  0  0  0  0
  -22.9449    1.1326   27.0685 C   0  0  0  0  0  0  0  0  0  0  0  0
  -24.0033    0.3478   27.4445 C   0  0  0  0  0  0  0  0  0  0  0  0
  -24.5233    1.3634   30.8924 O   0  0  0  0  0  0  0  0  0  0  0  0
  -24.6991    2.5775   31.5487 C   0  0  0  0  0  0  0  0  0  0  0  0
  -25.8750    2.5217   32.4798 C   0  0  0  0  0  0  0  0  0  0  0  0
  -26.9644    3.1158   31.8277 C   0  0  0  0  0  0  0  0  0  0  0  0
  -28.1535    2.4779   32.1810 C   0  0  0  0  0  0  0  0  0  0  0  0
  -29.3659    2.8184   31.5270 C   0  0  0  0  0  0  0  0  0  0  0  0
  -30.5297    2.0567   31.7859 C   0  0  0  0  0  0  0  0  0  0  0  0
  -30.4307    0.9870   32.6731 C   0  0  0  0  0  0  0  0  0  0  0  0
  -29.2898    0.6410   33.2872 C   0  0  0  0  0  0  0  0  0  0  0  0
  -28.1070    1.3576   32.9766 C   0  0  0  0  0  0  0  0  0  0  0  0
  -26.9080    4.1642   30.9464 C   0  0  0  0  0  0  0  0  0  0  0  0
  -27.4560    4.2435   29.7677 C   0  0  0  0  0  0  0  0  0  0  0  0
  -27.1705    5.3139   28.8779 C   0  0  0  0  0  0  0  0  0  0  0  0
  2  7  1  0
  6  8  1  0
 12 14  1  0
 14 15  2  0
 14 16  1  0
  3 17  1  0
 18 23  1  0
 23 24  1  0
 24 25  1  0
 25 26  1  0
 26 27  1  0
 26 33  1  0
 33 34  2  3
 34 35  1  0
 17 18  1  0
 18 19  2  0
 19 20  1  0
 20 21  2  0
 21 22  1  0
 22 17  2  0
  1  2  2  0
  2  3  1  0
  3  4  2  0
  4  5  1  0
  5  6  2  0
  6  1  1  0
 27 28  2  0
 28 29  1  0
 29 30  2  0
 30 31  1  0
 31 32  2  0
 32 27  1  0
  8  9  2  0
  9 10  1  0
 10 11  2  0
 11 12  1  0
 12 13  2  0
 13  8  1  0
M  END

$$$$
