No_1031-gen_results/8p0m/2024-11-27-11-27-31/
     RDKit          3D

 22 25  0  0  0  0  0  0  0  0999 V2000
  -28.0162   -0.8135   28.8779 C   0  0  0  0  0  0  0  0  0  0  0  0
  -28.4690   -0.7850   29.8287 C   0  0  0  0  0  0  0  0  0  0  0  0
  -27.1356    0.2359   28.5352 C   0  0  0  0  0  0  0  0  0  0  0  0
  -26.8745    1.2825   29.3982 C   0  0  0  0  0  0  0  0  0  0  0  0
  -27.5070    1.2380   30.6295 C   0  0  0  0  0  0  0  0  0  0  0  0
  -28.3293    0.1745   30.9350 C   0  0  0  0  0  0  0  0  0  0  0  0
  -26.4077    0.3070   27.2259 C   0  0  0  0  0  0  0  0  0  0  0  0
  -25.7128    1.4905   26.9212 C   0  0  0  0  0  0  0  0  0  0  0  0
  -25.4301    2.4538   27.8655 C   0  0  0  0  0  0  0  0  0  0  0  0
  -26.0916    2.4163   29.0923 C   0  0  0  0  0  0  0  0  0  0  0  0
  -25.8331    3.5594   30.0163 C   0  0  0  0  0  0  0  0  0  0  0  0
  -26.0810    4.8206   29.5684 N   0  0  0  0  0  0  0  0  0  0  0  0
  -26.0261    5.8568   30.3692 C   0  0  0  0  0  0  0  0  0  0  0  0
  -26.3366    5.0917   28.2148 C   0  0  0  0  0  0  0  0  0  0  0  0
  -25.7999    6.9685   30.1797 O   0  0  0  0  0  0  0  0  0  0  0  0
  -26.2400    5.4613   31.7671 N   0  0  0  0  0  0  0  0  0  0  0  0
  -26.1749    6.5429   32.8485 C   0  0  0  0  0  0  0  0  0  0  0  0
  -26.4760    5.9494   34.0603 C   0  0  0  0  0  0  0  0  0  0  0  0
  -26.6251    4.6726   34.1725 C   0  0  0  0  0  0  0  0  0  0  0  0
  -26.7109    3.9912   33.2081 C   0  0  0  0  0  0  0  0  0  0  0  0
  -26.4409    4.2477   32.0029 C   0  0  0  0  0  0  0  0  0  0  0  0
  -26.2501    3.3024   31.0512 C   0  0  0  0  0  0  0  0  0  0  0  0
 10 11  1  0
 11 12  1  0
 12 13  1  0
 12 14  1  0
 13 15  2  0
 13 16  1  0
 16 17  1  0
 18 19  1  0
 16 21  1  0
 20 21  1  0
 11 22  1  0
 21 22  1  0
 17 18  1  0
 19 20  1  0
  4 10  2  0
 10  9  1  0
  9  8  2  0
  8  7  1  0
  7  3  2  0
  1  2  2  0
  2  6  1  0
  6  5  2  0
  5  4  1  0
  4  3  1  0
  3  1  1  0
M  END

$$$$
