No_168-gen_results/8p0m/2024-11-27-11-27-31/
     RDKit          3D

 13 14  0  0  0  0  0  0  0  0999 V2000
  -28.0162   -0.8135   28.8779 C   0  0  0  0  0  0  0  0  0  0  0  0
  -28.4690   -0.7850   29.8287 C   0  0  0  0  0  0  0  0  0  0  0  0
  -26.5455   -0.8762   28.8500 C   0  0  0  0  0  0  0  0  0  0  0  0
  -25.6825   -0.7773   27.6829 C   0  0  0  0  0  0  0  0  0  0  0  0
  -27.9181   -1.0034   31.1877 C   0  0  0  0  0  0  0  0  0  0  0  0
  -26.5308   -1.0794   31.2463 C   0  0  0  0  0  0  0  0  0  0  0  0
  -25.7798   -1.0462   30.0905 C   0  0  0  0  0  0  0  0  0  0  0  0
  -25.8976    0.2387   26.7449 C   0  0  0  0  0  0  0  0  0  0  0  0
  -25.0024    0.4172   25.6959 C   0  0  0  0  0  0  0  0  0  0  0  0
  -27.0304    1.0599   26.8181 C   0  0  0  0  0  0  0  0  0  0  0  0
  -27.6981    1.2883   27.6564 C   0  0  0  0  0  0  0  0  0  0  0  0
  -28.5169    0.1309   28.1881 C   0  0  0  0  0  0  0  0  0  0  0  0
  -29.7730   -0.0032   27.8374 O   0  0  0  0  0  0  0  0  0  0  0  0
  3  4  1  0
  4  8  2  0
  8  9  1  0
  8 10  1  0
 10 11  2  0
  1 12  1  0
 11 12  1  0
 12 13  2  0
  1  2  2  0
  2  5  1  0
  5  6  2  0
  6  7  1  0
  7  3  2  0
  3  1  1  0
M  END

$$$$
