No_1266-gen_results/8p0m/2024-11-27-11-27-31/
     RDKit          3D

 13 13  0  0  0  0  0  0  0  0999 V2000
  -28.0162   -0.8135   28.8779 C   0  0  0  0  0  0  0  0  0  0  0  0
  -27.0636   -0.1189   28.6079 C   0  0  0  0  0  0  0  0  0  0  0  0
  -26.9716    0.7139   27.5060 C   0  0  0  0  0  0  0  0  0  0  0  0
  -28.1053    0.7744   26.6421 C   0  0  0  0  0  0  0  0  0  0  0  0
  -29.2008    0.1044   27.0527 C   0  0  0  0  0  0  0  0  0  0  0  0
  -29.2096   -0.6029   28.1853 C   0  0  0  0  0  0  0  0  0  0  0  0
  -30.3749    0.2232   26.1670 C   0  0  0  0  0  0  0  0  0  0  0  0
  -30.5085    0.1759   24.5817 Cl  0  0  0  0  0  0  0  0  0  0  0  0
  -31.6336    0.1374   26.8444 N   0  0  0  0  0  0  0  0  0  0  0  0
  -31.7410    0.2091   28.1003 C   0  0  0  0  0  0  0  0  0  0  0  0
  -33.0290    0.1855   28.7220 C   0  0  0  0  0  0  0  0  0  0  0  0
  -34.1210    0.2937   27.9386 C   0  0  0  0  0  0  0  0  0  0  0  0
  -33.9274    0.2925   26.5343 C   0  0  0  0  0  0  0  0  0  0  0  0
  5  7  1  0
  7  8  1  0
  7  9  2  3
  9 10  1  0
 10 11  2  3
 11 12  1  0
 12 13  2  0
  1  2  2  0
  2  3  1  0
  3  4  2  0
  4  5  1  0
  5  6  2  0
  6  1  1  0
M  END

$$$$
