No_1198-gen_results/8p0m/2024-11-27-11-27-31/
     RDKit          3D

 25 27  0  0  0  0  0  0  0  0999 V2000
  -28.0162   -0.8135   28.8779 C   0  0  0  0  0  0  0  0  0  0  0  0
  -28.4690   -0.7850   29.8287 C   0  0  0  0  0  0  0  0  0  0  0  0
  -27.0871    0.2903   28.6377 C   0  0  0  0  0  0  0  0  0  0  0  0
  -26.2516    0.4114   27.4223 C   0  0  0  0  0  0  0  0  0  0  0  0
  -28.3913    0.1041   30.9805 C   0  0  0  0  0  0  0  0  0  0  0  0
  -27.5332    1.1666   30.7866 C   0  0  0  0  0  0  0  0  0  0  0  0
  -26.8281    1.2557   29.6454 C   0  0  0  0  0  0  0  0  0  0  0  0
  -26.4954   -0.2383   26.5458 F   0  0  0  0  0  0  0  0  0  0  0  0
  -24.9919    0.2881   27.7429 F   0  0  0  0  0  0  0  0  0  0  0  0
  -26.2879    1.7595   26.9324 F   0  0  0  0  0  0  0  0  0  0  0  0
  -29.4618   -2.0263   30.2116 C   0  0  0  0  0  0  0  0  0  0  0  0
  -30.5123   -1.8802   29.8201 O   0  0  0  0  0  0  0  0  0  0  0  0
  -28.9106   -3.2086   30.5400 O   0  0  0  0  0  0  0  0  0  0  0  0
  -27.0069    1.7763   31.9382 C   0  0  0  0  0  0  0  0  0  0  0  0
  -26.7001    3.0550   31.8273 C   0  0  0  0  0  0  0  0  0  0  0  0
  -26.0041    3.7876   32.8569 C   0  0  0  0  0  0  0  0  0  0  0  0
  -25.3112    5.0006   32.5752 C   0  0  0  0  0  0  0  0  0  0  0  0
  -25.3903    5.5576   31.2775 C   0  0  0  0  0  0  0  0  0  0  0  0
  -25.9942    4.8189   30.2803 C   0  0  0  0  0  0  0  0  0  0  0  0
  -26.5492    3.6287   30.5154 C   0  0  0  0  0  0  0  0  0  0  0  0
  -26.8458    2.6964   29.4087 C   0  0  0  0  0  0  0  0  0  0  0  0
  -25.9186    5.4359   28.9412 C   0  0  0  0  0  0  0  0  0  0  0  0
  -26.9056    5.7350   28.3944 O   0  0  0  0  0  0  0  0  0  0  0  0
  -24.7658    5.8698   28.4935 O   0  0  0  0  0  0  0  0  0  0  0  0
  -27.5247    1.4902   33.1375 O   0  0  0  0  0  0  0  0  0  0  0  0
  3  4  1  0
  4  8  1  0
  4  9  1  0
  4 10  1  0
  2 11  1  0
 11 12  2  0
 11 13  1  0
  6 14  1  0
 14 15  1  0
  7 21  1  0
 20 21  1  0
 19 22  1  0
 22 23  2  0
 22 24  1  0
 14 25  2  0
 15 16  2  0
 16 17  1  0
 17 18  2  0
 18 19  1  0
 19 20  2  0
 20 15  1  0
  1  2  2  0
  2  5  1  0
  5  6  2  0
  6  7  1  0
  7  3  2  0
  3  1  1  0
M  END

$$$$
