No_1103-gen_results/8p0m/2024-11-27-11-27-31/
     RDKit          3D

 21 22  0  0  0  0  0  0  0  0999 V2000
  -28.0162   -0.8135   28.8779 C   0  0  0  0  0  0  0  0  0  0  0  0
  -27.0636   -0.1189   28.6079 C   0  0  0  0  0  0  0  0  0  0  0  0
  -26.9287    1.1713   29.0083 C   0  0  0  0  0  0  0  0  0  0  0  0
  -27.9560    1.7411   29.7840 C   0  0  0  0  0  0  0  0  0  0  0  0
  -29.0569   -0.3271   29.7466 C   0  0  0  0  0  0  0  0  0  0  0  0
  -28.9828    0.9722   30.1516 C   0  0  0  0  0  0  0  0  0  0  0  0
  -25.8815   -0.6260   27.7945 C   0  0  0  0  0  0  0  0  0  0  0  0
  -24.6972   -1.0572   28.6241 C   0  0  0  0  0  0  0  0  0  0  0  0
  -23.5810   -0.2730   28.8246 C   0  0  0  0  0  0  0  0  0  0  0  0
  -22.4967   -0.7887   29.5688 C   0  0  0  0  0  0  0  0  0  0  0  0
  -24.7363   -2.3397   29.2314 C   0  0  0  0  0  0  0  0  0  0  0  0
  -23.6092   -2.8367   29.8761 C   0  0  0  0  0  0  0  0  0  0  0  0
  -22.5153   -2.0095   30.0911 C   0  0  0  0  0  0  0  0  0  0  0  0
  -30.0417    1.4472   30.9433 O   0  0  0  0  0  0  0  0  0  0  0  0
  -31.1028    1.2023   30.9552 C   0  0  0  0  0  0  0  0  0  0  0  0
  -31.8046    0.4011   31.5196 C   0  0  0  0  0  0  0  0  0  0  0  0
  -31.8930    1.9906   29.8755 C   0  0  0  0  0  0  0  0  0  0  0  0
  -33.2086    1.7303   29.6001 C   0  0  0  0  0  0  0  0  0  0  0  0
  -33.1888    0.0602   31.3772 C   0  0  0  0  0  0  0  0  0  0  0  0
  -33.8675    0.8353   30.4202 C   0  0  0  0  0  0  0  0  0  0  0  0
  -33.6861    2.5099   28.4915 C   0  0  0  0  0  0  0  0  0  0  0  0
  2  7  1  0
  7  8  1  0
  6 14  1  0
 14 15  1  0
 15 16  2  3
 15 17  1  0
 17 18  2  3
 16 19  1  0
 19 20  2  0
 18 21  1  0
  8  9  2  0
  9 10  1  0
 10 13  2  0
 13 12  1  0
 12 11  2  0
 11  8  1  0
  1  2  2  0
  2  3  1  0
  3  4  2  0
  4  6  1  0
  6  5  2  0
  5  1  1  0
M  END

$$$$
