No_1108-gen_results/8p0m/2024-11-27-11-27-31/
     RDKit          3D

 35 38  0  0  0  0  0  0  0  0999 V2000
  -28.0162   -0.8135   28.8779 C   0  0  0  0  0  0  0  0  0  0  0  0
  -27.0636   -0.1189   28.6079 C   0  0  0  0  0  0  0  0  0  0  0  0
  -25.7647   -0.3897   29.0360 C   0  0  0  0  0  0  0  0  0  0  0  0
  -24.5516    0.4058   28.7646 C   0  0  0  0  0  0  0  0  0  0  0  0
  -24.6957    1.4480   27.7988 C   0  0  0  0  0  0  0  0  0  0  0  0
  -23.5821    2.2166   27.4626 C   0  0  0  0  0  0  0  0  0  0  0  0
  -22.3295    1.8427   27.9660 C   0  0  0  0  0  0  0  0  0  0  0  0
  -22.1809    0.8284   28.8814 C   0  0  0  0  0  0  0  0  0  0  0  0
  -23.3190    0.0774   29.2471 C   0  0  0  0  0  0  0  0  0  0  0  0
  -27.9056   -1.8765   29.8669 C   0  0  0  0  0  0  0  0  0  0  0  0
  -26.6648   -2.3322   30.2886 C   0  0  0  0  0  0  0  0  0  0  0  0
  -25.5477   -1.5609   29.9180 C   0  0  0  0  0  0  0  0  0  0  0  0
  -29.0812   -2.6967   30.2508 C   0  0  0  0  0  0  0  0  0  0  0  0
  -30.1677   -2.2045   30.2344 O   0  0  0  0  0  0  0  0  0  0  0  0
  -28.8770   -3.9463   30.7371 N   0  0  0  0  0  0  0  0  0  0  0  0
  -29.9659   -4.8495   31.0828 C   0  0  0  0  0  0  0  0  0  0  0  0
  -30.7648   -5.2469   30.0745 C   0  0  0  0  0  0  0  0  0  0  0  0
  -30.5680   -5.1171   28.8700 C   0  0  0  0  0  0  0  0  0  0  0  0
  -31.3027   -5.6821   27.7649 C   0  0  0  0  0  0  0  0  0  0  0  0
  -32.3212   -6.5528   28.0989 C   0  0  0  0  0  0  0  0  0  0  0  0
  -32.5351   -6.8370   29.4450 C   0  0  0  0  0  0  0  0  0  0  0  0
  -31.7569   -6.2772   30.4391 C   0  0  0  0  0  0  0  0  0  0  0  0
  -30.0176   -5.1115   32.3328 O   0  0  0  0  0  0  0  0  0  0  0  0
  -23.7348    3.4480   26.2809 Cl  0  0  0  0  0  0  0  0  0  0  0  0
  -33.1274   -7.1099   27.0204 C   0  0  0  0  0  0  0  0  0  0  0  0
  -32.9330   -7.7484   26.1021 C   0  0  0  0  0  0  0  0  0  0  0  0
  -33.7582   -8.1794   24.9979 C   0  0  0  0  0  0  0  0  0  0  0  0
  -35.0891   -7.7496   25.1125 C   0  0  0  0  0  0  0  0  0  0  0  0
  -35.4623   -6.9596   26.1531 C   0  0  0  0  0  0  0  0  0  0  0  0
  -34.5487   -6.5139   27.1525 C   0  0  0  0  0  0  0  0  0  0  0  0
  -31.5840   -8.2145   25.8234 O   0  0  0  0  0  0  0  0  0  0  0  0
  -30.8340   -8.7858   26.6969 C   0  0  0  0  0  0  0  0  0  0  0  0
  -30.4338  -10.1548   26.2575 C   0  0  0  0  0  0  0  0  0  0  0  0
  -30.0060  -11.0351   27.2909 C   0  0  0  0  0  0  0  0  0  0  0  0
  -30.0565  -10.6124   28.6840 C   0  0  0  0  0  0  0  0  0  0  0  0
  3  4  1  0
 10 13  1  0
 13 14  2  0
 13 15  1  0
 15 16  1  0
 16 17  1  0
 16 23  2  0
  6 24  1  0
 20 25  1  0
 26 31  1  0
 31 32  1  0
 32 33  2  3
 33 34  1  0
 34 35  2  0
 17 18  2  0
 18 19  1  0
 19 20  2  0
 20 21  1  0
 21 22  2  0
 22 17  1  0
 25 26  2  0
 26 27  1  0
 27 28  2  0
 28 29  1  0
 29 30  2  0
 30 25  1  0
  1  2  2  0
  2  3  1  0
  3 12  2  0
 12 11  1  0
 11 10  2  0
 10  1  1  0
  4  5  2  0
  5  6  1  0
  6  7  2  0
  7  8  1  0
  8  9  2  0
  9  4  1  0
M  END

$$$$
