No_1263-gen_results/8p0m/2024-11-27-11-27-31/
     RDKit          3D

 21 22  0  0  0  0  0  0  0  0999 V2000
  -28.0162   -0.8135   28.8779 C   0  0  0  0  0  0  0  0  0  0  0  0
  -27.0636   -0.1189   28.6079 C   0  0  0  0  0  0  0  0  0  0  0  0
  -25.7923   -0.4302   29.0761 C   0  0  0  0  0  0  0  0  0  0  0  0
  -25.5756   -1.5654   29.9363 C   0  0  0  0  0  0  0  0  0  0  0  0
  -26.7354   -2.3004   30.2173 C   0  0  0  0  0  0  0  0  0  0  0  0
  -27.9184   -1.9537   29.7629 C   0  0  0  0  0  0  0  0  0  0  0  0
  -27.1057    1.1023   27.7593 C   0  0  0  0  0  0  0  0  0  0  0  0
  -27.8576    1.5309   27.2156 C   0  0  0  0  0  0  0  0  0  0  0  0
  -27.8433    2.7213   26.2861 C   0  0  0  0  0  0  0  0  0  0  0  0
  -26.6217    3.3253   26.0566 C   0  0  0  0  0  0  0  0  0  0  0  0
  -25.4854    2.7960   26.6725 C   0  0  0  0  0  0  0  0  0  0  0  0
  -25.6222    1.7365   27.5193 C   0  0  0  0  0  0  0  0  0  0  0  0
  -28.9681   -2.6865   30.1136 F   0  0  0  0  0  0  0  0  0  0  0  0
  -24.1926    3.4366   26.4631 C   0  0  0  0  0  0  0  0  0  0  0  0
  -24.0461    4.5860   26.3171 O   0  0  0  0  0  0  0  0  0  0  0  0
  -23.0726    2.6002   26.4954 N   0  0  0  0  0  0  0  0  0  0  0  0
  -22.8511    1.5678   27.3948 C   0  0  0  0  0  0  0  0  0  0  0  0
  -21.4278    1.0926   27.5742 C   0  0  0  0  0  0  0  0  0  0  0  0
  -21.2357    0.1819   28.5440 C   0  0  0  0  0  0  0  0  0  0  0  0
  -22.3178   -0.5231   29.1234 C   0  0  0  0  0  0  0  0  0  0  0  0
  -23.6082    0.8423   28.0385 O   0  0  0  0  0  0  0  0  0  0  0  0
  2  7  1  0
  6 13  1  0
 11 14  1  0
 14 15  2  0
 14 16  1  0
 16 17  1  0
 17 18  1  0
 18 19  2  3
 19 20  1  0
 17 21  2  0
  1  2  2  0
  2  3  1  0
  3  4  2  0
  4  5  1  0
  5  6  2  0
  6  1  1  0
  7  8  2  0
  8  9  1  0
  9 10  2  0
 10 11  1  0
 11 12  2  0
 12  7  1  0
M  END

$$$$
