No_1361-gen_results/8p0m/2024-11-27-11-27-31/
     RDKit          3D

 35 37  0  0  0  0  0  0  0  0999 V2000
  -28.0162   -0.8135   28.8779 C   0  0  0  0  0  0  0  0  0  0  0  0
  -28.4690   -0.7850   29.8287 C   0  0  0  0  0  0  0  0  0  0  0  0
  -28.1816    0.4277   28.1134 C   0  0  0  0  0  0  0  0  0  0  0  0
  -27.4498    0.6435   26.8500 C   0  0  0  0  0  0  0  0  0  0  0  0
  -26.1815    0.0357   26.7145 C   0  0  0  0  0  0  0  0  0  0  0  0
  -25.7800   -0.9326   27.6938 C   0  0  0  0  0  0  0  0  0  0  0  0
  -26.5568   -1.2134   28.7413 C   0  0  0  0  0  0  0  0  0  0  0  0
  -28.3021   -1.9782   30.6613 N   0  0  0  0  0  0  0  0  0  0  0  0
  -29.1868    0.0184   30.4724 O   0  0  0  0  0  0  0  0  0  0  0  0
  -29.0869   -2.6283   31.0087 C   0  0  0  0  0  0  0  0  0  0  0  0
  -25.3143    0.3231   25.5876 C   0  0  0  0  0  0  0  0  0  0  0  0
  -29.0747   -4.1134   30.6119 C   0  0  0  0  0  0  0  0  0  0  0  0
  -30.2159   -4.9690   30.8000 C   0  0  0  0  0  0  0  0  0  0  0  0
  -31.3503   -4.3420   31.3684 C   0  0  0  0  0  0  0  0  0  0  0  0
  -31.4058   -3.0141   31.6998 C   0  0  0  0  0  0  0  0  0  0  0  0
  -30.3445   -2.1660   31.4881 C   0  0  0  0  0  0  0  0  0  0  0  0
  -24.4581    1.3989   25.7156 C   0  0  0  0  0  0  0  0  0  0  0  0
  -24.6959    2.4882   26.4778 C   0  0  0  0  0  0  0  0  0  0  0  0
  -24.2768    3.0051   27.3964 C   0  0  0  0  0  0  0  0  0  0  0  0
  -23.3494    2.1992   28.2321 C   0  0  0  0  0  0  0  0  0  0  0  0
  -23.4111    2.1062   29.6450 C   0  0  0  0  0  0  0  0  0  0  0  0
  -22.1638    1.6540   27.5931 C   0  0  0  0  0  0  0  0  0  0  0  0
  -24.1820    1.3788   29.9298 O   0  0  0  0  0  0  0  0  0  0  0  0
  -24.6135    1.2818   31.3075 C   0  0  0  0  0  0  0  0  0  0  0  0
  -25.3796    2.3039   31.7889 C   0  0  0  0  0  0  0  0  0  0  0  0
  -26.7461    2.0597   31.7397 C   0  0  0  0  0  0  0  0  0  0  0  0
  -27.3304    1.6820   33.0223 C   0  0  0  0  0  0  0  0  0  0  0  0
  -26.8938    0.7293   33.7098 C   0  0  0  0  0  0  0  0  0  0  0  0
  -27.3632    0.1412   34.4855 C   0  0  0  0  0  0  0  0  0  0  0  0
  -28.7733    0.3908   34.8586 C   0  0  0  0  0  0  0  0  0  0  0  0
  -29.4166    1.3506   34.1082 C   0  0  0  0  0  0  0  0  0  0  0  0
  -28.7541    1.9276   33.1025 C   0  0  0  0  0  0  0  0  0  0  0  0
  -21.3717    1.0782   28.4226 O   0  0  0  0  0  0  0  0  0  0  0  0
  -27.9818   -4.5993   30.1320 O   0  0  0  0  0  0  0  0  0  0  0  0
  -24.7329    4.0966   28.0683 O   0  0  0  0  0  0  0  0  0  0  0  0
  1  2  1  0
  2  8  1  0
  2  9  2  0
  5 11  1  0
 11 17  1  0
 17 18  2  3
 18 19  1  0
 19 20  1  0
 20 21  1  0
 20 22  1  0
 21 23  1  0
 23 24  1  0
 24 25  1  0
 25 26  1  0
 26 27  1  0
 22 33  1  0
 12 34  1  0
 19 35  2  0
  8 10  1  0
 10 12  2  0
 12 13  1  0
 13 14  2  0
 14 15  1  0
 15 16  2  0
 16 10  1  0
 27 28  2  0
 28 29  1  0
 29 30  2  0
 30 31  1  0
 31 32  2  0
 32 27  1  0
  1  3  2  0
  3  4  1  0
  4  5  2  0
  5  6  1  0
  6  7  2  0
  7  1  1  0
M  END

$$$$
