No_1518-gen_results/8p0m/2024-11-27-11-27-31/
     RDKit          3D

 15 16  0  0  0  0  0  0  0  0999 V2000
  -28.0162   -0.8135   28.8779 C   0  0  0  0  0  0  0  0  0  0  0  0
  -27.0636   -0.1189   28.6079 C   0  0  0  0  0  0  0  0  0  0  0  0
  -25.7923   -0.4302   29.0761 C   0  0  0  0  0  0  0  0  0  0  0  0
  -25.5756   -1.5654   29.9363 C   0  0  0  0  0  0  0  0  0  0  0  0
  -26.7354   -2.3004   30.2173 C   0  0  0  0  0  0  0  0  0  0  0  0
  -27.9184   -1.9537   29.7629 C   0  0  0  0  0  0  0  0  0  0  0  0
  -27.1057    1.1023   27.7593 C   0  0  0  0  0  0  0  0  0  0  0  0
  -26.6596    2.2312   27.9242 Cl  0  0  0  0  0  0  0  0  0  0  0  0
  -27.7885    0.7181   26.5678 F   0  0  0  0  0  0  0  0  0  0  0  0
  -28.8486   -2.8562   30.3310 N   0  0  0  0  0  0  0  0  0  0  0  0
  -30.0267   -2.3890   30.7660 C   0  0  0  0  0  0  0  0  0  0  0  0
  -30.9939   -3.4052   31.1780 C   0  0  0  0  0  0  0  0  0  0  0  0
  -28.7131   -4.2098   30.3116 C   0  0  0  0  0  0  0  0  0  0  0  0
  -29.5785   -5.1864   30.7466 C   0  0  0  0  0  0  0  0  0  0  0  0
  -30.7299   -4.7006   31.2374 C   0  0  0  0  0  0  0  0  0  0  0  0
  2  7  1  0
  7  8  1  0
  7  9  1  0
  6 10  1  0
 10 11  1  0
 10 13  1  0
 12 15  1  0
 14 15  1  0
 11 12  1  0
 14 13  1  0
  1  2  2  0
  2  3  1  0
  3  4  2  0
  4  5  1  0
  5  6  2  0
  6  1  1  0
M  END

$$$$
