No_1255-gen_results/8p0m/2024-11-27-11-27-31/
     RDKit          3D

 33 36  0  0  0  0  0  0  0  0999 V2000
  -28.1229   -1.3353   28.4874 O   0  0  0  0  0  0  0  0  0  0  0  0
  -28.5208   -0.4363   29.0779 C   0  0  0  0  0  0  0  0  0  0  0  0
  -28.5894    0.5916   28.9464 C   0  0  0  0  0  0  0  0  0  0  0  0
  -29.3752   -0.9434   30.2659 N   0  0  0  0  0  0  0  0  0  0  0  0
  -27.5822    1.2649   28.1478 C   0  0  0  0  0  0  0  0  0  0  0  0
  -26.2743    1.0474   28.5730 C   0  0  0  0  0  0  0  0  0  0  0  0
  -25.3998    1.7139   28.7990 C   0  0  0  0  0  0  0  0  0  0  0  0
  -24.1865    1.7209   28.8848 C   0  0  0  0  0  0  0  0  0  0  0  0
  -23.5185    0.3923   28.8078 C   0  0  0  0  0  0  0  0  0  0  0  0
  -24.4686   -0.6709   28.5678 C   0  0  0  0  0  0  0  0  0  0  0  0
  -25.7842   -0.3931   28.3513 C   0  0  0  0  0  0  0  0  0  0  0  0
  -29.5166   -2.3658   30.6018 C   0  0  0  0  0  0  0  0  0  0  0  0
  -21.9442   -0.0020   29.2061 Cl  0  0  0  0  0  0  0  0  0  0  0  0
  -30.0544   -0.0851   31.1663 C   0  0  0  0  0  0  0  0  0  0  0  0
  -30.4229   -3.1002   29.8305 C   0  0  0  0  0  0  0  0  0  0  0  0
  -30.1850   -4.3850   29.8704 O   0  0  0  0  0  0  0  0  0  0  0  0
  -31.3458   -2.6688   29.2327 O   0  0  0  0  0  0  0  0  0  0  0  0
  -30.9632    0.6355   30.6349 C   0  0  0  0  0  0  0  0  0  0  0  0
  -31.7345    1.3522   31.6840 C   0  0  0  0  0  0  0  0  0  0  0  0
  -32.8119    2.2059   31.3011 C   0  0  0  0  0  0  0  0  0  0  0  0
  -33.0747    2.3309   29.9293 C   0  0  0  0  0  0  0  0  0  0  0  0
  -32.3436    1.6728   28.9554 C   0  0  0  0  0  0  0  0  0  0  0  0
  -31.3612    0.8820   29.3496 C   0  0  0  0  0  0  0  0  0  0  0  0
  -32.6662    1.8796   27.5380 C   0  0  0  0  0  0  0  0  0  0  0  0
  -32.9684    1.1023   26.7865 O   0  0  0  0  0  0  0  0  0  0  0  0
  -32.7733    3.2483   27.1849 O   0  0  0  0  0  0  0  0  0  0  0  0
  -27.6927    2.8215   28.0312 C   0  0  0  0  0  0  0  0  0  0  0  0
  -27.8323    0.7987   26.6476 C   0  0  0  0  0  0  0  0  0  0  0  0
  -28.5514    3.3171   27.2616 C   0  0  0  0  0  0  0  0  0  0  0  0
  -28.7720    1.4589   25.8480 C   0  0  0  0  0  0  0  0  0  0  0  0
  -29.1518    2.5806   26.2208 C   0  0  0  0  0  0  0  0  0  0  0  0
  -26.9540    3.5602   29.0277 C   0  0  0  0  0  0  0  0  0  0  0  0
  -25.7617    3.2336   29.1129 C   0  0  0  0  0  0  0  0  0  0  0  0
  1  2  2  0
  2  3  1  0
  2  4  1  0
  3  5  1  0
  5  6  1  0
  4 12  1  0
  9 13  1  0
  4 14  1  0
 12 15  1  0
 15 16  2  0
 15 17  1  0
 14 18  1  0
 22 24  1  0
 24 25  2  0
 24 26  1  0
  5 27  1  0
  5 28  1  0
 29 31  1  0
 30 31  1  0
 27 32  1  0
  7 33  1  0
 33 32  1  0
 27 29  1  0
 30 28  1  0
 18 19  2  0
 19 20  1  0
 20 21  2  0
 21 22  1  0
 22 23  2  0
 23 18  1  0
  6 11  1  0
 11 10  2  0
 10  9  1  0
  9  8  2  0
  8  7  1  0
  7  6  2  0
M  END

$$$$
