No_1022-gen_results/8p0m/2024-11-27-11-27-31/
     RDKit          3D

  6  5  0  0  0  0  0  0  0  0999 V2000
  -28.1493   -0.8198   28.9079 Cl  0  0  0  0  0  0  0  0  0  0  0  0
  -26.9116   -0.0797   28.9452 C   0  0  0  0  0  0  0  0  0  0  0  0
  -25.9005    0.1599   27.7481 P   0  0  0  0  0  0  0  0  0  0  0  0
  -26.5181   -0.1861   26.5380 O   0  0  0  0  0  0  0  0  0  0  0  0
  -25.5398    1.6605   27.6090 O   0  0  0  0  0  0  0  0  0  0  0  0
  -24.5439   -0.5412   27.9168 O   0  0  0  0  0  0  0  0  0  0  0  0
  1  2  1  0
  2  3  1  0
  3  4  2  0
  3  5  1  0
  3  6  1  0
M  END

$$$$
