No_1262-gen_results/8p0m/2024-11-27-11-27-31/
     RDKit          3D

 30 32  0  0  0  0  0  0  0  0999 V2000
  -28.0162   -0.8135   28.8779 C   0  0  0  0  0  0  0  0  0  0  0  0
  -28.4690   -0.7850   29.8287 C   0  0  0  0  0  0  0  0  0  0  0  0
  -27.1356    0.2359   28.5352 C   0  0  0  0  0  0  0  0  0  0  0  0
  -26.8745    1.2825   29.3982 C   0  0  0  0  0  0  0  0  0  0  0  0
  -28.3613    0.1987   30.9244 C   0  0  0  0  0  0  0  0  0  0  0  0
  -27.5277    1.2234   30.6356 C   0  0  0  0  0  0  0  0  0  0  0  0
  -26.3987    0.2949   27.2279 C   0  0  0  0  0  0  0  0  0  0  0  0
  -26.9022    0.7280   26.2134 C   0  0  0  0  0  0  0  0  0  0  0  0
  -28.2290    1.2592   26.1972 C   0  0  0  0  0  0  0  0  0  0  0  0
  -28.8635    1.6436   27.2292 C   0  0  0  0  0  0  0  0  0  0  0  0
  -30.2170    2.3489   26.9678 C   0  0  0  0  0  0  0  0  0  0  0  0
  -30.6112    2.4468   25.6555 C   0  0  0  0  0  0  0  0  0  0  0  0
  -29.8740    2.0993   24.5702 C   0  0  0  0  0  0  0  0  0  0  0  0
  -28.6588    1.5977   24.7734 C   0  0  0  0  0  0  0  0  0  0  0  0
  -26.1757    0.5015   24.9242 C   0  0  0  0  0  0  0  0  0  0  0  0
  -25.0671   -0.3104   27.3820 C   0  0  0  0  0  0  0  0  0  0  0  0
  -24.1692    0.2699   28.3611 C   0  0  0  0  0  0  0  0  0  0  0  0
  -23.4983    1.4183   28.0952 C   0  0  0  0  0  0  0  0  0  0  0  0
  -22.4283    1.8266   28.9685 C   0  0  0  0  0  0  0  0  0  0  0  0
  -23.6208   -0.5925   29.3939 C   0  0  0  0  0  0  0  0  0  0  0  0
  -22.6523   -0.1687   30.2777 C   0  0  0  0  0  0  0  0  0  0  0  0
  -22.0745    1.0972   30.0819 C   0  0  0  0  0  0  0  0  0  0  0  0
  -27.2681    2.3217   31.6672 C   0  0  0  0  0  0  0  0  0  0  0  0
  -27.7110    3.3708   31.6420 O   0  0  0  0  0  0  0  0  0  0  0  0
  -26.2654    1.9369   32.6293 N   0  0  0  0  0  0  0  0  0  0  0  0
  -25.8414    2.9183   33.6372 C   0  0  0  0  0  0  0  0  0  0  0  0
  -25.6894    0.6523   32.6896 C   0  0  0  0  0  0  0  0  0  0  0  0
  -29.5213   -1.8800   30.3231 C   0  0  0  0  0  0  0  0  0  0  0  0
  -29.1359   -2.9231   30.7366 O   0  0  0  0  0  0  0  0  0  0  0  0
  -30.7193   -1.6286   30.2135 O   0  0  0  0  0  0  0  0  0  0  0  0
  3  7  1  0
  7  8  2  3
  8  9  1  0
  8 15  1  0
  7 16  1  0
 16 17  1  0
  6 23  1  0
 23 24  2  0
 23 25  1  0
 25 26  1  0
 25 27  1  0
  2 28  1  0
 28 29  1  0
 28 30  2  0
  9 10  2  0
 10 11  1  0
 11 12  2  0
 12 13  1  0
 13 14  2  0
 14  9  1  0
 17 18  2  0
 18 19  1  0
 19 22  2  0
 22 21  1  0
 21 20  2  0
 20 17  1  0
  1  2  2  0
  2  5  1  0
  5  6  2  0
  6  4  1  0
  4  3  2  0
  3  1  1  0
M  END

$$$$
