No_1818-gen_results/8p0m/2024-11-27-11-27-31/
     RDKit          3D

 24 26  0  0  0  0  0  0  0  0999 V2000
  -28.0162   -0.8135   28.8779 C   0  0  0  0  0  0  0  0  0  0  0  0
  -28.4690   -0.7850   29.8287 C   0  0  0  0  0  0  0  0  0  0  0  0
  -26.5455   -0.8762   28.8500 C   0  0  0  0  0  0  0  0  0  0  0  0
  -25.8041   -1.0324   30.0571 C   0  0  0  0  0  0  0  0  0  0  0  0
  -27.9437   -0.9869   31.2075 C   0  0  0  0  0  0  0  0  0  0  0  0
  -24.4008   -1.0969   30.0965 C   0  0  0  0  0  0  0  0  0  0  0  0
  -26.5612   -1.0746   31.2270 C   0  0  0  0  0  0  0  0  0  0  0  0
  -23.7638   -1.1467   30.8905 C   0  0  0  0  0  0  0  0  0  0  0  0
  -22.2671   -1.0151   30.9436 C   0  0  0  0  0  0  0  0  0  0  0  0
  -21.7442   -0.7947   29.7255 C   0  0  0  0  0  0  0  0  0  0  0  0
  -23.7692   -0.8057   28.7649 C   0  0  0  0  0  0  0  0  0  0  0  0
  -22.4600   -0.6152   28.6379 C   0  0  0  0  0  0  0  0  0  0  0  0
  -30.0767   -0.6704   29.8779 C   0  0  0  0  0  0  0  0  0  0  0  0
  -30.7739   -1.4539   30.3525 O   0  0  0  0  0  0  0  0  0  0  0  0
  -30.5449    0.4094   29.2245 N   0  0  0  0  0  0  0  0  0  0  0  0
  -31.9540    0.6256   29.0812 C   0  0  0  0  0  0  0  0  0  0  0  0
  -32.3008    1.6571   28.6198 C   0  0  0  0  0  0  0  0  0  0  0  0
  -33.5186    2.1575   28.5845 C   0  0  0  0  0  0  0  0  0  0  0  0
  -33.9220    3.4258   28.0654 C   0  0  0  0  0  0  0  0  0  0  0  0
  -32.9393    4.2002   27.4134 C   0  0  0  0  0  0  0  0  0  0  0  0
  -31.6260    3.7326   27.3099 C   0  0  0  0  0  0  0  0  0  0  0  0
  -31.2953    2.5912   27.8897 C   0  0  0  0  0  0  0  0  0  0  0  0
  -32.6873   -0.3035   29.3478 O   0  0  0  0  0  0  0  0  0  0  0  0
  -25.8946   -0.6353   27.6073 C   0  0  0  0  0  0  0  0  0  0  0  0
  4  6  1  0
  2 13  1  0
 13 14  2  0
 13 15  1  0
 15 16  1  0
 16 17  1  0
 16 23  2  0
  3 24  1  0
 17 18  2  0
 18 19  1  0
 19 20  2  0
 20 21  1  0
 21 22  2  0
 22 17  1  0
  6  8  2  0
  8  9  1  0
  9 10  2  0
 10 12  1  0
 12 11  2  0
 11  6  1  0
  1  2  2  0
  2  5  1  0
  5  7  2  0
  7  4  1  0
  4  3  2  0
  3  1  1  0
M  END

$$$$
