No_1166-gen_results/8p0m/2024-11-27-11-27-31/
     RDKit          3D

 21 23  0  0  0  0  0  0  0  0999 V2000
  -28.1229   -1.3353   28.4874 O   0  0  0  0  0  0  0  0  0  0  0  0
  -27.0637   -0.8242   28.8687 C   0  0  0  0  0  0  0  0  0  0  0  0
  -25.9773   -1.1378   28.8137 N   0  0  0  0  0  0  0  0  0  0  0  0
  -24.7669   -0.3464   29.1634 C   0  0  0  0  0  0  0  0  0  0  0  0
  -27.1684    0.7551   29.2892 C   0  0  0  0  0  0  0  0  0  0  0  0
  -23.4212   -0.8877   29.1735 C   0  0  0  0  0  0  0  0  0  0  0  0
  -24.9196    1.0242   29.5173 C   0  0  0  0  0  0  0  0  0  0  0  0
  -26.1899    1.4947   29.5452 C   0  0  0  0  0  0  0  0  0  0  0  0
  -23.0884   -2.1038   29.4762 C   0  0  0  0  0  0  0  0  0  0  0  0
  -22.3298    0.0369   28.7218 C   0  0  0  0  0  0  0  0  0  0  0  0
  -20.9781   -0.4497   28.7481 C   0  0  0  0  0  0  0  0  0  0  0  0
  -24.1128   -2.9562   29.8168 N   0  0  0  0  0  0  0  0  0  0  0  0
  -20.0416    0.4705   28.2628 C   0  0  0  0  0  0  0  0  0  0  0  0
  -20.5009    1.6936   27.7225 C   0  0  0  0  0  0  0  0  0  0  0  0
  -22.3940    1.3179   28.0971 C   0  0  0  0  0  0  0  0  0  0  0  0
  -25.1089   -2.7685   30.4910 C   0  0  0  0  0  0  0  0  0  0  0  0
  -26.1620   -2.1981   29.6253 C   0  0  0  0  0  0  0  0  0  0  0  0
  -27.2317   -3.1481   29.5328 C   0  0  0  0  0  0  0  0  0  0  0  0
  -28.6107    1.1433   29.2579 C   0  0  0  0  0  0  0  0  0  0  0  0
  -28.9259    1.9583   28.6564 O   0  0  0  0  0  0  0  0  0  0  0  0
  -29.2283    0.7475   30.3864 O   0  0  0  0  0  0  0  0  0  0  0  0
  1  2  2  0
  2  3  1  0
  3  4  1  0
  2  5  1  0
  4  6  1  0
  4  7  1  0
  6  9  1  0
  6 10  1  0
 10 11  2  0
  9 12  1  0
 11 13  1  0
 13 14  2  0
 10 15  1  0
 14 15  1  0
 12 16  1  0
  3 17  1  0
 16 17  1  0
 17 18  1  0
  5 19  1  0
 19 20  2  0
 19 21  1  0
  5  8  1  0
  8  7  1  0
M  END

$$$$
