No_1790-gen_results/8p0m/2024-11-27-11-27-31/
     RDKit          3D

 25 27  0  0  0  0  0  0  0  0999 V2000
  -28.0162   -0.8135   28.8779 C   0  0  0  0  0  0  0  0  0  0  0  0
  -28.4690   -0.7850   29.8287 C   0  0  0  0  0  0  0  0  0  0  0  0
  -26.5042   -0.7777   28.8766 C   0  0  0  0  0  0  0  0  0  0  0  0
  -25.8305   -1.6808   29.6849 C   0  0  0  0  0  0  0  0  0  0  0  0
  -28.1490   -1.8854   30.9031 C   0  0  0  0  0  0  0  0  0  0  0  0
  -26.6460   -1.9561   31.0330 C   0  0  0  0  0  0  0  0  0  0  0  0
  -28.6274   -1.7308   32.1858 O   0  0  0  0  0  0  0  0  0  0  0  0
  -29.6689   -0.2500   30.2378 O   0  0  0  0  0  0  0  0  0  0  0  0
  -24.4915   -1.3131   29.9915 O   0  0  0  0  0  0  0  0  0  0  0  0
  -25.6419    0.0138   27.9879 C   0  0  0  0  0  0  0  0  0  0  0  0
  -24.4267    0.4739   28.2933 C   0  0  0  0  0  0  0  0  0  0  0  0
  -23.6646   -0.5125   29.2159 C   0  0  0  0  0  0  0  0  0  0  0  0
  -23.5086    1.1250   27.3072 C   0  0  0  0  0  0  0  0  0  0  0  0
  -24.6605    1.6347   29.4432 C   0  0  0  0  0  0  0  0  0  0  0  0
  -26.2859    0.8424   27.0079 C   0  0  0  0  0  0  0  0  0  0  0  0
  -27.1816    1.6094   27.3256 C   0  0  0  0  0  0  0  0  0  0  0  0
  -27.8257    2.3979   26.6202 C   0  0  0  0  0  0  0  0  0  0  0  0
  -26.0107    0.4802   25.6886 C   0  0  0  0  0  0  0  0  0  0  0  0
  -26.7403    1.1762   24.6888 C   0  0  0  0  0  0  0  0  0  0  0  0
  -27.6833    2.1510   25.1459 C   0  0  0  0  0  0  0  0  0  0  0  0
  -30.2794    0.6075   29.3574 C   0  0  0  0  0  0  0  0  0  0  0  0
  -30.5292    1.9264   29.7744 C   0  0  0  0  0  0  0  0  0  0  0  0
  -29.8113    2.4466   30.6713 C   0  0  0  0  0  0  0  0  0  0  0  0
  -29.8810    3.8531   31.0183 C   0  0  0  0  0  0  0  0  0  0  0  0
  -29.0688    4.4098   32.0155 C   0  0  0  0  0  0  0  0  0  0  0  0
  1  2  1  0
  1  3  1  0
  3  4  1  0
  2  5  1  0
  4  6  1  0
  5  6  1  0
  5  7  1  0
  2  8  1  0
  4  9  1  0
  3 10  1  0
 10 11  1  0
  9 12  1  0
 11 12  1  0
 11 13  1  0
 11 14  1  0
 10 15  1  0
  8 21  1  0
 21 22  1  0
 22 23  2  3
 23 24  1  0
 24 25  2  0
 15 16  2  0
 16 17  1  0
 17 20  2  0
 20 19  1  0
 19 18  2  0
 18 15  1  0
M  END

$$$$
