No_1236-gen_results/8p0m/2024-11-27-11-27-31/
     RDKit          3D

 16 17  0  0  0  0  0  0  0  0999 V2000
  -28.0162   -0.8135   28.8779 C   0  0  0  0  0  0  0  0  0  0  0  0
  -27.0636   -0.1189   28.6079 C   0  0  0  0  0  0  0  0  0  0  0  0
  -27.0010    0.6913   27.4910 C   0  0  0  0  0  0  0  0  0  0  0  0
  -28.1373    0.7363   26.6350 C   0  0  0  0  0  0  0  0  0  0  0  0
  -29.2360    0.0765   27.0690 C   0  0  0  0  0  0  0  0  0  0  0  0
  -29.2177   -0.6429   28.1747 C   0  0  0  0  0  0  0  0  0  0  0  0
  -30.3134    0.1603   26.2891 F   0  0  0  0  0  0  0  0  0  0  0  0
  -25.7101   -0.1791   29.3956 C   0  0  0  0  0  0  0  0  0  0  0  0
  -25.3096    0.8783   30.1893 C   0  0  0  0  0  0  0  0  0  0  0  0
  -24.3872    1.1678   30.6454 C   0  0  0  0  0  0  0  0  0  0  0  0
  -24.1229    2.3883   31.4882 C   0  0  0  0  0  0  0  0  0  0  0  0
  -26.4273    1.9379   30.5984 C   0  0  0  0  0  0  0  0  0  0  0  0
  -26.2422    2.9953   31.3623 C   0  0  0  0  0  0  0  0  0  0  0  0
  -24.9585    3.2278   31.8488 C   0  0  0  0  0  0  0  0  0  0  0  0
  -24.7161    4.2998   32.6159 F   0  0  0  0  0  0  0  0  0  0  0  0
  -24.5600   -0.6812   28.4860 C   0  0  0  0  0  0  0  0  0  0  0  0
  5  7  1  0
  2  8  1  0
 14 15  1  0
  8 16  1  0
  8  9  1  0
  1  2  2  0
  2  3  1  0
  3  4  2  0
  4  5  1  0
  5  6  2  0
  6  1  1  0
  9 10  2  0
 10 11  1  0
 11 14  2  0
 14 13  1  0
 13 12  2  0
 12  9  1  0
M  END

$$$$
