No_1397-gen_results/8p0m/2024-11-27-11-27-31/
     RDKit          3D

 17 18  0  0  0  0  0  0  0  0999 V2000
  -28.0162   -0.8135   28.8779 C   0  0  0  0  0  0  0  0  0  0  0  0
  -28.4690   -0.7850   29.8287 C   0  0  0  0  0  0  0  0  0  0  0  0
  -26.5042   -0.7777   28.8766 C   0  0  0  0  0  0  0  0  0  0  0  0
  -25.8103   -0.8531   30.1028 C   0  0  0  0  0  0  0  0  0  0  0  0
  -27.9906   -0.8916   31.2257 C   0  0  0  0  0  0  0  0  0  0  0  0
  -24.3976   -0.8364   30.1775 C   0  0  0  0  0  0  0  0  0  0  0  0
  -26.5754   -0.8899   31.2661 C   0  0  0  0  0  0  0  0  0  0  0  0
  -23.7708   -0.9176   31.0960 C   0  0  0  0  0  0  0  0  0  0  0  0
  -23.6556   -0.7144   28.8858 C   0  0  0  0  0  0  0  0  0  0  0  0
  -22.2519   -0.5749   28.9404 C   0  0  0  0  0  0  0  0  0  0  0  0
  -22.2935   -0.7627   31.3088 C   0  0  0  0  0  0  0  0  0  0  0  0
  -21.6026   -0.5853   30.0994 C   0  0  0  0  0  0  0  0  0  0  0  0
  -29.9344   -0.7607   29.8398 O   0  0  0  0  0  0  0  0  0  0  0  0
  -30.5558    0.4202   30.1103 C   0  0  0  0  0  0  0  0  0  0  0  0
  -31.5167    0.7588   29.5562 C   0  0  0  0  0  0  0  0  0  0  0  0
  -32.1631    2.0454   29.7888 C   0  0  0  0  0  0  0  0  0  0  0  0
  -33.2999    2.5337   29.1408 C   0  0  0  0  0  0  0  0  0  0  0  0
  4  6  1  0
  2 13  1  0
 13 14  1  0
 14 15  2  3
 15 16  1  0
 16 17  2  0
  6  8  2  0
  8 11  1  0
 11 12  2  0
 12 10  1  0
 10  9  2  0
  9  6  1  0
  1  2  2  0
  2  5  1  0
  5  7  2  0
  7  4  1  0
  4  3  2  0
  3  1  1  0
M  END

$$$$
