No_1695-gen_results/8p0m/2024-11-27-11-27-31/
     RDKit          3D

 19 19  0  0  0  0  0  0  0  0999 V2000
  -28.0162   -0.8135   28.8779 C   0  0  0  0  0  0  0  0  0  0  0  0
  -27.0636   -0.1189   28.6079 C   0  0  0  0  0  0  0  0  0  0  0  0
  -27.0010    0.6913   27.4910 C   0  0  0  0  0  0  0  0  0  0  0  0
  -25.8548    1.4825   27.0830 C   0  0  0  0  0  0  0  0  0  0  0  0
  -24.6901    1.4526   27.8807 C   0  0  0  0  0  0  0  0  0  0  0  0
  -24.7379    0.6010   29.0416 C   0  0  0  0  0  0  0  0  0  0  0  0
  -25.8234   -0.1688   29.3887 C   0  0  0  0  0  0  0  0  0  0  0  0
  -27.9524   -1.6294   30.0643 N   0  0  0  0  0  0  0  0  0  0  0  0
  -29.0363   -2.3695   30.4865 C   0  0  0  0  0  0  0  0  0  0  0  0
  -28.7283   -3.6343   31.2329 C   0  0  0  0  0  0  0  0  0  0  0  0
  -29.1906   -3.6689   32.3560 F   0  0  0  0  0  0  0  0  0  0  0  0
  -29.2500   -4.6727   30.4696 F   0  0  0  0  0  0  0  0  0  0  0  0
  -27.3960   -3.7931   31.0678 F   0  0  0  0  0  0  0  0  0  0  0  0
  -23.3219    2.3449   27.5258 Cl  0  0  0  0  0  0  0  0  0  0  0  0
  -29.1232   -0.7797   28.3760 O   0  0  0  0  0  0  0  0  0  0  0  0
  -23.4566    0.5309   29.8810 C   0  0  0  0  0  0  0  0  0  0  0  0
  -23.6864    1.0118   31.0265 F   0  0  0  0  0  0  0  0  0  0  0  0
  -22.4558    1.2630   29.3395 F   0  0  0  0  0  0  0  0  0  0  0  0
  -23.1356   -0.7183   30.0628 F   0  0  0  0  0  0  0  0  0  0  0  0
  1  2  1  0
  1  8  1  0
  8  9  2  3
  9 10  1  0
 10 11  1  0
 10 12  1  0
 10 13  1  0
  5 14  1  0
  1 15  2  0
  6 16  1  0
 16 17  1  0
 16 18  1  0
 16 19  1  0
  2  3  2  0
  3  4  1  0
  4  5  2  0
  5  6  1  0
  6  7  2  0
  7  2  1  0
M  END

$$$$
