No_1657-gen_results/8p0m/2024-11-27-11-27-31/
     RDKit          3D

 30 33  0  0  0  0  0  0  0  0999 V2000
  -28.0162   -0.8135   28.8779 C   0  0  0  0  0  0  0  0  0  0  0  0
  -27.0636   -0.1189   28.6079 C   0  0  0  0  0  0  0  0  0  0  0  0
  -25.7647   -0.3897   29.0360 C   0  0  0  0  0  0  0  0  0  0  0  0
  -24.5517    0.4058   28.7646 C   0  0  0  0  0  0  0  0  0  0  0  0
  -24.6957    1.4480   27.7988 C   0  0  0  0  0  0  0  0  0  0  0  0
  -23.5821    2.2166   27.4626 C   0  0  0  0  0  0  0  0  0  0  0  0
  -22.3211    1.8240   27.9807 C   0  0  0  0  0  0  0  0  0  0  0  0
  -22.1777    0.8172   28.8883 C   0  0  0  0  0  0  0  0  0  0  0  0
  -23.3181    0.0418   29.2597 C   0  0  0  0  0  0  0  0  0  0  0  0
  -27.8970   -1.8952   29.8587 C   0  0  0  0  0  0  0  0  0  0  0  0
  -26.6530   -2.3395   30.2732 C   0  0  0  0  0  0  0  0  0  0  0  0
  -25.5330   -1.5566   29.9092 C   0  0  0  0  0  0  0  0  0  0  0  0
  -29.0621   -2.7222   30.2424 C   0  0  0  0  0  0  0  0  0  0  0  0
  -28.9426   -4.0233   30.3912 N   0  0  0  0  0  0  0  0  0  0  0  0
  -28.2040   -4.6372   30.7460 C   0  0  0  0  0  0  0  0  0  0  0  0
  -29.9486   -4.7368   29.4490 C   0  0  0  0  0  0  0  0  0  0  0  0
  -30.8402   -5.5774   30.2701 C   0  0  0  0  0  0  0  0  0  0  0  0
  -32.1456   -5.1386   30.2132 C   0  0  0  0  0  0  0  0  0  0  0  0
  -32.9940   -5.8143   31.0131 C   0  0  0  0  0  0  0  0  0  0  0  0
  -32.6450   -6.5349   31.7792 C   0  0  0  0  0  0  0  0  0  0  0  0
  -31.3127   -7.0615   32.0033 C   0  0  0  0  0  0  0  0  0  0  0  0
  -30.3503   -6.4576   31.2389 C   0  0  0  0  0  0  0  0  0  0  0  0
  -30.1101   -2.0371   30.4892 O   0  0  0  0  0  0  0  0  0  0  0  0
  -23.6585    3.1905   26.5746 O   0  0  0  0  0  0  0  0  0  0  0  0
  -32.5789   -4.1760   29.2030 C   0  0  0  0  0  0  0  0  0  0  0  0
  -32.9266   -2.9042   29.6311 C   0  0  0  0  0  0  0  0  0  0  0  0
  -32.6445   -4.4896   27.8447 C   0  0  0  0  0  0  0  0  0  0  0  0
  -33.3771   -1.8952   28.7762 C   0  0  0  0  0  0  0  0  0  0  0  0
  -33.0783   -3.4776   26.9295 C   0  0  0  0  0  0  0  0  0  0  0  0
  -33.4085   -2.1933   27.3839 C   0  0  0  0  0  0  0  0  0  0  0  0
  3  4  1  0
 10 13  1  0
 13 14  1  0
 14 15  1  0
 14 16  1  0
 16 17  1  0
 13 23  2  0
  6 24  1  0
 18 25  1  0
 17 18  1  0
 18 19  2  0
 19 20  1  0
 20 21  2  0
 21 22  1  0
 22 17  2  0
 25 26  2  0
 26 28  1  0
 28 30  2  0
 30 29  1  0
 29 27  2  0
 27 25  1  0
  1  2  2  0
  2  3  1  0
  3 12  2  0
 12 11  1  0
 11 10  2  0
 10  1  1  0
  4  5  2  0
  5  6  1  0
  6  7  2  0
  7  8  1  0
  8  9  2  0
  9  4  1  0
M  END

$$$$
