No_1113-gen_results/8p0m/2024-11-27-11-27-31/
     RDKit          3D

 19 21  0  0  0  0  0  0  0  0999 V2000
  -28.0162   -0.8135   28.8779 C   0  0  0  0  0  0  0  0  0  0  0  0
  -27.0636   -0.1189   28.6079 C   0  0  0  0  0  0  0  0  0  0  0  0
  -25.7647   -0.3897   29.0360 C   0  0  0  0  0  0  0  0  0  0  0  0
  -24.5517    0.4058   28.7646 C   0  0  0  0  0  0  0  0  0  0  0  0
  -23.2300    0.1178   29.2575 C   0  0  0  0  0  0  0  0  0  0  0  0
  -23.0942   -1.1309   29.8730 C   0  0  0  0  0  0  0  0  0  0  0  0
  -27.7980   -1.9341   29.8560 C   0  0  0  0  0  0  0  0  0  0  0  0
  -26.5420   -2.3268   30.2580 C   0  0  0  0  0  0  0  0  0  0  0  0
  -25.4514   -1.5516   29.9079 C   0  0  0  0  0  0  0  0  0  0  0  0
  -24.1562   -1.9097   30.2809 C   0  0  0  0  0  0  0  0  0  0  0  0
  -24.6450    1.6582   27.9464 C   0  0  0  0  0  0  0  0  0  0  0  0
  -24.8958    2.7559   28.5615 C   0  0  0  0  0  0  0  0  0  0  0  0
  -25.7918    3.5939   28.0297 C   0  0  0  0  0  0  0  0  0  0  0  0
  -25.9449    3.5871   26.6052 C   0  0  0  0  0  0  0  0  0  0  0  0
  -24.6850    1.5903   26.5474 C   0  0  0  0  0  0  0  0  0  0  0  0
  -25.4717    2.4969   25.8996 C   0  0  0  0  0  0  0  0  0  0  0  0
  -29.0251   -2.7336   30.2401 C   0  0  0  0  0  0  0  0  0  0  0  0
  -28.9579   -3.8919   30.4236 O   0  0  0  0  0  0  0  0  0  0  0  0
  -30.1053   -2.1441   30.4612 O   0  0  0  0  0  0  0  0  0  0  0  0
  4 11  1  0
  7 17  1  0
 17 18  2  0
 17 19  1  0
 11 12  2  0
 12 13  1  0
 13 14  2  0
 14 16  1  0
 16 15  2  0
 15 11  1  0
  1  2  2  0
  2  3  1  0
  9  8  1  0
  8  7  2  0
  7  1  1  0
  3  4  2  0
  4  5  1  0
  5  6  2  0
  6 10  1  0
 10  9  2  0
  9  3  1  0
M  END

$$$$
