No_1951-gen_results/8p0m/2024-11-27-11-27-31/
     RDKit          3D

 29 31  0  0  0  0  0  0  0  0999 V2000
  -28.0162   -0.8135   28.8779 C   0  0  0  0  0  0  0  0  0  0  0  0
  -28.4690   -0.7850   29.8287 C   0  0  0  0  0  0  0  0  0  0  0  0
  -27.1356    0.2359   28.5352 C   0  0  0  0  0  0  0  0  0  0  0  0
  -26.8745    1.2825   29.3982 C   0  0  0  0  0  0  0  0  0  0  0  0
  -28.3613    0.1987   30.9244 C   0  0  0  0  0  0  0  0  0  0  0  0
  -27.5277    1.2234   30.6356 C   0  0  0  0  0  0  0  0  0  0  0  0
  -26.2960    0.2786   27.0255 Cl  0  0  0  0  0  0  0  0  0  0  0  0
  -29.3317   -1.8682   30.2248 F   0  0  0  0  0  0  0  0  0  0  0  0
  -25.9739    2.4060   29.0774 C   0  0  0  0  0  0  0  0  0  0  0  0
  -26.0836    3.2411   28.1317 N   0  0  0  0  0  0  0  0  0  0  0  0
  -25.6131    3.4846   27.2078 C   0  0  0  0  0  0  0  0  0  0  0  0
  -25.9701    4.5545   26.2232 C   0  0  0  0  0  0  0  0  0  0  0  0
  -24.2618    2.8768   26.8038 C   0  0  0  0  0  0  0  0  0  0  0  0
  -23.6718    2.9967   25.4781 C   0  0  0  0  0  0  0  0  0  0  0  0
  -24.8708    2.4568   29.9101 O   0  0  0  0  0  0  0  0  0  0  0  0
  -22.5256    2.2650   25.3377 C   0  0  0  0  0  0  0  0  0  0  0  0
  -21.9363    1.6185   26.4640 C   0  0  0  0  0  0  0  0  0  0  0  0
  -22.4335    1.6901   27.7561 C   0  0  0  0  0  0  0  0  0  0  0  0
  -23.5836    2.3313   27.8700 C   0  0  0  0  0  0  0  0  0  0  0  0
  -21.6260    0.8627   28.9825 Cl  0  0  0  0  0  0  0  0  0  0  0  0
  -27.5801    3.8632   28.3417 C   0  0  0  0  0  0  0  0  0  0  0  0
  -28.5618    3.5026   27.5956 C   0  0  0  0  0  0  0  0  0  0  0  0
  -29.8151    3.9928   27.8489 C   0  0  0  0  0  0  0  0  0  0  0  0
  -29.9862    4.9696   28.8458 C   0  0  0  0  0  0  0  0  0  0  0  0
  -27.7359    4.8583   29.3986 C   0  0  0  0  0  0  0  0  0  0  0  0
  -26.4958    5.3205   30.2330 C   0  0  0  0  0  0  0  0  0  0  0  0
  -28.9123    5.4365   29.6490 C   0  0  0  0  0  0  0  0  0  0  0  0
  -26.0513    4.6130   31.0826 O   0  0  0  0  0  0  0  0  0  0  0  0
  -26.0650    6.5297   29.8780 O   0  0  0  0  0  0  0  0  0  0  0  0
  3  7  1  0
  2  8  1  0
  4  9  1  0
  9 10  1  0
 10 11  1  0
 11 12  2  0
 11 13  1  0
  9 15  2  0
 18 20  1  0
 10 21  1  0
 25 26  1  0
 26 28  2  0
 26 29  1  0
 13 14  2  0
 14 16  1  0
 16 17  2  0
 17 18  1  0
 18 19  2  0
 19 13  1  0
 21 22  2  0
 22 23  1  0
 23 24  2  0
 24 27  1  0
 27 25  2  0
 25 21  1  0
  1  2  2  0
  2  5  1  0
  5  6  2  0
  6  4  1  0
  4  3  2  0
  3  1  1  0
M  END

$$$$
