No_1470-gen_results/8p0m/2024-11-27-11-27-31/
     RDKit          3D

  9  8  0  0  0  0  0  0  0  0999 V2000
  -27.9505   -0.5786   29.0402 P   0  0  0  0  0  0  0  0  0  0  0  0
  -27.2401    0.0613   28.4283 O   0  0  0  0  0  0  0  0  0  0  0  0
  -29.3621   -0.5774   28.6194 O   0  0  0  0  0  0  0  0  0  0  0  0
  -27.4933   -2.0888   29.1563 O   0  0  0  0  0  0  0  0  0  0  0  0
  -27.7419    0.3046   30.3212 O   0  0  0  0  0  0  0  0  0  0  0  0
  -25.8391    0.0585   28.4670 C   0  0  0  0  0  0  0  0  0  0  0  0
  -25.0934    1.3003   28.7009 C   0  0  0  0  0  0  0  0  0  0  0  0
  -23.7034    1.1270   28.4906 C   0  0  0  0  0  0  0  0  0  0  0  0
  -22.9657    1.9910   27.6317 C   0  0  0  0  0  0  0  0  0  0  0  0
  1  2  1  0
  1  3  2  0
  1  4  1  0
  1  5  1  0
  2  6  1  0
  6  7  1  0
  7  8  2  3
  8  9  1  0
M  END

$$$$
