No_1174-gen_results/8p0m/2024-11-27-11-27-31/
     RDKit          3D

 19 20  0  0  0  0  0  0  0  0999 V2000
  -28.0162   -0.8135   28.8779 C   0  0  0  0  0  0  0  0  0  0  0  0
  -28.4690   -0.7850   29.8287 C   0  0  0  0  0  0  0  0  0  0  0  0
  -27.0871    0.2903   28.6377 C   0  0  0  0  0  0  0  0  0  0  0  0
  -26.8317    1.2487   29.5869 C   0  0  0  0  0  0  0  0  0  0  0  0
  -28.3914    0.0801   31.0065 C   0  0  0  0  0  0  0  0  0  0  0  0
  -27.4940    1.1521   30.7841 C   0  0  0  0  0  0  0  0  0  0  0  0
  -26.3172    0.3994   27.3653 C   0  0  0  0  0  0  0  0  0  0  0  0
  -25.0720    0.1569   27.4305 N   0  0  0  0  0  0  0  0  0  0  0  0
  -26.9084    0.2743   26.2366 O   0  0  0  0  0  0  0  0  0  0  0  0
  -24.2556    0.1708   28.6575 C   0  0  0  0  0  0  0  0  0  0  0  0
  -23.1725    1.1635   28.5195 C   0  0  0  0  0  0  0  0  0  0  0  0
  -22.1427    1.0763   29.5170 C   0  0  0  0  0  0  0  0  0  0  0  0
  -24.3036   -0.6073   29.7118 C   0  0  0  0  0  0  0  0  0  0  0  0
  -23.3159   -0.6459   30.7068 C   0  0  0  0  0  0  0  0  0  0  0  0
  -22.2523    0.2927   30.5987 C   0  0  0  0  0  0  0  0  0  0  0  0
  -22.9591    2.0545   27.4130 C   0  0  0  0  0  0  0  0  0  0  0  0
  -22.0861    1.8014   26.6931 F   0  0  0  0  0  0  0  0  0  0  0  0
  -22.8939    3.3754   27.9093 F   0  0  0  0  0  0  0  0  0  0  0  0
  -24.0767    2.1314   26.5964 F   0  0  0  0  0  0  0  0  0  0  0  0
  3  7  1  0
  7  8  1  0
  7  9  2  0
  8 10  1  0
 11 16  1  0
 16 17  1  0
 16 18  1  0
 16 19  1  0
  1  2  2  0
  2  5  1  0
  5  6  2  0
  6  4  1  0
  4  3  2  0
  3  1  1  0
 10 11  2  0
 11 12  1  0
 12 15  2  0
 15 14  1  0
 14 13  2  0
 13 10  1  0
M  END

$$$$
