No_1423-gen_results/8p0m/2024-11-27-11-27-31/
     RDKit          3D

 27 29  0  0  0  0  0  0  0  0999 V2000
  -28.0162   -0.8135   28.8779 C   0  0  0  0  0  0  0  0  0  0  0  0
  -28.4690   -0.7850   29.8287 C   0  0  0  0  0  0  0  0  0  0  0  0
  -28.1960    0.3478   28.0550 C   0  0  0  0  0  0  0  0  0  0  0  0
  -29.0191    1.3501   28.3782 C   0  0  0  0  0  0  0  0  0  0  0  0
  -29.6249    1.2683   29.6012 C   0  0  0  0  0  0  0  0  0  0  0  0
  -29.3791    0.1469   30.3923 C   0  0  0  0  0  0  0  0  0  0  0  0
  -27.4551    0.3822   26.7102 C   0  0  0  0  0  0  0  0  0  0  0  0
  -26.0156    0.4243   26.8243 C   0  0  0  0  0  0  0  0  0  0  0  0
  -25.2539    1.1682   25.9671 C   0  0  0  0  0  0  0  0  0  0  0  0
  -23.8755    1.3120   26.1282 C   0  0  0  0  0  0  0  0  0  0  0  0
  -23.2129    0.8849   27.2842 C   0  0  0  0  0  0  0  0  0  0  0  0
  -24.0022    0.1675   28.2288 C   0  0  0  0  0  0  0  0  0  0  0  0
  -25.3440   -0.0044   28.0344 C   0  0  0  0  0  0  0  0  0  0  0  0
  -21.6268    1.2584   27.6452 Cl  0  0  0  0  0  0  0  0  0  0  0  0
  -29.2523    2.4700   27.5219 C   0  0  0  0  0  0  0  0  0  0  0  0
  -28.5418    3.3558   27.3684 O   0  0  0  0  0  0  0  0  0  0  0  0
  -30.2067    2.1720   26.5292 O   0  0  0  0  0  0  0  0  0  0  0  0
  -23.1179   -0.2772   29.3578 C   0  0  0  0  0  0  0  0  0  0  0  0
  -23.5731    0.1096   30.6278 C   0  0  0  0  0  0  0  0  0  0  0  0
  -24.0154    1.3835   30.8772 C   0  0  0  0  0  0  0  0  0  0  0  0
  -25.3274    1.5906   31.4828 C   0  0  0  0  0  0  0  0  0  0  0  0
  -26.0136    2.8099   31.4443 C   0  0  0  0  0  0  0  0  0  0  0  0
  -27.1868    2.9569   32.1737 C   0  0  0  0  0  0  0  0  0  0  0  0
  -27.9035    4.1836   32.1436 C   0  0  0  0  0  0  0  0  0  0  0  0
  -27.4721    5.1749   31.2322 C   0  0  0  0  0  0  0  0  0  0  0  0
  -26.3479    4.9928   30.4443 C   0  0  0  0  0  0  0  0  0  0  0  0
  -25.6462    3.8077   30.5452 C   0  0  0  0  0  0  0  0  0  0  0  0
  3  7  1  0
  7  8  1  0
 11 14  1  0
  4 15  1  0
 15 16  2  0
 15 17  1  0
 12 18  1  0
 18 19  1  0
 19 20  1  0
 20 21  2  3
 21 22  1  0
  1  2  2  0
  2  6  1  0
  6  5  2  0
  5  4  1  0
  4  3  2  0
  3  1  1  0
 22 23  2  0
 23 24  1  0
 24 25  2  0
 25 26  1  0
 26 27  2  0
 27 22  1  0
  8  9  2  0
  9 10  1  0
 10 11  2  0
 11 12  1  0
 12 13  2  0
 13  8  1  0
M  END

$$$$
