No_1990-gen_results/8p0m/2024-11-27-11-27-31/
     RDKit          3D

 35 39  0  0  0  0  0  0  0  0999 V2000
  -28.0162   -0.8135   28.8779 C   0  0  0  0  0  0  0  0  0  0  0  0
  -27.0636   -0.1189   28.6079 C   0  0  0  0  0  0  0  0  0  0  0  0
  -26.9287    1.1713   29.0083 C   0  0  0  0  0  0  0  0  0  0  0  0
  -25.7702    2.0341   28.6884 C   0  0  0  0  0  0  0  0  0  0  0  0
  -24.7141    1.4431   27.9188 C   0  0  0  0  0  0  0  0  0  0  0  0
  -24.8590    0.0783   27.5836 C   0  0  0  0  0  0  0  0  0  0  0  0
  -25.9647   -0.6606   27.9164 C   0  0  0  0  0  0  0  0  0  0  0  0
  -28.6995   -0.6441   30.0766 N   0  0  0  0  0  0  0  0  0  0  0  0
  -29.4717   -1.1161   30.6970 C   0  0  0  0  0  0  0  0  0  0  0  0
  -29.9696   -2.2055   30.2785 O   0  0  0  0  0  0  0  0  0  0  0  0
  -29.7446   -0.8889   32.1658 C   0  0  0  0  0  0  0  0  0  0  0  0
  -23.5402    2.1713   27.5644 C   0  0  0  0  0  0  0  0  0  0  0  0
  -23.4414    2.8700   26.7728 F   0  0  0  0  0  0  0  0  0  0  0  0
  -22.4525    1.1381   27.3413 F   0  0  0  0  0  0  0  0  0  0  0  0
  -22.9701    2.6897   28.7992 F   0  0  0  0  0  0  0  0  0  0  0  0
  -29.0779   -0.0911   32.8430 C   0  0  0  0  0  0  0  0  0  0  0  0
  -28.1562    0.7867   32.0927 C   0  0  0  0  0  0  0  0  0  0  0  0
  -27.8043    0.4840   30.8200 C   0  0  0  0  0  0  0  0  0  0  0  0
  -27.2835    1.5293   30.1874 C   0  0  0  0  0  0  0  0  0  0  0  0
  -27.1628    2.8269   30.7834 C   0  0  0  0  0  0  0  0  0  0  0  0
  -28.0979    3.6381   31.0573 C   0  0  0  0  0  0  0  0  0  0  0  0
  -27.8797    4.9514   31.5607 C   0  0  0  0  0  0  0  0  0  0  0  0
  -25.8741    3.3132   31.2641 C   0  0  0  0  0  0  0  0  0  0  0  0
  -25.5736    4.5062   31.7840 C   0  0  0  0  0  0  0  0  0  0  0  0
  -26.6132    5.3789   31.9923 C   0  0  0  0  0  0  0  0  0  0  0  0
  -29.3370    3.2498   30.8634 O   0  0  0  0  0  0  0  0  0  0  0  0
  -30.0640    3.5862   29.8018 C   0  0  0  0  0  0  0  0  0  0  0  0
  -31.3552    3.7766   30.0674 C   0  0  0  0  0  0  0  0  0  0  0  0
  -31.9513    3.5472   31.2025 C   0  0  0  0  0  0  0  0  0  0  0  0
  -33.3524    3.7404   31.5001 C   0  0  0  0  0  0  0  0  0  0  0  0
  -34.1355    4.1005   30.4176 C   0  0  0  0  0  0  0  0  0  0  0  0
  -33.6420    4.3199   29.1965 C   0  0  0  0  0  0  0  0  0  0  0  0
  -32.2723    4.1896   28.9916 C   0  0  0  0  0  0  0  0  0  0  0  0
  -29.5193    3.7473   28.7081 O   0  0  0  0  0  0  0  0  0  0  0  0
  -23.9920    4.9777   32.2519 Cl  0  0  0  0  0  0  0  0  0  0  0  0
  1  2  1  0
  1  8  1  0
  8  9  1  0
  9 10  2  0
  9 11  1  0
  5 12  1  0
 12 13  1  0
 12 14  1  0
 12 15  1  0
 11 16  1  0
  8 18  1  0
 17 18  1  0
  3 19  1  0
 18 19  1  0
 19 20  1  0
 21 26  1  0
 26 27  1  0
 27 28  1  0
 27 34  2  0
 24 35  1  0
 16 17  1  0
 20 21  1  0
 21 22  2  0
 22 25  1  0
 25 24  2  0
 24 23  1  0
 23 20  2  0
  2  7  2  0
  7  6  1  0
  6  5  2  0
  5  4  1  0
  4  3  2  0
  3  2  1  0
 28 29  2  0
 29 30  1  0
 30 31  2  0
 31 32  1  0
 32 33  2  0
 33 28  1  0
M  END

$$$$
