No_1898-gen_results/8p0m/2024-11-27-11-27-31/
     RDKit          3D

 34 37  0  0  0  0  0  0  0  0999 V2000
  -28.0162   -0.8135   28.8779 C   0  0  0  0  0  0  0  0  0  0  0  0
  -27.0636   -0.1190   28.6079 C   0  0  0  0  0  0  0  0  0  0  0  0
  -25.7923   -0.4302   29.0761 C   0  0  0  0  0  0  0  0  0  0  0  0
  -25.5756   -1.5654   29.9363 C   0  0  0  0  0  0  0  0  0  0  0  0
  -26.7354   -2.3004   30.2173 C   0  0  0  0  0  0  0  0  0  0  0  0
  -27.9184   -1.9537   29.7629 C   0  0  0  0  0  0  0  0  0  0  0  0
  -29.0001   -2.7012   30.1151 O   0  0  0  0  0  0  0  0  0  0  0  0
  -24.5290    0.3490   28.7998 C   0  0  0  0  0  0  0  0  0  0  0  0
  -24.4808    1.2113   27.7998 C   0  0  0  0  0  0  0  0  0  0  0  0
  -23.2760    1.8178   27.4206 C   0  0  0  0  0  0  0  0  0  0  0  0
  -22.1406    1.4739   28.0797 C   0  0  0  0  0  0  0  0  0  0  0  0
  -23.2709    0.0425   29.3809 C   0  0  0  0  0  0  0  0  0  0  0  0
  -22.0937    0.6511   29.0863 C   0  0  0  0  0  0  0  0  0  0  0  0
  -29.3548   -2.8395   31.4352 C   0  0  0  0  0  0  0  0  0  0  0  0
  -29.7835   -4.1539   31.7165 C   0  0  0  0  0  0  0  0  0  0  0  0
  -31.0079   -4.3653   31.5841 O   0  0  0  0  0  0  0  0  0  0  0  0
  -31.5107   -5.4517   31.1464 C   0  0  0  0  0  0  0  0  0  0  0  0
  -29.1821   -5.2512   30.8373 C   0  0  0  0  0  0  0  0  0  0  0  0
  -30.2452   -6.1905   30.6659 C   0  0  0  0  0  0  0  0  0  0  0  0
  -32.4473   -5.3349   29.9775 C   0  0  0  0  0  0  0  0  0  0  0  0
  -32.8396   -6.2205   29.3710 O   0  0  0  0  0  0  0  0  0  0  0  0
  -32.7575   -4.0564   29.5498 N   0  0  0  0  0  0  0  0  0  0  0  0
  -33.5113   -3.7546   28.3604 C   0  0  0  0  0  0  0  0  0  0  0  0
  -33.5922   -2.6501   27.9798 C   0  0  0  0  0  0  0  0  0  0  0  0
  -32.9629   -1.5029   28.6736 C   0  0  0  0  0  0  0  0  0  0  0  0
  -32.2425   -1.7982   29.8447 C   0  0  0  0  0  0  0  0  0  0  0  0
  -32.1471   -2.9543   30.1879 C   0  0  0  0  0  0  0  0  0  0  0  0
  -31.7199   -0.6204   30.4537 O   0  0  0  0  0  0  0  0  0  0  0  0
  -32.4566    0.3011   31.0152 C   0  0  0  0  0  0  0  0  0  0  0  0
  -31.7598    1.2715   31.3674 C   0  0  0  0  0  0  0  0  0  0  0  0
  -31.9415    1.7566   32.6923 C   0  0  0  0  0  0  0  0  0  0  0  0
  -31.0027    2.6429   33.3196 C   0  0  0  0  0  0  0  0  0  0  0  0
  -30.0121    3.2352   32.5192 C   0  0  0  0  0  0  0  0  0  0  0  0
  -29.8291    2.8161   31.2110 C   0  0  0  0  0  0  0  0  0  0  0  0
  6  7  1  0
  3  8  1  0
  7 14  1  0
 14 15  1  0
 15 16  1  0
 16 17  1  0
 15 18  1  0
 17 19  1  0
 18 19  1  0
 17 20  1  0
 20 21  2  0
 20 22  1  0
 22 23  1  0
 24 25  1  0
 22 27  1  0
 26 27  1  0
 26 28  1  0
 28 29  1  0
 29 30  2  3
 30 31  1  0
 31 32  2  3
 32 33  1  0
 33 34  2  0
 23 24  1  0
 25 26  1  0
  1  2  2  0
  2  3  1  0
  3  4  2  0
  4  5  1  0
  5  6  2  0
  6  1  1  0
  8  9  2  0
  9 10  1  0
 10 11  2  0
 11 13  1  0
 13 12  2  0
 12  8  1  0
M  END

$$$$
