No_1092-gen_results/8p0m/2024-11-27-11-27-31/
     RDKit          3D

 32 35  0  0  0  0  0  0  0  0999 V2000
  -28.0162   -0.8135   28.8779 C   0  0  0  0  0  0  0  0  0  0  0  0
  -27.0636   -0.1189   28.6079 C   0  0  0  0  0  0  0  0  0  0  0  0
  -25.7647   -0.3897   29.0360 C   0  0  0  0  0  0  0  0  0  0  0  0
  -25.5296   -1.5302   29.9014 C   0  0  0  0  0  0  0  0  0  0  0  0
  -26.6577   -2.2915   30.2035 C   0  0  0  0  0  0  0  0  0  0  0  0
  -27.8548   -1.9555   29.7630 C   0  0  0  0  0  0  0  0  0  0  0  0
  -24.5441    0.4126   28.7379 C   0  0  0  0  0  0  0  0  0  0  0  0
  -24.4731    1.2065   27.7114 C   0  0  0  0  0  0  0  0  0  0  0  0
  -23.2779    1.8420   27.3661 C   0  0  0  0  0  0  0  0  0  0  0  0
  -22.0928    1.6644   28.0343 C   0  0  0  0  0  0  0  0  0  0  0  0
  -23.3031    0.1394   29.4701 C   0  0  0  0  0  0  0  0  0  0  0  0
  -22.0943    0.7976   29.1026 C   0  0  0  0  0  0  0  0  0  0  0  0
  -28.9305   -2.7270   30.1204 O   0  0  0  0  0  0  0  0  0  0  0  0
  -30.0455   -2.1694   30.6085 C   0  0  0  0  0  0  0  0  0  0  0  0
  -31.1211   -2.7897   30.2133 C   0  0  0  0  0  0  0  0  0  0  0  0
  -31.0802   -4.3594   29.8908 Cl  0  0  0  0  0  0  0  0  0  0  0  0
  -32.1547   -2.5758   31.1363 F   0  0  0  0  0  0  0  0  0  0  0  0
  -31.6006   -2.2238   29.0369 F   0  0  0  0  0  0  0  0  0  0  0  0
  -29.9586   -0.8883   30.4479 F   0  0  0  0  0  0  0  0  0  0  0  0
  -29.7928   -2.4024   31.9752 F   0  0  0  0  0  0  0  0  0  0  0  0
  -23.3038    2.9678   26.0134 Cl  0  0  0  0  0  0  0  0  0  0  0  0
  -24.2093   -1.8542   30.4274 C   0  0  0  0  0  0  0  0  0  0  0  0
  -23.1803   -0.9895   30.3559 C   0  0  0  0  0  0  0  0  0  0  0  0
  -27.2165    1.1304   27.7182 C   0  0  0  0  0  0  0  0  0  0  0  0
  -28.2297    1.6635   27.4034 C   0  0  0  0  0  0  0  0  0  0  0  0
  -28.3796    2.7336   26.5090 C   0  0  0  0  0  0  0  0  0  0  0  0
  -29.5288    3.3214   26.1498 C   0  0  0  0  0  0  0  0  0  0  0  0
  -30.7313    2.7778   26.6153 C   0  0  0  0  0  0  0  0  0  0  0  0
  -30.7071    1.6869   27.4386 C   0  0  0  0  0  0  0  0  0  0  0  0
  -29.5307    1.1158   27.8215 C   0  0  0  0  0  0  0  0  0  0  0  0
  -25.8408    1.8196   27.3820 C   0  0  0  0  0  0  0  0  0  0  0  0
  -25.8976    2.8258   26.6058 O   0  0  0  0  0  0  0  0  0  0  0  0
  6 13  1  0
 13 14  1  0
 14 15  1  0
 15 16  1  0
 15 17  1  0
 15 18  1  0
 14 19  1  0
 14 20  1  0
  9 21  1  0
  2 24  1  0
 24 31  1  0
 31 32  2  0
 24 25  1  0
  7  8  2  0
  8  9  1  0
  9 10  2  0
 10 12  1  0
 12 11  2  0
  1  2  2  0
  2  3  1  0
  4  5  1  0
  5  6  2  0
  6  1  1  0
 25 26  2  0
 26 27  1  0
 27 28  2  0
 28 29  1  0
 29 30  2  0
 30 25  1  0
  3  4  2  0
  4 22  1  0
 22 23  2  0
 23 11  1  0
 11  7  1  0
  7  3  1  0
M  END

$$$$
