No_192-gen_results/8p0m/2024-11-27-11-27-31/
     RDKit          3D

 16 17  0  0  0  0  0  0  0  0999 V2000
  -28.0162   -0.8135   28.8779 C   0  0  0  0  0  0  0  0  0  0  0  0
  -27.0636   -0.1189   28.6079 C   0  0  0  0  0  0  0  0  0  0  0  0
  -26.9716    0.7139   27.5060 C   0  0  0  0  0  0  0  0  0  0  0  0
  -28.1053    0.7744   26.6421 C   0  0  0  0  0  0  0  0  0  0  0  0
  -29.2008    0.1044   27.0527 C   0  0  0  0  0  0  0  0  0  0  0  0
  -29.2096   -0.6029   28.1853 C   0  0  0  0  0  0  0  0  0  0  0  0
  -30.5651    0.2430   26.0493 Cl  0  0  0  0  0  0  0  0  0  0  0  0
  -25.7033   -0.2337   29.4132 C   0  0  0  0  0  0  0  0  0  0  0  0
  -25.5451   -0.8516   30.2590 C   0  0  0  0  0  0  0  0  0  0  0  0
  -24.3072   -0.9380   31.0296 C   0  0  0  0  0  0  0  0  0  0  0  0
  -23.1845   -0.2125   30.5777 C   0  0  0  0  0  0  0  0  0  0  0  0
  -23.3796    0.5993   29.4403 C   0  0  0  0  0  0  0  0  0  0  0  0
  -24.6271    0.5929   28.7531 C   0  0  0  0  0  0  0  0  0  0  0  0
  -22.3166    1.2959   28.9976 O   0  0  0  0  0  0  0  0  0  0  0  0
  -22.0112    1.1800   27.5810 C   0  0  0  0  0  0  0  0  0  0  0  0
  -28.0109    1.9355   25.1599 Br  0  0  0  0  0  0  0  0  0  0  0  0
  5  7  1  0
  2  8  1  0
 12 14  1  0
 14 15  1  0
  4 16  1  0
  1  2  2  0
  2  3  1  0
  3  4  2  0
  4  5  1  0
  5  6  2  0
  6  1  1  0
  8  9  2  0
  9 10  1  0
 10 11  2  0
 11 12  1  0
 12 13  2  0
 13  8  1  0
M  END

$$$$
