No_1602-gen_results/8p0m/2024-11-27-11-27-31/
     RDKit          3D

 28 30  0  0  0  0  0  0  0  0999 V2000
  -28.0162   -0.8135   28.8779 C   0  0  0  0  0  0  0  0  0  0  0  0
  -27.0636   -0.1190   28.6079 C   0  0  0  0  0  0  0  0  0  0  0  0
  -26.9716    0.7139   27.5060 C   0  0  0  0  0  0  0  0  0  0  0  0
  -28.1053    0.7744   26.6421 C   0  0  0  0  0  0  0  0  0  0  0  0
  -29.2008    0.1044   27.0527 C   0  0  0  0  0  0  0  0  0  0  0  0
  -29.2096   -0.6029   28.1853 C   0  0  0  0  0  0  0  0  0  0  0  0
  -30.6688    0.1865   26.2281 Cl  0  0  0  0  0  0  0  0  0  0  0  0
  -25.8442   -0.3203   29.5656 C   0  0  0  0  0  0  0  0  0  0  0  0
  -25.4856   -1.3623   30.1471 C   0  0  0  0  0  0  0  0  0  0  0  0
  -24.3310   -1.4560   30.8937 C   0  0  0  0  0  0  0  0  0  0  0  0
  -23.4598   -0.3650   31.0833 C   0  0  0  0  0  0  0  0  0  0  0  0
  -23.7814    0.7886   30.4476 C   0  0  0  0  0  0  0  0  0  0  0  0
  -24.9297    0.8652   29.6126 C   0  0  0  0  0  0  0  0  0  0  0  0
  -28.0013    1.8210   25.2920 Cl  0  0  0  0  0  0  0  0  0  0  0  0
  -25.1585    2.0532   29.0819 O   0  0  0  0  0  0  0  0  0  0  0  0
  -25.4988    3.1660   29.8331 C   0  0  0  0  0  0  0  0  0  0  0  0
  -26.7704    3.7951   29.4131 C   0  0  0  0  0  0  0  0  0  0  0  0
  -27.6860    3.4489   30.1219 O   0  0  0  0  0  0  0  0  0  0  0  0
  -26.6640    4.8366   28.6910 N   0  0  0  0  0  0  0  0  0  0  0  0
  -25.4774    5.4001   28.0500 C   0  0  0  0  0  0  0  0  0  0  0  0
  -27.8864    5.1917   27.7773 C   0  0  0  0  0  0  0  0  0  0  0  0
  -25.5110    6.1097   26.9300 C   0  0  0  0  0  0  0  0  0  0  0  0
  -24.2095    6.6520   26.5466 C   0  0  0  0  0  0  0  0  0  0  0  0
  -27.8194    6.1630   26.8367 C   0  0  0  0  0  0  0  0  0  0  0  0
  -26.6630    6.6222   26.4019 C   0  0  0  0  0  0  0  0  0  0  0  0
  -23.9932    7.7451   26.4421 O   0  0  0  0  0  0  0  0  0  0  0  0
  -23.5566    5.7702   25.6414 O   0  0  0  0  0  0  0  0  0  0  0  0
  -24.7501    3.5384   30.7889 O   0  0  0  0  0  0  0  0  0  0  0  0
  5  7  1  0
  2  8  1  0
  4 14  1  0
 13 15  1  0
 15 16  1  0
 16 17  1  0
 17 18  2  0
 17 19  1  0
 19 20  1  0
 19 21  1  0
 22 23  1  0
 22 25  1  0
 24 25  1  0
 23 26  2  0
 23 27  1  0
 16 28  2  0
 20 22  1  0
 24 21  1  0
  1  2  2  0
  2  3  1  0
  3  4  2  0
  4  5  1  0
  5  6  2  0
  6  1  1  0
  8  9  2  0
  9 10  1  0
 10 11  2  0
 11 12  1  0
 12 13  2  0
 13  8  1  0
M  END

$$$$
