No_120-gen_results/8p0m/2024-11-27-11-27-31/
     RDKit          3D

 26 28  0  0  0  0  0  0  0  0999 V2000
  -28.0162   -0.8135   28.8779 C   0  0  0  0  0  0  0  0  0  0  0  0
  -27.0636   -0.1189   28.6079 C   0  0  0  0  0  0  0  0  0  0  0  0
  -25.7923   -0.4302   29.0761 C   0  0  0  0  0  0  0  0  0  0  0  0
  -25.5756   -1.5654   29.9363 C   0  0  0  0  0  0  0  0  0  0  0  0
  -26.7354   -2.3004   30.2173 C   0  0  0  0  0  0  0  0  0  0  0  0
  -27.9184   -1.9537   29.7629 C   0  0  0  0  0  0  0  0  0  0  0  0
  -27.1463    1.2916   27.6407 Cl  0  0  0  0  0  0  0  0  0  0  0  0
  -29.0010   -2.7139   30.1143 O   0  0  0  0  0  0  0  0  0  0  0  0
  -24.5176    0.3583   28.7657 C   0  0  0  0  0  0  0  0  0  0  0  0
  -24.2646    1.4730   29.5639 C   0  0  0  0  0  0  0  0  0  0  0  0
  -23.4168    2.1655   29.5313 C   0  0  0  0  0  0  0  0  0  0  0  0
  -22.5076    2.0877   28.3388 C   0  0  0  0  0  0  0  0  0  0  0  0
  -22.7659    1.1183   27.3934 C   0  0  0  0  0  0  0  0  0  0  0  0
  -23.7781    0.2463   27.6218 C   0  0  0  0  0  0  0  0  0  0  0  0
  -28.8885   -3.9728   30.6469 C   0  0  0  0  0  0  0  0  0  0  0  0
  -30.0827   -4.7232   30.4995 C   0  0  0  0  0  0  0  0  0  0  0  0
  -31.0715   -4.2019   30.9338 O   0  0  0  0  0  0  0  0  0  0  0  0
  -30.0390   -6.0094   30.3080 O   0  0  0  0  0  0  0  0  0  0  0  0
  -24.2584   -1.8665   30.3945 C   0  0  0  0  0  0  0  0  0  0  0  0
  -29.3634   -0.5800   28.6232 O   0  0  0  0  0  0  0  0  0  0  0  0
  -29.6786    0.3778   27.7482 C   0  0  0  0  0  0  0  0  0  0  0  0
  -30.7023    1.2002   28.4455 C   0  0  0  0  0  0  0  0  0  0  0  0
  -31.0269    2.3115   27.8168 C   0  0  0  0  0  0  0  0  0  0  0  0
  -30.6652    2.4461   26.4825 C   0  0  0  0  0  0  0  0  0  0  0  0
  -29.7447    1.6591   25.8506 C   0  0  0  0  0  0  0  0  0  0  0  0
  -29.2543    0.6200   26.5790 C   0  0  0  0  0  0  0  0  0  0  0  0
  2  7  1  0
  6  8  1  0
  3  9  1  0
  8 15  1  0
 15 16  1  0
 16 17  2  0
 16 18  1  0
  4 19  1  0
  1 20  1  0
 20 21  1  0
  1  2  2  0
  2  3  1  0
  3  4  2  0
  4  5  1  0
  5  6  2  0
  6  1  1  0
  9 10  2  0
 10 11  1  0
 11 12  2  0
 12 13  1  0
 13 14  2  0
 14  9  1  0
 21 22  2  0
 22 23  1  0
 23 24  2  0
 24 25  1  0
 25 26  2  0
 26 21  1  0
M  END

$$$$
