No_1487-gen_results/8p0m/2024-11-27-11-27-31/
     RDKit          3D

 20 22  0  0  0  0  0  0  0  0999 V2000
  -28.1493   -0.8198   28.9079 Cl  0  0  0  0  0  0  0  0  0  0  0  0
  -27.8339    0.4961   29.0598 C   0  0  0  0  0  0  0  0  0  0  0  0
  -27.6022    1.0128   30.2974 C   0  0  0  0  0  0  0  0  0  0  0  0
  -27.1699    2.3964   30.5338 C   0  0  0  0  0  0  0  0  0  0  0  0
  -26.9133    3.1828   29.3680 C   0  0  0  0  0  0  0  0  0  0  0  0
  -27.0551    2.6221   28.1384 C   0  0  0  0  0  0  0  0  0  0  0  0
  -27.4622    1.3345   27.9669 C   0  0  0  0  0  0  0  0  0  0  0  0
  -27.5746    0.8563   26.5913 C   0  0  0  0  0  0  0  0  0  0  0  0
  -28.5677    1.0198   25.7705 C   0  0  0  0  0  0  0  0  0  0  0  0
  -28.6457    0.4277   24.5141 C   0  0  0  0  0  0  0  0  0  0  0  0
  -27.5536   -0.3787   24.0588 C   0  0  0  0  0  0  0  0  0  0  0  0
  -26.4423   -0.5098   24.8782 C   0  0  0  0  0  0  0  0  0  0  0  0
  -26.4212    0.0236   26.1609 C   0  0  0  0  0  0  0  0  0  0  0  0
  -25.3275   -0.2100   26.9619 N   0  0  0  0  0  0  0  0  0  0  0  0
  -25.0327   -1.0045   27.8493 C   0  0  0  0  0  0  0  0  0  0  0  0
  -23.8774   -1.0446   28.6193 C   0  0  0  0  0  0  0  0  0  0  0  0
  -24.1960    0.7589   26.8383 C   0  0  0  0  0  0  0  0  0  0  0  0
  -23.1600    0.8283   27.5540 N   0  0  0  0  0  0  0  0  0  0  0  0
  -22.9532   -0.0429   28.4962 C   0  0  0  0  0  0  0  0  0  0  0  0
  -26.7021    3.5661   27.0262 C   0  0  0  0  0  0  0  0  0  0  0  0
  1  2  1  0
  7  8  1  0
 13 14  1  0
 14 15  1  0
 14 17  1  0
 17 18  1  0
 16 19  1  0
  6 20  1  0
 15 16  1  0
 19 18  1  0
  2  3  2  0
  3  4  1  0
  4  5  2  0
  5  6  1  0
  6  7  2  0
  7  2  1  0
  8  9  2  0
  9 10  1  0
 10 11  2  0
 11 12  1  0
 12 13  2  0
 13  8  1  0
M  END

$$$$
