No_1228-gen_results/8p0m/2024-11-27-11-27-31/
     RDKit          3D

 22 23  0  0  0  0  0  0  0  0999 V2000
  -28.1493   -0.8198   28.9079 Cl  0  0  0  0  0  0  0  0  0  0  0  0
  -26.9116   -0.0797   28.9452 C   0  0  0  0  0  0  0  0  0  0  0  0
  -26.0490   -0.0718   27.8591 C   0  0  0  0  0  0  0  0  0  0  0  0
  -24.6574   -0.0370   27.9638 C   0  0  0  0  0  0  0  0  0  0  0  0
  -24.0330    0.3795   29.2055 C   0  0  0  0  0  0  0  0  0  0  0  0
  -24.8800    0.4305   30.3096 C   0  0  0  0  0  0  0  0  0  0  0  0
  -26.1988    0.1664   30.1892 C   0  0  0  0  0  0  0  0  0  0  0  0
  -22.6193    0.6104   29.2241 C   0  0  0  0  0  0  0  0  0  0  0  0
  -21.8928    1.3250   28.8048 O   0  0  0  0  0  0  0  0  0  0  0  0
  -21.9872   -0.2110   30.1915 O   0  0  0  0  0  0  0  0  0  0  0  0
  -27.0307    0.2100   31.4661 C   0  0  0  0  0  0  0  0  0  0  0  0
  -27.0604   -0.8013   32.1726 C   0  0  0  0  0  0  0  0  0  0  0  0
  -27.8968   -0.8293   33.3842 C   0  0  0  0  0  0  0  0  0  0  0  0
  -28.5971   -0.0768   33.5315 C   0  0  0  0  0  0  0  0  0  0  0  0
  -27.8899    1.2733   31.6574 C   0  0  0  0  0  0  0  0  0  0  0  0
  -28.6954    1.2236   32.7824 C   0  0  0  0  0  0  0  0  0  0  0  0
  -27.8927    2.4797   30.8629 C   0  0  0  0  0  0  0  0  0  0  0  0
  -28.1636    3.6407   31.4453 C   0  0  0  0  0  0  0  0  0  0  0  0
  -27.2403    4.7132   31.4811 C   0  0  0  0  0  0  0  0  0  0  0  0
  -27.4197    5.8692   32.2696 C   0  0  0  0  0  0  0  0  0  0  0  0
  -26.0538    4.6551   30.6576 C   0  0  0  0  0  0  0  0  0  0  0  0
  -25.2074    5.5645   30.6998 O   0  0  0  0  0  0  0  0  0  0  0  0
  1  2  1  0
  5  8  1  0
  8  9  2  0
  8 10  1  0
  7 11  1  0
 15 17  1  0
 17 18  2  3
 18 19  1  0
 19 20  1  0
 19 21  1  0
 21 22  2  0
  2  3  2  0
  3  4  1  0
  4  5  2  0
  5  6  1  0
  6  7  2  0
  7  2  1  0
 11 12  2  0
 12 13  1  0
 13 14  2  0
 14 16  1  0
 16 15  2  0
 15 11  1  0
M  END

$$$$
