No_1034-gen_results/8p0m/2024-11-27-11-27-31/
     RDKit          3D

 22 24  0  0  0  0  0  0  0  0999 V2000
  -28.0162   -0.8135   28.8779 C   0  0  0  0  0  0  0  0  0  0  0  0
  -28.4690   -0.7850   29.8287 C   0  0  0  0  0  0  0  0  0  0  0  0
  -27.0871    0.2903   28.6377 C   0  0  0  0  0  0  0  0  0  0  0  0
  -26.8317    1.2487   29.5869 C   0  0  0  0  0  0  0  0  0  0  0  0
  -28.3914    0.0801   31.0065 C   0  0  0  0  0  0  0  0  0  0  0  0
  -27.4940    1.1521   30.7841 C   0  0  0  0  0  0  0  0  0  0  0  0
  -26.2596    0.6039   27.4149 C   0  0  0  0  0  0  0  0  0  0  0  0
  -25.1967    1.0461   27.3445 C   0  0  0  0  0  0  0  0  0  0  0  0
  -24.8438    2.0437   28.4640 C   0  0  0  0  0  0  0  0  0  0  0  0
  -25.5969    2.0134   29.6123 C   0  0  0  0  0  0  0  0  0  0  0  0
  -23.7254    2.7990   28.2392 O   0  0  0  0  0  0  0  0  0  0  0  0
  -29.4995   -1.8375   30.0996 O   0  0  0  0  0  0  0  0  0  0  0  0
  -30.6920   -1.5866   30.1500 C   0  0  0  0  0  0  0  0  0  0  0  0
  -31.2977   -0.9709   29.4015 C   0  0  0  0  0  0  0  0  0  0  0  0
  -32.7115   -0.8212   29.4179 C   0  0  0  0  0  0  0  0  0  0  0  0
  -31.4202   -2.2848   31.2224 C   0  0  0  0  0  0  0  0  0  0  0  0
  -32.7698   -2.1918   31.3589 C   0  0  0  0  0  0  0  0  0  0  0  0
  -33.4190   -1.4080   30.4062 C   0  0  0  0  0  0  0  0  0  0  0  0
  -35.1212   -1.2048   30.4536 Cl  0  0  0  0  0  0  0  0  0  0  0  0
  -25.2062    2.9334   30.7040 C   0  0  0  0  0  0  0  0  0  0  0  0
  -24.9259    2.1652   31.6672 F   0  0  0  0  0  0  0  0  0  0  0  0
  -25.1934    4.0448   30.7443 F   0  0  0  0  0  0  0  0  0  0  0  0
  9 11  1  0
  2 12  1  0
 12 13  1  0
 18 19  1  0
 10 20  1  0
 20 21  1  0
 20 22  1  0
  4 10  2  0
 10  9  1  0
  9  8  2  0
  8  7  1  0
  7  3  2  0
 13 14  2  0
 14 15  1  0
 15 18  2  0
 18 17  1  0
 17 16  2  0
 16 13  1  0
  1  2  2  0
  2  5  1  0
  5  6  2  0
  6  4  1  0
  4  3  1  0
  3  1  1  0
M  END

$$$$
