No_1251-gen_results/8p0m/2024-11-27-11-27-31/
     RDKit          3D

 35 38  0  0  0  0  0  0  0  0999 V2000
  -28.0727   -1.2542   28.5316 F   0  0  0  0  0  0  0  0  0  0  0  0
  -27.0607   -0.6291   28.8721 C   0  0  0  0  0  0  0  0  0  0  0  0
  -27.1759    0.6153   29.3693 C   0  0  0  0  0  0  0  0  0  0  0  0
  -25.7305   -1.2692   28.7241 C   0  0  0  0  0  0  0  0  0  0  0  0
  -24.5526   -0.5078   29.0132 C   0  0  0  0  0  0  0  0  0  0  0  0
  -25.9465    1.3753   29.6814 C   0  0  0  0  0  0  0  0  0  0  0  0
  -24.6746    0.8198   29.5066 C   0  0  0  0  0  0  0  0  0  0  0  0
  -23.3848    1.3315   29.8426 C   0  0  0  0  0  0  0  0  0  0  0  0
  -22.4904    1.5272   29.0536 N   0  0  0  0  0  0  0  0  0  0  0  0
  -22.7185    1.9542   27.8005 C   0  0  0  0  0  0  0  0  0  0  0  0
  -23.0074    1.2389   26.9104 C   0  0  0  0  0  0  0  0  0  0  0  0
  -23.4254    1.8848   25.6510 C   0  0  0  0  0  0  0  0  0  0  0  0
  -24.0771    2.5957   25.3117 C   0  0  0  0  0  0  0  0  0  0  0  0
  -24.2154    3.6966   26.4704 C   0  0  0  0  0  0  0  0  0  0  0  0
  -23.5320    3.3034   27.7202 C   0  0  0  0  0  0  0  0  0  0  0  0
  -23.3151    1.7735   31.1154 O   0  0  0  0  0  0  0  0  0  0  0  0
  -26.0999    2.7884   30.1748 C   0  0  0  0  0  0  0  0  0  0  0  0
  -25.5640    3.3257   30.8872 O   0  0  0  0  0  0  0  0  0  0  0  0
  -26.9852    3.5533   29.2812 N   0  0  0  0  0  0  0  0  0  0  0  0
  -27.2210    4.9486   29.5417 C   0  0  0  0  0  0  0  0  0  0  0  0
  -27.6395    5.5651   28.4666 C   0  0  0  0  0  0  0  0  0  0  0  0
  -27.2619    6.8591   28.2408 C   0  0  0  0  0  0  0  0  0  0  0  0
  -26.7036    7.7285   29.2928 C   0  0  0  0  0  0  0  0  0  0  0  0
  -26.2723    6.9491   30.4465 C   0  0  0  0  0  0  0  0  0  0  0  0
  -26.4133    5.6235   30.5104 C   0  0  0  0  0  0  0  0  0  0  0  0
  -25.5635    7.6747   31.4166 N   0  0  0  0  0  0  0  0  0  0  0  0
  -25.1255    8.8108   31.3767 C   0  0  0  0  0  0  0  0  0  0  0  0
  -25.2659    6.9423   32.6733 C   0  0  0  0  0  0  0  0  0  0  0  0
  -24.1285    7.0784   33.1622 C   0  0  0  0  0  0  0  0  0  0  0  0
  -23.8903    9.2331   32.1327 C   0  0  0  0  0  0  0  0  0  0  0  0
  -23.4397    8.3584   33.1441 C   0  0  0  0  0  0  0  0  0  0  0  0
  -22.2605    8.6515   33.9504 C   0  0  0  0  0  0  0  0  0  0  0  0
  -21.1019    8.6854   33.3281 C   0  0  0  0  0  0  0  0  0  0  0  0
  -20.4473    9.8476   33.3319 C   0  0  0  0  0  0  0  0  0  0  0  0
  -19.8129   10.2108   34.4300 C   0  0  0  0  0  0  0  0  0  0  0  0
  1  2  1  0
  7  8  1  0
  8  9  1  0
  9 10  1  0
  8 16  2  0
  6 17  1  0
 17 18  2  0
 17 19  1  0
 19 20  1  0
 24 26  1  0
 26 27  1  0
 26 28  1  0
 29 31  1  0
 30 31  1  0
 31 32  1  0
 32 33  1  0
 33 34  1  0
 34 35  1  0
 27 30  1  0
 29 28  1  0
  2  3  2  0
  3  6  1  0
  6  7  2  0
  7  5  1  0
  5  4  2  0
  4  2  1  0
 10 11  2  0
 11 12  1  0
 12 13  2  0
 13 14  1  0
 14 15  2  0
 15 10  1  0
 20 21  2  0
 21 22  1  0
 22 23  2  0
 23 24  1  0
 24 25  2  0
 25 20  1  0
M  END

$$$$
