No_15-gen_results/8p0m/2024-11-27-11-27-31/
     RDKit          3D

 22 24  0  0  0  0  0  0  0  0999 V2000
  -28.0162   -0.8135   28.8779 C   0  0  0  0  0  0  0  0  0  0  0  0
  -27.0636   -0.1190   28.6079 C   0  0  0  0  0  0  0  0  0  0  0  0
  -25.7647   -0.3897   29.0360 C   0  0  0  0  0  0  0  0  0  0  0  0
  -25.5296   -1.5302   29.9014 C   0  0  0  0  0  0  0  0  0  0  0  0
  -26.6577   -2.2915   30.2035 C   0  0  0  0  0  0  0  0  0  0  0  0
  -27.8548   -1.9555   29.7630 C   0  0  0  0  0  0  0  0  0  0  0  0
  -24.5349    0.4128   28.7431 C   0  0  0  0  0  0  0  0  0  0  0  0
  -23.3062    0.0366   29.0393 C   0  0  0  0  0  0  0  0  0  0  0  0
  -22.1759    0.8277   28.6836 C   0  0  0  0  0  0  0  0  0  0  0  0
  -22.3552    1.8290   27.6875 C   0  0  0  0  0  0  0  0  0  0  0  0
  -24.5941    1.4954   27.7678 C   0  0  0  0  0  0  0  0  0  0  0  0
  -23.5500    2.1700   27.3300 C   0  0  0  0  0  0  0  0  0  0  0  0
  -29.0227   -2.7733   30.1850 C   0  0  0  0  0  0  0  0  0  0  0  0
  -28.9379   -4.0148   30.2623 O   0  0  0  0  0  0  0  0  0  0  0  0
  -29.9363   -2.2248   30.9172 O   0  0  0  0  0  0  0  0  0  0  0  0
  -23.7229    3.2216   26.4736 O   0  0  0  0  0  0  0  0  0  0  0  0
  -24.3899    4.3223   26.8989 C   0  0  0  0  0  0  0  0  0  0  0  0
  -24.7996    4.4305   28.1571 C   0  0  0  0  0  0  0  0  0  0  0  0
  -25.5375    5.5856   28.5547 C   0  0  0  0  0  0  0  0  0  0  0  0
  -25.7368    6.5651   27.5783 C   0  0  0  0  0  0  0  0  0  0  0  0
  -25.1689    6.5425   26.3432 C   0  0  0  0  0  0  0  0  0  0  0  0
  -24.4448    5.4366   26.0036 C   0  0  0  0  0  0  0  0  0  0  0  0
  3  7  1  0
  6 13  1  0
 13 14  2  0
 13 15  1  0
 12 16  1  0
 16 17  1  0
  7  8  2  0
  8  9  1  0
  9 10  2  0
 10 12  1  0
 12 11  2  0
 11  7  1  0
  1  2  2  0
  2  3  1  0
  3  4  2  0
  4  5  1  0
  5  6  2  0
  6  1  1  0
 17 18  2  0
 18 19  1  0
 19 20  2  0
 20 21  1  0
 21 22  2  0
 22 17  1  0
M  END

$$$$
