No_1980-gen_results/8p0m/2024-11-27-11-27-31/
     RDKit          3D

 23 25  0  0  0  0  0  0  0  0999 V2000
  -28.0162   -0.8135   28.8779 C   0  0  0  0  0  0  0  0  0  0  0  0
  -27.0636   -0.1189   28.6079 C   0  0  0  0  0  0  0  0  0  0  0  0
  -25.7923   -0.4302   29.0761 C   0  0  0  0  0  0  0  0  0  0  0  0
  -24.5456    0.3494   28.8225 C   0  0  0  0  0  0  0  0  0  0  0  0
  -24.6586    1.4196   27.8878 C   0  0  0  0  0  0  0  0  0  0  0  0
  -25.9471    1.6811   27.3792 C   0  0  0  0  0  0  0  0  0  0  0  0
  -27.0439    0.9739   27.6871 C   0  0  0  0  0  0  0  0  0  0  0  0
  -28.0485   -1.5981   30.1629 C   0  0  0  0  0  0  0  0  0  0  0  0
  -26.7598   -2.0713   30.6119 C   0  0  0  0  0  0  0  0  0  0  0  0
  -25.6104   -1.4023   30.1708 C   0  0  0  0  0  0  0  0  0  0  0  0
  -28.2846    1.3373   26.9704 C   0  0  0  0  0  0  0  0  0  0  0  0
  -28.3008    1.9379   25.8677 C   0  0  0  0  0  0  0  0  0  0  0  0
  -27.1108    2.8165   25.5249 C   0  0  0  0  0  0  0  0  0  0  0  0
  -25.9058    2.6656   26.2615 C   0  0  0  0  0  0  0  0  0  0  0  0
  -23.5728    2.0539   27.5826 F   0  0  0  0  0  0  0  0  0  0  0  0
  -29.1244   -2.6698   30.2153 C   0  0  0  0  0  0  0  0  0  0  0  0
  -30.1906   -2.4006   30.0940 O   0  0  0  0  0  0  0  0  0  0  0  0
  -28.7540   -3.8371   30.7161 O   0  0  0  0  0  0  0  0  0  0  0  0
  -23.4303    0.0689   29.3724 F   0  0  0  0  0  0  0  0  0  0  0  0
  -29.4552    2.3010   25.1351 C   0  0  0  0  0  0  0  0  0  0  0  0
  -29.7336    3.4017   25.0392 F   0  0  0  0  0  0  0  0  0  0  0  0
  -29.2407    1.8184   23.8123 F   0  0  0  0  0  0  0  0  0  0  0  0
  -30.4996    1.5185   25.4606 F   0  0  0  0  0  0  0  0  0  0  0  0
  5 15  1  0
  8 16  1  0
 16 17  2  0
 16 18  1  0
  4 19  1  0
 12 20  1  0
 20 21  1  0
 20 22  1  0
 20 23  1  0
  3  4  1  0
  4  5  2  0
  5  6  1  0
  7  2  1  0
  1  2  2  0
  2  3  1  0
  3 10  2  0
 10  9  1  0
  9  8  2  0
  8  1  1  0
  6  7  2  0
  7 11  1  0
 11 12  2  0
 12 13  1  0
 13 14  2  0
 14  6  1  0
M  END

$$$$
