No_1115-gen_results/8p0m/2024-11-27-11-27-31/
     RDKit          3D

 28 31  0  0  0  0  0  0  0  0999 V2000
  -28.0162   -0.8135   28.8779 C   0  0  0  0  0  0  0  0  0  0  0  0
  -27.0636   -0.1190   28.6079 C   0  0  0  0  0  0  0  0  0  0  0  0
  -25.7923   -0.4302   29.0761 C   0  0  0  0  0  0  0  0  0  0  0  0
  -24.5456    0.3494   28.8225 C   0  0  0  0  0  0  0  0  0  0  0  0
  -23.2409    0.0217   29.3323 C   0  0  0  0  0  0  0  0  0  0  0  0
  -27.8820   -1.8995   29.8633 C   0  0  0  0  0  0  0  0  0  0  0  0
  -26.6706   -2.3272   30.3212 C   0  0  0  0  0  0  0  0  0  0  0  0
  -25.5433   -1.5852   29.9316 C   0  0  0  0  0  0  0  0  0  0  0  0
  -22.1918    0.8302   29.0004 C   0  0  0  0  0  0  0  0  0  0  0  0
  -22.1472    1.7783   28.0287 C   0  0  0  0  0  0  0  0  0  0  0  0
  -24.5322    1.3987   27.8163 C   0  0  0  0  0  0  0  0  0  0  0  0
  -23.3620    2.0694   27.4607 C   0  0  0  0  0  0  0  0  0  0  0  0
  -28.9712   -2.6522   30.2404 O   0  0  0  0  0  0  0  0  0  0  0  0
  -30.0835   -2.0856   30.6623 C   0  0  0  0  0  0  0  0  0  0  0  0
  -30.2056   -1.1089   31.1439 C   0  0  0  0  0  0  0  0  0  0  0  0
  -30.7243   -0.3575   31.5757 C   0  0  0  0  0  0  0  0  0  0  0  0
  -30.8687    0.8197   32.0048 C   0  0  0  0  0  0  0  0  0  0  0  0
  -29.6154    1.4878   32.0708 C   0  0  0  0  0  0  0  0  0  0  0  0
  -28.5119    0.8366   31.6455 C   0  0  0  0  0  0  0  0  0  0  0  0
  -28.6525   -0.4446   31.2437 C   0  0  0  0  0  0  0  0  0  0  0  0
  -28.1659   -0.9657   32.6049 O   0  0  0  0  0  0  0  0  0  0  0  0
  -27.2093    1.5823   31.6520 C   0  0  0  0  0  0  0  0  0  0  0  0
  -27.0421    2.7358   30.8843 C   0  0  0  0  0  0  0  0  0  0  0  0
  -28.0001    3.3853   30.3004 C   0  0  0  0  0  0  0  0  0  0  0  0
  -27.7330    4.4794   29.4370 C   0  0  0  0  0  0  0  0  0  0  0  0
  -26.3932    4.8568   29.3049 C   0  0  0  0  0  0  0  0  0  0  0  0
  -25.3516    4.1749   29.9036 C   0  0  0  0  0  0  0  0  0  0  0  0
  -25.6531    3.0902   30.7090 C   0  0  0  0  0  0  0  0  0  0  0  0
  3  4  1  0
  6 13  1  0
 13 14  1  0
 20 21  1  0
 19 22  1  0
 22 23  1  0
 14 15  1  0
 15 16  2  0
 16 17  1  0
 17 18  2  0
 18 19  1  0
 19 20  2  0
 20 15  1  0
 23 24  2  0
 24 25  1  0
 25 26  2  0
 26 27  1  0
 27 28  2  0
 28 23  1  0
  1  2  2  0
  2  3  1  0
  3  8  2  0
  8  7  1  0
  7  6  2  0
  6  1  1  0
  4  5  2  0
  5  9  1  0
  9 10  2  0
 10 12  1  0
 12 11  2  0
 11  4  1  0
M  END

$$$$
