No_1970-gen_results/8p0m/2024-11-27-11-27-31/
     RDKit          3D

 35 37  0  0  0  0  0  0  0  0999 V2000
  -28.0162   -0.8135   28.8779 C   0  0  0  0  0  0  0  0  0  0  0  0
  -28.4690   -0.7850   29.8287 C   0  0  0  0  0  0  0  0  0  0  0  0
  -26.5042   -0.7777   28.8766 C   0  0  0  0  0  0  0  0  0  0  0  0
  -25.8103   -0.8531   30.1028 C   0  0  0  0  0  0  0  0  0  0  0  0
  -27.9906   -0.8916   31.2257 C   0  0  0  0  0  0  0  0  0  0  0  0
  -24.3976   -0.8364   30.1775 C   0  0  0  0  0  0  0  0  0  0  0  0
  -26.5754   -0.8899   31.2661 C   0  0  0  0  0  0  0  0  0  0  0  0
  -23.7964    0.4357   29.9090 C   0  0  0  0  0  0  0  0  0  0  0  0
  -23.2593    0.7531   28.7294 C   0  0  0  0  0  0  0  0  0  0  0  0
  -21.8836    0.5969   28.6350 C   0  0  0  0  0  0  0  0  0  0  0  0
  -23.8470    1.7698   27.9402 C   0  0  0  0  0  0  0  0  0  0  0  0
  -25.1230    2.2797   28.1559 C   0  0  0  0  0  0  0  0  0  0  0  0
  -25.6606    3.2241   27.3025 C   0  0  0  0  0  0  0  0  0  0  0  0
  -24.9937    3.4846   26.1195 C   0  0  0  0  0  0  0  0  0  0  0  0
  -23.7740    2.9543   25.8018 C   0  0  0  0  0  0  0  0  0  0  0  0
  -23.1367    2.1068   26.6799 C   0  0  0  0  0  0  0  0  0  0  0  0
  -25.8156   -0.7572   27.7812 F   0  0  0  0  0  0  0  0  0  0  0  0
  -23.8938    1.3556   31.0571 C   0  0  0  0  0  0  0  0  0  0  0  0
  -30.0961   -0.7421   29.8153 C   0  0  0  0  0  0  0  0  0  0  0  0
  -30.3700   -0.5119   28.7528 F   0  0  0  0  0  0  0  0  0  0  0  0
  -30.4850    0.2207   30.6645 F   0  0  0  0  0  0  0  0  0  0  0  0
  -30.5769   -1.8966   30.2373 F   0  0  0  0  0  0  0  0  0  0  0  0
  -26.9946    3.7979   27.5417 C   0  0  0  0  0  0  0  0  0  0  0  0
  -27.1131    4.8137   28.0315 O   0  0  0  0  0  0  0  0  0  0  0  0
  -27.9292    2.8590   27.6131 O   0  0  0  0  0  0  0  0  0  0  0  0
  -23.4726    2.5738   30.9207 O   0  0  0  0  0  0  0  0  0  0  0  0
  -24.3597    0.9939   32.1566 O   0  0  0  0  0  0  0  0  0  0  0  0
  -29.2846    3.3004   27.3480 C   0  0  0  0  0  0  0  0  0  0  0  0
  -30.0297    2.2129   26.8500 C   0  0  0  0  0  0  0  0  0  0  0  0
  -30.6175    2.4824   25.6422 C   0  0  0  0  0  0  0  0  0  0  0  0
  -30.9623    3.7402   25.5347 C   0  0  0  0  0  0  0  0  0  0  0  0
  -30.8375    4.5420   26.3796 C   0  0  0  0  0  0  0  0  0  0  0  0
  -29.7478    4.5036   27.3953 C   0  0  0  0  0  0  0  0  0  0  0  0
  -31.2079    1.4068   24.8570 C   0  0  0  0  0  0  0  0  0  0  0  0
  -30.5488    0.2184   24.9956 C   0  0  0  0  0  0  0  0  0  0  0  0
  4  6  1  0
  6  8  1  0
  8  9  1  0
  9 10  2  0
  9 11  1  0
  3 17  1  0
  8 18  1  0
  2 19  1  0
 19 20  1  0
 19 21  1  0
 19 22  1  0
 13 23  1  0
 23 24  2  0
 23 25  1  0
 18 26  1  0
 18 27  2  0
 25 28  1  0
 30 34  1  0
 34 35  1  0
 28 29  2  0
 29 30  1  0
 30 31  2  0
 31 32  1  0
 32 33  2  0
 33 28  1  0
 11 12  2  0
 12 13  1  0
 13 14  2  0
 14 15  1  0
 15 16  2  0
 16 11  1  0
  1  2  2  0
  2  5  1  0
  5  7  2  0
  7  4  1  0
  4  3  2  0
  3  1  1  0
M  END

$$$$
