No_1883-gen_results/8p0m/2024-11-27-11-27-31/
     RDKit          3D

 13 14  0  0  0  0  0  0  0  0999 V2000
  -28.0162   -0.8135   28.8779 C   0  0  0  0  0  0  0  0  0  0  0  0
  -27.0636   -0.1189   28.6079 C   0  0  0  0  0  0  0  0  0  0  0  0
  -25.7923   -0.4302   29.0761 C   0  0  0  0  0  0  0  0  0  0  0  0
  -25.5756   -1.5654   29.9363 C   0  0  0  0  0  0  0  0  0  0  0  0
  -26.7354   -2.3004   30.2173 C   0  0  0  0  0  0  0  0  0  0  0  0
  -27.9184   -1.9537   29.7629 C   0  0  0  0  0  0  0  0  0  0  0  0
  -28.9649   -2.6957   30.0722 F   0  0  0  0  0  0  0  0  0  0  0  0
  -24.5349    0.3596   28.8024 C   0  0  0  0  0  0  0  0  0  0  0  0
  -24.4932    1.2316   27.8004 C   0  0  0  0  0  0  0  0  0  0  0  0
  -23.2909    1.8321   27.4225 C   0  0  0  0  0  0  0  0  0  0  0  0
  -22.0581    1.5405   28.1084 C   0  0  0  0  0  0  0  0  0  0  0  0
  -23.2973   -0.0083   29.4266 C   0  0  0  0  0  0  0  0  0  0  0  0
  -22.0820    0.6586   29.0930 C   0  0  0  0  0  0  0  0  0  0  0  0
  6  7  1  0
  3  8  1  0
  1  2  2  0
  2  3  1  0
  3  4  2  0
  4  5  1  0
  5  6  2  0
  6  1  1  0
  8  9  2  0
  9 10  1  0
 10 11  2  0
 11 13  1  0
 13 12  2  0
 12  8  1  0
M  END

$$$$
