No_1116-gen_results/8p0m/2024-11-27-11-27-31/
     RDKit          3D

 19 21  0  0  0  0  0  0  0  0999 V2000
  -28.0544   -1.0498   28.7246 N   0  0  0  0  0  0  0  0  0  0  0  0
  -27.7460   -0.0733   29.0098 C   0  0  0  0  0  0  0  0  0  0  0  0
  -27.1737    0.7565   28.1070 C   0  0  0  0  0  0  0  0  0  0  0  0
  -25.8200    1.2606   28.2149 C   0  0  0  0  0  0  0  0  0  0  0  0
  -24.8932    0.8354   27.3882 C   0  0  0  0  0  0  0  0  0  0  0  0
  -23.5082    1.0340   27.6366 C   0  0  0  0  0  0  0  0  0  0  0  0
  -22.6797    1.5411   26.8130 C   0  0  0  0  0  0  0  0  0  0  0  0
  -22.9515    0.5505   28.9201 C   0  0  0  0  0  0  0  0  0  0  0  0
  -23.1236    2.2734   25.7970 N   0  0  0  0  0  0  0  0  0  0  0  0
  -21.3509    1.7574   27.1412 N   0  0  0  0  0  0  0  0  0  0  0  0
  -23.8529   -0.0364   29.8685 C   0  0  0  0  0  0  0  0  0  0  0  0
  -23.4401   -0.5833   30.9239 C   0  0  0  0  0  0  0  0  0  0  0  0
  -24.3292   -1.3647   31.6395 C   0  0  0  0  0  0  0  0  0  0  0  0
  -25.6585   -1.4498   31.2069 C   0  0  0  0  0  0  0  0  0  0  0  0
  -26.0010   -1.0720   29.9863 C   0  0  0  0  0  0  0  0  0  0  0  0
  -25.0313   -0.3832   29.2925 C   0  0  0  0  0  0  0  0  0  0  0  0
  -25.4093   -0.1383   28.1065 C   0  0  0  0  0  0  0  0  0  0  0  0
  -27.2973   -1.1360   29.6501 C   0  0  0  0  0  0  0  0  0  0  0  0
  -25.6672   -1.0382   27.0294 C   0  0  0  0  0  0  0  0  0  0  0  0
  1  2  1  0
  2  3  1  0
  3  4  1  0
  4  5  2  3
  5  6  1  0
  6  7  1  0
  6  8  1  0
  7  9  2  0
  7 10  1  0
  8 11  1  0
  5 17  1  0
 16 17  1  0
  1 18  1  0
 15 18  1  0
 17 19  1  0
 11 12  2  0
 12 13  1  0
 13 14  2  0
 14 15  1  0
 15 16  2  0
 16 11  1  0
M  END

$$$$
