No_1792-gen_results/8p0m/2024-11-27-11-27-31/
     RDKit          3D

 24 24  0  0  0  0  0  0  0  0999 V2000
  -28.0162   -0.8135   28.8779 C   0  0  0  0  0  0  0  0  0  0  0  0
  -27.0636   -0.1190   28.6079 C   0  0  0  0  0  0  0  0  0  0  0  0
  -26.9716    0.7139   27.5060 C   0  0  0  0  0  0  0  0  0  0  0  0
  -28.1053    0.7744   26.6421 C   0  0  0  0  0  0  0  0  0  0  0  0
  -29.2041    0.1179   27.0477 C   0  0  0  0  0  0  0  0  0  0  0  0
  -29.2127   -0.6088   28.1281 C   0  0  0  0  0  0  0  0  0  0  0  0
  -30.3709    0.2326   26.1381 C   0  0  0  0  0  0  0  0  0  0  0  0
  -30.3086    0.1051   24.9412 O   0  0  0  0  0  0  0  0  0  0  0  0
  -31.5786    0.2663   26.6747 O   0  0  0  0  0  0  0  0  0  0  0  0
  -25.8176    1.3560   27.1642 F   0  0  0  0  0  0  0  0  0  0  0  0
  -28.0237   -1.6561   30.1522 C   0  0  0  0  0  0  0  0  0  0  0  0
  -28.7305   -1.6904   30.9529 O   0  0  0  0  0  0  0  0  0  0  0  0
  -27.0947   -2.7348   29.9883 O   0  0  0  0  0  0  0  0  0  0  0  0
  -27.5002   -4.0082   30.1111 C   0  0  0  0  0  0  0  0  0  0  0  0
  -28.0002    1.5522   25.5937 F   0  0  0  0  0  0  0  0  0  0  0  0
  -28.8952   -4.2978   30.3664 C   0  0  0  0  0  0  0  0  0  0  0  0
  -29.1041   -4.8496   31.2248 O   0  0  0  0  0  0  0  0  0  0  0  0
  -29.5961   -4.4485   29.2199 O   0  0  0  0  0  0  0  0  0  0  0  0
  -30.7132   -5.2830   29.3045 C   0  0  0  0  0  0  0  0  0  0  0  0
  -31.2383   -5.5054   27.9485 C   0  0  0  0  0  0  0  0  0  0  0  0
  -31.4877   -4.5195   27.2622 O   0  0  0  0  0  0  0  0  0  0  0  0
  -32.6681   -4.4172   26.4745 C   0  0  0  0  0  0  0  0  0  0  0  0
  -32.8985   -3.0850   25.9201 C   0  0  0  0  0  0  0  0  0  0  0  0
  -33.8207   -2.9788   25.0525 O   0  0  0  0  0  0  0  0  0  0  0  0
  5  7  1  0
  7  8  2  0
  7  9  1  0
  3 10  1  0
  1 11  1  0
 11 12  2  0
 11 13  1  0
 13 14  1  0
  4 15  1  0
 14 16  1  0
 16 17  2  0
 16 18  1  0
 18 19  1  0
 19 20  1  0
 20 21  1  0
 21 22  1  0
 22 23  1  0
 23 24  2  0
  1  2  2  0
  2  3  1  0
  3  4  2  0
  4  5  1  0
  5  6  2  0
  6  1  1  0
M  END

$$$$
