No_1117-gen_results/8p0m/2024-11-27-11-27-31/
     RDKit          3D

 32 34  0  0  0  0  0  0  0  0999 V2000
  -28.0162   -0.8135   28.8779 C   0  0  0  0  0  0  0  0  0  0  0  0
  -27.0636   -0.1190   28.6079 C   0  0  0  0  0  0  0  0  0  0  0  0
  -26.9716    0.7139   27.5060 C   0  0  0  0  0  0  0  0  0  0  0  0
  -25.8205    1.4909   27.1160 C   0  0  0  0  0  0  0  0  0  0  0  0
  -24.6562    1.4242   27.9180 C   0  0  0  0  0  0  0  0  0  0  0  0
  -24.6847    0.5901   29.0659 C   0  0  0  0  0  0  0  0  0  0  0  0
  -25.8099   -0.1266   29.3338 C   0  0  0  0  0  0  0  0  0  0  0  0
  -27.8765   -1.9963   29.2445 F   0  0  0  0  0  0  0  0  0  0  0  0
  -29.1909   -0.4312   28.7403 F   0  0  0  0  0  0  0  0  0  0  0  0
  -23.6144    2.1391   27.6536 F   0  0  0  0  0  0  0  0  0  0  0  0
  -23.4244    0.5232   29.8692 C   0  0  0  0  0  0  0  0  0  0  0  0
  -22.6779   -0.6737   29.8356 C   0  0  0  0  0  0  0  0  0  0  0  0
  -23.8072    0.7250   31.2530 O   0  0  0  0  0  0  0  0  0  0  0  0
  -24.4388    1.9489   31.5523 C   0  0  0  0  0  0  0  0  0  0  0  0
  -22.8321   -1.6561   30.5043 O   0  0  0  0  0  0  0  0  0  0  0  0
  -21.7365   -0.7255   28.8654 O   0  0  0  0  0  0  0  0  0  0  0  0
  -25.5862    1.8451   32.4969 C   0  0  0  0  0  0  0  0  0  0  0  0
  -26.5401    2.4099   32.0736 C   0  0  0  0  0  0  0  0  0  0  0  0
  -27.8575    2.2316   32.7382 C   0  0  0  0  0  0  0  0  0  0  0  0
  -27.8700    1.3990   33.8786 C   0  0  0  0  0  0  0  0  0  0  0  0
  -26.7273    0.7402   34.2728 C   0  0  0  0  0  0  0  0  0  0  0  0
  -25.5698    0.8918   33.5424 C   0  0  0  0  0  0  0  0  0  0  0  0
  -26.7139    3.3641   30.9253 C   0  0  0  0  0  0  0  0  0  0  0  0
  -27.8668    3.6693   30.3022 C   0  0  0  0  0  0  0  0  0  0  0  0
  -25.8515    4.5528   31.1097 C   0  0  0  0  0  0  0  0  0  0  0  0
  -25.8416    5.5241   30.0795 C   0  0  0  0  0  0  0  0  0  0  0  0
  -27.8862    4.6209   29.2137 C   0  0  0  0  0  0  0  0  0  0  0  0
  -26.8852    5.5854   29.1862 C   0  0  0  0  0  0  0  0  0  0  0  0
  -26.9009    6.6385   28.1656 C   0  0  0  0  0  0  0  0  0  0  0  0
  -26.1160    7.4332   28.2342 O   0  0  0  0  0  0  0  0  0  0  0  0
  -27.7444    6.5492   27.2401 O   0  0  0  0  0  0  0  0  0  0  0  0
  -25.8836    2.4017   25.9872 C   0  0  0  0  0  0  0  0  0  0  0  0
  1  8  1  0
  1  9  1  0
  5 10  1  0
  6 11  1  0
 11 12  1  0
 11 13  1  0
 13 14  1  0
 12 15  1  0
 12 16  2  0
 14 17  1  0
 18 23  1  0
 28 29  1  0
 29 30  1  0
 29 31  2  0
  4 32  1  0
  1  2  1  0
 17 18  1  0
 18 19  2  0
 19 20  1  0
 20 21  2  0
 21 22  1  0
 22 17  2  0
  2  3  2  0
  3  4  1  0
  4  5  2  0
  5  6  1  0
  6  7  2  0
  7  2  1  0
 23 24  2  0
 24 27  1  0
 27 28  2  0
 28 26  1  0
 26 25  2  0
 25 23  1  0
M  END

$$$$
