No_1132-gen_results/8p0m/2024-11-27-11-27-31/
     RDKit          3D

 13 13  0  0  0  0  0  0  0  0999 V2000
  -28.0162   -0.8135   28.8779 C   0  0  0  0  0  0  0  0  0  0  0  0
  -28.4690   -0.7850   29.8287 C   0  0  0  0  0  0  0  0  0  0  0  0
  -26.5042   -0.7777   28.8766 C   0  0  0  0  0  0  0  0  0  0  0  0
  -25.6540   -0.6597   27.7191 C   0  0  0  0  0  0  0  0  0  0  0  0
  -27.9180   -0.9374   31.1824 C   0  0  0  0  0  0  0  0  0  0  0  0
  -26.5423   -0.9399   31.2606 C   0  0  0  0  0  0  0  0  0  0  0  0
  -25.7832   -0.8935   30.1201 C   0  0  0  0  0  0  0  0  0  0  0  0
  -24.5266    0.5319   27.6708 Br  0  0  0  0  0  0  0  0  0  0  0  0
  -29.9204   -0.8225   29.8766 O   0  0  0  0  0  0  0  0  0  0  0  0
  -30.6183    0.2557   30.2675 C   0  0  0  0  0  0  0  0  0  0  0  0
  -31.4703    0.6948   29.5072 C   0  0  0  0  0  0  0  0  0  0  0  0
  -32.2064    1.9156   29.8406 C   0  0  0  0  0  0  0  0  0  0  0  0
  -33.1408    2.5317   29.0143 C   0  0  0  0  0  0  0  0  0  0  0  0
  3  4  1  0
  4  8  1  0
  2  9  1  0
  9 10  1  0
 10 11  2  3
 11 12  1  0
 12 13  2  0
  1  2  2  0
  2  5  1  0
  5  6  2  0
  6  7  1  0
  7  3  2  0
  3  1  1  0
M  END

$$$$
