No_1907-gen_results/8p0m/2024-11-27-11-27-31/
     RDKit          3D

 20 21  0  0  0  0  0  0  0  0999 V2000
  -28.0162   -0.8135   28.8779 C   0  0  0  0  0  0  0  0  0  0  0  0
  -27.0636   -0.1190   28.6079 C   0  0  0  0  0  0  0  0  0  0  0  0
  -26.9716    0.7139   27.5060 C   0  0  0  0  0  0  0  0  0  0  0  0
  -28.1053    0.7744   26.6421 C   0  0  0  0  0  0  0  0  0  0  0  0
  -29.2008    0.1044   27.0527 C   0  0  0  0  0  0  0  0  0  0  0  0
  -29.2096   -0.6029   28.1853 C   0  0  0  0  0  0  0  0  0  0  0  0
  -30.3749    0.2232   26.1670 C   0  0  0  0  0  0  0  0  0  0  0  0
  -30.3266    0.0573   24.9664 O   0  0  0  0  0  0  0  0  0  0  0  0
  -31.5813    0.2914   26.7235 O   0  0  0  0  0  0  0  0  0  0  0  0
  -25.5105   -0.2285   29.5623 Cl  0  0  0  0  0  0  0  0  0  0  0  0
  -28.0370   -1.6974   30.1539 C   0  0  0  0  0  0  0  0  0  0  0  0
  -28.2630   -1.3151   31.1996 O   0  0  0  0  0  0  0  0  0  0  0  0
  -27.4832   -2.9002   30.0044 O   0  0  0  0  0  0  0  0  0  0  0  0
  -25.6747    1.4217   27.1325 C   0  0  0  0  0  0  0  0  0  0  0  0
  -24.6493    1.2301   27.3473 C   0  0  0  0  0  0  0  0  0  0  0  0
  -23.4643    2.1929   27.0489 C   0  0  0  0  0  0  0  0  0  0  0  0
  -22.2292    1.9468   27.5431 N   0  0  0  0  0  0  0  0  0  0  0  0
  -22.1488    0.7543   28.2647 C   0  0  0  0  0  0  0  0  0  0  0  0
  -22.9407   -0.1610   28.4800 C   0  0  0  0  0  0  0  0  0  0  0  0
  -24.1474    0.0552   28.0926 C   0  0  0  0  0  0  0  0  0  0  0  0
  5  7  1  0
  7  8  2  0
  7  9  1  0
  2 10  1  0
  1 11  1  0
 11 12  2  0
 11 13  1  0
  3 14  1  0
 14 15  1  0
 15 16  2  0
 16 17  1  0
 17 18  2  0
 18 19  1  0
 19 20  2  0
 20 15  1  0
  1  2  2  0
  2  3  1  0
  3  4  2  0
  4  5  1  0
  5  6  2  0
  6  1  1  0
M  END

$$$$
