No_1398-gen_results/8p0m/2024-11-27-11-27-31/
     RDKit          3D

 34 35  0  0  0  0  0  0  0  0999 V2000
  -28.0162   -0.8135   28.8779 C   0  0  0  0  0  0  0  0  0  0  0  0
  -27.0636   -0.1189   28.6079 C   0  0  0  0  0  0  0  0  0  0  0  0
  -26.9287    1.1713   29.0083 C   0  0  0  0  0  0  0  0  0  0  0  0
  -25.7702    2.0341   28.6884 C   0  0  0  0  0  0  0  0  0  0  0  0
  -24.7141    1.4431   27.9188 C   0  0  0  0  0  0  0  0  0  0  0  0
  -24.8590    0.0783   27.5836 C   0  0  0  0  0  0  0  0  0  0  0  0
  -25.9647   -0.6606   27.9164 C   0  0  0  0  0  0  0  0  0  0  0  0
  -29.1701   -0.2984   28.9471 N   0  0  0  0  0  0  0  0  0  0  0  0
  -30.1841   -0.8920   29.7048 C   0  0  0  0  0  0  0  0  0  0  0  0
  -23.6010    2.1003   27.6134 O   0  0  0  0  0  0  0  0  0  0  0  0
  -31.5269   -0.5666   29.4838 C   0  0  0  0  0  0  0  0  0  0  0  0
  -29.9303   -1.7400   30.6210 O   0  0  0  0  0  0  0  0  0  0  0  0
  -31.8605    0.3726   28.9306 O   0  0  0  0  0  0  0  0  0  0  0  0
  -32.5129   -1.4803   29.8788 N   0  0  0  0  0  0  0  0  0  0  0  0
  -32.3333   -2.6318   30.5241 C   0  0  0  0  0  0  0  0  0  0  0  0
  -23.1917    2.5304   26.7704 C   0  0  0  0  0  0  0  0  0  0  0  0
  -33.9356   -1.1354   29.5652 C   0  0  0  0  0  0  0  0  0  0  0  0
  -25.6170    3.4322   29.1174 C   0  0  0  0  0  0  0  0  0  0  0  0
  -25.0523    3.6913   30.0744 O   0  0  0  0  0  0  0  0  0  0  0  0
  -26.0730    4.3594   28.2684 N   0  0  0  0  0  0  0  0  0  0  0  0
  -26.7949    4.2509   27.0372 C   0  0  0  0  0  0  0  0  0  0  0  0
  -25.4509    5.6917   28.4616 C   0  0  0  0  0  0  0  0  0  0  0  0
  -26.5202    6.7983   28.6593 C   0  0  0  0  0  0  0  0  0  0  0  0
  -26.2007    7.5659   29.5192 O   0  0  0  0  0  0  0  0  0  0  0  0
  -27.3148    6.9336   27.7691 O   0  0  0  0  0  0  0  0  0  0  0  0
  -34.7468   -0.4723   30.2082 C   0  0  0  0  0  0  0  0  0  0  0  0
  -36.0230   -0.1928   29.8201 C   0  0  0  0  0  0  0  0  0  0  0  0
  -36.4205   -0.7372   28.5795 C   0  0  0  0  0  0  0  0  0  0  0  0
  -34.2904   -1.6691   28.2405 C   0  0  0  0  0  0  0  0  0  0  0  0
  -35.5406   -1.4389   27.8086 C   0  0  0  0  0  0  0  0  0  0  0  0
  -33.3796   -3.5403   30.8657 C   0  0  0  0  0  0  0  0  0  0  0  0
  -32.9733   -4.7539   31.2913 C   0  0  0  0  0  0  0  0  0  0  0  0
  -31.6567   -5.1161   31.5508 C   0  0  0  0  0  0  0  0  0  0  0  0
  -30.6097   -4.2729   31.2012 C   0  0  0  0  0  0  0  0  0  0  0  0
  1  2  1  0
  1  8  1  0
  8  9  1  0
  5 10  1  0
  9 11  1  0
  9 12  2  0
 11 13  2  0
 11 14  1  0
 14 15  1  0
 10 16  1  0
 14 17  1  0
  4 18  1  0
 18 19  2  0
 18 20  1  0
 20 21  1  0
 20 22  1  0
 22 23  1  0
 23 24  2  0
 23 25  1  0
 15 31  1  0
 31 32  2  3
 32 33  1  0
 33 34  2  0
 17 26  2  0
 26 27  1  0
 27 28  2  0
 28 30  1  0
 30 29  2  0
 29 17  1  0
  2  3  2  0
  3  4  1  0
  4  5  2  0
  5  6  1  0
  6  7  2  0
  7  2  1  0
M  END

$$$$
