No_1559-gen_results/8p0m/2024-11-27-11-27-31/
     RDKit          3D

 20 21  0  0  0  0  0  0  0  0999 V2000
  -28.0162   -0.8135   28.8779 C   0  0  0  0  0  0  0  0  0  0  0  0
  -27.0636   -0.1190   28.6079 C   0  0  0  0  0  0  0  0  0  0  0  0
  -25.7647   -0.3897   29.0360 C   0  0  0  0  0  0  0  0  0  0  0  0
  -25.5296   -1.5302   29.9014 C   0  0  0  0  0  0  0  0  0  0  0  0
  -26.6888   -2.2893   30.1810 C   0  0  0  0  0  0  0  0  0  0  0  0
  -27.8727   -1.9508   29.7373 C   0  0  0  0  0  0  0  0  0  0  0  0
  -28.9304   -2.7298   30.1154 O   0  0  0  0  0  0  0  0  0  0  0  0
  -24.5394    0.4211   28.7421 C   0  0  0  0  0  0  0  0  0  0  0  0
  -23.3459    0.1143   29.1690 C   0  0  0  0  0  0  0  0  0  0  0  0
  -22.1936    0.8740   28.7553 C   0  0  0  0  0  0  0  0  0  0  0  0
  -22.3615    1.8342   27.6952 C   0  0  0  0  0  0  0  0  0  0  0  0
  -24.3953    1.2356   27.5168 C   0  0  0  0  0  0  0  0  0  0  0  0
  -23.4591    2.0021   27.1632 C   0  0  0  0  0  0  0  0  0  0  0  0
  -23.8233    2.8953   26.1644 N   0  0  0  0  0  0  0  0  0  0  0  0
  -30.0595   -2.2199   30.5704 C   0  0  0  0  0  0  0  0  0  0  0  0
  -30.2524   -1.2605   30.9752 C   0  0  0  0  0  0  0  0  0  0  0  0
  -31.0030   -0.5960   31.4900 C   0  0  0  0  0  0  0  0  0  0  0  0
  -31.1008    0.8268   31.9713 C   0  0  0  0  0  0  0  0  0  0  0  0
  -29.9499    1.5671   31.6387 C   0  0  0  0  0  0  0  0  0  0  0  0
  -28.8966    0.9730   31.0507 C   0  0  0  0  0  0  0  0  0  0  0  0
  6  7  1  0
  3  8  1  0
 13 14  1  0
  7 15  1  0
 15 16  2  3
 16 17  1  0
 17 18  2  3
 18 19  1  0
 19 20  2  0
  1  2  2  0
  2  3  1  0
  3  4  2  0
  4  5  1  0
  5  6  2  0
  6  1  1  0
  8  9  2  0
  9 10  1  0
 10 11  2  0
 11 13  1  0
 13 12  2  0
 12  8  1  0
M  END

$$$$
