No_1991-gen_results/8p0m/2024-11-27-11-27-31/
     RDKit          3D

 13 13  0  0  0  0  0  0  0  0999 V2000
  -28.0162   -0.8135   28.8779 C   0  0  0  0  0  0  0  0  0  0  0  0
  -27.0636   -0.1189   28.6079 C   0  0  0  0  0  0  0  0  0  0  0  0
  -25.7923   -0.4302   29.0761 C   0  0  0  0  0  0  0  0  0  0  0  0
  -25.5756   -1.5654   29.9363 C   0  0  0  0  0  0  0  0  0  0  0  0
  -26.7354   -2.3004   30.2173 C   0  0  0  0  0  0  0  0  0  0  0  0
  -27.9184   -1.9537   29.7629 C   0  0  0  0  0  0  0  0  0  0  0  0
  -28.9649   -2.6957   30.0722 F   0  0  0  0  0  0  0  0  0  0  0  0
  -24.5349    0.3596   28.8024 C   0  0  0  0  0  0  0  0  0  0  0  0
  -24.1089    1.3457   29.6681 C   0  0  0  0  0  0  0  0  0  0  0  0
  -25.0220    1.8318   30.9183 Cl  0  0  0  0  0  0  0  0  0  0  0  0
  -23.0149    2.0031   29.4237 O   0  0  0  0  0  0  0  0  0  0  0  0
  -23.8398    0.2220   27.5560 C   0  0  0  0  0  0  0  0  0  0  0  0
  -22.6344    0.9921   27.4634 C   0  0  0  0  0  0  0  0  0  0  0  0
  6  7  1  0
  3  8  1  0
  8  9  1  0
  9 10  1  0
  9 11  2  0
  8 12  1  0
 12 13  1  0
  1  2  2  0
  2  3  1  0
  3  4  2  0
  4  5  1  0
  5  6  2  0
  6  1  1  0
M  END

$$$$
