No_1541-gen_results/8p0m/2024-11-27-11-27-31/
     RDKit          3D

 21 22  0  0  0  0  0  0  0  0999 V2000
  -28.0162   -0.8135   28.8779 C   0  0  0  0  0  0  0  0  0  0  0  0
  -28.4690   -0.7850   29.8287 C   0  0  0  0  0  0  0  0  0  0  0  0
  -26.5042   -0.7777   28.8766 C   0  0  0  0  0  0  0  0  0  0  0  0
  -25.8103   -0.8531   30.1028 C   0  0  0  0  0  0  0  0  0  0  0  0
  -27.9906   -0.8916   31.2257 C   0  0  0  0  0  0  0  0  0  0  0  0
  -26.6042   -0.8676   31.2652 C   0  0  0  0  0  0  0  0  0  0  0  0
  -24.3894   -0.8049   30.1638 C   0  0  0  0  0  0  0  0  0  0  0  0
  -23.8172    0.4762   29.9118 C   0  0  0  0  0  0  0  0  0  0  0  0
  -23.2476    0.8215   28.7226 C   0  0  0  0  0  0  0  0  0  0  0  0
  -23.5684    2.0468   28.0656 C   0  0  0  0  0  0  0  0  0  0  0  0
  -24.8287    2.0769   27.5552 C   0  0  0  0  0  0  0  0  0  0  0  0
  -25.5790    3.0157   27.9909 C   0  0  0  0  0  0  0  0  0  0  0  0
  -26.9248    3.0415   27.7003 N   0  0  0  0  0  0  0  0  0  0  0  0
  -27.3706    2.5346   26.8154 C   0  0  0  0  0  0  0  0  0  0  0  0
  -26.7723    1.8057   26.1907 C   0  0  0  0  0  0  0  0  0  0  0  0
  -25.3499    1.3870   26.4741 C   0  0  0  0  0  0  0  0  0  0  0  0
  -27.7630    4.1147   28.5540 C   0  0  0  0  0  0  0  0  0  0  0  0
  -30.1094   -0.7391   29.8022 C   0  0  0  0  0  0  0  0  0  0  0  0
  -30.7777   -1.4171   30.2991 O   0  0  0  0  0  0  0  0  0  0  0  0
  -30.5800    0.2474   29.0359 O   0  0  0  0  0  0  0  0  0  0  0  0
  -24.0803    1.4505   30.7729 O   0  0  0  0  0  0  0  0  0  0  0  0
  4  7  1  0
  7  8  1  0
  8  9  1  0
  9 10  1  0
 10 11  1  0
 11 12  1  0
 12 13  1  0
 13 14  1  0
 11 16  1  0
 15 16  1  0
 13 17  1  0
  2 18  1  0
 18 19  2  0
 18 20  1  0
  8 21  2  0
 15 14  1  0
  1  2  2  0
  2  5  1  0
  5  6  2  0
  6  4  1  0
  4  3  2  0
  3  1  1  0
M  END

$$$$
