No_1107-gen_results/8p0m/2024-11-27-11-27-31/
     RDKit          3D

 11 12  0  0  0  0  0  0  0  0999 V2000
  -28.0162   -0.8135   28.8779 C   0  0  0  0  0  0  0  0  0  0  0  0
  -28.4690   -0.7850   29.8287 C   0  0  0  0  0  0  0  0  0  0  0  0
  -26.5042   -0.7777   28.8766 C   0  0  0  0  0  0  0  0  0  0  0  0
  -25.8305   -1.6807   29.6849 C   0  0  0  0  0  0  0  0  0  0  0  0
  -28.1242   -0.8748   30.8573 C   0  0  0  0  0  0  0  0  0  0  0  0
  -24.4666   -1.8158   29.8244 C   0  0  0  0  0  0  0  0  0  0  0  0
  -26.6897   -1.5009   30.9970 C   0  0  0  0  0  0  0  0  0  0  0  0
  -23.6815   -0.6704   29.4706 C   0  0  0  0  0  0  0  0  0  0  0  0
  -24.0058    0.2340   28.5769 C   0  0  0  0  0  0  0  0  0  0  0  0
  -25.6139    0.0588   28.0407 C   0  0  0  0  0  0  0  0  0  0  0  0
  -26.0429    1.3351   27.5767 C   0  0  0  0  0  0  0  0  0  0  0  0
 10 11  1  0
  4  6  2  0
  6  8  1  0
  8  9  2  0
  9 10  1  0
 10  3  2  0
  1  2  2  0
  2  5  1  0
  5  7  2  0
  7  4  1  0
  4  3  1  0
  3  1  1  0
M  END

$$$$
