No_1389-gen_results/8p0m/2024-11-27-11-27-31/
     RDKit          3D

 19 19  0  0  0  0  0  0  0  0999 V2000
  -28.0162   -0.8135   28.8779 C   0  0  0  0  0  0  0  0  0  0  0  0
  -28.4690   -0.7850   29.8287 C   0  0  0  0  0  0  0  0  0  0  0  0
  -28.1960    0.3478   28.0550 C   0  0  0  0  0  0  0  0  0  0  0  0
  -29.0191    1.3501   28.3782 C   0  0  0  0  0  0  0  0  0  0  0  0
  -29.6249    1.2683   29.6012 C   0  0  0  0  0  0  0  0  0  0  0  0
  -29.3821    0.1816   30.4004 C   0  0  0  0  0  0  0  0  0  0  0  0
  -27.3500    0.3748   26.5122 Cl  0  0  0  0  0  0  0  0  0  0  0  0
  -30.5308    2.2962   30.0676 C   0  0  0  0  0  0  0  0  0  0  0  0
  -31.3039    2.8399   29.5020 O   0  0  0  0  0  0  0  0  0  0  0  0
  -30.3059    2.5958   31.4167 O   0  0  0  0  0  0  0  0  0  0  0  0
  -28.1927   -2.2468   30.9549 Cl  0  0  0  0  0  0  0  0  0  0  0  0
  -31.1434    3.4005   32.0800 C   0  0  0  0  0  0  0  0  0  0  0  0
  -32.1719    2.8860   32.5849 C   0  0  0  0  0  0  0  0  0  0  0  0
  -33.1372    3.4897   32.7475 O   0  0  0  0  0  0  0  0  0  0  0  0
  -32.2865    1.5233   32.6423 O   0  0  0  0  0  0  0  0  0  0  0  0
  -30.1387    3.9264   33.2402 C   0  0  0  0  0  0  0  0  0  0  0  0
  -29.4193    4.9992   32.8856 C   0  0  0  0  0  0  0  0  0  0  0  0
  -29.8806    6.1127   32.3943 C   0  0  0  0  0  0  0  0  0  0  0  0
  -29.0372    7.2007   31.9861 C   0  0  0  0  0  0  0  0  0  0  0  0
  3  7  1  0
  5  8  1  0
  8  9  2  0
  8 10  1  0
  2 11  1  0
 10 12  1  0
 12 13  1  0
 13 14  2  0
 13 15  1  0
 12 16  1  0
 16 17  1  0
 17 18  2  3
 18 19  1  0
  1  2  2  0
  2  6  1  0
  6  5  2  0
  5  4  1  0
  4  3  2  0
  3  1  1  0
M  END

$$$$
