No_171-gen_results/8p0m/2024-11-27-11-27-31/
     RDKit          3D

 17 18  0  0  0  0  0  0  0  0999 V2000
  -28.0162   -0.8135   28.8779 C   0  0  0  0  0  0  0  0  0  0  0  0
  -27.0636   -0.1189   28.6079 C   0  0  0  0  0  0  0  0  0  0  0  0
  -26.9287    1.1713   29.0083 C   0  0  0  0  0  0  0  0  0  0  0  0
  -27.9560    1.7411   29.7840 C   0  0  0  0  0  0  0  0  0  0  0  0
  -29.0569   -0.3271   29.7466 C   0  0  0  0  0  0  0  0  0  0  0  0
  -28.9828    0.9722   30.1516 C   0  0  0  0  0  0  0  0  0  0  0  0
  -25.9834   -0.6074   27.8643 O   0  0  0  0  0  0  0  0  0  0  0  0
  -24.6216   -0.3435   28.2652 C   0  0  0  0  0  0  0  0  0  0  0  0
  -23.9606    0.7143   27.6229 C   0  0  0  0  0  0  0  0  0  0  0  0
  -22.6443    0.9221   28.0343 C   0  0  0  0  0  0  0  0  0  0  0  0
  -21.9677    0.0225   28.8987 C   0  0  0  0  0  0  0  0  0  0  0  0
  -23.9685   -1.1890   29.1141 C   0  0  0  0  0  0  0  0  0  0  0  0
  -22.6568   -1.0431   29.3926 C   0  0  0  0  0  0  0  0  0  0  0  0
  -21.6755    1.8141   27.5613 O   0  0  0  0  0  0  0  0  0  0  0  0
  -27.8289    3.1955   30.2003 C   0  0  0  0  0  0  0  0  0  0  0  0
  -27.2252    3.9100   29.7013 O   0  0  0  0  0  0  0  0  0  0  0  0
  -28.4966    3.4769   31.3384 O   0  0  0  0  0  0  0  0  0  0  0  0
  2  7  1  0
  7  8  1  0
 10 14  1  0
  4 15  1  0
 15 16  2  0
 15 17  1  0
  1  2  2  0
  2  3  1  0
  3  4  2  0
  4  6  1  0
  6  5  2  0
  5  1  1  0
  8  9  2  0
  9 10  1  0
 10 11  2  0
 11 13  1  0
 13 12  2  0
 12  8  1  0
M  END

$$$$
