No_1097-gen_results/8p0m/2024-11-27-11-27-31/
     RDKit          3D

 14 13  0  0  0  0  0  0  0  0999 V2000
  -28.1229   -1.3353   28.4874 O   0  0  0  0  0  0  0  0  0  0  0  0
  -27.4806   -0.4044   28.7094 C   0  0  0  0  0  0  0  0  0  0  0  0
  -26.3804   -0.0867   27.9394 C   0  0  0  0  0  0  0  0  0  0  0  0
  -27.6664    0.4468   29.8988 N   0  0  0  0  0  0  0  0  0  0  0  0
  -26.4086    0.8567   26.8802 C   0  0  0  0  0  0  0  0  0  0  0  0
  -25.3141   -1.0645   27.8606 C   0  0  0  0  0  0  0  0  0  0  0  0
  -27.3282    1.6959   26.7233 C   0  0  0  0  0  0  0  0  0  0  0  0
  -26.8983    1.5216   30.3230 C   0  0  0  0  0  0  0  0  0  0  0  0
  -26.9345    2.2408   31.0222 C   0  0  0  0  0  0  0  0  0  0  0  0
  -26.7476    3.1884   31.3725 C   0  0  0  0  0  0  0  0  0  0  0  0
  -27.2891    4.0302   32.5333 C   0  0  0  0  0  0  0  0  0  0  0  0
  -25.2585    0.8920   25.9212 C   0  0  0  0  0  0  0  0  0  0  0  0
  -27.8261    3.3968   33.5177 C   0  0  0  0  0  0  0  0  0  0  0  0
  -28.0055    2.0481   33.3984 C   0  0  0  0  0  0  0  0  0  0  0  0
  1  2  2  0
  2  3  1  0
  2  4  1  0
  3  5  1  0
  3  6  1  0
  5  7  1  0
  4  8  1  0
  8  9  2  3
  9 10  1  0
 10 11  1  0
  5 12  1  0
 11 13  2  3
 13 14  1  0
M  END

$$$$
