No_1114-gen_results/8p0m/2024-11-27-11-27-31/
     RDKit          3D

 28 30  0  0  0  0  0  0  0  0999 V2000
  -28.0162   -0.8135   28.8779 C   0  0  0  0  0  0  0  0  0  0  0  0
  -27.0636   -0.1189   28.6079 C   0  0  0  0  0  0  0  0  0  0  0  0
  -27.0010    0.6913   27.4910 C   0  0  0  0  0  0  0  0  0  0  0  0
  -25.8548    1.4825   27.0830 C   0  0  0  0  0  0  0  0  0  0  0  0
  -24.6901    1.4526   27.8807 C   0  0  0  0  0  0  0  0  0  0  0  0
  -24.7379    0.6010   29.0416 C   0  0  0  0  0  0  0  0  0  0  0  0
  -25.8234   -0.1688   29.3887 C   0  0  0  0  0  0  0  0  0  0  0  0
  -29.2150   -0.1726   29.0132 N   0  0  0  0  0  0  0  0  0  0  0  0
  -29.7200    0.5474   28.3236 C   0  0  0  0  0  0  0  0  0  0  0  0
  -30.9742    1.0608   28.6662 C   0  0  0  0  0  0  0  0  0  0  0  0
  -30.0997   -0.6583   30.1305 C   0  0  0  0  0  0  0  0  0  0  0  0
  -29.5682   -1.6696   31.0587 C   0  0  0  0  0  0  0  0  0  0  0  0
  -31.2443    0.0861   30.1486 C   0  0  0  0  0  0  0  0  0  0  0  0
  -29.0838   -2.6970   30.7098 O   0  0  0  0  0  0  0  0  0  0  0  0
  -30.1598   -1.6185   32.3462 N   0  0  0  0  0  0  0  0  0  0  0  0
  -23.4779    2.1218   27.5094 C   0  0  0  0  0  0  0  0  0  0  0  0
  -22.5612    2.2111   28.3040 O   0  0  0  0  0  0  0  0  0  0  0  0
  -23.4751    2.8429   26.4225 O   0  0  0  0  0  0  0  0  0  0  0  0
  -29.9279   -2.6426   33.2839 C   0  0  0  0  0  0  0  0  0  0  0  0
  -31.9088    1.9601   28.3010 C   0  0  0  0  0  0  0  0  0  0  0  0
  -32.7384    2.3810   28.9366 O   0  0  0  0  0  0  0  0  0  0  0  0
  -31.3999    2.6127   27.3411 F   0  0  0  0  0  0  0  0  0  0  0  0
  -30.7285   -0.4031   32.8412 C   0  0  0  0  0  0  0  0  0  0  0  0
  -29.9145    0.2450   33.8906 C   0  0  0  0  0  0  0  0  0  0  0  0
  -29.9110    1.3733   34.1168 C   0  0  0  0  0  0  0  0  0  0  0  0
  -31.0140    2.2269   33.5650 C   0  0  0  0  0  0  0  0  0  0  0  0
  -31.8398    1.6014   32.6342 C   0  0  0  0  0  0  0  0  0  0  0  0
  -31.5716    0.3436   32.1948 C   0  0  0  0  0  0  0  0  0  0  0  0
  1  2  1  0
  1  8  1  0
  8  9  1  0
  9 10  2  0
  8 11  1  0
 11 12  1  0
 10 13  1  0
 11 13  1  0
 12 14  2  0
 12 15  1  0
  5 16  1  0
 16 17  2  0
 16 18  1  0
 15 19  1  0
 10 20  1  0
 20 21  2  0
 20 22  1  0
 15 23  1  0
  2  3  2  0
  3  4  1  0
  4  5  2  0
  5  6  1  0
  6  7  2  0
  7  2  1  0
 23 24  2  0
 24 25  1  0
 25 26  2  0
 26 27  1  0
 27 28  2  0
 28 23  1  0
M  END

$$$$
