No_1100-gen_results/8p0m/2024-11-27-11-27-31/
     RDKit          3D

 16 16  0  0  0  0  0  0  0  0999 V2000
  -28.0162   -0.8135   28.8779 C   0  0  0  0  0  0  0  0  0  0  0  0
  -27.0636   -0.1189   28.6079 C   0  0  0  0  0  0  0  0  0  0  0  0
  -25.8176   -0.3427   29.0487 N   0  0  0  0  0  0  0  0  0  0  0  0
  -25.5552   -1.4726   29.7295 C   0  0  0  0  0  0  0  0  0  0  0  0
  -26.6210   -2.2986   30.1049 C   0  0  0  0  0  0  0  0  0  0  0  0
  -27.8347   -1.9700   29.6762 C   0  0  0  0  0  0  0  0  0  0  0  0
  -27.1615    1.1008   27.8966 N   0  0  0  0  0  0  0  0  0  0  0  0
  -27.6236    1.1647   26.6724 C   0  0  0  0  0  0  0  0  0  0  0  0
  -28.2243    0.2971   26.1159 C   0  0  0  0  0  0  0  0  0  0  0  0
  -28.7073    0.3942   24.7205 C   0  0  0  0  0  0  0  0  0  0  0  0
  -29.3884   -0.6282   24.1232 C   0  0  0  0  0  0  0  0  0  0  0  0
  -30.6126   -0.9870   24.1858 C   0  0  0  0  0  0  0  0  0  0  0  0
  -31.4962   -0.1346   24.4754 N   0  0  0  0  0  0  0  0  0  0  0  0
  -31.7038    0.9050   23.7798 C   0  0  0  0  0  0  0  0  0  0  0  0
  -32.6679    1.9365   24.1477 C   0  0  0  0  0  0  0  0  0  0  0  0
  -27.4198    2.4608   25.9748 C   0  0  0  0  0  0  0  0  0  0  0  0
  2  7  1  0
  7  8  1  0
  8  9  2  3
  9 10  1  0
 10 11  1  0
 11 12  1  0
 12 13  1  0
 13 14  1  0
 14 15  2  0
  8 16  1  0
  1  2  2  0
  2  3  1  0
  3  4  2  0
  4  5  1  0
  5  6  2  0
  6  1  1  0
M  END

$$$$
