No_126-gen_results/8p0m/2024-11-27-11-27-31/
     RDKit          3D

 18 19  0  0  0  0  0  0  0  0999 V2000
  -28.1229   -1.3353   28.4874 O   0  0  0  0  0  0  0  0  0  0  0  0
  -27.4806   -0.4044   28.7094 C   0  0  0  0  0  0  0  0  0  0  0  0
  -26.3804   -0.0867   27.9394 C   0  0  0  0  0  0  0  0  0  0  0  0
  -27.6664    0.4468   29.8988 N   0  0  0  0  0  0  0  0  0  0  0  0
  -26.4087    0.8567   26.8802 C   0  0  0  0  0  0  0  0  0  0  0  0
  -25.0824   -0.6970   28.1699 C   0  0  0  0  0  0  0  0  0  0  0  0
  -25.2842    1.0488   26.0470 C   0  0  0  0  0  0  0  0  0  0  0  0
  -23.8947   -0.3309   27.4777 C   0  0  0  0  0  0  0  0  0  0  0  0
  -24.0554    0.5635   26.3806 C   0  0  0  0  0  0  0  0  0  0  0  0
  -28.7860    0.1100   30.7785 C   0  0  0  0  0  0  0  0  0  0  0  0
  -26.8471    1.5250   30.2217 C   0  0  0  0  0  0  0  0  0  0  0  0
  -26.9245    2.3055   30.8496 C   0  0  0  0  0  0  0  0  0  0  0  0
  -27.0891    3.2956   31.1265 C   0  0  0  0  0  0  0  0  0  0  0  0
  -27.4376    4.2898   30.0042 C   0  0  0  0  0  0  0  0  0  0  0  0
  -26.6208    4.1571   28.9984 C   0  0  0  0  0  0  0  0  0  0  0  0
  -25.5192    4.0398   28.9041 C   0  0  0  0  0  0  0  0  0  0  0  0
  -24.9307    2.6030   29.1221 C   0  0  0  0  0  0  0  0  0  0  0  0
  -25.5079    1.6191   29.7275 C   0  0  0  0  0  0  0  0  0  0  0  0
  1  2  2  0
  2  3  1  0
  2  4  1  0
  4 10  1  0
  4 11  1  0
 11 12  2  3
 12 13  1  0
 13 14  1  0
 14 15  2  3
 15 16  1  0
 16 17  2  3
 11 18  1  0
 17 18  1  0
  3  5  2  0
  5  7  1  0
  7  9  2  0
  9  8  1  0
  8  6  2  0
  6  3  1  0
M  END

$$$$
