No_1327-gen_results/8p0m/2024-11-27-11-27-31/
     RDKit          3D

 35 37  0  0  0  0  0  0  0  0999 V2000
  -28.0162   -0.8135   28.8779 C   0  0  0  0  0  0  0  0  0  0  0  0
  -28.4690   -0.7850   29.8287 C   0  0  0  0  0  0  0  0  0  0  0  0
  -27.0871    0.2903   28.6377 C   0  0  0  0  0  0  0  0  0  0  0  0
  -26.8317    1.2487   29.5869 C   0  0  0  0  0  0  0  0  0  0  0  0
  -28.3914    0.0801   31.0065 C   0  0  0  0  0  0  0  0  0  0  0  0
  -29.0884   -0.0323   32.2295 C   0  0  0  0  0  0  0  0  0  0  0  0
  -27.4751    1.1274   30.7658 C   0  0  0  0  0  0  0  0  0  0  0  0
  -26.3730    0.1739   27.2807 C   0  0  0  0  0  0  0  0  0  0  0  0
  -25.9033    1.4702   27.0709 F   0  0  0  0  0  0  0  0  0  0  0  0
  -25.3100   -0.5796   27.3554 F   0  0  0  0  0  0  0  0  0  0  0  0
  -27.1508   -0.0522   26.2702 F   0  0  0  0  0  0  0  0  0  0  0  0
  -29.6841   -0.7925   32.5957 O   0  0  0  0  0  0  0  0  0  0  0  0
  -28.9172    1.0664   33.0385 O   0  0  0  0  0  0  0  0  0  0  0  0
  -29.3912    1.1123   34.2314 C   0  0  0  0  0  0  0  0  0  0  0  0
  -29.2651    2.4035   34.8670 C   0  0  0  0  0  0  0  0  0  0  0  0
  -29.5890    3.1522   35.6816 Cl  0  0  0  0  0  0  0  0  0  0  0  0
  -27.9127    3.0469   34.1017 C   0  0  0  0  0  0  0  0  0  0  0  0
  -28.1152    4.1619   33.3485 C   0  0  0  0  0  0  0  0  0  0  0  0
  -27.5707    5.3017   33.8358 C   0  0  0  0  0  0  0  0  0  0  0  0
  -26.7246    5.8385   33.4313 C   0  0  0  0  0  0  0  0  0  0  0  0
  -25.9428    5.3147   32.2292 C   0  0  0  0  0  0  0  0  0  0  0  0
  -26.6029    4.5123   31.4356 C   0  0  0  0  0  0  0  0  0  0  0  0
  -28.2262    3.9436   32.0862 N   0  0  0  0  0  0  0  0  0  0  0  0
  -29.2472    4.7364   31.5137 C   0  0  0  0  0  0  0  0  0  0  0  0
  -29.4036    5.9182   31.6935 C   0  0  0  0  0  0  0  0  0  0  0  0
  -30.1148    3.8595   30.7285 C   0  0  0  0  0  0  0  0  0  0  0  0
  -30.5667    6.5571   31.1627 C   0  0  0  0  0  0  0  0  0  0  0  0
  -31.2450    4.4292   30.1996 C   0  0  0  0  0  0  0  0  0  0  0  0
  -31.4784    5.8006   30.4241 C   0  0  0  0  0  0  0  0  0  0  0  0
  -32.1610    3.6330   29.4059 C   0  0  0  0  0  0  0  0  0  0  0  0
  -33.1694    3.7866   28.9352 O   0  0  0  0  0  0  0  0  0  0  0  0
  -31.7110    2.3062   29.1412 O   0  0  0  0  0  0  0  0  0  0  0  0
  -24.8060    6.0059   31.6049 C   0  0  0  0  0  0  0  0  0  0  0  0
  -23.8634    5.9989   32.3835 O   0  0  0  0  0  0  0  0  0  0  0  0
  -24.7993    6.5437   30.5483 O   0  0  0  0  0  0  0  0  0  0  0  0
  5  6  1  0
  3  8  1  0
  8  9  1  0
  8 10  1  0
  8 11  1  0
  6 12  2  0
  6 13  1  0
 13 14  1  0
 14 15  1  0
 15 16  1  0
 15 17  1  0
 17 18  1  0
 18 19  1  0
 20 21  1  0
 18 23  1  0
 22 23  1  0
 23 24  1  0
 28 30  1  0
 30 31  2  0
 30 32  1  0
 21 33  1  0
 33 34  1  0
 33 35  2  0
 19 20  1  0
 21 22  1  0
 24 25  2  0
 25 27  1  0
 27 29  2  0
 29 28  1  0
 28 26  2  0
 26 24  1  0
  1  2  2  0
  2  5  1  0
  5  7  2  0
  7  4  1  0
  4  3  2  0
  3  1  1  0
M  END

$$$$
