No_1936-gen_results/8p0m/2024-11-27-11-27-31/
     RDKit          3D

 16 17  0  0  0  0  0  0  0  0999 V2000
  -28.0162   -0.8135   28.8779 C   0  0  0  0  0  0  0  0  0  0  0  0
  -28.4690   -0.7850   29.8287 C   0  0  0  0  0  0  0  0  0  0  0  0
  -27.0871    0.2903   28.6377 C   0  0  0  0  0  0  0  0  0  0  0  0
  -26.2516    0.4114   27.4223 C   0  0  0  0  0  0  0  0  0  0  0  0
  -29.4309   -1.9307   30.2714 C   0  0  0  0  0  0  0  0  0  0  0  0
  -25.1465    1.2405   27.3564 C   0  0  0  0  0  0  0  0  0  0  0  0
  -24.5331    1.4619   28.1198 C   0  0  0  0  0  0  0  0  0  0  0  0
  -23.2470    2.2886   28.0623 C   0  0  0  0  0  0  0  0  0  0  0  0
  -22.8138    2.4527   26.7279 C   0  0  0  0  0  0  0  0  0  0  0  0
  -23.5687    2.0688   25.6791 C   0  0  0  0  0  0  0  0  0  0  0  0
  -24.7508    1.3507   25.9136 C   0  0  0  0  0  0  0  0  0  0  0  0
  -28.1802    0.2104   30.9469 C   0  0  0  0  0  0  0  0  0  0  0  0
  -27.3662    1.1962   30.7562 C   0  0  0  0  0  0  0  0  0  0  0  0
  -26.7084    1.2666   29.5770 C   0  0  0  0  0  0  0  0  0  0  0  0
  -29.0252   -3.0851   30.2099 F   0  0  0  0  0  0  0  0  0  0  0  0
  -29.8660   -1.8097   31.6116 F   0  0  0  0  0  0  0  0  0  0  0  0
  3  4  1  0
  4  6  1  0
  5 15  1  0
  5 16  1  0
  5  2  1  0
  1  2  2  0
  2 12  1  0
 12 13  2  0
 13 14  1  0
 14  3  2  0
  3  1  1  0
  6  7  2  0
  7  8  1  0
  8  9  2  0
  9 10  1  0
 10 11  2  0
 11  6  1  0
M  END

$$$$
