No_1527-gen_results/8p0m/2024-11-27-11-27-31/
     RDKit          3D

 18 20  0  0  0  0  0  0  0  0999 V2000
  -28.1229   -1.3353   28.4874 O   0  0  0  0  0  0  0  0  0  0  0  0
  -27.0637   -0.8242   28.8687 C   0  0  0  0  0  0  0  0  0  0  0  0
  -27.0246    0.1877   29.7358 C   0  0  0  0  0  0  0  0  0  0  0  0
  -25.8391    0.8513   29.9958 C   0  0  0  0  0  0  0  0  0  0  0  0
  -25.7828   -1.1917   28.3767 N   0  0  0  0  0  0  0  0  0  0  0  0
  -24.5762   -0.6478   28.6454 C   0  0  0  0  0  0  0  0  0  0  0  0
  -24.5611    0.4253   29.4799 C   0  0  0  0  0  0  0  0  0  0  0  0
  -23.2760    0.7492   29.8594 C   0  0  0  0  0  0  0  0  0  0  0  0
  -23.0630    1.6639   30.6232 O   0  0  0  0  0  0  0  0  0  0  0  0
  -22.2233   -0.1051   29.6640 N   0  0  0  0  0  0  0  0  0  0  0  0
  -22.2899   -1.2230   28.8183 C   0  0  0  0  0  0  0  0  0  0  0  0
  -23.4557   -1.4842   28.4090 C   0  0  0  0  0  0  0  0  0  0  0  0
  -28.3109    0.6985   30.2794 C   0  0  0  0  0  0  0  0  0  0  0  0
  -29.0579    1.4390   29.8346 C   0  0  0  0  0  0  0  0  0  0  0  0
  -30.2986    1.8788   30.4527 C   0  0  0  0  0  0  0  0  0  0  0  0
  -30.6353    1.2837   31.6731 C   0  0  0  0  0  0  0  0  0  0  0  0
  -29.7943    0.3364   32.2228 C   0  0  0  0  0  0  0  0  0  0  0  0
  -28.5761    0.0129   31.6191 C   0  0  0  0  0  0  0  0  0  0  0  0
  1  2  1  0
  7  8  1  0
  8  9  2  0
  8 10  1  0
 10 11  1  0
  6 12  1  0
 11 12  1  0
  3 13  1  0
 13 14  2  0
 14 15  1  0
 15 16  2  0
 16 17  1  0
 17 18  2  0
 18 13  1  0
  2  3  2  0
  3  4  1  0
  4  7  2  0
  7  6  1  0
  6  5  2  0
  5  2  1  0
M  END

$$$$
