No_1825-gen_results/8p0m/2024-11-27-11-27-31/
     RDKit          3D

 19 21  0  0  0  0  0  0  0  0999 V2000
  -28.0162   -0.8135   28.8779 C   0  0  0  0  0  0  0  0  0  0  0  0
  -27.0636   -0.1190   28.6079 C   0  0  0  0  0  0  0  0  0  0  0  0
  -25.7647   -0.3897   29.0360 C   0  0  0  0  0  0  0  0  0  0  0  0
  -24.5516    0.4058   28.7646 C   0  0  0  0  0  0  0  0  0  0  0  0
  -24.6957    1.4480   27.7988 C   0  0  0  0  0  0  0  0  0  0  0  0
  -25.9755    1.7250   27.3077 C   0  0  0  0  0  0  0  0  0  0  0  0
  -27.0718    1.0134   27.6535 C   0  0  0  0  0  0  0  0  0  0  0  0
  -28.6178   -0.4695   30.2207 C   0  0  0  0  0  0  0  0  0  0  0  0
  -28.4023    0.4444   30.7991 F   0  0  0  0  0  0  0  0  0  0  0  0
  -30.0286   -0.8062   30.1991 F   0  0  0  0  0  0  0  0  0  0  0  0
  -23.4989    2.2358   27.5016 C   0  0  0  0  0  0  0  0  0  0  0  0
  -22.3454    1.9245   27.8441 O   0  0  0  0  0  0  0  0  0  0  0  0
  -23.5703    2.9310   26.2418 N   0  0  0  0  0  0  0  0  0  0  0  0
  -28.1560   -1.6285   31.0442 F   0  0  0  0  0  0  0  0  0  0  0  0
  -28.3865    1.2891   27.0547 C   0  0  0  0  0  0  0  0  0  0  0  0
  -28.4226    1.9258   25.8947 C   0  0  0  0  0  0  0  0  0  0  0  0
  -27.6084    2.4907   25.4551 C   0  0  0  0  0  0  0  0  0  0  0  0
  -26.1345    2.4716   26.0578 C   0  0  0  0  0  0  0  0  0  0  0  0
  -24.9462    3.2289   25.5906 C   0  0  0  0  0  0  0  0  0  0  0  0
  1  8  1  0
  8  9  1  0
  8 10  1  0
  5 11  1  0
 11 12  2  0
 11 13  1  0
  8 14  1  0
 13 19  1  0
 18 19  1  0
  1  2  1  0
  2  3  2  0
  3  4  1  0
  4  5  2  0
  5  6  1  0
  7  2  1  0
  6  7  2  0
  7 15  1  0
 15 16  2  0
 16 17  1  0
 17 18  2  0
 18  6  1  0
M  END

$$$$
