No_109-gen_results/8p0m/2024-11-27-11-27-31/
     RDKit          3D

 13 13  0  0  0  0  0  0  0  0999 V2000
  -28.0162   -0.8135   28.8779 C   0  0  0  0  0  0  0  0  0  0  0  0
  -28.4690   -0.7850   29.8287 C   0  0  0  0  0  0  0  0  0  0  0  0
  -27.5417    0.3084   28.6516 F   0  0  0  0  0  0  0  0  0  0  0  0
  -29.0477   -2.0847   30.3944 C   0  0  0  0  0  0  0  0  0  0  0  0
  -28.4641   -3.2842   30.0485 C   0  0  0  0  0  0  0  0  0  0  0  0
  -27.3324   -3.2068   29.2509 C   0  0  0  0  0  0  0  0  0  0  0  0
  -26.9300   -1.9584   28.7790 C   0  0  0  0  0  0  0  0  0  0  0  0
  -28.8056   -4.7570   30.7524 Cl  0  0  0  0  0  0  0  0  0  0  0  0
  -29.4181    0.1723   30.3127 F   0  0  0  0  0  0  0  0  0  0  0  0
  -25.8485   -1.8952   27.9329 O   0  0  0  0  0  0  0  0  0  0  0  0
  -24.7296   -1.0776   28.5372 C   0  0  0  0  0  0  0  0  0  0  0  0
  -24.3786    0.1605   28.0077 C   0  0  0  0  0  0  0  0  0  0  0  0
  -23.2258    0.7305   28.4186 C   0  0  0  0  0  0  0  0  0  0  0  0
  1  3  1  0
  5  8  1  0
  2  9  1  0
  7 10  1  0
 10 11  1  0
 11 12  2  3
 12 13  1  0
  1  2  2  0
  2  4  1  0
  4  5  2  0
  5  6  1  0
  6  7  2  0
  7  1  1  0
M  END

$$$$
