No_1467-gen_results/8p0m/2024-11-27-11-27-31/
     RDKit          3D

 30 32  0  0  0  0  0  0  0  0999 V2000
  -28.0162   -0.8135   28.8779 C   0  0  0  0  0  0  0  0  0  0  0  0
  -27.0636   -0.1190   28.6079 C   0  0  0  0  0  0  0  0  0  0  0  0
  -25.7923   -0.4302   29.0761 C   0  0  0  0  0  0  0  0  0  0  0  0
  -24.5456    0.3494   28.8225 C   0  0  0  0  0  0  0  0  0  0  0  0
  -24.6586    1.4196   27.8878 C   0  0  0  0  0  0  0  0  0  0  0  0
  -25.9471    1.6811   27.3792 C   0  0  0  0  0  0  0  0  0  0  0  0
  -27.0439    0.9739   27.6871 C   0  0  0  0  0  0  0  0  0  0  0  0
  -27.9517   -1.7518   29.9375 N   0  0  0  0  0  0  0  0  0  0  0  0
  -29.1984   -0.5344   28.5255 O   0  0  0  0  0  0  0  0  0  0  0  0
  -29.0453   -2.5720   30.4456 C   0  0  0  0  0  0  0  0  0  0  0  0
  -23.4612    2.1665   27.5992 C   0  0  0  0  0  0  0  0  0  0  0  0
  -22.3304    1.8650   28.0495 O   0  0  0  0  0  0  0  0  0  0  0  0
  -23.4891    2.8669   26.4028 O   0  0  0  0  0  0  0  0  0  0  0  0
  -29.8079   -3.0697   29.7371 C   0  0  0  0  0  0  0  0  0  0  0  0
  -30.6620   -4.1847   30.3661 C   0  0  0  0  0  0  0  0  0  0  0  0
  -30.5495   -4.4740   31.7339 C   0  0  0  0  0  0  0  0  0  0  0  0
  -29.6146   -3.8246   32.4927 C   0  0  0  0  0  0  0  0  0  0  0  0
  -28.7442   -2.9052   31.8763 C   0  0  0  0  0  0  0  0  0  0  0  0
  -31.6939   -4.8100   29.5260 C   0  0  0  0  0  0  0  0  0  0  0  0
  -31.6344   -5.9886   29.2928 O   0  0  0  0  0  0  0  0  0  0  0  0
  -32.7297   -4.1791   29.1722 O   0  0  0  0  0  0  0  0  0  0  0  0
  -33.1193   -3.9931   28.0317 C   0  0  0  0  0  0  0  0  0  0  0  0
  -33.7183   -4.9406   27.4210 C   0  0  0  0  0  0  0  0  0  0  0  0
  -33.6839   -6.0377   27.6944 C   0  0  0  0  0  0  0  0  0  0  0  0
  -34.4076   -7.1804   27.0087 C   0  0  0  0  0  0  0  0  0  0  0  0
  -35.0886   -6.7406   25.8372 C   0  0  0  0  0  0  0  0  0  0  0  0
  -35.0856   -5.4105   25.4014 C   0  0  0  0  0  0  0  0  0  0  0  0
  -34.4435   -4.5082   26.1343 C   0  0  0  0  0  0  0  0  0  0  0  0
  -32.9083   -2.5766   27.4910 C   0  0  0  0  0  0  0  0  0  0  0  0
  -32.0487   -1.8806   27.8200 O   0  0  0  0  0  0  0  0  0  0  0  0
  1  2  1  0
  1  8  1  0
  1  9  2  0
  8 10  1  0
  5 11  1  0
 11 12  2  0
 11 13  1  0
 15 19  1  0
 19 20  2  0
 19 21  1  0
 21 22  1  0
 22 23  1  0
 22 29  1  0
 29 30  2  0
  2  3  2  0
  3  4  1  0
  4  5  2  0
  5  6  1  0
  6  7  2  0
  7  2  1  0
 23 24  2  0
 24 25  1  0
 25 26  2  0
 26 27  1  0
 27 28  2  0
 28 23  1  0
 10 14  2  0
 14 15  1  0
 15 16  2  0
 16 17  1  0
 17 18  2  0
 18 10  1  0
M  END

$$$$
