No_1906-gen_results/8p0m/2024-11-27-11-27-31/
     RDKit          3D

 35 39  0  0  0  0  0  0  0  0999 V2000
  -28.0162   -0.8135   28.8779 C   0  0  0  0  0  0  0  0  0  0  0  0
  -27.0636   -0.1189   28.6079 C   0  0  0  0  0  0  0  0  0  0  0  0
  -26.9716    0.7139   27.5060 C   0  0  0  0  0  0  0  0  0  0  0  0
  -25.8205    1.4910   27.1160 C   0  0  0  0  0  0  0  0  0  0  0  0
  -24.6562    1.4242   27.9180 C   0  0  0  0  0  0  0  0  0  0  0  0
  -24.6847    0.5901   29.0659 C   0  0  0  0  0  0  0  0  0  0  0  0
  -25.8099   -0.1266   29.3338 C   0  0  0  0  0  0  0  0  0  0  0  0
  -29.2444   -0.0768   29.2011 C   0  0  0  0  0  0  0  0  0  0  0  0
  -30.3180   -0.8168   29.6362 N   0  0  0  0  0  0  0  0  0  0  0  0
  -23.4647    2.1915   27.5981 C   0  0  0  0  0  0  0  0  0  0  0  0
  -22.2783    1.7162   28.0649 N   0  0  0  0  0  0  0  0  0  0  0  0
  -23.4841    3.0996   26.6313 N   0  0  0  0  0  0  0  0  0  0  0  0
  -29.3978    1.0990   29.0164 O   0  0  0  0  0  0  0  0  0  0  0  0
  -30.2780   -2.1737   30.0041 C   0  0  0  0  0  0  0  0  0  0  0  0
  -31.6295   -0.1875   29.9544 C   0  0  0  0  0  0  0  0  0  0  0  0
  -30.9376   -2.5861   31.2419 C   0  0  0  0  0  0  0  0  0  0  0  0
  -32.2992   -2.4508   31.0736 C   0  0  0  0  0  0  0  0  0  0  0  0
  -33.1081   -2.8425   32.1282 C   0  0  0  0  0  0  0  0  0  0  0  0
  -32.3965   -0.8888   30.9578 C   0  0  0  0  0  0  0  0  0  0  0  0
  -32.8271   -2.9573   29.7600 C   0  0  0  0  0  0  0  0  0  0  0  0
  -33.0178   -3.9980   29.5582 C   0  0  0  0  0  0  0  0  0  0  0  0
  -33.4472   -4.2792   32.0902 C   0  0  0  0  0  0  0  0  0  0  0  0
  -33.2365   -4.6926   28.2447 C   0  0  0  0  0  0  0  0  0  0  0  0
  -33.5030   -4.8824   30.7415 C   0  0  0  0  0  0  0  0  0  0  0  0
  -32.7507   -4.3174   27.2165 C   0  0  0  0  0  0  0  0  0  0  0  0
  -32.8666   -4.9625   25.9325 C   0  0  0  0  0  0  0  0  0  0  0  0
  -33.3812   -6.2369   25.8324 C   0  0  0  0  0  0  0  0  0  0  0  0
  -33.8040   -6.7694   27.0314 C   0  0  0  0  0  0  0  0  0  0  0  0
  -33.7181   -6.1088   28.2374 C   0  0  0  0  0  0  0  0  0  0  0  0
  -32.3555   -2.5730   33.4158 C   0  0  0  0  0  0  0  0  0  0  0  0
  -34.5295   -2.1476   32.1720 C   0  0  0  0  0  0  0  0  0  0  0  0
  -34.8908   -1.6089   33.2371 C   0  0  0  0  0  0  0  0  0  0  0  0
  -32.9673   -2.1004   34.6417 C   0  0  0  0  0  0  0  0  0  0  0  0
  -34.1760   -1.4536   34.4433 C   0  0  0  0  0  0  0  0  0  0  0  0
  -33.7118   -5.1332   33.2072 C   0  0  0  0  0  0  0  0  0  0  0  0
  1  8  1  0
  8  9  1  0
  5 10  1  0
 10 11  2  0
 10 12  1  0
  8 13  2  0
  9 14  1  0
  9 15  1  0
 14 16  1  0
 16 17  1  0
 17 18  1  0
 15 19  1  0
 17 19  1  0
 17 20  1  0
 18 22  1  0
 21 23  1  0
 21 24  1  0
 18 30  1  0
 18 31  1  0
 32 34  1  0
 33 34  1  0
 22 35  1  0
  1  2  1  0
 30 33  1  0
 32 31  1  0
 22 24  1  0
 21 20  1  0
  2  3  2  0
  3  4  1  0
  4  5  2  0
  5  6  1  0
  6  7  2  0
  7  2  1  0
 23 25  2  0
 25 26  1  0
 26 27  2  0
 27 28  1  0
 28 29  2  0
 29 23  1  0
M  END

$$$$
