No_1542-gen_results/8p0m/2024-11-27-11-27-31/
     RDKit          3D

 21 23  0  0  0  0  0  0  0  0999 V2000
  -28.0162   -0.8135   28.8779 C   0  0  0  0  0  0  0  0  0  0  0  0
  -28.4690   -0.7850   29.8287 C   0  0  0  0  0  0  0  0  0  0  0  0
  -26.5042   -0.7777   28.8766 C   0  0  0  0  0  0  0  0  0  0  0  0
  -25.9150   -0.6580   29.9230 C   0  0  0  0  0  0  0  0  0  0  0  0
  -30.0078   -0.8570   29.8768 C   0  0  0  0  0  0  0  0  0  0  0  0
  -26.5279   -0.6329   31.1908 C   0  0  0  0  0  0  0  0  0  0  0  0
  -27.9294   -0.7307   31.1655 C   0  0  0  0  0  0  0  0  0  0  0  0
  -30.5327   -0.4689   28.9288 O   0  0  0  0  0  0  0  0  0  0  0  0
  -30.6929   -1.4592   30.9446 N   0  0  0  0  0  0  0  0  0  0  0  0
  -32.1228   -1.5827   30.8931 C   0  0  0  0  0  0  0  0  0  0  0  0
  -32.6867   -2.2293   31.4678 C   0  0  0  0  0  0  0  0  0  0  0  0
  -34.1235   -2.3737   31.4036 C   0  0  0  0  0  0  0  0  0  0  0  0
  -34.7729   -1.5439   30.4555 C   0  0  0  0  0  0  0  0  0  0  0  0
  -33.9996   -0.7358   29.6772 C   0  0  0  0  0  0  0  0  0  0  0  0
  -32.6688   -0.6546   29.8482 C   0  0  0  0  0  0  0  0  0  0  0  0
  -24.3536   -0.5926   29.9761 C   0  0  0  0  0  0  0  0  0  0  0  0
  -23.5629   -1.2065   30.4997 C   0  0  0  0  0  0  0  0  0  0  0  0
  -23.7736    0.5060   29.1260 C   0  0  0  0  0  0  0  0  0  0  0  0
  -22.4132    0.6208   29.0036 C   0  0  0  0  0  0  0  0  0  0  0  0
  -22.1556   -1.1975   30.5471 C   0  0  0  0  0  0  0  0  0  0  0  0
  -21.5938   -0.1876   29.6879 C   0  0  0  0  0  0  0  0  0  0  0  0
  2  5  1  0
  5  8  2  0
  5  9  1  0
  9 10  1  0
  4 16  1  0
 16 17  2  0
 17 20  1  0
 20 21  2  0
 21 19  1  0
 19 18  2  0
 18 16  1  0
 10 11  2  0
 11 12  1  0
 12 13  2  0
 13 14  1  0
 14 15  2  0
 15 10  1  0
  1  2  2  0
  2  7  1  0
  7  6  2  0
  6  4  1  0
  4  3  2  0
  3  1  1  0
M  END

$$$$
