No_1905-gen_results/8p0m/2024-11-27-11-27-31/
     RDKit          3D

 12 12  0  0  0  0  0  0  0  0999 V2000
  -28.1229   -1.3353   28.4874 O   0  0  0  0  0  0  0  0  0  0  0  0
  -27.4806   -0.4044   28.7094 C   0  0  0  0  0  0  0  0  0  0  0  0
  -26.4599   -0.1104   28.0051 N   0  0  0  0  0  0  0  0  0  0  0  0
  -26.1476   -0.4948   26.8760 C   0  0  0  0  0  0  0  0  0  0  0  0
  -27.9570    0.7379   29.5934 C   0  0  0  0  0  0  0  0  0  0  0  0
  -28.9389    0.9028   29.9349 Cl  0  0  0  0  0  0  0  0  0  0  0  0
  -26.6752    1.5472   30.0353 C   0  0  0  0  0  0  0  0  0  0  0  0
  -25.5869    1.7762   29.2155 C   0  0  0  0  0  0  0  0  0  0  0  0
  -25.3094    0.8751   28.2421 C   0  0  0  0  0  0  0  0  0  0  0  0
  -24.1494    0.9163   27.4118 C   0  0  0  0  0  0  0  0  0  0  0  0
  -23.0100    1.6013   27.9944 C   0  0  0  0  0  0  0  0  0  0  0  0
  -21.8124    1.5687   27.2373 C   0  0  0  0  0  0  0  0  0  0  0  0
  1  2  2  0
  2  3  1  0
  3  4  1  0
  2  5  1  0
  5  6  1  0
  5  7  1  0
  7  8  1  0
  3  9  1  0
  8  9  1  0
  9 10  1  0
 10 11  2  3
 11 12  1  0
M  END

$$$$
