No_1080-gen_results/8p0m/2024-11-27-11-27-31/
     RDKit          3D

 21 23  0  0  0  0  0  0  0  0999 V2000
  -28.0162   -0.8135   28.8779 C   0  0  0  0  0  0  0  0  0  0  0  0
  -27.0636   -0.1189   28.6079 C   0  0  0  0  0  0  0  0  0  0  0  0
  -26.9287    1.1713   29.0083 C   0  0  0  0  0  0  0  0  0  0  0  0
  -25.7702    2.0341   28.6884 C   0  0  0  0  0  0  0  0  0  0  0  0
  -25.6189    3.3482   29.0918 C   0  0  0  0  0  0  0  0  0  0  0  0
  -29.0712   -0.3338   29.7689 C   0  0  0  0  0  0  0  0  0  0  0  0
  -29.0128    0.9333   30.1718 C   0  0  0  0  0  0  0  0  0  0  0  0
  -27.8993    1.7759   29.8587 C   0  0  0  0  0  0  0  0  0  0  0  0
  -24.5417    4.1093   28.6528 C   0  0  0  0  0  0  0  0  0  0  0  0
  -23.7334    3.5516   27.6135 C   0  0  0  0  0  0  0  0  0  0  0  0
  -24.8513    1.6832   27.6298 C   0  0  0  0  0  0  0  0  0  0  0  0
  -23.8924    2.3843   27.1237 C   0  0  0  0  0  0  0  0  0  0  0  0
  -23.0635    1.9401   26.1641 O   0  0  0  0  0  0  0  0  0  0  0  0
  -30.0500   -1.1917   30.0697 O   0  0  0  0  0  0  0  0  0  0  0  0
  -29.8650   -2.3678   30.6757 C   0  0  0  0  0  0  0  0  0  0  0  0
  -28.7948   -2.6587   31.2258 C   0  0  0  0  0  0  0  0  0  0  0  0
  -30.9960   -3.3051   30.5702 C   0  0  0  0  0  0  0  0  0  0  0  0
  -27.7685   -1.8922   31.3427 O   0  0  0  0  0  0  0  0  0  0  0  0
  -30.8038   -4.5382   30.9336 N   0  0  0  0  0  0  0  0  0  0  0  0
  -29.7023   -4.9625   31.6629 C   0  0  0  0  0  0  0  0  0  0  0  0
  -28.6453   -4.0982   31.8061 C   0  0  0  0  0  0  0  0  0  0  0  0
  3  4  1  0
 12 13  1  0
  6 14  1  0
 14 15  1  0
 16 18  1  0
 15 16  2  0
 16 21  1  0
 21 20  2  0
 20 19  1  0
 19 17  2  0
 17 15  1  0
  1  2  2  0
  2  3  1  0
  3  8  2  0
  8  7  1  0
  7  6  2  0
  6  1  1  0
  4  5  2  0
  5  9  1  0
  9 10  2  0
 10 12  1  0
 12 11  2  0
 11  4  1  0
M  END

$$$$
