No_1553-gen_results/8p0m/2024-11-27-11-27-31/
     RDKit          3D

 24 26  0  0  0  0  0  0  0  0999 V2000
  -28.0162   -0.8135   28.8779 C   0  0  0  0  0  0  0  0  0  0  0  0
  -28.4690   -0.7850   29.8287 C   0  0  0  0  0  0  0  0  0  0  0  0
  -26.5042   -0.7777   28.8766 C   0  0  0  0  0  0  0  0  0  0  0  0
  -25.8103   -0.8531   30.1028 C   0  0  0  0  0  0  0  0  0  0  0  0
  -27.9906   -0.8916   31.2257 C   0  0  0  0  0  0  0  0  0  0  0  0
  -26.6042   -0.8676   31.2652 C   0  0  0  0  0  0  0  0  0  0  0  0
  -24.3894   -0.8050   30.1639 C   0  0  0  0  0  0  0  0  0  0  0  0
  -23.8172    0.4762   29.9118 C   0  0  0  0  0  0  0  0  0  0  0  0
  -22.5010    0.5449   29.4097 C   0  0  0  0  0  0  0  0  0  0  0  0
  -21.7696   -0.6524   29.2129 C   0  0  0  0  0  0  0  0  0  0  0  0
  -23.6812   -1.3591   31.3252 C   0  0  0  0  0  0  0  0  0  0  0  0
  -23.8058   -1.7929   29.1080 C   0  0  0  0  0  0  0  0  0  0  0  0
  -22.8395   -1.5787   28.5479 C   0  0  0  0  0  0  0  0  0  0  0  0
  -24.4773    1.7379   30.2423 C   0  0  0  0  0  0  0  0  0  0  0  0
  -24.8521    2.5078   29.3228 O   0  0  0  0  0  0  0  0  0  0  0  0
  -24.7111    2.0093   31.5427 O   0  0  0  0  0  0  0  0  0  0  0  0
  -30.0695   -0.8236   29.8180 C   0  0  0  0  0  0  0  0  0  0  0  0
  -30.7154    0.0786   30.4556 O   0  0  0  0  0  0  0  0  0  0  0  0
  -30.6155   -1.6639   29.1364 O   0  0  0  0  0  0  0  0  0  0  0  0
  -24.4527   -3.0044   28.9193 N   0  0  0  0  0  0  0  0  0  0  0  0
  -25.4667   -3.6013   28.6926 C   0  0  0  0  0  0  0  0  0  0  0  0
  -25.5563   -4.9200   28.9189 N   0  0  0  0  0  0  0  0  0  0  0  0
  -23.7376   -4.2095   29.4655 C   0  0  0  0  0  0  0  0  0  0  0  0
  -24.4636   -5.2445   29.2829 N   0  0  0  0  0  0  0  0  0  0  0  0
  4  7  1  0
  7  8  1  0
  9 10  1  0
  7 11  1  0
  7 12  1  0
 10 13  1  0
  8 14  1  0
 14 15  2  0
 14 16  1  0
  2 17  1  0
 17 18  2  0
 17 19  1  0
 12 20  1  0
 20 21  1  0
 21 22  2  0
 20 23  1  0
 22 24  1  0
 23 24  1  0
  8  9  1  0
 13 12  1  0
  1  2  2  0
  2  5  1  0
  5  6  2  0
  6  4  1  0
  4  3  2  0
  3  1  1  0
M  END

$$$$
