No_1320-gen_results/8p0m/2024-11-27-11-27-31/
     RDKit          3D

 13 13  0  0  0  0  0  0  0  0999 V2000
  -28.0162   -0.8135   28.8779 C   0  0  0  0  0  0  0  0  0  0  0  0
  -27.0636   -0.1190   28.6079 C   0  0  0  0  0  0  0  0  0  0  0  0
  -27.0010    0.6913   27.4910 C   0  0  0  0  0  0  0  0  0  0  0  0
  -25.8548    1.4825   27.0830 C   0  0  0  0  0  0  0  0  0  0  0  0
  -24.6901    1.4526   27.8807 C   0  0  0  0  0  0  0  0  0  0  0  0
  -24.7379    0.6010   29.0416 C   0  0  0  0  0  0  0  0  0  0  0  0
  -25.8234   -0.1688   29.3887 C   0  0  0  0  0  0  0  0  0  0  0  0
  -27.7845   -2.0034   29.3006 F   0  0  0  0  0  0  0  0  0  0  0  0
  -28.8847   -0.9855   27.8614 F   0  0  0  0  0  0  0  0  0  0  0  0
  -28.7444   -0.2178   29.9085 F   0  0  0  0  0  0  0  0  0  0  0  0
  -23.5337    2.2463   27.5997 C   0  0  0  0  0  0  0  0  0  0  0  0
  -22.3950    1.9412   28.0641 O   0  0  0  0  0  0  0  0  0  0  0  0
  -23.6718    3.3470   26.9476 O   0  0  0  0  0  0  0  0  0  0  0  0
  1  2  1  0
  1  8  1  0
  1  9  1  0
  1 10  1  0
  5 11  1  0
 11 12  2  0
 11 13  1  0
  2  3  2  0
  3  4  1  0
  4  5  2  0
  5  6  1  0
  6  7  2  0
  7  2  1  0
M  END

$$$$
