No_1971-gen_results/8p0m/2024-11-27-11-27-31/
     RDKit          3D

 33 36  0  0  0  0  0  0  0  0999 V2000
  -28.0162   -0.8135   28.8779 C   0  0  0  0  0  0  0  0  0  0  0  0
  -27.0636   -0.1189   28.6079 C   0  0  0  0  0  0  0  0  0  0  0  0
  -26.9716    0.7139   27.5060 C   0  0  0  0  0  0  0  0  0  0  0  0
  -28.1053    0.7744   26.6421 C   0  0  0  0  0  0  0  0  0  0  0  0
  -29.2008    0.1044   27.0527 C   0  0  0  0  0  0  0  0  0  0  0  0
  -28.0219   -1.5899   30.0879 C   0  0  0  0  0  0  0  0  0  0  0  0
  -29.1640   -0.6394   28.1484 C   0  0  0  0  0  0  0  0  0  0  0  0
  -28.8247   -1.8905   30.7103 O   0  0  0  0  0  0  0  0  0  0  0  0
  -26.7836   -2.2523   30.3242 O   0  0  0  0  0  0  0  0  0  0  0  0
  -30.4994    0.1349   26.3564 C   0  0  0  0  0  0  0  0  0  0  0  0
  -30.5416    0.0500   25.3028 O   0  0  0  0  0  0  0  0  0  0  0  0
  -31.5717    0.1737   27.0729 O   0  0  0  0  0  0  0  0  0  0  0  0
  -25.7158    1.4414   27.0821 C   0  0  0  0  0  0  0  0  0  0  0  0
  -25.3160    2.5198   27.9155 C   0  0  0  0  0  0  0  0  0  0  0  0
  -24.4241    3.1581   28.1111 C   0  0  0  0  0  0  0  0  0  0  0  0
  -23.2619    2.7537   27.2271 C   0  0  0  0  0  0  0  0  0  0  0  0
  -23.5434    1.6798   26.2755 C   0  0  0  0  0  0  0  0  0  0  0  0
  -24.7169    0.9664   26.2830 C   0  0  0  0  0  0  0  0  0  0  0  0
  -25.7044   -1.5259   30.5692 C   0  0  0  0  0  0  0  0  0  0  0  0
  -25.4313   -0.9455   31.4047 C   0  0  0  0  0  0  0  0  0  0  0  0
  -24.1589   -0.1902   31.5397 C   0  0  0  0  0  0  0  0  0  0  0  0
  -23.2943   -0.2142   30.3892 C   0  0  0  0  0  0  0  0  0  0  0  0
  -24.6751   -1.5835   29.3876 C   0  0  0  0  0  0  0  0  0  0  0  0
  -23.5545   -1.0021   29.3754 C   0  0  0  0  0  0  0  0  0  0  0  0
  -28.0717    1.5822   25.6219 F   0  0  0  0  0  0  0  0  0  0  0  0
  -32.7945   -0.1811   26.6047 C   0  0  0  0  0  0  0  0  0  0  0  0
  -33.7128    0.7042   26.4065 C   0  0  0  0  0  0  0  0  0  0  0  0
  -33.6114    1.8736   27.1704 C   0  0  0  0  0  0  0  0  0  0  0  0
  -33.5836    2.9741   27.0257 C   0  0  0  0  0  0  0  0  0  0  0  0
  -33.4548    4.1682   27.9158 C   0  0  0  0  0  0  0  0  0  0  0  0
  -33.2918    3.8383   29.2664 C   0  0  0  0  0  0  0  0  0  0  0  0
  -33.2781    2.4956   29.6147 C   0  0  0  0  0  0  0  0  0  0  0  0
  -33.3892    1.5053   28.6694 C   0  0  0  0  0  0  0  0  0  0  0  0
  1  6  1  0
  6  8  2  0
  6  9  1  0
  5 10  1  0
 10 11  2  0
 10 12  1  0
  3 13  1  0
  9 19  1  0
  4 25  1  0
 12 26  1  0
 26 27  1  0
 27 28  1  0
 28 29  2  0
 29 30  1  0
 30 31  2  0
 31 32  1  0
 32 33  2  0
 33 28  1  0
 13 14  2  0
 14 15  1  0
 15 16  2  0
 16 17  1  0
 17 18  2  0
 18 13  1  0
  1  2  2  0
  2  3  1  0
  3  4  2  0
  4  5  1  0
  5  7  2  0
  7  1  1  0
 19 20  2  0
 20 21  1  0
 21 22  2  0
 22 24  1  0
 24 23  2  0
 23 19  1  0
M  END

$$$$
