No_1529-gen_results/8p0m/2024-11-27-11-27-31/
     RDKit          3D

 22 23  0  0  0  0  0  0  0  0999 V2000
  -28.0162   -0.8135   28.8779 C   0  0  0  0  0  0  0  0  0  0  0  0
  -27.0636   -0.1189   28.6079 C   0  0  0  0  0  0  0  0  0  0  0  0
  -26.9716    0.7139   27.5060 C   0  0  0  0  0  0  0  0  0  0  0  0
  -28.1053    0.7744   26.6421 C   0  0  0  0  0  0  0  0  0  0  0  0
  -29.2041    0.1179   27.0477 C   0  0  0  0  0  0  0  0  0  0  0  0
  -29.2127   -0.6088   28.1281 C   0  0  0  0  0  0  0  0  0  0  0  0
  -25.7106    1.4519   27.1380 C   0  0  0  0  0  0  0  0  0  0  0  0
  -25.3772    2.0455   26.1737 C   0  0  0  0  0  0  0  0  0  0  0  0
  -24.0750    2.7193   25.9782 C   0  0  0  0  0  0  0  0  0  0  0  0
  -23.0770    2.4988   26.9483 C   0  0  0  0  0  0  0  0  0  0  0  0
  -23.3639    1.6220   28.0103 C   0  0  0  0  0  0  0  0  0  0  0  0
  -24.6236    1.0878   28.1748 C   0  0  0  0  0  0  0  0  0  0  0  0
  -22.3547    1.4508   28.8919 O   0  0  0  0  0  0  0  0  0  0  0  0
  -30.3330    0.3347   26.0506 C   0  0  0  0  0  0  0  0  0  0  0  0
  -30.9717    1.1359   26.0788 O   0  0  0  0  0  0  0  0  0  0  0  0
  -30.5579   -0.7828   25.1969 O   0  0  0  0  0  0  0  0  0  0  0  0
  -28.0846   -1.5878   29.9998 O   0  0  0  0  0  0  0  0  0  0  0  0
  -27.0721   -2.4453   30.1804 C   0  0  0  0  0  0  0  0  0  0  0  0
  -27.0612   -3.5441   29.5109 C   0  0  0  0  0  0  0  0  0  0  0  0
  -28.1010   -4.3868   29.8326 C   0  0  0  0  0  0  0  0  0  0  0  0
  -28.2835   -4.7091   31.0584 O   0  0  0  0  0  0  0  0  0  0  0  0
  -28.8632   -4.8696   28.9407 O   0  0  0  0  0  0  0  0  0  0  0  0
  3  7  1  0
  8  9  1  0
 10 11  1  0
  7 12  1  0
 11 12  1  0
 11 13  2  0
  5 14  1  0
 14 15  2  0
 14 16  1  0
  1 17  1  0
 17 18  1  0
 18 19  1  0
 19 20  1  0
 20 21  2  0
 20 22  1  0
 10  9  1  0
  8  7  1  0
  1  2  2  0
  2  3  1  0
  3  4  2  0
  4  5  1  0
  5  6  2  0
  6  1  1  0
M  END

$$$$
