No_1960-gen_results/8p0m/2024-11-27-11-27-31/
     RDKit          3D

 25 26  0  0  0  0  0  0  0  0999 V2000
  -28.0162   -0.8135   28.8779 C   0  0  0  0  0  0  0  0  0  0  0  0
  -27.0636   -0.1189   28.6079 C   0  0  0  0  0  0  0  0  0  0  0  0
  -25.7923   -0.4302   29.0761 C   0  0  0  0  0  0  0  0  0  0  0  0
  -25.5756   -1.5654   29.9363 C   0  0  0  0  0  0  0  0  0  0  0  0
  -26.7354   -2.3004   30.2173 C   0  0  0  0  0  0  0  0  0  0  0  0
  -27.9184   -1.9537   29.7629 C   0  0  0  0  0  0  0  0  0  0  0  0
  -29.0001   -2.7012   30.1151 O   0  0  0  0  0  0  0  0  0  0  0  0
  -24.5290    0.3490   28.7998 C   0  0  0  0  0  0  0  0  0  0  0  0
  -23.3442    0.0060   29.1658 C   0  0  0  0  0  0  0  0  0  0  0  0
  -22.1783    0.7811   28.7783 C   0  0  0  0  0  0  0  0  0  0  0  0
  -22.3218    1.7499   27.7727 C   0  0  0  0  0  0  0  0  0  0  0  0
  -24.6102    1.3558   27.7479 C   0  0  0  0  0  0  0  0  0  0  0  0
  -23.5148    2.0341   27.3068 C   0  0  0  0  0  0  0  0  0  0  0  0
  -28.8769   -3.9644   30.6079 C   0  0  0  0  0  0  0  0  0  0  0  0
  -30.0970   -4.6837   30.6961 C   0  0  0  0  0  0  0  0  0  0  0  0
  -30.0051   -5.6897   31.3878 O   0  0  0  0  0  0  0  0  0  0  0  0
  -31.2129   -4.2269   30.3771 N   0  0  0  0  0  0  0  0  0  0  0  0
  -31.4262   -3.0495   29.6256 C   0  0  0  0  0  0  0  0  0  0  0  0
  -32.4458   -5.0522   30.5972 C   0  0  0  0  0  0  0  0  0  0  0  0
  -32.4619   -3.1968   28.5867 C   0  0  0  0  0  0  0  0  0  0  0  0
  -32.1505   -3.3700   27.4547 C   0  0  0  0  0  0  0  0  0  0  0  0
  -33.1233   -3.5749   26.3365 C   0  0  0  0  0  0  0  0  0  0  0  0
  -32.7166   -3.6742   24.9972 C   0  0  0  0  0  0  0  0  0  0  0  0
  -31.5021   -2.9172   24.7840 C   0  0  0  0  0  0  0  0  0  0  0  0
  -30.9211   -2.0195   25.5136 C   0  0  0  0  0  0  0  0  0  0  0  0
  6  7  1  0
  3  8  1  0
  7 14  1  0
 14 15  1  0
 15 16  2  0
 15 17  1  0
 17 18  1  0
 17 19  1  0
 18 20  2  3
 20 21  1  0
 21 22  2  3
 22 23  1  0
 23 24  2  3
 24 25  1  0
  1  2  2  0
  2  3  1  0
  3  4  2  0
  4  5  1  0
  5  6  2  0
  6  1  1  0
  8  9  2  0
  9 10  1  0
 10 11  2  0
 11 13  1  0
 13 12  2  0
 12  8  1  0
M  END

$$$$
