No_1582-gen_results/8p0m/2024-11-27-11-27-31/
     RDKit          3D

 25 27  0  0  0  0  0  0  0  0999 V2000
  -28.0162   -0.8135   28.8779 C   0  0  0  0  0  0  0  0  0  0  0  0
  -28.4690   -0.7850   29.8287 C   0  0  0  0  0  0  0  0  0  0  0  0
  -28.1816    0.4277   28.1134 C   0  0  0  0  0  0  0  0  0  0  0  0
  -28.9841    1.4155   28.5154 C   0  0  0  0  0  0  0  0  0  0  0  0
  -29.3802    0.1384   30.4612 C   0  0  0  0  0  0  0  0  0  0  0  0
  -29.5415    1.2736   29.7242 C   0  0  0  0  0  0  0  0  0  0  0  0
  -27.4586    0.4934   26.7701 C   0  0  0  0  0  0  0  0  0  0  0  0
  -26.0264    0.3840   26.7617 C   0  0  0  0  0  0  0  0  0  0  0  0
  -25.2257    1.3507   27.3721 C   0  0  0  0  0  0  0  0  0  0  0  0
  -23.8545    1.0997   27.5822 C   0  0  0  0  0  0  0  0  0  0  0  0
  -22.9465    2.1788   27.6417 C   0  0  0  0  0  0  0  0  0  0  0  0
  -21.5776    1.7840   27.9126 C   0  0  0  0  0  0  0  0  0  0  0  0
  -21.3038    0.4929   28.3712 C   0  0  0  0  0  0  0  0  0  0  0  0
  -22.2836   -0.4611   28.5423 C   0  0  0  0  0  0  0  0  0  0  0  0
  -23.5500   -0.1554   28.2034 C   0  0  0  0  0  0  0  0  0  0  0  0
  -25.7412    2.7050   27.4978 C   0  0  0  0  0  0  0  0  0  0  0  0
  -28.1795    0.6610   25.6019 C   0  0  0  0  0  0  0  0  0  0  0  0
  -28.0156   -0.0150   24.6853 O   0  0  0  0  0  0  0  0  0  0  0  0
  -28.7906    1.8753   25.3784 N   0  0  0  0  0  0  0  0  0  0  0  0
  -29.5013    2.1933   24.1494 C   0  0  0  0  0  0  0  0  0  0  0  0
  -25.9788    3.1755   28.7023 C   0  0  0  0  0  0  0  0  0  0  0  0
  -26.5390    4.4789   28.9241 C   0  0  0  0  0  0  0  0  0  0  0  0
  -25.4613    3.6659   26.4722 C   0  0  0  0  0  0  0  0  0  0  0  0
  -26.3775    5.3941   27.8797 C   0  0  0  0  0  0  0  0  0  0  0  0
  -25.8933    4.9885   26.6560 C   0  0  0  0  0  0  0  0  0  0  0  0
  3  7  1  0
  7  8  1  0
  8  9  1  0
  9 16  1  0
  7 17  1  0
 17 18  2  0
 17 19  1  0
 19 20  1  0
  9 10  1  0
  1  2  2  0
  2  5  1  0
  5  6  2  0
  6  4  1  0
  4  3  2  0
  3  1  1  0
 10 11  2  0
 11 12  1  0
 12 13  2  0
 13 14  1  0
 14 15  2  0
 15 10  1  0
 16 21  2  0
 21 22  1  0
 22 24  2  0
 24 25  1  0
 25 23  2  0
 23 16  1  0
M  END

$$$$
