No_1543-gen_results/8p0m/2024-11-27-11-27-31/
     RDKit          3D

  9  9  0  0  0  0  0  0  0  0999 V2000
  -28.1229   -1.3353   28.4874 O   0  0  0  0  0  0  0  0  0  0  0  0
  -27.4806   -0.4044   28.7094 C   0  0  0  0  0  0  0  0  0  0  0  0
  -27.1904    0.2460   29.5268 C   0  0  0  0  0  0  0  0  0  0  0  0
  -26.6871   -0.0001   27.4423 N   0  0  0  0  0  0  0  0  0  0  0  0
  -27.8781    0.0301   30.6683 F   0  0  0  0  0  0  0  0  0  0  0  0
  -25.7257    0.9956   27.4534 C   0  0  0  0  0  0  0  0  0  0  0  0
  -25.5781    1.7145   28.6308 C   0  0  0  0  0  0  0  0  0  0  0  0
  -26.2570    1.3890   29.7124 C   0  0  0  0  0  0  0  0  0  0  0  0
  -24.9046    1.3684   26.0270 Cl  0  0  0  0  0  0  0  0  0  0  0  0
  1  2  2  0
  2  3  1  0
  2  4  1  0
  3  5  1  0
  4  6  1  0
  3  8  1  0
  7  8  1  0
  6  9  1  0
  7  6  1  0
M  END

$$$$
