No_123-gen_results/8p0m/2024-11-27-11-27-31/
     RDKit          3D

 15 15  0  0  0  0  0  0  0  0999 V2000
  -28.0162   -0.8135   28.8779 C   0  0  0  0  0  0  0  0  0  0  0  0
  -27.0636   -0.1189   28.6079 C   0  0  0  0  0  0  0  0  0  0  0  0
  -25.7647   -0.3897   29.0360 C   0  0  0  0  0  0  0  0  0  0  0  0
  -24.5517    0.4058   28.7646 C   0  0  0  0  0  0  0  0  0  0  0  0
  -24.6957    1.4480   27.7988 C   0  0  0  0  0  0  0  0  0  0  0  0
  -25.9755    1.7250   27.3077 C   0  0  0  0  0  0  0  0  0  0  0  0
  -27.0718    1.0134   27.6535 C   0  0  0  0  0  0  0  0  0  0  0  0
  -28.6043   -0.4743   30.2323 C   0  0  0  0  0  0  0  0  0  0  0  0
  -28.2472    0.2907   30.9004 N   0  0  0  0  0  0  0  0  0  0  0  0
  -29.7712   -1.1899   30.4620 O   0  0  0  0  0  0  0  0  0  0  0  0
  -28.8770    0.6174   32.2624 C   0  0  0  0  0  0  0  0  0  0  0  0
  -23.5191    2.2568   27.5213 C   0  0  0  0  0  0  0  0  0  0  0  0
  -23.6309    3.3363   27.0694 O   0  0  0  0  0  0  0  0  0  0  0  0
  -22.2931    1.7785   27.6205 O   0  0  0  0  0  0  0  0  0  0  0  0
  -28.2646    1.2691   27.1323 O   0  0  0  0  0  0  0  0  0  0  0  0
  1  2  2  3
  2  3  1  0
  3  4  1  0
  4  5  1  0
  5  6  1  0
  2  7  1  0
  6  7  1  0
  1  8  1  0
  8  9  1  0
  8 10  2  0
  9 11  1  0
  5 12  1  0
 12 13  2  0
 12 14  1  0
  7 15  2  0
M  END

$$$$
