No_1305-gen_results/8p0m/2024-11-27-11-27-31/
     RDKit          3D

 14 14  0  0  0  0  0  0  0  0999 V2000
  -28.0162   -0.8135   28.8779 C   0  0  0  0  0  0  0  0  0  0  0  0
  -27.0636   -0.1189   28.6079 C   0  0  0  0  0  0  0  0  0  0  0  0
  -27.0010    0.6913   27.4910 C   0  0  0  0  0  0  0  0  0  0  0  0
  -25.8548    1.4825   27.0830 C   0  0  0  0  0  0  0  0  0  0  0  0
  -24.6901    1.4526   27.8807 C   0  0  0  0  0  0  0  0  0  0  0  0
  -24.7379    0.6010   29.0416 C   0  0  0  0  0  0  0  0  0  0  0  0
  -25.8234   -0.1688   29.3887 C   0  0  0  0  0  0  0  0  0  0  0  0
  -28.9516   -0.6391   28.1654 F   0  0  0  0  0  0  0  0  0  0  0  0
  -27.7450   -2.1685   29.0408 F   0  0  0  0  0  0  0  0  0  0  0  0
  -23.5190    2.2147   27.5982 C   0  0  0  0  0  0  0  0  0  0  0  0
  -23.7160    3.3414   27.1459 F   0  0  0  0  0  0  0  0  0  0  0  0
  -22.7228    2.4177   28.7097 F   0  0  0  0  0  0  0  0  0  0  0  0
  -22.6644    1.4975   26.7427 F   0  0  0  0  0  0  0  0  0  0  0  0
  -28.4211   -0.4644   30.1801 F   0  0  0  0  0  0  0  0  0  0  0  0
  1  2  1  0
  1  8  1  0
  1  9  1  0
  5 10  1  0
 10 11  1  0
 10 12  1  0
 10 13  1  0
  1 14  1  0
  2  3  2  0
  3  4  1  0
  4  5  2  0
  5  6  1  0
  6  7  2  0
  7  2  1  0
M  END

$$$$
