No_1514-gen_results/8p0m/2024-11-27-11-27-31/
     RDKit          3D

 16 17  0  0  0  0  0  0  0  0999 V2000
  -28.0162   -0.8135   28.8779 C   0  0  0  0  0  0  0  0  0  0  0  0
  -28.4690   -0.7850   29.8287 C   0  0  0  0  0  0  0  0  0  0  0  0
  -27.0871    0.2903   28.6377 C   0  0  0  0  0  0  0  0  0  0  0  0
  -26.2516    0.4114   27.4223 C   0  0  0  0  0  0  0  0  0  0  0  0
  -28.3913    0.1041   30.9805 C   0  0  0  0  0  0  0  0  0  0  0  0
  -27.5332    1.1666   30.7866 C   0  0  0  0  0  0  0  0  0  0  0  0
  -26.8281    1.2557   29.6454 C   0  0  0  0  0  0  0  0  0  0  0  0
  -25.0638    0.2673   27.5264 N   0  0  0  0  0  0  0  0  0  0  0  0
  -24.1413    1.1287   26.8755 C   0  0  0  0  0  0  0  0  0  0  0  0
  -23.3816    2.0158   27.7748 C   0  0  0  0  0  0  0  0  0  0  0  0
  -26.8521    0.4587   26.3080 O   0  0  0  0  0  0  0  0  0  0  0  0
  -24.8528    2.1108   25.9150 C   0  0  0  0  0  0  0  0  0  0  0  0
  -24.3200   -0.7400   28.3186 C   0  0  0  0  0  0  0  0  0  0  0  0
  -23.5135   -0.3638   29.3983 C   0  0  0  0  0  0  0  0  0  0  0  0
  -22.5738    0.8819   28.8902 C   0  0  0  0  0  0  0  0  0  0  0  0
  -26.0698    2.2424   29.4778 F   0  0  0  0  0  0  0  0  0  0  0  0
  3  4  1  0
  4  8  1  0
  8  9  1  0
  9 10  1  0
  4 11  2  0
  9 12  1  0
  8 13  1  0
 13 14  1  0
 10 15  1  0
 14 15  1  0
  7 16  1  0
  1  2  2  0
  2  5  1  0
  5  6  2  0
  6  7  1  0
  7  3  2  0
  3  1  1  0
M  END

$$$$
