No_1791-gen_results/8p0m/2024-11-27-11-27-31/
     RDKit          3D

 22 24  0  0  0  0  0  0  0  0999 V2000
  -28.0162   -0.8135   28.8779 C   0  0  0  0  0  0  0  0  0  0  0  0
  -27.0636   -0.1189   28.6079 C   0  0  0  0  0  0  0  0  0  0  0  0
  -25.7647   -0.3897   29.0360 C   0  0  0  0  0  0  0  0  0  0  0  0
  -24.5516    0.4058   28.7646 C   0  0  0  0  0  0  0  0  0  0  0  0
  -23.2300    0.1178   29.2575 C   0  0  0  0  0  0  0  0  0  0  0  0
  -22.1393    0.9427   28.9224 C   0  0  0  0  0  0  0  0  0  0  0  0
  -27.8294   -1.9287   29.8545 C   0  0  0  0  0  0  0  0  0  0  0  0
  -26.5882   -2.3272   30.2682 C   0  0  0  0  0  0  0  0  0  0  0  0
  -25.4565   -1.5432   29.9146 C   0  0  0  0  0  0  0  0  0  0  0  0
  -22.2302    1.9089   27.8723 C   0  0  0  0  0  0  0  0  0  0  0  0
  -24.5538    1.4700   27.7617 C   0  0  0  0  0  0  0  0  0  0  0  0
  -23.4471    2.1666   27.3764 C   0  0  0  0  0  0  0  0  0  0  0  0
  -28.9842   -2.7701   30.2567 C   0  0  0  0  0  0  0  0  0  0  0  0
  -30.0512   -2.3853   30.1479 O   0  0  0  0  0  0  0  0  0  0  0  0
  -28.7277   -3.9143   30.8292 O   0  0  0  0  0  0  0  0  0  0  0  0
  -23.6067    3.0981   26.4079 O   0  0  0  0  0  0  0  0  0  0  0  0
  -31.2157   -3.2187   30.3201 C   0  0  0  0  0  0  0  0  0  0  0  0
  -31.5694   -3.5223   31.3766 C   0  0  0  0  0  0  0  0  0  0  0  0
  -32.7787   -4.3323   31.6353 C   0  0  0  0  0  0  0  0  0  0  0  0
  -31.8683   -3.5192   29.1817 N   0  0  0  0  0  0  0  0  0  0  0  0
  -32.9551   -4.2954   29.2206 C   0  0  0  0  0  0  0  0  0  0  0  0
  -33.4817   -4.6913   30.4555 C   0  0  0  0  0  0  0  0  0  0  0  0
  3  4  1  0
  4  5  1  0
  6 10  1  0
  4 11  1  0
 10 12  1  0
 11 12  1  0
  7 13  1  0
 13 14  1  0
 13 15  2  0
 12 16  2  0
 14 17  1  0
  6  5  1  0
 17 18  2  0
 18 19  1  0
 19 22  2  0
 22 21  1  0
 21 20  2  0
 20 17  1  0
  1  2  2  0
  2  3  1  0
  3  9  2  0
  9  8  1  0
  8  7  2  0
  7  1  1  0
M  END

$$$$
