No_1875-gen_results/8p0m/2024-11-27-11-27-31/
     RDKit          3D

 28 30  0  0  0  0  0  0  0  0999 V2000
  -28.0162   -0.8135   28.8779 C   0  0  0  0  0  0  0  0  0  0  0  0
  -27.0636   -0.1189   28.6079 C   0  0  0  0  0  0  0  0  0  0  0  0
  -26.9287    1.1713   29.0083 C   0  0  0  0  0  0  0  0  0  0  0  0
  -25.7702    2.0341   28.6884 C   0  0  0  0  0  0  0  0  0  0  0  0
  -24.7141    1.4431   27.9188 C   0  0  0  0  0  0  0  0  0  0  0  0
  -24.8590    0.0783   27.5836 C   0  0  0  0  0  0  0  0  0  0  0  0
  -25.9647   -0.6606   27.9164 C   0  0  0  0  0  0  0  0  0  0  0  0
  -29.0842   -0.4795   28.3366 F   0  0  0  0  0  0  0  0  0  0  0  0
  -27.7680   -2.1530   28.6734 F   0  0  0  0  0  0  0  0  0  0  0  0
  -28.2433   -0.8451   30.2915 F   0  0  0  0  0  0  0  0  0  0  0  0
  -23.5362    2.1515   27.5777 C   0  0  0  0  0  0  0  0  0  0  0  0
  -22.4567    1.7408   27.4302 O   0  0  0  0  0  0  0  0  0  0  0  0
  -23.7878    3.4400   27.2463 O   0  0  0  0  0  0  0  0  0  0  0  0
  -25.6876    3.3977   29.1312 C   0  0  0  0  0  0  0  0  0  0  0  0
  -26.9295    3.9513   29.8260 C   0  0  0  0  0  0  0  0  0  0  0  0
  -26.8785    5.1526   30.0375 C   0  0  0  0  0  0  0  0  0  0  0  0
  -27.9751    5.8123   30.7692 C   0  0  0  0  0  0  0  0  0  0  0  0
  -27.9831    7.1597   31.0964 C   0  0  0  0  0  0  0  0  0  0  0  0
  -26.8653    7.9278   30.6642 C   0  0  0  0  0  0  0  0  0  0  0  0
  -25.8035    7.3897   29.9628 C   0  0  0  0  0  0  0  0  0  0  0  0
  -25.8211    5.9896   29.6857 C   0  0  0  0  0  0  0  0  0  0  0  0
  -24.6452    8.2233   29.5327 C   0  0  0  0  0  0  0  0  0  0  0  0
  -24.4913    8.4498   28.0923 C   0  0  0  0  0  0  0  0  0  0  0  0
  -23.7771    8.8686   30.4376 C   0  0  0  0  0  0  0  0  0  0  0  0
  -22.7526    9.6835   29.9820 C   0  0  0  0  0  0  0  0  0  0  0  0
  -25.3384    7.7953   27.1794 C   0  0  0  0  0  0  0  0  0  0  0  0
  -22.5916    9.8368   28.5449 C   0  0  0  0  0  0  0  0  0  0  0  0
  -23.4245    9.2297   27.7327 C   0  0  0  0  0  0  0  0  0  0  0  0
  1  2  1  0
  1  8  1  0
  1  9  1  0
  1 10  1  0
  5 11  1  0
 11 12  2  0
 11 13  1  0
  4 14  1  0
 14 15  1  0
 20 22  1  0
 23 26  1  0
 15 16  1  0
  2  3  2  0
  3  4  1  0
  4  5  2  0
  5  6  1  0
  6  7  2  0
  7  2  1  0
 22 23  2  0
 23 28  1  0
 28 27  2  0
 27 25  1  0
 25 24  2  0
 24 22  1  0
 16 17  2  0
 17 18  1  0
 18 19  2  0
 19 20  1  0
 20 21  2  0
 21 16  1  0
M  END

$$$$
