No_1371-gen_results/8p0m/2024-11-27-11-27-31/
     RDKit          3D

 32 33  0  0  0  0  0  0  0  0999 V2000
  -28.0162   -0.8135   28.8779 C   0  0  0  0  0  0  0  0  0  0  0  0
  -27.0636   -0.1189   28.6079 C   0  0  0  0  0  0  0  0  0  0  0  0
  -26.9716    0.7139   27.5060 C   0  0  0  0  0  0  0  0  0  0  0  0
  -28.1053    0.7744   26.6421 C   0  0  0  0  0  0  0  0  0  0  0  0
  -29.2008    0.1044   27.0527 C   0  0  0  0  0  0  0  0  0  0  0  0
  -28.0219   -1.5899   30.0879 C   0  0  0  0  0  0  0  0  0  0  0  0
  -29.1640   -0.6394   28.1484 C   0  0  0  0  0  0  0  0  0  0  0  0
  -27.1149   -2.3776   30.3500 O   0  0  0  0  0  0  0  0  0  0  0  0
  -29.1169   -1.6536   30.9061 N   0  0  0  0  0  0  0  0  0  0  0  0
  -29.1873   -2.5920   31.9877 C   0  0  0  0  0  0  0  0  0  0  0  0
  -28.0052    1.6585   25.4549 C   0  0  0  0  0  0  0  0  0  0  0  0
  -28.4224    2.6037   25.6680 F   0  0  0  0  0  0  0  0  0  0  0  0
  -26.6924    1.7281   25.0537 F   0  0  0  0  0  0  0  0  0  0  0  0
  -28.6133    0.9867   24.3864 F   0  0  0  0  0  0  0  0  0  0  0  0
  -30.2462   -0.7725   30.7954 C   0  0  0  0  0  0  0  0  0  0  0  0
  -30.4831   -2.7730   32.3991 C   0  0  0  0  0  0  0  0  0  0  0  0
  -31.0879   -3.5194   31.7788 C   0  0  0  0  0  0  0  0  0  0  0  0
  -30.6122   -4.1356   30.7085 C   0  0  0  0  0  0  0  0  0  0  0  0
  -29.4108   -4.8430   30.9984 C   0  0  0  0  0  0  0  0  0  0  0  0
  -31.4868   -4.9923   29.7158 C   0  0  0  0  0  0  0  0  0  0  0  0
  -31.0419   -5.3462   28.6112 C   0  0  0  0  0  0  0  0  0  0  0  0
  -31.6177   -5.4770   27.7460 C   0  0  0  0  0  0  0  0  0  0  0  0
  -32.9859   -5.5360   27.6593 C   0  0  0  0  0  0  0  0  0  0  0  0
  -33.6127   -5.1424   28.8500 C   0  0  0  0  0  0  0  0  0  0  0  0
  -32.8629   -4.7389   29.8505 C   0  0  0  0  0  0  0  0  0  0  0  0
  -28.3344   -2.0690   33.0953 O   0  0  0  0  0  0  0  0  0  0  0  0
  -30.8763   -2.2104   33.6763 C   0  0  0  0  0  0  0  0  0  0  0  0
  -31.7504   -2.3131   34.2147 N   0  0  0  0  0  0  0  0  0  0  0  0
  -32.1416   -1.7179   35.3994 C   0  0  0  0  0  0  0  0  0  0  0  0
  -33.3187   -1.8877   36.0248 N   0  0  0  0  0  0  0  0  0  0  0  0
  -31.1646   -0.7585   35.9825 C   0  0  0  0  0  0  0  0  0  0  0  0
  -29.9651   -0.5614   35.3671 C   0  0  0  0  0  0  0  0  0  0  0  0
  1  6  1  0
  6  8  1  0
  6  9  1  0
  9 10  1  0
  4 11  1  0
 11 12  1  0
 11 13  1  0
 11 14  1  0
  9 15  1  0
 10 16  1  0
 16 17  1  0
 17 18  1  0
 18 19  2  0
 18 20  1  0
 10 26  1  0
 16 27  1  0
 27 28  2  3
 28 29  1  0
 29 30  2  0
 29 31  1  0
 31 32  2  0
  1  2  2  0
  2  3  1  0
  3  4  2  0
  4  5  1  0
  5  7  2  0
  7  1  1  0
 20 21  2  0
 21 22  1  0
 22 23  2  0
 23 24  1  0
 24 25  2  0
 25 20  1  0
M  END

$$$$
