No_1845-gen_results/8p0m/2024-11-27-11-27-31/
     RDKit          3D

 15 17  0  0  0  0  0  0  0  0999 V2000
  -28.0162   -0.8135   28.8779 C   0  0  0  0  0  0  0  0  0  0  0  0
  -28.4690   -0.7850   29.8287 C   0  0  0  0  0  0  0  0  0  0  0  0
  -26.5042   -0.7777   28.8766 C   0  0  0  0  0  0  0  0  0  0  0  0
  -25.8103   -0.8531   30.1028 C   0  0  0  0  0  0  0  0  0  0  0  0
  -30.0136   -0.8410   29.8508 C   0  0  0  0  0  0  0  0  0  0  0  0
  -26.5670   -0.8850   31.2517 C   0  0  0  0  0  0  0  0  0  0  0  0
  -27.9411   -0.9069   31.1850 C   0  0  0  0  0  0  0  0  0  0  0  0
  -30.5389   -0.4288   28.9958 O   0  0  0  0  0  0  0  0  0  0  0  0
  -30.6369   -1.8174   30.7386 N   0  0  0  0  0  0  0  0  0  0  0  0
  -32.0468   -1.9990   30.6503 C   0  0  0  0  0  0  0  0  0  0  0  0
  -32.4193   -3.1332   30.9839 C   0  0  0  0  0  0  0  0  0  0  0  0
  -31.5971   -4.1128   31.7159 C   0  0  0  0  0  0  0  0  0  0  0  0
  -30.1893   -3.8866   31.7614 C   0  0  0  0  0  0  0  0  0  0  0  0
  -29.7405   -2.8138   31.2005 C   0  0  0  0  0  0  0  0  0  0  0  0
  -28.4482   -2.5892   31.4843 O   0  0  0  0  0  0  0  0  0  0  0  0
  2  5  1  0
  5  8  2  0
  5  9  1  0
  9 10  1  0
 11 12  1  0
  9 14  1  0
 13 14  1  0
  7 15  1  0
 14 15  1  0
 10 11  1  0
 12 13  1  0
  1  2  2  0
  2  7  1  0
  7  6  2  0
  6  4  1  0
  4  3  2  0
  3  1  1  0
M  END

$$$$
