No_1221-gen_results/8p0m/2024-11-27-11-27-31/
     RDKit          3D

 11 11  0  0  0  0  0  0  0  0999 V2000
  -28.0162   -0.8135   28.8779 C   0  0  0  0  0  0  0  0  0  0  0  0
  -27.0636   -0.1189   28.6079 C   0  0  0  0  0  0  0  0  0  0  0  0
  -25.7923   -0.4302   29.0761 C   0  0  0  0  0  0  0  0  0  0  0  0
  -25.5756   -1.5654   29.9363 C   0  0  0  0  0  0  0  0  0  0  0  0
  -26.7354   -2.3004   30.2173 C   0  0  0  0  0  0  0  0  0  0  0  0
  -26.5841   -3.5078   30.9846 C   0  0  0  0  0  0  0  0  0  0  0  0
  -27.9637   -1.9827   29.6995 C   0  0  0  0  0  0  0  0  0  0  0  0
  -27.1032    1.1583   27.7858 C   0  0  0  0  0  0  0  0  0  0  0  0
  -27.8888    1.6473   27.3665 N   0  0  0  0  0  0  0  0  0  0  0  0
  -25.6829    1.7087   27.3368 C   0  0  0  0  0  0  0  0  0  0  0  0
  -24.4861    1.3609   27.7485 C   0  0  0  0  0  0  0  0  0  0  0  0
  5  6  1  0
  2  8  1  0
  8  9  2  0
  8 10  1  0
 10 11  1  0
  1  2  2  0
  2  3  1  0
  3  4  2  0
  4  5  1  0
  5  7  2  0
  7  1  1  0
M  END

$$$$
