No_1720-gen_results/8p0m/2024-11-27-11-27-31/
     RDKit          3D

 15 17  0  0  0  0  0  0  0  0999 V2000
  -28.0162   -0.8135   28.8779 C   0  0  0  0  0  0  0  0  0  0  0  0
  -27.0636   -0.1189   28.6079 C   0  0  0  0  0  0  0  0  0  0  0  0
  -25.7647   -0.3897   29.0360 C   0  0  0  0  0  0  0  0  0  0  0  0
  -24.5516    0.4058   28.7646 C   0  0  0  0  0  0  0  0  0  0  0  0
  -24.6957    1.4480   27.7988 C   0  0  0  0  0  0  0  0  0  0  0  0
  -25.9755    1.7250   27.3077 C   0  0  0  0  0  0  0  0  0  0  0  0
  -27.0718    1.0134   27.6535 C   0  0  0  0  0  0  0  0  0  0  0  0
  -28.6178   -0.4695   30.2207 C   0  0  0  0  0  0  0  0  0  0  0  0
  -28.3113    0.5057   30.7868 C   0  0  0  0  0  0  0  0  0  0  0  0
  -28.6123    1.0972   31.8145 C   0  0  0  0  0  0  0  0  0  0  0  0
  -28.1230    2.3657   32.4208 C   0  0  0  0  0  0  0  0  0  0  0  0
  -27.0659    2.9827   31.6595 C   0  0  0  0  0  0  0  0  0  0  0  0
  -26.5688    2.3305   30.5662 C   0  0  0  0  0  0  0  0  0  0  0  0
  -27.0626    1.1865   30.1971 C   0  0  0  0  0  0  0  0  0  0  0  0
  -26.3396    0.6873   29.5712 N   0  0  0  0  0  0  0  0  0  0  0  0
  1  8  1  0
 14 15  1  0
  1  2  1  0
 15  3  1  0
  8  9  1  0
  2  3  2  0
  3  4  1  0
  4  5  2  0
  5  6  1  0
  6  7  2  0
  7  2  1  0
  9 10  2  0
 10 11  1  0
 11 12  2  0
 12 13  1  0
 13 14  2  0
 14  9  1  0
M  END

$$$$
