No_1406-gen_results/8p0m/2024-11-27-11-27-31/
     RDKit          3D

 25 27  0  0  0  0  0  0  0  0999 V2000
  -28.0162   -0.8135   28.8779 C   0  0  0  0  0  0  0  0  0  0  0  0
  -27.0636   -0.1190   28.6079 C   0  0  0  0  0  0  0  0  0  0  0  0
  -25.7923   -0.4302   29.0761 C   0  0  0  0  0  0  0  0  0  0  0  0
  -24.5456    0.3494   28.8225 C   0  0  0  0  0  0  0  0  0  0  0  0
  -24.6586    1.4196   27.8878 C   0  0  0  0  0  0  0  0  0  0  0  0
  -25.9471    1.6811   27.3792 C   0  0  0  0  0  0  0  0  0  0  0  0
  -27.0439    0.9739   27.6871 C   0  0  0  0  0  0  0  0  0  0  0  0
  -28.9951   -0.6028   28.1730 F   0  0  0  0  0  0  0  0  0  0  0  0
  -28.4117   -0.6162   30.2431 F   0  0  0  0  0  0  0  0  0  0  0  0
  -23.2627    2.2820   27.5478 Cl  0  0  0  0  0  0  0  0  0  0  0  0
  -23.2536   -0.0500   29.3901 C   0  0  0  0  0  0  0  0  0  0  0  0
  -23.0862    0.0115   30.6793 C   0  0  0  0  0  0  0  0  0  0  0  0
  -22.1960   -0.4821   28.5462 C   0  0  0  0  0  0  0  0  0  0  0  0
  -20.9953   -0.8364   29.1830 C   0  0  0  0  0  0  0  0  0  0  0  0
  -24.2003    0.4534   31.5746 C   0  0  0  0  0  0  0  0  0  0  0  0
  -25.0139    0.1692   32.1279 C   0  0  0  0  0  0  0  0  0  0  0  0
  -25.8670    1.0092   33.0166 C   0  0  0  0  0  0  0  0  0  0  0  0
  -25.7440    2.3873   32.8163 C   0  0  0  0  0  0  0  0  0  0  0  0
  -24.8027    2.9121   31.9614 C   0  0  0  0  0  0  0  0  0  0  0  0
  -23.9341    2.0818   31.3464 C   0  0  0  0  0  0  0  0  0  0  0  0
  -20.9851   -0.9086   30.5219 N   0  0  0  0  0  0  0  0  0  0  0  0
  -21.9012   -0.4828   31.2561 C   0  0  0  0  0  0  0  0  0  0  0  0
  -26.6843    3.2709   33.6139 C   0  0  0  0  0  0  0  0  0  0  0  0
  -27.1133    3.0381   34.6069 O   0  0  0  0  0  0  0  0  0  0  0  0
  -26.5645    4.5319   33.2232 O   0  0  0  0  0  0  0  0  0  0  0  0
  1  2  1  0
  1  8  1  0
  1  9  1  0
  5 10  1  0
  4 11  1  0
 12 15  1  0
 18 23  1  0
 23 24  1  0
 23 25  2  0
 15 16  2  0
 16 17  1  0
 17 18  2  0
 18 19  1  0
 19 20  2  0
 20 15  1  0
  2  3  2  0
  3  4  1  0
  4  5  2  0
  5  6  1  0
  6  7  2  0
  7  2  1  0
 11 12  2  0
 12 22  1  0
 22 21  2  0
 21 14  1  0
 14 13  2  0
 13 11  1  0
M  END

$$$$
