No_1358-gen_results/8p0m/2024-11-27-11-27-31/
     RDKit          3D

 26 29  0  0  0  0  0  0  0  0999 V2000
  -28.0162   -0.8135   28.8779 C   0  0  0  0  0  0  0  0  0  0  0  0
  -28.4690   -0.7850   29.8287 C   0  0  0  0  0  0  0  0  0  0  0  0
  -28.1816    0.4277   28.1134 C   0  0  0  0  0  0  0  0  0  0  0  0
  -27.4498    0.6435   26.8500 C   0  0  0  0  0  0  0  0  0  0  0  0
  -26.1815    0.0357   26.7145 C   0  0  0  0  0  0  0  0  0  0  0  0
  -25.7800   -0.9326   27.6938 C   0  0  0  0  0  0  0  0  0  0  0  0
  -26.5568   -1.2134   28.7413 C   0  0  0  0  0  0  0  0  0  0  0  0
  -28.3333   -2.0293   30.7374 C   0  0  0  0  0  0  0  0  0  0  0  0
  -27.0914   -2.7240   30.5686 C   0  0  0  0  0  0  0  0  0  0  0  0
  -26.1478   -2.3643   29.5692 C   0  0  0  0  0  0  0  0  0  0  0  0
  -25.0191   -3.1467   29.3249 C   0  0  0  0  0  0  0  0  0  0  0  0
  -23.9342   -3.4787   29.6853 N   0  0  0  0  0  0  0  0  0  0  0  0
  -25.1546    0.3853   25.4160 Cl  0  0  0  0  0  0  0  0  0  0  0  0
  -29.4919    1.0456   28.0972 C   0  0  0  0  0  0  0  0  0  0  0  0
  -29.6499    2.1895   27.6478 N   0  0  0  0  0  0  0  0  0  0  0  0
  -30.4669    0.4730   28.6340 O   0  0  0  0  0  0  0  0  0  0  0  0
  -30.8673    2.9934   27.6375 C   0  0  0  0  0  0  0  0  0  0  0  0
  -30.9410    3.9069   26.7646 C   0  0  0  0  0  0  0  0  0  0  0  0
  -32.0712    4.6827   26.5285 C   0  0  0  0  0  0  0  0  0  0  0  0
  -32.1656    5.6696   25.5143 C   0  0  0  0  0  0  0  0  0  0  0  0
  -33.3949    6.3546   25.4951 C   0  0  0  0  0  0  0  0  0  0  0  0
  -34.4395    6.0376   26.3071 C   0  0  0  0  0  0  0  0  0  0  0  0
  -34.3561    5.1058   27.2273 C   0  0  0  0  0  0  0  0  0  0  0  0
  -33.1732    4.4336   27.3810 C   0  0  0  0  0  0  0  0  0  0  0  0
  -33.0398    3.4820   28.3187 N   0  0  0  0  0  0  0  0  0  0  0  0
  -31.9331    2.7396   28.5115 C   0  0  0  0  0  0  0  0  0  0  0  0
 10 11  1  0
 11 12  3  0
  5 13  1  0
  3 14  1  0
 14 15  1  0
 14 16  2  0
 15 17  1  0
  1  2  2  0
  2  8  1  0
  8  9  2  0
  9 10  1  0
 10  7  2  0
 19 20  2  0
 20 21  1  0
 21 22  2  0
 22 23  1  0
 23 24  2  0
 17 18  2  0
 18 19  1  0
 19 24  1  0
 24 25  1  0
 25 26  2  0
 26 17  1  0
  1  3  1  0
  3  4  2  0
  4  5  1  0
  5  6  2  0
  6  7  1  0
  7  1  1  0
M  END

$$$$
