No_1707-gen_results/8p0m/2024-11-27-11-27-31/
     RDKit          3D

 29 32  0  0  0  0  0  0  0  0999 V2000
  -28.0162   -0.8135   28.8779 C   0  0  0  0  0  0  0  0  0  0  0  0
  -27.0636   -0.1189   28.6079 C   0  0  0  0  0  0  0  0  0  0  0  0
  -25.7647   -0.3897   29.0360 C   0  0  0  0  0  0  0  0  0  0  0  0
  -25.5296   -1.5302   29.9014 C   0  0  0  0  0  0  0  0  0  0  0  0
  -26.6888   -2.2893   30.1810 C   0  0  0  0  0  0  0  0  0  0  0  0
  -27.8727   -1.9508   29.7373 C   0  0  0  0  0  0  0  0  0  0  0  0
  -24.5491    0.4100   28.7341 C   0  0  0  0  0  0  0  0  0  0  0  0
  -24.4789    1.1871   27.6843 C   0  0  0  0  0  0  0  0  0  0  0  0
  -23.2716    1.8973   27.3731 C   0  0  0  0  0  0  0  0  0  0  0  0
  -22.1063    1.7032   28.0412 C   0  0  0  0  0  0  0  0  0  0  0  0
  -23.3188    0.1792   29.4669 C   0  0  0  0  0  0  0  0  0  0  0  0
  -22.1165    0.8402   29.1011 C   0  0  0  0  0  0  0  0  0  0  0  0
  -29.1690   -3.0163   30.2766 Cl  0  0  0  0  0  0  0  0  0  0  0  0
  -23.3446    2.9876   26.0077 Cl  0  0  0  0  0  0  0  0  0  0  0  0
  -29.2960   -0.5456   28.4986 O   0  0  0  0  0  0  0  0  0  0  0  0
  -29.4796    0.4443   27.5740 C   0  0  0  0  0  0  0  0  0  0  0  0
  -29.4682    0.1424   26.2567 C   0  0  0  0  0  0  0  0  0  0  0  0
  -30.4697   -0.4405   25.6623 C   0  0  0  0  0  0  0  0  0  0  0  0
  -30.3935   -0.8928   24.2571 C   0  0  0  0  0  0  0  0  0  0  0  0
  -29.1737   -0.6733   23.5976 C   0  0  0  0  0  0  0  0  0  0  0  0
  -28.1427   -0.0818   24.2240 C   0  0  0  0  0  0  0  0  0  0  0  0
  -28.2163    0.3426   25.5267 C   0  0  0  0  0  0  0  0  0  0  0  0
  -29.1317    1.5282   28.2195 C   0  0  0  0  0  0  0  0  0  0  0  0
  -30.0379    2.5842   27.7733 C   0  0  0  0  0  0  0  0  0  0  0  0
  -29.8133    3.9134   28.2640 C   0  0  0  0  0  0  0  0  0  0  0  0
  -30.6022    4.9007   27.9210 C   0  0  0  0  0  0  0  0  0  0  0  0
  -31.7035    4.6517   26.9747 C   0  0  0  0  0  0  0  0  0  0  0  0
  -31.8534    3.3825   26.4668 C   0  0  0  0  0  0  0  0  0  0  0  0
  -31.0032    2.4000   26.8497 C   0  0  0  0  0  0  0  0  0  0  0  0
  3  7  1  0
  6 13  1  0
  9 14  1  0
  1 15  1  0
 15 16  1  0
 16 17  1  0
 16 23  1  0
 23 24  1  0
  7  8  2  0
  8  9  1  0
  9 10  2  0
 10 12  1  0
 12 11  2  0
 11  7  1  0
  1  2  2  0
  2  3  1  0
  3  4  2  0
  4  5  1  0
  5  6  2  0
  6  1  1  0
 24 25  2  0
 25 26  1  0
 26 27  2  0
 27 28  1  0
 28 29  2  0
 29 24  1  0
 17 18  2  0
 18 19  1  0
 19 20  2  0
 20 21  1  0
 21 22  2  0
 22 17  1  0
M  END

$$$$
