No_1004-gen_results/8p0m/2024-11-27-11-27-31/
     RDKit          3D

  6  6  0  0  0  0  0  0  0  0999 V2000
  -28.0544   -1.0498   28.7246 N   0  0  0  0  0  0  0  0  0  0  0  0
  -26.9659   -0.4722   28.7709 C   0  0  0  0  0  0  0  0  0  0  0  0
  -26.5486    0.3876   27.8310 C   0  0  0  0  0  0  0  0  0  0  0  0
  -27.4759    0.7264   26.7673 C   0  0  0  0  0  0  0  0  0  0  0  0
  -28.6984    0.1676   26.8682 C   0  0  0  0  0  0  0  0  0  0  0  0
  -28.9965   -0.5970   27.9089 C   0  0  0  0  0  0  0  0  0  0  0  0
  1  2  2  0
  2  3  1  0
  3  4  2  0
  4  5  1  0
  5  6  2  0
  6  1  1  0
M  END

$$$$
