No_1854-gen_results/8p0m/2024-11-27-11-27-31/
     RDKit          3D

  9  9  0  0  0  0  0  0  0  0999 V2000
  -28.0727   -1.2542   28.5316 F   0  0  0  0  0  0  0  0  0  0  0  0
  -27.3591   -0.3792   28.7224 C   0  0  0  0  0  0  0  0  0  0  0  0
  -26.3180   -0.6608   29.1159 F   0  0  0  0  0  0  0  0  0  0  0  0
  -27.6804    0.9274   28.3001 C   0  0  0  0  0  0  0  0  0  0  0  0
  -28.7595    1.1960   27.6572 C   0  0  0  0  0  0  0  0  0  0  0  0
  -28.7097    1.2463   26.2740 C   0  0  0  0  0  0  0  0  0  0  0  0
  -27.4768    1.0687   25.6249 C   0  0  0  0  0  0  0  0  0  0  0  0
  -26.2534    1.1590   26.3071 C   0  0  0  0  0  0  0  0  0  0  0  0
  -26.4203    1.0045   27.7456 C   0  0  0  0  0  0  0  0  0  0  0  0
  1  2  1  0
  2  3  1  0
  2  4  1  0
  4  5  2  0
  5  6  1  0
  6  7  2  0
  7  8  1  0
  8  9  2  0
  9  4  1  0
M  END

$$$$
