No_1670-gen_results/8p0m/2024-11-27-11-27-31/
     RDKit          3D

 23 24  0  0  0  0  0  0  0  0999 V2000
  -28.1229   -1.3353   28.4874 O   0  0  0  0  0  0  0  0  0  0  0  0
  -27.4806   -0.4044   28.7094 C   0  0  0  0  0  0  0  0  0  0  0  0
  -26.3804   -0.0867   27.9395 C   0  0  0  0  0  0  0  0  0  0  0  0
  -27.8993    0.6459   29.6321 N   0  0  0  0  0  0  0  0  0  0  0  0
  -25.1243   -0.5319   28.3714 C   0  0  0  0  0  0  0  0  0  0  0  0
  -24.8082   -1.5509   29.1873 C   0  0  0  0  0  0  0  0  0  0  0  0
  -23.5414   -2.0104   29.4946 C   0  0  0  0  0  0  0  0  0  0  0  0
  -22.5400   -1.1810   29.0837 C   0  0  0  0  0  0  0  0  0  0  0  0
  -22.6525    0.0031   28.3471 C   0  0  0  0  0  0  0  0  0  0  0  0
  -23.9973    0.3171   27.9767 C   0  0  0  0  0  0  0  0  0  0  0  0
  -27.2738    1.9092   29.8392 C   0  0  0  0  0  0  0  0  0  0  0  0
  -27.4818    2.3615   30.9256 C   0  0  0  0  0  0  0  0  0  0  0  0
  -26.8052    3.6403   31.3478 C   0  0  0  0  0  0  0  0  0  0  0  0
  -25.9873    4.2898   30.3753 C   0  0  0  0  0  0  0  0  0  0  0  0
  -25.8054    3.6531   29.1338 C   0  0  0  0  0  0  0  0  0  0  0  0
  -26.4105    2.4255   28.8873 C   0  0  0  0  0  0  0  0  0  0  0  0
  -24.9185    4.3038   28.1582 C   0  0  0  0  0  0  0  0  0  0  0  0
  -24.3948    3.5801   27.2722 O   0  0  0  0  0  0  0  0  0  0  0  0
  -24.8718    5.5736   28.1210 O   0  0  0  0  0  0  0  0  0  0  0  0
  -26.5529    0.2370   26.5646 C   0  0  0  0  0  0  0  0  0  0  0  0
  -29.2314    0.4748   30.2061 C   0  0  0  0  0  0  0  0  0  0  0  0
  -30.1466    0.8777   29.7838 C   0  0  0  0  0  0  0  0  0  0  0  0
  -31.4675    0.6806   30.3535 C   0  0  0  0  0  0  0  0  0  0  0  0
  1  2  2  0
  2  3  1  0
  2  4  1  0
  4 11  1  0
 15 17  1  0
 17 18  2  0
 17 19  1  0
  3 20  1  0
  4 21  1  0
 21 22  2  3
 22 23  1  0
  3  5  1  0
 11 12  2  0
 12 13  1  0
 13 14  2  0
 14 15  1  0
 15 16  2  0
 16 11  1  0
  5  6  2  0
  6  7  1  0
  7  8  2  0
  8  9  1  0
  9 10  2  0
 10  5  1  0
M  END

$$$$
