No_1296-gen_results/8p0m/2024-11-27-11-27-31/
     RDKit          3D

 23 25  0  0  0  0  0  0  0  0999 V2000
  -28.1493   -0.8198   28.9079 Cl  0  0  0  0  0  0  0  0  0  0  0  0
  -27.8339    0.4961   29.0598 C   0  0  0  0  0  0  0  0  0  0  0  0
  -27.5135    1.2383   28.0485 C   0  0  0  0  0  0  0  0  0  0  0  0
  -27.0548    2.6251   28.1330 C   0  0  0  0  0  0  0  0  0  0  0  0
  -26.9438    3.1838   29.4305 C   0  0  0  0  0  0  0  0  0  0  0  0
  -27.2205    2.3582   30.5116 C   0  0  0  0  0  0  0  0  0  0  0  0
  -27.5987    1.0586   30.3700 C   0  0  0  0  0  0  0  0  0  0  0  0
  -26.5145    4.4764   29.5735 N   0  0  0  0  0  0  0  0  0  0  0  0
  -25.9134    4.8618   30.6170 C   0  0  0  0  0  0  0  0  0  0  0  0
  -26.1598    4.1152   31.8093 C   0  0  0  0  0  0  0  0  0  0  0  0
  -26.5900    2.8055   31.7670 C   0  0  0  0  0  0  0  0  0  0  0  0
  -25.4872    6.1882   30.7801 N   0  0  0  0  0  0  0  0  0  0  0  0
  -26.0035    7.2318   30.9297 C   0  0  0  0  0  0  0  0  0  0  0  0
  -26.2545    8.1174   30.4545 C   0  0  0  0  0  0  0  0  0  0  0  0
  -27.0443    9.3228   30.8486 C   0  0  0  0  0  0  0  0  0  0  0  0
  -26.6372    7.2390   32.3889 C   0  0  0  0  0  0  0  0  0  0  0  0
  -27.4050    8.2744   32.8817 C   0  0  0  0  0  0  0  0  0  0  0  0
  -27.5425    9.3615   32.0773 C   0  0  0  0  0  0  0  0  0  0  0  0
  -25.6879    8.3303   28.9824 C   0  0  0  0  0  0  0  0  0  0  0  0
  -24.4046    8.6328   28.8734 C   0  0  0  0  0  0  0  0  0  0  0  0
  -23.5812    9.0288   29.9943 C   0  0  0  0  0  0  0  0  0  0  0  0
  -22.2327    9.4800   29.6685 C   0  0  0  0  0  0  0  0  0  0  0  0
  -21.7998    9.2416   28.3184 C   0  0  0  0  0  0  0  0  0  0  0  0
  1  2  1  0
  9 12  1  0
 12 13  1  0
 14 19  1  0
 19 20  2  3
 20 21  1  0
 21 22  2  3
 22 23  1  0
  6 11  1  0
 11 10  2  0
 10  9  1  0
  9  8  2  0
  8  5  1  0
  2  3  2  0
  3  4  1  0
  4  5  2  0
  5  6  1  0
  6  7  2  0
  7  2  1  0
 13 14  2  0
 14 15  1  0
 15 18  2  0
 18 17  1  0
 17 16  2  0
 16 13  1  0
M  END

$$$$
