No_1939-gen_results/8p0m/2024-11-27-11-27-31/
     RDKit          3D

 28 31  0  0  0  0  0  0  0  0999 V2000
  -28.0162   -0.8135   28.8779 C   0  0  0  0  0  0  0  0  0  0  0  0
  -28.4690   -0.7850   29.8287 C   0  0  0  0  0  0  0  0  0  0  0  0
  -27.1356    0.2359   28.5352 C   0  0  0  0  0  0  0  0  0  0  0  0
  -26.8050    1.0509   29.2763 C   0  0  0  0  0  0  0  0  0  0  0  0
  -28.2372    0.1503   30.9300 C   0  0  0  0  0  0  0  0  0  0  0  0
  -27.3522    1.1239   30.6071 C   0  0  0  0  0  0  0  0  0  0  0  0
  -26.4616    0.1962   27.1371 C   0  0  0  0  0  0  0  0  0  0  0  0
  -25.0613    0.4250   27.0907 C   0  0  0  0  0  0  0  0  0  0  0  0
  -24.5112    1.2826   28.0767 C   0  0  0  0  0  0  0  0  0  0  0  0
  -25.3143    1.5458   29.2972 C   0  0  0  0  0  0  0  0  0  0  0  0
  -23.2301    1.9097   27.8693 C   0  0  0  0  0  0  0  0  0  0  0  0
  -22.3127    1.6768   28.6573 O   0  0  0  0  0  0  0  0  0  0  0  0
  -23.0140    2.4327   26.6251 O   0  0  0  0  0  0  0  0  0  0  0  0
  -29.5890   -1.9033   30.0603 C   0  0  0  0  0  0  0  0  0  0  0  0
  -29.6045   -3.0801   30.3829 N   0  0  0  0  0  0  0  0  0  0  0  0
  -31.0089   -1.3923   29.9954 C   0  0  0  0  0  0  0  0  0  0  0  0
  -31.9984   -2.3008   30.0991 C   0  0  0  0  0  0  0  0  0  0  0  0
  -30.4210   -4.0633   30.5293 C   0  0  0  0  0  0  0  0  0  0  0  0
  -31.7371   -3.6265   30.4163 C   0  0  0  0  0  0  0  0  0  0  0  0
  -32.8502   -4.5885   30.5897 C   0  0  0  0  0  0  0  0  0  0  0  0
  -32.9117   -5.6253   30.3429 O   0  0  0  0  0  0  0  0  0  0  0  0
  -33.8388   -4.0907   31.5046 N   0  0  0  0  0  0  0  0  0  0  0  0
  -34.9446   -4.9105   31.8333 C   0  0  0  0  0  0  0  0  0  0  0  0
  -34.8658   -5.5524   32.9717 C   0  0  0  0  0  0  0  0  0  0  0  0
  -35.8163   -6.3977   33.3771 C   0  0  0  0  0  0  0  0  0  0  0  0
  -36.9704   -6.5363   32.5266 C   0  0  0  0  0  0  0  0  0  0  0  0
  -37.0083   -5.8721   31.3366 C   0  0  0  0  0  0  0  0  0  0  0  0
  -35.9638   -4.9806   30.9534 C   0  0  0  0  0  0  0  0  0  0  0  0
  9 11  1  0
 11 12  2  0
 11 13  1  0
  2 14  1  0
 19 20  1  0
 20 21  2  0
 20 22  1  0
 22 23  1  0
 23 24  2  0
 24 25  1  0
 25 26  2  0
 26 27  1  0
 27 28  2  0
 28 23  1  0
  4 10  2  0
 10  9  1  0
  9  8  2  0
  8  7  1  0
  7  3  2  0
 14 15  2  0
 15 18  1  0
 18 19  2  0
 19 17  1  0
 17 16  2  0
 16 14  1  0
  1  2  2  0
  2  5  1  0
  5  6  2  0
  6  4  1  0
  4  3  1  0
  3  1  1  0
M  END

$$$$
