No_1754-gen_results/8p0m/2024-11-27-11-27-31/
     RDKit          3D

 16 17  0  0  0  0  0  0  0  0999 V2000
  -28.0162   -0.8135   28.8779 C   0  0  0  0  0  0  0  0  0  0  0  0
  -27.0636   -0.1189   28.6079 C   0  0  0  0  0  0  0  0  0  0  0  0
  -26.9716    0.7139   27.5060 C   0  0  0  0  0  0  0  0  0  0  0  0
  -25.8205    1.4909   27.1160 C   0  0  0  0  0  0  0  0  0  0  0  0
  -25.7505    2.3193   26.0233 C   0  0  0  0  0  0  0  0  0  0  0  0
  -24.6040    3.1169   25.8773 C   0  0  0  0  0  0  0  0  0  0  0  0
  -23.4495    2.9057   26.6706 C   0  0  0  0  0  0  0  0  0  0  0  0
  -23.5070    2.0166   27.6858 C   0  0  0  0  0  0  0  0  0  0  0  0
  -24.6299    1.2559   27.9411 C   0  0  0  0  0  0  0  0  0  0  0  0
  -29.2776   -0.4930   28.3517 C   0  0  0  0  0  0  0  0  0  0  0  0
  -29.3478    0.3618   27.2825 C   0  0  0  0  0  0  0  0  0  0  0  0
  -28.1817    1.0407   26.8608 C   0  0  0  0  0  0  0  0  0  0  0  0
  -22.1513    1.7226   28.6999 Cl  0  0  0  0  0  0  0  0  0  0  0  0
  -30.6125    0.6436   26.6037 C   0  0  0  0  0  0  0  0  0  0  0  0
  -31.5748    0.8544   27.1101 O   0  0  0  0  0  0  0  0  0  0  0  0
  -30.5445    0.6112   25.1980 N   0  0  0  0  0  0  0  0  0  0  0  0
  3  4  1  0
  8 13  1  0
 11 14  1  0
 14 15  2  0
 14 16  1  0
  1  2  2  0
  2  3  1  0
  3 12  2  0
 12 11  1  0
 11 10  2  0
 10  1  1  0
  4  5  2  0
  5  6  1  0
  6  7  2  0
  7  8  1  0
  8  9  2  0
  9  4  1  0
M  END

$$$$
