No_1622-gen_results/8p0m/2024-11-27-11-27-31/
     RDKit          3D

 35 38  0  0  0  0  0  0  0  0999 V2000
  -28.0162   -0.8135   28.8779 C   0  0  0  0  0  0  0  0  0  0  0  0
  -28.6208   -1.1855   29.7353 Cl  0  0  0  0  0  0  0  0  0  0  0  0
  -26.5231   -0.7877   28.9754 C   0  0  0  0  0  0  0  0  0  0  0  0
  -25.6937    0.1431   28.2828 C   0  0  0  0  0  0  0  0  0  0  0  0
  -26.2722    0.8558   27.1689 C   0  0  0  0  0  0  0  0  0  0  0  0
  -27.6309    0.7338   27.0017 C   0  0  0  0  0  0  0  0  0  0  0  0
  -28.3785    0.0574   27.7784 C   0  0  0  0  0  0  0  0  0  0  0  0
  -25.2860    1.5967   26.3657 C   0  0  0  0  0  0  0  0  0  0  0  0
  -23.9615    1.5397   26.7491 C   0  0  0  0  0  0  0  0  0  0  0  0
  -23.4791    0.8223   27.8517 C   0  0  0  0  0  0  0  0  0  0  0  0
  -24.2874    0.1008   28.5608 C   0  0  0  0  0  0  0  0  0  0  0  0
  -22.0331    0.9851   28.1842 C   0  0  0  0  0  0  0  0  0  0  0  0
  -21.2962    1.8798   27.5923 N   0  0  0  0  0  0  0  0  0  0  0  0
  -21.2357   -0.3161   28.9364 Cl  0  0  0  0  0  0  0  0  0  0  0  0
  -29.7489    0.0533   27.5628 O   0  0  0  0  0  0  0  0  0  0  0  0
  -27.9745    1.4283   25.7276 C   0  0  0  0  0  0  0  0  0  0  0  0
  -30.4863    0.9436   27.7814 C   0  0  0  0  0  0  0  0  0  0  0  0
  -30.5121    1.7973   28.4685 C   0  0  0  0  0  0  0  0  0  0  0  0
  -30.9560    2.7693   28.9383 C   0  0  0  0  0  0  0  0  0  0  0  0
  -30.8887    3.6654   29.5994 C   0  0  0  0  0  0  0  0  0  0  0  0
  -29.6676    3.7159   30.4529 C   0  0  0  0  0  0  0  0  0  0  0  0
  -28.7721    2.6676   30.2208 C   0  0  0  0  0  0  0  0  0  0  0  0
  -29.0480    1.7588   29.3080 C   0  0  0  0  0  0  0  0  0  0  0  0
  -29.0773    1.2960   25.1914 N   0  0  0  0  0  0  0  0  0  0  0  0
  -29.5401    1.7967   24.0752 C   0  0  0  0  0  0  0  0  0  0  0  0
  -27.4071    2.4786   25.4176 O   0  0  0  0  0  0  0  0  0  0  0  0
  -31.9415    0.2996   27.6237 C   0  0  0  0  0  0  0  0  0  0  0  0
  -27.5128    2.6918   31.0391 C   0  0  0  0  0  0  0  0  0  0  0  0
  -26.8500    1.8569   31.3516 C   0  0  0  0  0  0  0  0  0  0  0  0
  -25.6392    1.9524   32.1147 C   0  0  0  0  0  0  0  0  0  0  0  0
  -25.2383    3.1077   32.2950 C   0  0  0  0  0  0  0  0  0  0  0  0
  -26.7945    3.9709   31.4842 C   0  0  0  0  0  0  0  0  0  0  0  0
  -24.9040    0.7364   32.4982 C   0  0  0  0  0  0  0  0  0  0  0  0
  -26.4633    5.2187   31.3941 C   0  0  0  0  0  0  0  0  0  0  0  0
  -27.1433    6.1985   30.7246 C   0  0  0  0  0  0  0  0  0  0  0  0
  1  2  1  0
 10 12  1  0
 12 13  2  0
 12 14  1  0
  7 15  1  0
  6 16  1  0
 15 17  1  0
 16 24  1  0
 24 25  1  0
 16 26  2  0
 17 27  1  0
 22 28  1  0
 28 29  2  0
 29 30  1  0
 30 31  2  0
 28 32  1  0
 31 32  1  0
 30 33  1  0
 32 34  1  0
 34 35  2  0
 17 18  1  0
 18 19  2  0
 19 20  1  0
 20 21  2  0
 21 22  1  0
 22 23  2  0
 23 18  1  0
  5  8  2  0
  8  9  1  0
  9 10  2  0
 10 11  1  0
 11  4  2  0
  1  3  2  0
  3  4  1  0
  4  5  1  0
  5  6  1  0
  6  7  2  0
  7  1  1  0
M  END

$$$$
