No_1847-gen_results/8p0m/2024-11-27-11-27-31/
     RDKit          3D

 24 26  0  0  0  0  0  0  0  0999 V2000
  -28.0162   -0.8135   28.8779 C   0  0  0  0  0  0  0  0  0  0  0  0
  -28.4690   -0.7850   29.8287 C   0  0  0  0  0  0  0  0  0  0  0  0
  -26.5455   -0.8762   28.8500 C   0  0  0  0  0  0  0  0  0  0  0  0
  -25.8041   -1.0324   30.0571 C   0  0  0  0  0  0  0  0  0  0  0  0
  -27.9437   -0.9869   31.2075 C   0  0  0  0  0  0  0  0  0  0  0  0
  -26.5825   -1.0386   31.2231 C   0  0  0  0  0  0  0  0  0  0  0  0
  -30.0606   -0.7371   29.9024 C   0  0  0  0  0  0  0  0  0  0  0  0
  -30.7252   -1.5544   30.2697 O   0  0  0  0  0  0  0  0  0  0  0  0
  -30.5270    0.3279   29.3296 F   0  0  0  0  0  0  0  0  0  0  0  0
  -24.3746   -1.0938   30.0697 C   0  0  0  0  0  0  0  0  0  0  0  0
  -23.6709   -1.7172   30.4718 C   0  0  0  0  0  0  0  0  0  0  0  0
  -23.7987    0.0744   29.2153 C   0  0  0  0  0  0  0  0  0  0  0  0
  -24.3028    1.1117   28.6505 C   0  0  0  0  0  0  0  0  0  0  0  0
  -25.1404    1.9299   29.0983 C   0  0  0  0  0  0  0  0  0  0  0  0
  -25.5868    3.1147   28.3316 C   0  0  0  0  0  0  0  0  0  0  0  0
  -25.1880    3.1742   27.0127 C   0  0  0  0  0  0  0  0  0  0  0  0
  -24.3421    2.2539   26.4391 C   0  0  0  0  0  0  0  0  0  0  0  0
  -23.8381    1.1906   27.2188 C   0  0  0  0  0  0  0  0  0  0  0  0
  -22.3315   -0.1716   29.3571 C   0  0  0  0  0  0  0  0  0  0  0  0
  -22.3544   -1.3454   30.2149 N   0  0  0  0  0  0  0  0  0  0  0  0
  -26.5055    4.1118   28.9107 C   0  0  0  0  0  0  0  0  0  0  0  0
  -27.0504    4.8952   28.3781 O   0  0  0  0  0  0  0  0  0  0  0  0
  -26.7132    3.8629   30.2337 O   0  0  0  0  0  0  0  0  0  0  0  0
  -21.2625    0.1947   28.8610 N   0  0  0  0  0  0  0  0  0  0  0  0
  2  7  1  0
  7  8  2  0
  7  9  1  0
  4 10  1  0
 10 11  1  0
 10 12  1  0
 12 13  1  0
 12 19  1  0
 11 20  1  0
 19 20  2  0
 15 21  1  0
 21 22  2  0
 21 23  1  0
 19 24  1  0
 13 14  2  0
 14 15  1  0
 15 16  2  0
 16 17  1  0
 17 18  2  0
 18 13  1  0
  1  2  2  0
  2  5  1  0
  5  6  2  0
  6  4  1  0
  4  3  2  0
  3  1  1  0
M  END

$$$$
