No_1424-gen_results/8p0m/2024-11-27-11-27-31/
     RDKit          3D

 22 24  0  0  0  0  0  0  0  0999 V2000
  -28.0162   -0.8135   28.8779 C   0  0  0  0  0  0  0  0  0  0  0  0
  -28.4690   -0.7850   29.8287 C   0  0  0  0  0  0  0  0  0  0  0  0
  -27.1356    0.2359   28.5352 C   0  0  0  0  0  0  0  0  0  0  0  0
  -26.8745    1.2825   29.3982 C   0  0  0  0  0  0  0  0  0  0  0  0
  -28.3613    0.1987   30.9244 C   0  0  0  0  0  0  0  0  0  0  0  0
  -27.5277    1.2234   30.6356 C   0  0  0  0  0  0  0  0  0  0  0  0
  -26.3987    0.2949   27.2279 C   0  0  0  0  0  0  0  0  0  0  0  0
  -26.9022    0.7280   26.2134 C   0  0  0  0  0  0  0  0  0  0  0  0
  -26.1747    0.6364   24.9259 C   0  0  0  0  0  0  0  0  0  0  0  0
  -25.0769   -0.2068   27.2393 C   0  0  0  0  0  0  0  0  0  0  0  0
  -24.2655   -0.1217   26.1499 C   0  0  0  0  0  0  0  0  0  0  0  0
  -24.8746    0.2819   24.9272 C   0  0  0  0  0  0  0  0  0  0  0  0
  -24.4038   -0.6588   28.5025 C   0  0  0  0  0  0  0  0  0  0  0  0
  -24.2753   -1.8858   28.9141 C   0  0  0  0  0  0  0  0  0  0  0  0
  -23.6442   -2.2007   30.1283 C   0  0  0  0  0  0  0  0  0  0  0  0
  -23.3671   -1.1431   31.0294 C   0  0  0  0  0  0  0  0  0  0  0  0
  -24.0405    0.3673   29.5254 C   0  0  0  0  0  0  0  0  0  0  0  0
  -23.5117    0.1305   30.7006 C   0  0  0  0  0  0  0  0  0  0  0  0
  -28.2025    1.0809   26.0014 F   0  0  0  0  0  0  0  0  0  0  0  0
  -29.4536   -1.9503   30.3090 C   0  0  0  0  0  0  0  0  0  0  0  0
  -29.0917   -2.9927   30.3616 O   0  0  0  0  0  0  0  0  0  0  0  0
  -30.7035   -1.7030   30.5788 O   0  0  0  0  0  0  0  0  0  0  0  0
  3  7  1  0
 10 13  1  0
  8 19  1  0
  2 20  1  0
 20 21  1  0
 20 22  2  0
 13 14  2  0
 14 15  1  0
 15 16  2  0
 16 18  1  0
 18 17  2  0
 17 13  1  0
  1  2  2  0
  2  5  1  0
  5  6  2  0
  6  4  1  0
  4  3  2  0
  3  1  1  0
  7  8  2  0
  8  9  1  0
  9 12  2  0
 12 11  1  0
 11 10  2  0
 10  7  1  0
M  END

$$$$
