No_1718-gen_results/8p0m/2024-11-27-11-27-31/
     RDKit          3D

 16 17  0  0  0  0  0  0  0  0999 V2000
  -28.0162   -0.8135   28.8779 C   0  0  0  0  0  0  0  0  0  0  0  0
  -27.0636   -0.1190   28.6079 C   0  0  0  0  0  0  0  0  0  0  0  0
  -26.9287    1.1713   29.0083 C   0  0  0  0  0  0  0  0  0  0  0  0
  -27.9560    1.7411   29.7840 C   0  0  0  0  0  0  0  0  0  0  0  0
  -29.0569   -0.3271   29.7466 C   0  0  0  0  0  0  0  0  0  0  0  0
  -28.9828    0.9722   30.1516 C   0  0  0  0  0  0  0  0  0  0  0  0
  -25.6873   -0.9894   27.6776 Br  0  0  0  0  0  0  0  0  0  0  0  0
  -30.0887    1.5344   30.9959 C   0  0  0  0  0  0  0  0  0  0  0  0
  -29.9207    1.5829   32.1666 N   0  0  0  0  0  0  0  0  0  0  0  0
  -31.1434    1.8525   30.4121 O   0  0  0  0  0  0  0  0  0  0  0  0
  -28.7239    1.3169   32.9805 C   0  0  0  0  0  0  0  0  0  0  0  0
  -27.7295    1.8918   33.0340 C   0  0  0  0  0  0  0  0  0  0  0  0
  -26.4784    1.4866   33.7472 C   0  0  0  0  0  0  0  0  0  0  0  0
  -26.4917    0.2252   34.3228 C   0  0  0  0  0  0  0  0  0  0  0  0
  -28.7385   -0.0628   33.5384 C   0  0  0  0  0  0  0  0  0  0  0  0
  -27.6327   -0.5339   34.1648 C   0  0  0  0  0  0  0  0  0  0  0  0
  2  7  1  0
  6  8  1  0
  8  9  1  0
  8 10  2  0
  9 11  1  0
  1  2  2  0
  2  3  1  0
  3  4  2  0
  4  6  1  0
  6  5  2  0
  5  1  1  0
 11 12  2  0
 12 13  1  0
 13 14  2  0
 14 16  1  0
 16 15  2  0
 15 11  1  0
M  END

$$$$
