No_1698-gen_results/8p0m/2024-11-27-11-27-31/
     RDKit          3D

 20 21  0  0  0  0  0  0  0  0999 V2000
  -28.0162   -0.8135   28.8779 C   0  0  0  0  0  0  0  0  0  0  0  0
  -26.9857   -0.3274   28.4842 Cl  0  0  0  0  0  0  0  0  0  0  0  0
  -28.5728   -0.1859   30.0569 C   0  0  0  0  0  0  0  0  0  0  0  0
  -29.7406   -0.6984   30.6540 C   0  0  0  0  0  0  0  0  0  0  0  0
  -30.3209   -1.8819   30.0876 C   0  0  0  0  0  0  0  0  0  0  0  0
  -29.7164   -2.5889   29.1644 C   0  0  0  0  0  0  0  0  0  0  0  0
  -28.5395   -2.1263   28.6818 C   0  0  0  0  0  0  0  0  0  0  0  0
  -31.4423   -2.4282   30.6814 F   0  0  0  0  0  0  0  0  0  0  0  0
  -30.4520    0.0816   31.7225 C   0  0  0  0  0  0  0  0  0  0  0  0
  -31.5800    0.4465   31.6218 F   0  0  0  0  0  0  0  0  0  0  0  0
  -29.6566    1.1715   31.9858 F   0  0  0  0  0  0  0  0  0  0  0  0
  -30.2051   -0.6977   32.8958 F   0  0  0  0  0  0  0  0  0  0  0  0
  -30.2291   -3.7446   28.7872 O   0  0  0  0  0  0  0  0  0  0  0  0
  -30.1688   -4.7853   29.2588 C   0  0  0  0  0  0  0  0  0  0  0  0
  -31.0856   -5.8909   28.7053 C   0  0  0  0  0  0  0  0  0  0  0  0
  -31.4626   -5.8392   27.4423 C   0  0  0  0  0  0  0  0  0  0  0  0
  -32.2149   -6.8456   26.7955 C   0  0  0  0  0  0  0  0  0  0  0  0
  -32.3899   -8.0505   27.5170 C   0  0  0  0  0  0  0  0  0  0  0  0
  -31.9349   -8.1858   28.8251 C   0  0  0  0  0  0  0  0  0  0  0  0
  -31.2045   -7.1118   29.4666 C   0  0  0  0  0  0  0  0  0  0  0  0
  1  2  1  0
  5  8  1  0
  4  9  1  0
  9 10  1  0
  9 11  1  0
  9 12  1  0
  6 13  1  0
 13 14  1  0
 14 15  1  0
 15 16  2  0
 16 17  1  0
 17 18  2  0
 18 19  1  0
 19 20  2  0
 20 15  1  0
  1  3  2  0
  3  4  1  0
  4  5  2  0
  5  6  1  0
  6  7  2  0
  7  1  1  0
M  END

$$$$
