No_1974-gen_results/8p0m/2024-11-27-11-27-31/
     RDKit          3D

 11 11  0  0  0  0  0  0  0  0999 V2000
  -28.1229   -1.3353   28.4874 O   0  0  0  0  0  0  0  0  0  0  0  0
  -27.4806   -0.4044   28.7094 C   0  0  0  0  0  0  0  0  0  0  0  0
  -26.3804   -0.0867   27.9394 C   0  0  0  0  0  0  0  0  0  0  0  0
  -27.6664    0.4468   29.8988 N   0  0  0  0  0  0  0  0  0  0  0  0
  -25.1773   -0.4388   28.3946 C   0  0  0  0  0  0  0  0  0  0  0  0
  -24.8702   -0.1050   29.8315 C   0  0  0  0  0  0  0  0  0  0  0  0
  -26.1926    0.2176   30.5619 C   0  0  0  0  0  0  0  0  0  0  0  0
  -26.4843    0.2338   26.6841 F   0  0  0  0  0  0  0  0  0  0  0  0
  -23.7011    0.0604   30.4504 C   0  0  0  0  0  0  0  0  0  0  0  0
  -22.7862    0.6323   30.0905 N   0  0  0  0  0  0  0  0  0  0  0  0
  -23.6785   -0.5078   31.6673 F   0  0  0  0  0  0  0  0  0  0  0  0
  1  2  2  0
  2  3  1  0
  2  4  1  0
  5  6  1  0
  4  7  1  0
  3  8  1  0
  6  9  1  0
  9 10  1  0
  9 11  1  0
  3  5  1  0
  6  7  1  0
M  END

$$$$
