No_2007-gen_results/8p0m/2024-11-27-11-27-31/
     RDKit          3D

 16 18  0  0  0  0  0  0  0  0999 V2000
  -28.0162   -0.8135   28.8779 C   0  0  0  0  0  0  0  0  0  0  0  0
  -27.0636   -0.1189   28.6079 C   0  0  0  0  0  0  0  0  0  0  0  0
  -26.9716    0.7139   27.5060 C   0  0  0  0  0  0  0  0  0  0  0  0
  -28.1053    0.7744   26.6421 C   0  0  0  0  0  0  0  0  0  0  0  0
  -28.0677    1.4872   25.5121 C   0  0  0  0  0  0  0  0  0  0  0  0
  -29.2691   -0.5335   28.2245 C   0  0  0  0  0  0  0  0  0  0  0  0
  -29.2230    0.1355   27.0328 C   0  0  0  0  0  0  0  0  0  0  0  0
  -30.4249    0.2117   26.2149 C   0  0  0  0  0  0  0  0  0  0  0  0
  -30.3953    0.8376   24.9686 C   0  0  0  0  0  0  0  0  0  0  0  0
  -29.1706    1.5667   24.5716 C   0  0  0  0  0  0  0  0  0  0  0  0
  -25.6503    1.3487   27.0849 C   0  0  0  0  0  0  0  0  0  0  0  0
  -24.9283    2.0687   28.1468 C   0  0  0  0  0  0  0  0  0  0  0  0
  -23.5904    2.3584   27.7668 C   0  0  0  0  0  0  0  0  0  0  0  0
  -23.1573    2.2549   26.4457 C   0  0  0  0  0  0  0  0  0  0  0  0
  -24.9921    1.1175   25.8831 C   0  0  0  0  0  0  0  0  0  0  0  0
  -23.7916    1.5591   25.5739 C   0  0  0  0  0  0  0  0  0  0  0  0
  3 11  1  0
  4  5  1  0
  5 10  2  0
 10  9  1  0
  9  8  2  0
  8  7  1  0
 11 12  2  0
 12 13  1  0
 13 14  2  0
 14 16  1  0
 16 15  2  0
 15 11  1  0
  1  2  2  0
  2  3  1  0
  3  4  2  0
  4  7  1  0
  7  6  2  0
  6  1  1  0
M  END

$$$$
