No_2326-gen_results/8p0m/2024-11-27-11-27-31/
     RDKit          3D

 24 26  0  0  0  0  0  0  0  0999 V2000
  -28.0162   -0.8135   28.8779 C   0  0  0  0  0  0  0  0  0  0  0  0
  -28.4690   -0.7850   29.8287 C   0  0  0  0  0  0  0  0  0  0  0  0
  -26.5042   -0.7777   28.8766 C   0  0  0  0  0  0  0  0  0  0  0  0
  -25.8103   -0.8531   30.1028 C   0  0  0  0  0  0  0  0  0  0  0  0
  -27.9906   -0.8916   31.2257 C   0  0  0  0  0  0  0  0  0  0  0  0
  -26.6042   -0.8676   31.2652 C   0  0  0  0  0  0  0  0  0  0  0  0
  -29.9385   -0.8194   29.8358 O   0  0  0  0  0  0  0  0  0  0  0  0
  -30.6978   -1.6543   30.3501 C   0  0  0  0  0  0  0  0  0  0  0  0
  -24.3665   -0.8009   30.1517 C   0  0  0  0  0  0  0  0  0  0  0  0
  -23.8145    0.5247   29.9887 C   0  0  0  0  0  0  0  0  0  0  0  0
  -23.3895    0.9758   28.7433 C   0  0  0  0  0  0  0  0  0  0  0  0
  -22.0902    0.8802   28.4270 C   0  0  0  0  0  0  0  0  0  0  0  0
  -24.3504    1.6732   27.9341 C   0  0  0  0  0  0  0  0  0  0  0  0
  -23.9223    2.0561   26.6215 C   0  0  0  0  0  0  0  0  0  0  0  0
  -21.6509    1.3849   27.1570 C   0  0  0  0  0  0  0  0  0  0  0  0
  -22.5695    1.9950   26.3287 C   0  0  0  0  0  0  0  0  0  0  0  0
  -23.8198    1.4260   31.1726 C   0  0  0  0  0  0  0  0  0  0  0  0
  -31.9043   -1.1907   30.7718 C   0  0  0  0  0  0  0  0  0  0  0  0
  -32.3316    0.0241   30.5131 C   0  0  0  0  0  0  0  0  0  0  0  0
  -33.5228    0.5341   30.9767 C   0  0  0  0  0  0  0  0  0  0  0  0
  -33.8976    1.9146   30.7803 C   0  0  0  0  0  0  0  0  0  0  0  0
  -33.0329    2.6924   29.9631 C   0  0  0  0  0  0  0  0  0  0  0  0
  -31.8675    2.1896   29.4524 C   0  0  0  0  0  0  0  0  0  0  0  0
  -31.4973    0.9655   29.7397 C   0  0  0  0  0  0  0  0  0  0  0  0
  2  7  1  0
  7  8  1  0
  4  9  1  0
  9 10  1  0
 10 11  1  0
 10 17  1  0
  8 18  2  3
 18 19  1  0
 11 12  2  0
 12 15  1  0
 15 16  2  0
 16 14  1  0
 14 13  2  0
 13 11  1  0
  1  2  2  0
  2  5  1  0
  5  6  2  0
  6  4  1  0
  4  3  2  0
  3  1  1  0
 19 20  2  0
 20 21  1  0
 21 22  2  0
 22 23  1  0
 23 24  2  0
 24 19  1  0
M  END

$$$$
