No_2210-gen_results/8p0m/2024-11-27-11-27-31/
     RDKit          3D

 29 32  0  0  0  0  0  0  0  0999 V2000
  -28.0162   -0.8135   28.8779 C   0  0  0  0  0  0  0  0  0  0  0  0
  -28.4690   -0.7850   29.8287 C   0  0  0  0  0  0  0  0  0  0  0  0
  -26.5042   -0.7777   28.8766 C   0  0  0  0  0  0  0  0  0  0  0  0
  -25.8103   -0.8531   30.1028 C   0  0  0  0  0  0  0  0  0  0  0  0
  -27.9906   -0.8916   31.2257 C   0  0  0  0  0  0  0  0  0  0  0  0
  -26.6042   -0.8676   31.2652 C   0  0  0  0  0  0  0  0  0  0  0  0
  -24.3894   -0.8049   30.1638 C   0  0  0  0  0  0  0  0  0  0  0  0
  -23.7660   -0.9500   31.0679 C   0  0  0  0  0  0  0  0  0  0  0  0
  -22.2665   -0.8379   31.2250 C   0  0  0  0  0  0  0  0  0  0  0  0
  -21.6701   -0.5264   30.0648 C   0  0  0  0  0  0  0  0  0  0  0  0
  -23.6437   -0.4433   28.9621 C   0  0  0  0  0  0  0  0  0  0  0  0
  -22.3479   -0.3035   28.9177 C   0  0  0  0  0  0  0  0  0  0  0  0
  -29.9875   -0.7811   29.8359 N   0  0  0  0  0  0  0  0  0  0  0  0
  -30.6801    0.3314   30.1317 C   0  0  0  0  0  0  0  0  0  0  0  0
  -32.0634    0.2541   30.0340 C   0  0  0  0  0  0  0  0  0  0  0  0
  -30.7190   -1.9321   29.6136 C   0  0  0  0  0  0  0  0  0  0  0  0
  -31.7231   -2.0746   29.9594 C   0  0  0  0  0  0  0  0  0  0  0  0
  -32.4448   -3.4400   29.7689 C   0  0  0  0  0  0  0  0  0  0  0  0
  -32.6587   -0.9939   30.0268 C   0  0  0  0  0  0  0  0  0  0  0  0
  -31.8748   -4.4746   30.2919 C   0  0  0  0  0  0  0  0  0  0  0  0
  -31.0491   -4.3213   31.2951 C   0  0  0  0  0  0  0  0  0  0  0  0
  -30.3064   -5.5285   31.8661 C   0  0  0  0  0  0  0  0  0  0  0  0
  -30.5225   -6.6893   31.2138 C   0  0  0  0  0  0  0  0  0  0  0  0
  -31.3026   -6.8514   30.1336 C   0  0  0  0  0  0  0  0  0  0  0  0
  -31.9527   -5.7271   29.6508 C   0  0  0  0  0  0  0  0  0  0  0  0
  -33.6095   -3.5422   29.2312 O   0  0  0  0  0  0  0  0  0  0  0  0
  -29.8554    1.4523   30.1041 N   0  0  0  0  0  0  0  0  0  0  0  0
  -29.9217    2.5025   30.2481 C   0  0  0  0  0  0  0  0  0  0  0  0
  -28.8583    3.4676   30.1842 C   0  0  0  0  0  0  0  0  0  0  0  0
  4  7  1  0
  2 13  1  0
 13 14  1  0
 13 16  1  0
 17 18  1  0
 15 19  1  0
 17 19  1  0
 18 20  1  0
 18 26  2  0
 14 27  1  0
 27 28  1  0
 28 29  2  0
 14 15  1  0
 17 16  1  0
  7  8  2  0
  8  9  1  0
  9 10  2  0
 10 12  1  0
 12 11  2  0
 11  7  1  0
  1  2  2  0
  2  5  1  0
  5  6  2  0
  6  4  1  0
  4  3  2  0
  3  1  1  0
 20 21  2  0
 21 22  1  0
 22 23  2  0
 23 24  1  0
 24 25  2  0
 25 20  1  0
M  END

$$$$
