No_2269-gen_results/8p0m/2024-11-27-11-27-31/
     RDKit          3D

 35 37  0  0  0  0  0  0  0  0999 V2000
  -28.0162   -0.8135   28.8779 C   0  0  0  0  0  0  0  0  0  0  0  0
  -28.4690   -0.7850   29.8287 C   0  0  0  0  0  0  0  0  0  0  0  0
  -26.5455   -0.8762   28.8500 C   0  0  0  0  0  0  0  0  0  0  0  0
  -25.8041   -1.0324   30.0571 C   0  0  0  0  0  0  0  0  0  0  0  0
  -27.9437   -0.9869   31.2075 C   0  0  0  0  0  0  0  0  0  0  0  0
  -26.5825   -1.0386   31.2231 C   0  0  0  0  0  0  0  0  0  0  0  0
  -30.0606   -0.7371   29.9024 C   0  0  0  0  0  0  0  0  0  0  0  0
  -30.7252   -1.5544   30.2697 O   0  0  0  0  0  0  0  0  0  0  0  0
  -30.5563    0.4242   29.3124 N   0  0  0  0  0  0  0  0  0  0  0  0
  -31.9645    0.5638   29.1626 C   0  0  0  0  0  0  0  0  0  0  0  0
  -32.7762    0.4546   29.7383 C   0  0  0  0  0  0  0  0  0  0  0  0
  -32.1006    1.0961   27.7187 C   0  0  0  0  0  0  0  0  0  0  0  0
  -33.4141    1.3093   27.2689 C   0  0  0  0  0  0  0  0  0  0  0  0
  -34.1674    0.6615   29.4627 C   0  0  0  0  0  0  0  0  0  0  0  0
  -34.4288    1.1438   28.1840 C   0  0  0  0  0  0  0  0  0  0  0  0
  -36.0116    1.4788   27.6589 Cl  0  0  0  0  0  0  0  0  0  0  0  0
  -24.3723   -1.1064   30.0715 C   0  0  0  0  0  0  0  0  0  0  0  0
  -23.7125    0.1493   29.9945 C   0  0  0  0  0  0  0  0  0  0  0  0
  -23.3518    0.7017   28.8133 C   0  0  0  0  0  0  0  0  0  0  0  0
  -23.6974    1.9807   28.4129 C   0  0  0  0  0  0  0  0  0  0  0  0
  -23.3818    2.2817   27.0341 C   0  0  0  0  0  0  0  0  0  0  0  0
  -24.0360    3.2712   26.3595 C   0  0  0  0  0  0  0  0  0  0  0  0
  -24.8782    4.2072   27.0649 C   0  0  0  0  0  0  0  0  0  0  0  0
  -25.1707    3.8838   28.3548 C   0  0  0  0  0  0  0  0  0  0  0  0
  -24.6605    2.7615   29.0247 C   0  0  0  0  0  0  0  0  0  0  0  0
  -22.2941   -0.0154   28.2103 C   0  0  0  0  0  0  0  0  0  0  0  0
  -26.1830    4.7558   29.0500 C   0  0  0  0  0  0  0  0  0  0  0  0
  -26.7043    4.4805   29.9908 O   0  0  0  0  0  0  0  0  0  0  0  0
  -26.2757    5.9721   28.5430 O   0  0  0  0  0  0  0  0  0  0  0  0
  -25.6461   -0.7952   27.3963 Cl  0  0  0  0  0  0  0  0  0  0  0  0
  -23.5580    0.8808   31.2849 C   0  0  0  0  0  0  0  0  0  0  0  0
  -29.8710    1.6719   29.7151 C   0  0  0  0  0  0  0  0  0  0  0  0
  -29.8035    2.1741   30.9409 C   0  0  0  0  0  0  0  0  0  0  0  0
  -29.3841    2.4400   28.5563 C   0  0  0  0  0  0  0  0  0  0  0  0
  -29.5918    3.5124   31.2810 C   0  0  0  0  0  0  0  0  0  0  0  0
  2  7  1  0
  7  8  2  0
  7  9  1  0
  9 10  1  0
 15 16  1  0
  4 17  1  0
 17 18  1  0
 18 19  1  0
 19 20  1  0
 19 26  1  0
 24 27  1  0
 27 28  2  0
 27 29  1  0
  3 30  1  0
 18 31  1  0
  9 32  1  0
 32 33  1  0
 32 34  1  0
 33 35  2  0
 10 11  2  0
 11 14  1  0
 14 15  2  0
 15 13  1  0
 13 12  2  0
 12 10  1  0
  1  2  2  0
  2  5  1  0
  5  6  2  0
  6  4  1  0
  4  3  2  0
  3  1  1  0
 20 21  2  0
 21 22  1  0
 22 23  2  0
 23 24  1  0
 24 25  2  0
 25 20  1  0
M  END

$$$$
