No_2096-gen_results/8p0m/2024-11-27-11-27-31/
     RDKit          3D

 24 24  0  0  0  0  0  0  0  0999 V2000
  -27.9505   -0.5786   29.0402 P   0  0  0  0  0  0  0  0  0  0  0  0
  -27.2401    0.0613   28.4283 O   0  0  0  0  0  0  0  0  0  0  0  0
  -29.3621   -0.5774   28.6194 O   0  0  0  0  0  0  0  0  0  0  0  0
  -27.9298   -0.0063   30.5563 O   0  0  0  0  0  0  0  0  0  0  0  0
  -27.5440   -2.0509   29.4296 O   0  0  0  0  0  0  0  0  0  0  0  0
  -27.3526    0.4938   27.1837 C   0  0  0  0  0  0  0  0  0  0  0  0
  -26.5388    1.7693   26.8709 C   0  0  0  0  0  0  0  0  0  0  0  0
  -25.3387    1.8430   27.5165 C   0  0  0  0  0  0  0  0  0  0  0  0
  -24.2639    2.4856   26.8145 C   0  0  0  0  0  0  0  0  0  0  0  0
  -24.9991    1.3337   28.7135 C   0  0  0  0  0  0  0  0  0  0  0  0
  -23.6020    1.4851   29.1713 C   0  0  0  0  0  0  0  0  0  0  0  0
  -23.2980    0.8408   30.4086 C   0  0  0  0  0  0  0  0  0  0  0  0
  -22.9468    2.6229   27.1930 C   0  0  0  0  0  0  0  0  0  0  0  0
  -22.6561    2.0627   28.4059 C   0  0  0  0  0  0  0  0  0  0  0  0
  -24.2048    0.9350   31.5580 C   0  0  0  0  0  0  0  0  0  0  0  0
  -25.2233    0.2607   31.6072 C   0  0  0  0  0  0  0  0  0  0  0  0
  -26.1310    0.4916   32.7132 C   0  0  0  0  0  0  0  0  0  0  0  0
  -27.3384    1.1101   32.6355 C   0  0  0  0  0  0  0  0  0  0  0  0
  -27.7278    1.8061   33.9231 C   0  0  0  0  0  0  0  0  0  0  0  0
  -28.2753    3.0801   33.7429 C   0  0  0  0  0  0  0  0  0  0  0  0
  -27.9785    3.7119   32.7636 C   0  0  0  0  0  0  0  0  0  0  0  0
  -28.3751    5.0916   32.4950 C   0  0  0  0  0  0  0  0  0  0  0  0
  -27.7525    5.7664   31.4942 C   0  0  0  0  0  0  0  0  0  0  0  0
  -27.9301    6.9444   31.0555 C   0  0  0  0  0  0  0  0  0  0  0  0
  1  2  1  0
  1  3  2  0
  1  4  1  0
  1  5  1  0
  2  6  1  0
  6  7  1  0
  7  8  1  0
 11 12  1  0
 12 15  1  0
 15 16  1  0
 16 17  1  0
 17 18  1  0
 18 19  1  0
 19 20  1  0
 20 21  2  3
 21 22  1  0
 22 23  2  3
 23 24  1  0
  8  9  2  0
  9 13  1  0
 13 14  2  0
 14 11  1  0
 11 10  2  0
 10  8  1  0
M  END

$$$$
