No_2417-gen_results/8p0m/2024-11-27-11-27-31/
     RDKit          3D

 33 35  0  0  0  0  0  0  0  0999 V2000
  -28.0162   -0.8135   28.8779 C   0  0  0  0  0  0  0  0  0  0  0  0
  -27.0636   -0.1189   28.6079 C   0  0  0  0  0  0  0  0  0  0  0  0
  -26.8756    1.1325   28.9134 C   0  0  0  0  0  0  0  0  0  0  0  0
  -25.6883    1.9515   28.5672 C   0  0  0  0  0  0  0  0  0  0  0  0
  -24.6394    1.2834   27.8753 C   0  0  0  0  0  0  0  0  0  0  0  0
  -24.8068   -0.0513   27.6040 C   0  0  0  0  0  0  0  0  0  0  0  0
  -25.9019   -0.7670   27.9511 C   0  0  0  0  0  0  0  0  0  0  0  0
  -28.6391   -0.5118   30.2403 C   0  0  0  0  0  0  0  0  0  0  0  0
  -28.8731    0.8215   30.4840 C   0  0  0  0  0  0  0  0  0  0  0  0
  -27.6873    1.6637   30.0653 C   0  0  0  0  0  0  0  0  0  0  0  0
  -23.4738    1.9736   27.3661 C   0  0  0  0  0  0  0  0  0  0  0  0
  -22.1990    2.1187   27.7591 Cl  0  0  0  0  0  0  0  0  0  0  0  0
  -23.8122    2.6012   25.9958 C   0  0  0  0  0  0  0  0  0  0  0  0
  -25.5193    3.3823   28.8859 C   0  0  0  0  0  0  0  0  0  0  0  0
  -25.1059    3.8100   30.0063 O   0  0  0  0  0  0  0  0  0  0  0  0
  -26.2432    4.2467   28.1389 N   0  0  0  0  0  0  0  0  0  0  0  0
  -26.2312    5.7019   28.4225 C   0  0  0  0  0  0  0  0  0  0  0  0
  -26.9616    3.8986   26.9274 C   0  0  0  0  0  0  0  0  0  0  0  0
  -29.8891    1.4167   31.2290 C   0  0  0  0  0  0  0  0  0  0  0  0
  -30.7219    1.9797   30.7016 O   0  0  0  0  0  0  0  0  0  0  0  0
  -29.8266    1.2395   32.5102 O   0  0  0  0  0  0  0  0  0  0  0  0
  -27.1859    6.1780   29.3588 C   0  0  0  0  0  0  0  0  0  0  0  0
  -27.9845    5.3623   29.6652 F   0  0  0  0  0  0  0  0  0  0  0  0
  -26.5193    6.5801   30.4744 F   0  0  0  0  0  0  0  0  0  0  0  0
  -27.8458    7.2385   28.8288 F   0  0  0  0  0  0  0  0  0  0  0  0
  -25.2139    6.4893   27.7582 C   0  0  0  0  0  0  0  0  0  0  0  0
  -24.4711    6.0093   26.9179 F   0  0  0  0  0  0  0  0  0  0  0  0
  -25.2161    7.7043   28.0483 F   0  0  0  0  0  0  0  0  0  0  0  0
  -28.3960    3.8269   27.1071 C   0  0  0  0  0  0  0  0  0  0  0  0
  -29.0496    3.1072   26.1270 C   0  0  0  0  0  0  0  0  0  0  0  0
  -28.4080    2.3388   25.2792 C   0  0  0  0  0  0  0  0  0  0  0  0
  -26.9246    2.2965   25.2463 C   0  0  0  0  0  0  0  0  0  0  0  0
  -26.3958    4.1051   25.7270 C   0  0  0  0  0  0  0  0  0  0  0  0
  5 11  1  0
 11 12  1  0
 11 13  1  0
  4 14  1  0
 14 15  2  0
 14 16  1  0
 16 17  1  0
 16 18  1  0
  9 19  1  0
 19 20  2  0
 19 21  1  0
 17 22  1  0
 22 23  1  0
 22 24  1  0
 22 25  1  0
 17 26  1  0
 26 27  1  0
 26 28  1  0
 18 29  2  0
 29 30  1  0
 30 31  2  0
 31 32  1  0
 32 33  2  0
 33 18  1  0
  3  4  1  0
  4  5  2  0
  5  6  1  0
  6  7  2  0
  7  2  1  0
  1  2  2  0
  2  3  1  0
  3 10  2  0
 10  9  1  0
  9  8  2  0
  8  1  1  0
M  END

$$$$
