No_2882-gen_results/8p0m/2024-11-27-11-27-31/
     RDKit          3D

 17 18  0  0  0  0  0  0  0  0999 V2000
  -28.1229   -1.3353   28.4874 O   0  0  0  0  0  0  0  0  0  0  0  0
  -27.4806   -0.4044   28.7094 C   0  0  0  0  0  0  0  0  0  0  0  0
  -26.3804   -0.0867   27.9394 C   0  0  0  0  0  0  0  0  0  0  0  0
  -27.4232    0.1749   30.0549 N   0  0  0  0  0  0  0  0  0  0  0  0
  -26.1558    0.1159   26.9677 C   0  0  0  0  0  0  0  0  0  0  0  0
  -24.8999    0.6041   26.2249 C   0  0  0  0  0  0  0  0  0  0  0  0
  -23.8294    0.8007   27.0443 C   0  0  0  0  0  0  0  0  0  0  0  0
  -23.9618    0.5852   28.4109 C   0  0  0  0  0  0  0  0  0  0  0  0
  -25.0820    0.2407   28.9595 C   0  0  0  0  0  0  0  0  0  0  0  0
  -28.6139   -0.1699   30.9103 C   0  0  0  0  0  0  0  0  0  0  0  0
  -22.9226    0.9320   29.1906 F   0  0  0  0  0  0  0  0  0  0  0  0
  -29.4544    0.8480   30.9778 C   0  0  0  0  0  0  0  0  0  0  0  0
  -30.5812    0.6676   31.5851 C   0  0  0  0  0  0  0  0  0  0  0  0
  -31.6025    1.6818   31.6549 C   0  0  0  0  0  0  0  0  0  0  0  0
  -31.3043    2.9233   31.0326 C   0  0  0  0  0  0  0  0  0  0  0  0
  -30.1244    3.1035   30.3693 C   0  0  0  0  0  0  0  0  0  0  0  0
  -29.2021    2.1087   30.3211 C   0  0  0  0  0  0  0  0  0  0  0  0
  1  2  2  0
  2  3  1  0
  2  4  1  0
  4 10  1  0
  8 11  1  0
 10 12  1  0
 12 13  2  0
 13 14  1  0
 14 15  2  0
 15 16  1  0
 16 17  2  0
 17 12  1  0
  3  5  2  0
  5  6  1  0
  6  7  2  0
  7  8  1  0
  8  9  2  0
  9  3  1  0
M  END

$$$$
