No_2200-gen_results/8p0m/2024-11-27-11-27-31/
     RDKit          3D

 18 20  0  0  0  0  0  0  0  0999 V2000
  -28.0162   -0.8135   28.8779 C   0  0  0  0  0  0  0  0  0  0  0  0
  -27.0636   -0.1189   28.6079 C   0  0  0  0  0  0  0  0  0  0  0  0
  -26.9716    0.7139   27.5060 C   0  0  0  0  0  0  0  0  0  0  0  0
  -25.8205    1.4909   27.1160 C   0  0  0  0  0  0  0  0  0  0  0  0
  -24.6562    1.4242   27.9180 C   0  0  0  0  0  0  0  0  0  0  0  0
  -24.7114    0.5419   29.0507 C   0  0  0  0  0  0  0  0  0  0  0  0
  -25.8042   -0.2058   29.3881 C   0  0  0  0  0  0  0  0  0  0  0  0
  -28.0673   -1.5382   30.1911 C   0  0  0  0  0  0  0  0  0  0  0  0
  -26.8381   -1.7680   30.8773 C   0  0  0  0  0  0  0  0  0  0  0  0
  -25.7411   -1.0297   30.5541 C   0  0  0  0  0  0  0  0  0  0  0  0
  -28.0790    0.8472   26.5259 C   0  0  0  0  0  0  0  0  0  0  0  0
  -27.9740    1.1343   25.3329 N   0  0  0  0  0  0  0  0  0  0  0  0
  -29.1738    0.2192   26.8313 O   0  0  0  0  0  0  0  0  0  0  0  0
  -26.7440    1.6995   24.7390 C   0  0  0  0  0  0  0  0  0  0  0  0
  -25.5220    1.5380   25.5966 C   0  0  0  0  0  0  0  0  0  0  0  0
  -23.4860    0.6721   29.9529 C   0  0  0  0  0  0  0  0  0  0  0  0
  -23.6229    0.8887   31.1060 O   0  0  0  0  0  0  0  0  0  0  0  0
  -22.3222    0.8260   29.3926 O   0  0  0  0  0  0  0  0  0  0  0  0
 11 13  1  0
  6 16  1  0
 16 17  2  0
 16 18  1  0
  4 15  2  0
 15 14  1  0
 14 12  2  0
 12 11  1  0
 11  3  2  0
  2  3  1  0
  3  4  1  0
  4  5  1  0
  5  6  2  0
  6  7  1  0
  1  2  2  0
  2  7  1  0
  7 10  2  0
 10  9  1  0
  9  8  2  0
  8  1  1  0
M  END

$$$$
