No_2944-gen_results/8p0m/2024-11-27-11-27-31/
     RDKit          3D

 20 21  0  0  0  0  0  0  0  0999 V2000
  -28.0162   -0.8135   28.8779 C   0  0  0  0  0  0  0  0  0  0  0  0
  -27.0636   -0.1189   28.6079 C   0  0  0  0  0  0  0  0  0  0  0  0
  -27.0010    0.6913   27.4910 C   0  0  0  0  0  0  0  0  0  0  0  0
  -28.1373    0.7363   26.6350 C   0  0  0  0  0  0  0  0  0  0  0  0
  -29.2360    0.0765   27.0690 C   0  0  0  0  0  0  0  0  0  0  0  0
  -30.3815    0.2048   26.2662 C   0  0  0  0  0  0  0  0  0  0  0  0
  -29.1803   -0.6422   28.1830 C   0  0  0  0  0  0  0  0  0  0  0  0
  -31.3262   -0.3813   26.5663 O   0  0  0  0  0  0  0  0  0  0  0  0
  -30.2374    0.5818   24.9688 O   0  0  0  0  0  0  0  0  0  0  0  0
  -25.8490   -0.1777   29.3624 F   0  0  0  0  0  0  0  0  0  0  0  0
  -27.9940   -1.6876   30.1687 C   0  0  0  0  0  0  0  0  0  0  0  0
  -28.3017   -1.3721   31.2188 O   0  0  0  0  0  0  0  0  0  0  0  0
  -27.6104   -2.9472   29.9159 O   0  0  0  0  0  0  0  0  0  0  0  0
  -25.8538    1.3609   27.1540 F   0  0  0  0  0  0  0  0  0  0  0  0
  -29.5378   -0.9640   31.5389 C   0  0  0  0  0  0  0  0  0  0  0  0
  -29.6587    0.3796   31.8438 C   0  0  0  0  0  0  0  0  0  0  0  0
  -30.7980    1.0566   31.4161 C   0  0  0  0  0  0  0  0  0  0  0  0
  -31.9459    0.3066   31.1383 C   0  0  0  0  0  0  0  0  0  0  0  0
  -31.8150   -1.0694   30.9666 C   0  0  0  0  0  0  0  0  0  0  0  0
  -30.5625   -1.7071   31.0592 C   0  0  0  0  0  0  0  0  0  0  0  0
  5  6  1  0
  6  8  1  0
  6  9  2  0
  2 10  1  0
  1 11  1  0
 11 12  1  0
 11 13  2  0
  3 14  1  0
 12 15  1  0
 15 16  2  0
 16 17  1  0
 17 18  2  0
 18 19  1  0
 19 20  2  0
 20 15  1  0
  1  2  2  0
  2  3  1  0
  3  4  2  0
  4  5  1  0
  5  7  2  0
  7  1  1  0
M  END

$$$$
