No_215-gen_results/8p0m/2024-11-27-11-27-31/
     RDKit          3D

 12 12  0  0  0  0  0  0  0  0999 V2000
  -28.0162   -0.8135   28.8779 C   0  0  0  0  0  0  0  0  0  0  0  0
  -27.0636   -0.1190   28.6079 C   0  0  0  0  0  0  0  0  0  0  0  0
  -27.0010    0.6913   27.4910 C   0  0  0  0  0  0  0  0  0  0  0  0
  -25.7770    1.0214   26.9135 C   0  0  0  0  0  0  0  0  0  0  0  0
  -24.5088    0.7364   27.5686 C   0  0  0  0  0  0  0  0  0  0  0  0
  -24.5930   -0.0361   28.7390 C   0  0  0  0  0  0  0  0  0  0  0  0
  -23.3872   -0.3587   29.4272 C   0  0  0  0  0  0  0  0  0  0  0  0
  -25.8093   -0.4895   29.1830 C   0  0  0  0  0  0  0  0  0  0  0  0
  -28.7034   -0.3036   30.1860 C   0  0  0  0  0  0  0  0  0  0  0  0
  -22.4275   -0.5437   28.6718 F   0  0  0  0  0  0  0  0  0  0  0  0
  -22.9680    0.6830   30.2622 F   0  0  0  0  0  0  0  0  0  0  0  0
  -23.6800   -1.4250   30.2307 F   0  0  0  0  0  0  0  0  0  0  0  0
  1  2  1  0
  6  7  1  0
  1  9  1  0
  7 10  1  0
  7 11  1  0
  7 12  1  0
  2  3  2  0
  3  4  1  0
  4  5  2  0
  5  6  1  0
  6  8  2  0
  8  2  1  0
M  END

$$$$
