No_2799-gen_results/8p0m/2024-11-27-11-27-31/
     RDKit          3D

 24 26  0  0  0  0  0  0  0  0999 V2000
  -28.0162   -0.8135   28.8779 C   0  0  0  0  0  0  0  0  0  0  0  0
  -27.0636   -0.1190   28.6079 C   0  0  0  0  0  0  0  0  0  0  0  0
  -25.7923   -0.4302   29.0761 C   0  0  0  0  0  0  0  0  0  0  0  0
  -25.5756   -1.5654   29.9363 C   0  0  0  0  0  0  0  0  0  0  0  0
  -24.3722   -1.9422   30.4466 C   0  0  0  0  0  0  0  0  0  0  0  0
  -27.9640   -1.9247   29.7899 C   0  0  0  0  0  0  0  0  0  0  0  0
  -26.7624   -2.3055   30.3031 C   0  0  0  0  0  0  0  0  0  0  0  0
  -23.2376   -0.9702   30.2659 C   0  0  0  0  0  0  0  0  0  0  0  0
  -23.3025    0.0027   29.2092 C   0  0  0  0  0  0  0  0  0  0  0  0
  -24.3315    0.1996   28.5758 C   0  0  0  0  0  0  0  0  0  0  0  0
  -24.4773    1.3039   27.6340 C   0  0  0  0  0  0  0  0  0  0  0  0
  -23.3619    1.7193   27.0126 C   0  0  0  0  0  0  0  0  0  0  0  0
  -22.0825    1.4957   27.6919 C   0  0  0  0  0  0  0  0  0  0  0  0
  -22.0214    0.6356   28.8032 C   0  0  0  0  0  0  0  0  0  0  0  0
  -23.3242    2.6663   26.1204 F   0  0  0  0  0  0  0  0  0  0  0  0
  -29.1877   -0.3166   28.3792 O   0  0  0  0  0  0  0  0  0  0  0  0
  -29.5623    0.9053   28.5148 C   0  0  0  0  0  0  0  0  0  0  0  0
  -29.7202    1.4486   29.5309 C   0  0  0  0  0  0  0  0  0  0  0  0
  -29.9380    2.3158   30.0526 C   0  0  0  0  0  0  0  0  0  0  0  0
  -30.0003    2.7851   31.4946 C   0  0  0  0  0  0  0  0  0  0  0  0
  -30.2892    4.0560   32.0445 C   0  0  0  0  0  0  0  0  0  0  0  0
  -30.2298    4.3261   33.4225 C   0  0  0  0  0  0  0  0  0  0  0  0
  -29.8986    3.2274   34.2559 C   0  0  0  0  0  0  0  0  0  0  0  0
  -29.5767    1.9993   33.8035 C   0  0  0  0  0  0  0  0  0  0  0  0
 12 15  1  0
  1 16  1  0
 16 17  1  0
 17 18  2  3
 18 19  1  0
 19 20  2  3
 20 21  1  0
 21 22  2  3
 22 23  1  0
 23 24  2  0
  4  5  2  0
  5  8  1  0
  8  9  2  0
 10  3  2  0
  9 10  1  0
 10 11  1  0
 11 12  2  0
 12 13  1  0
 13 14  2  0
 14  9  1  0
  1  2  2  0
  2  3  1  0
  3  4  1  0
  4  7  1  0
  7  6  2  0
  6  1  1  0
M  END

$$$$
