No_2153-gen_results/8p0m/2024-11-27-11-27-31/
     RDKit          3D

 26 29  0  0  0  0  0  0  0  0999 V2000
  -28.0162   -0.8135   28.8779 C   0  0  0  0  0  0  0  0  0  0  0  0
  -27.0636   -0.1189   28.6079 C   0  0  0  0  0  0  0  0  0  0  0  0
  -25.7647   -0.3897   29.0360 C   0  0  0  0  0  0  0  0  0  0  0  0
  -25.5296   -1.5302   29.9014 C   0  0  0  0  0  0  0  0  0  0  0  0
  -26.6577   -2.2915   30.2035 C   0  0  0  0  0  0  0  0  0  0  0  0
  -27.8548   -1.9555   29.7630 C   0  0  0  0  0  0  0  0  0  0  0  0
  -24.5441    0.4126   28.7379 C   0  0  0  0  0  0  0  0  0  0  0  0
  -24.4731    1.2065   27.7114 C   0  0  0  0  0  0  0  0  0  0  0  0
  -23.3993    1.8796   27.3686 C   0  0  0  0  0  0  0  0  0  0  0  0
  -22.1779    1.7361   27.9909 C   0  0  0  0  0  0  0  0  0  0  0  0
  -23.3943    0.3577   29.6697 C   0  0  0  0  0  0  0  0  0  0  0  0
  -22.1887    0.9711   29.1987 C   0  0  0  0  0  0  0  0  0  0  0  0
  -29.0199   -2.7984   30.1786 C   0  0  0  0  0  0  0  0  0  0  0  0
  -30.0091   -2.5424   29.6502 F   0  0  0  0  0  0  0  0  0  0  0  0
  -28.6794   -4.1129   30.1163 F   0  0  0  0  0  0  0  0  0  0  0  0
  -29.1105   -2.5816   31.5673 F   0  0  0  0  0  0  0  0  0  0  0  0
  -23.3805    2.6870   26.2007 N   0  0  0  0  0  0  0  0  0  0  0  0
  -24.2820    3.6219   25.9250 C   0  0  0  0  0  0  0  0  0  0  0  0
  -22.9948    1.9649   24.9903 C   0  0  0  0  0  0  0  0  0  0  0  0
  -25.0557    4.0099   26.9714 C   0  0  0  0  0  0  0  0  0  0  0  0
  -25.3350    5.3671   27.3246 C   0  0  0  0  0  0  0  0  0  0  0  0
  -26.0422    5.7831   28.4204 C   0  0  0  0  0  0  0  0  0  0  0  0
  -26.5905    4.7800   29.2444 C   0  0  0  0  0  0  0  0  0  0  0  0
  -26.3643    3.4537   28.9790 C   0  0  0  0  0  0  0  0  0  0  0  0
  -25.6092    3.1285   27.9142 C   0  0  0  0  0  0  0  0  0  0  0  0
  -25.2432    1.8911   27.8217 N   0  0  0  0  0  0  0  0  0  0  0  0
  3  7  1  0
  6 13  1  0
 13 14  1  0
 13 15  1  0
 13 16  1  0
  9 17  1  0
 17 18  1  0
 17 19  1  0
 18 20  1  0
  8 26  1  0
 25 26  1  0
  7  8  2  0
  8  9  1  0
  9 10  2  0
 10 12  1  0
 12 11  2  0
 11  7  1  0
  1  2  2  0
  2  3  1  0
  3  4  2  0
  4  5  1  0
  5  6  2  0
  6  1  1  0
 20 21  2  0
 21 22  1  0
 22 23  2  0
 23 24  1  0
 24 25  2  0
 25 20  1  0
M  END

$$$$
