No_2976-gen_results/8p0m/2024-11-27-11-27-31/
     RDKit          3D

 24 26  0  0  0  0  0  0  0  0999 V2000
  -28.0162   -0.8135   28.8779 C   0  0  0  0  0  0  0  0  0  0  0  0
  -27.0636   -0.1189   28.6079 C   0  0  0  0  0  0  0  0  0  0  0  0
  -26.9287    1.1713   29.0083 C   0  0  0  0  0  0  0  0  0  0  0  0
  -27.9560    1.7411   29.7840 C   0  0  0  0  0  0  0  0  0  0  0  0
  -29.0569   -0.3271   29.7466 C   0  0  0  0  0  0  0  0  0  0  0  0
  -28.9828    0.9722   30.1516 C   0  0  0  0  0  0  0  0  0  0  0  0
  -26.0277   -0.5935   27.8711 F   0  0  0  0  0  0  0  0  0  0  0  0
  -30.0765    1.5021   31.0081 C   0  0  0  0  0  0  0  0  0  0  0  0
  -31.1057    1.9506   30.7304 C   0  0  0  0  0  0  0  0  0  0  0  0
  -32.0925    2.4855   31.6581 C   0  0  0  0  0  0  0  0  0  0  0  0
  -29.7055    1.4100   32.4762 C   0  0  0  0  0  0  0  0  0  0  0  0
  -30.5942    1.9107   33.4274 C   0  0  0  0  0  0  0  0  0  0  0  0
  -31.7742    2.4500   33.0120 C   0  0  0  0  0  0  0  0  0  0  0  0
  -32.7347    2.9953   33.9926 C   0  0  0  0  0  0  0  0  0  0  0  0
  -32.3250    3.5798   34.9042 O   0  0  0  0  0  0  0  0  0  0  0  0
  -33.9868    3.0281   33.5962 O   0  0  0  0  0  0  0  0  0  0  0  0
  -31.4941    2.0089   29.2654 C   0  0  0  0  0  0  0  0  0  0  0  0
  -32.6647    1.5051   28.8936 C   0  0  0  0  0  0  0  0  0  0  0  0
  -32.9927    1.5327   27.5244 C   0  0  0  0  0  0  0  0  0  0  0  0
  -34.1162    0.8712   27.1011 C   0  0  0  0  0  0  0  0  0  0  0  0
  -32.1076    2.1403   26.5719 C   0  0  0  0  0  0  0  0  0  0  0  0
  -30.8682    2.6982   26.9819 C   0  0  0  0  0  0  0  0  0  0  0  0
  -30.5916    2.6614   28.3469 C   0  0  0  0  0  0  0  0  0  0  0  0
  -34.6411    0.5974   26.2808 O   0  0  0  0  0  0  0  0  0  0  0  0
  2  7  1  0
  6  8  1  0
 13 14  1  0
 14 15  2  0
 14 16  1  0
  9 17  1  0
 20 24  2  0
 20 19  1  0
  8  9  1  0
  9 10  2  0
 10 13  1  0
 13 12  2  0
 12 11  1  0
 11  8  2  0
  1  2  2  0
  2  3  1  0
  3  4  2  0
  4  6  1  0
  6  5  2  0
  5  1  1  0
 17 18  2  0
 18 19  1  0
 19 21  2  0
 21 22  1  0
 22 23  2  0
 23 17  1  0
M  END

$$$$
