No_2979-gen_results/8p0m/2024-11-27-11-27-31/
     RDKit          3D

 35 38  0  0  0  0  0  0  0  0999 V2000
  -28.1229   -1.3353   28.4874 O   0  0  0  0  0  0  0  0  0  0  0  0
  -27.4806   -0.4044   28.7094 C   0  0  0  0  0  0  0  0  0  0  0  0
  -26.3804   -0.0867   27.9394 C   0  0  0  0  0  0  0  0  0  0  0  0
  -27.7306    0.3455   29.8481 F   0  0  0  0  0  0  0  0  0  0  0  0
  -25.1283   -0.3314   28.3752 C   0  0  0  0  0  0  0  0  0  0  0  0
  -23.9073    0.3013   27.7332 C   0  0  0  0  0  0  0  0  0  0  0  0
  -24.1266    1.1577   26.6568 C   0  0  0  0  0  0  0  0  0  0  0  0
  -25.4274    1.4266   26.2518 C   0  0  0  0  0  0  0  0  0  0  0  0
  -26.4762    0.8946   26.8698 C   0  0  0  0  0  0  0  0  0  0  0  0
  -22.7380    1.9547   26.0633 Cl  0  0  0  0  0  0  0  0  0  0  0  0
  -22.6955    0.0468   28.2895 O   0  0  0  0  0  0  0  0  0  0  0  0
  -22.3737    0.4895   29.6085 C   0  0  0  0  0  0  0  0  0  0  0  0
  -27.8352    1.0695   26.2833 C   0  0  0  0  0  0  0  0  0  0  0  0
  -28.6876    0.1824   26.0617 C   0  0  0  0  0  0  0  0  0  0  0  0
  -29.8390    0.4157   25.3059 C   0  0  0  0  0  0  0  0  0  0  0  0
  -30.0103    1.7105   24.8175 C   0  0  0  0  0  0  0  0  0  0  0  0
  -28.0778    2.3686   25.6353 C   0  0  0  0  0  0  0  0  0  0  0  0
  -29.1148    2.6799   24.9477 C   0  0  0  0  0  0  0  0  0  0  0  0
  -31.2593    1.9373   23.9653 C   0  0  0  0  0  0  0  0  0  0  0  0
  -32.0086    1.1045   23.8108 C   0  0  0  0  0  0  0  0  0  0  0  0
  -33.2735    1.3676   22.9744 C   0  0  0  0  0  0  0  0  0  0  0  0
  -33.4163    2.5098   22.6122 C   0  0  0  0  0  0  0  0  0  0  0  0
  -31.7077    3.2703   23.3415 C   0  0  0  0  0  0  0  0  0  0  0  0
  -32.6330    3.6059   22.7445 C   0  0  0  0  0  0  0  0  0  0  0  0
  -34.7739    2.7836   21.7295 C   0  0  0  0  0  0  0  0  0  0  0  0
  -35.6386    3.2332   22.2211 C   0  0  0  0  0  0  0  0  0  0  0  0
  -36.6264    3.6672   22.3431 C   0  0  0  0  0  0  0  0  0  0  0  0
  -37.6020    4.1898   21.5772 C   0  0  0  0  0  0  0  0  0  0  0  0
  -38.8715    4.7358   21.9559 C   0  0  0  0  0  0  0  0  0  0  0  0
  -39.1580    4.7266   23.3307 C   0  0  0  0  0  0  0  0  0  0  0  0
  -38.3132    4.2360   24.2480 C   0  0  0  0  0  0  0  0  0  0  0  0
  -37.0420    3.7399   23.8936 C   0  0  0  0  0  0  0  0  0  0  0  0
  -40.4878    5.2712   23.7358 C   0  0  0  0  0  0  0  0  0  0  0  0
  -40.4624    6.3331   24.2824 N   0  0  0  0  0  0  0  0  0  0  0  0
  -41.5229    4.5683   23.4387 N   0  0  0  0  0  0  0  0  0  0  0  0
  1  2  2  0
  2  3  1  0
  2  4  1  0
  7 10  1  0
  6 11  1  0
 11 12  1  0
  9 13  1  0
 16 19  1  0
 22 25  1  0
 25 26  2  3
 26 27  1  0
 30 33  1  0
 33 34  2  0
 33 35  1  0
 27 28  2  0
 28 29  1  0
 29 30  2  0
 30 31  1  0
 31 32  2  0
 32 27  1  0
  3  5  2  0
  5  6  1  0
  6  7  2  0
  7  8  1  0
  8  9  2  0
  9  3  1  0
 13 14  2  0
 14 15  1  0
 15 16  2  0
 16 18  1  0
 18 17  2  0
 17 13  1  0
 19 20  2  0
 20 21  1  0
 21 22  2  0
 22 24  1  0
 24 23  2  0
 23 19  1  0
M  END

$$$$
