No_2868-gen_results/8p0m/2024-11-27-11-27-31/
     RDKit          3D

 27 32  0  0  0  0  0  0  0  0999 V2000
  -28.0162   -0.8135   28.8779 C   0  0  0  0  0  0  0  0  0  0  0  0
  -28.4690   -0.7850   29.8287 C   0  0  0  0  0  0  0  0  0  0  0  0
  -26.5455   -0.8762   28.8500 C   0  0  0  0  0  0  0  0  0  0  0  0
  -25.8041   -1.0324   30.0571 C   0  0  0  0  0  0  0  0  0  0  0  0
  -26.5373   -1.0386   31.2171 C   0  0  0  0  0  0  0  0  0  0  0  0
  -27.8843   -0.9532   31.1862 C   0  0  0  0  0  0  0  0  0  0  0  0
  -24.3655   -1.1134   30.0483 C   0  0  0  0  0  0  0  0  0  0  0  0
  -23.6254   -0.9435   29.0230 C   0  0  0  0  0  0  0  0  0  0  0  0
  -22.3775   -0.3348   29.0683 C   0  0  0  0  0  0  0  0  0  0  0  0
  -21.9934    0.7172   28.8174 C   0  0  0  0  0  0  0  0  0  0  0  0
  -22.8988    1.6876   28.2449 C   0  0  0  0  0  0  0  0  0  0  0  0
  -23.9977    1.3611   27.5812 C   0  0  0  0  0  0  0  0  0  0  0  0
  -24.4035   -0.5095   27.8502 C   0  0  0  0  0  0  0  0  0  0  0  0
  -25.6362   -0.4817   27.8196 N   0  0  0  0  0  0  0  0  0  0  0  0
  -26.3154   -0.1588   26.5045 C   0  0  0  0  0  0  0  0  0  0  0  0
  -25.5042   -0.1302   25.4062 C   0  0  0  0  0  0  0  0  0  0  0  0
  -27.0067    1.2191   26.5642 C   0  0  0  0  0  0  0  0  0  0  0  0
  -28.3983    1.2457   26.4654 C   0  0  0  0  0  0  0  0  0  0  0  0
  -29.0261    2.4762   26.4627 C   0  0  0  0  0  0  0  0  0  0  0  0
  -28.2856    3.6813   26.5858 C   0  0  0  0  0  0  0  0  0  0  0  0
  -26.8867    3.6106   26.6006 C   0  0  0  0  0  0  0  0  0  0  0  0
  -26.2871    2.4322   26.5554 C   0  0  0  0  0  0  0  0  0  0  0  0
  -24.6727    2.0303   26.6188 C   0  0  0  0  0  0  0  0  0  0  0  0
  -24.3022    1.8266   25.2299 C   0  0  0  0  0  0  0  0  0  0  0  0
  -24.9810    0.7772   24.7299 C   0  0  0  0  0  0  0  0  0  0  0  0
  -29.9041   -0.7136   29.8833 F   0  0  0  0  0  0  0  0  0  0  0  0
  -24.0673    3.6521   27.0197 C   0  0  0  0  0  0  0  0  0  0  0  0
  4  7  1  0
  3 14  1  0
 13 14  1  0
 14 15  1  0
 15 16  1  0
 15 17  1  0
 12 23  1  0
 22 23  1  0
 23 24  1  0
 16 25  1  0
 24 25  1  0
  2 26  1  0
 23 27  1  0
  7  8  1  0
 17 18  2  0
 18 19  1  0
 19 20  2  0
 20 21  1  0
 21 22  2  0
 22 17  1  0
  1  2  2  0
  2  6  1  0
  6  5  2  0
  5  4  1  0
  4  3  2  0
  3  1  1  0
  8  9  2  0
  9 10  1  0
 10 11  2  0
 11 12  1  0
 12 13  2  0
 13  8  1  0
M  END

$$$$
