No_2650-gen_results/8p0m/2024-11-27-11-27-31/
     RDKit          3D

 24 26  0  0  0  0  0  0  0  0999 V2000
  -28.0162   -0.8135   28.8779 C   0  0  0  0  0  0  0  0  0  0  0  0
  -28.4690   -0.7850   29.8287 C   0  0  0  0  0  0  0  0  0  0  0  0
  -28.1816    0.4277   28.1134 C   0  0  0  0  0  0  0  0  0  0  0  0
  -27.4498    0.6435   26.8500 C   0  0  0  0  0  0  0  0  0  0  0  0
  -26.1815    0.0357   26.7145 C   0  0  0  0  0  0  0  0  0  0  0  0
  -25.7800   -0.9326   27.6938 C   0  0  0  0  0  0  0  0  0  0  0  0
  -26.5568   -1.2134   28.7413 C   0  0  0  0  0  0  0  0  0  0  0  0
  -29.5918   -0.3147   30.2054 N   0  0  0  0  0  0  0  0  0  0  0  0
  -28.3578   -2.0255   30.6307 O   0  0  0  0  0  0  0  0  0  0  0  0
  -30.5138   -0.6581   31.3044 C   0  0  0  0  0  0  0  0  0  0  0  0
  -25.3704    0.2981   25.6963 F   0  0  0  0  0  0  0  0  0  0  0  0
  -27.8111    1.6119   25.8398 C   0  0  0  0  0  0  0  0  0  0  0  0
  -28.3892    1.1322   24.6596 C   0  0  0  0  0  0  0  0  0  0  0  0
  -27.6887    2.9612   26.1301 C   0  0  0  0  0  0  0  0  0  0  0  0
  -29.7466    0.8513   24.6624 C   0  0  0  0  0  0  0  0  0  0  0  0
  -30.5600    1.5495   25.2736 C   0  0  0  0  0  0  0  0  0  0  0  0
  -31.9868    1.2289   25.3211 C   0  0  0  0  0  0  0  0  0  0  0  0
  -32.9202    1.8412   26.1250 C   0  0  0  0  0  0  0  0  0  0  0  0
  -32.4605    2.8977   26.9555 C   0  0  0  0  0  0  0  0  0  0  0  0
  -31.1231    3.2332   27.0212 C   0  0  0  0  0  0  0  0  0  0  0  0
  -30.2721    2.5731   26.3272 C   0  0  0  0  0  0  0  0  0  0  0  0
  -28.8929    3.1215   26.5047 C   0  0  0  0  0  0  0  0  0  0  0  0
  -30.1035   -0.2447   23.7509 C   0  0  0  0  0  0  0  0  0  0  0  0
  -28.9783    4.4070   27.3522 C   0  0  0  0  0  0  0  0  0  0  0  0
  1  2  1  0
  2  8  1  0
  2  9  2  0
  8 10  1  0
  5 11  1  0
  4 12  1  0
 12 13  1  0
 12 14  1  0
 13 15  1  0
 15 16  1  0
 14 22  1  0
 21 22  1  0
 15 23  1  0
 22 24  1  0
 16 17  2  0
 17 18  1  0
 18 19  2  0
 19 20  1  0
 20 21  2  0
 21 16  1  0
  1  3  2  0
  3  4  1  0
  4  5  2  0
  5  6  1  0
  6  7  2  0
  7  1  1  0
M  END

$$$$
