No_2925-gen_results/8p0m/2024-11-27-11-27-31/
     RDKit          3D

 17 18  0  0  0  0  0  0  0  0999 V2000
  -28.0162   -0.8135   28.8779 C   0  0  0  0  0  0  0  0  0  0  0  0
  -27.0636   -0.1189   28.6079 C   0  0  0  0  0  0  0  0  0  0  0  0
  -27.0010    0.6913   27.4910 C   0  0  0  0  0  0  0  0  0  0  0  0
  -28.1373    0.7363   26.6350 C   0  0  0  0  0  0  0  0  0  0  0  0
  -29.2360    0.0765   27.0690 C   0  0  0  0  0  0  0  0  0  0  0  0
  -30.3815    0.2048   26.2662 C   0  0  0  0  0  0  0  0  0  0  0  0
  -29.1803   -0.6422   28.1830 C   0  0  0  0  0  0  0  0  0  0  0  0
  -31.3192   -0.3841   26.5505 O   0  0  0  0  0  0  0  0  0  0  0  0
  -30.2406    0.5846   24.9677 O   0  0  0  0  0  0  0  0  0  0  0  0
  -27.9997   -1.7825   30.3586 Cl  0  0  0  0  0  0  0  0  0  0  0  0
  -25.8635    1.5186   26.9863 C   0  0  0  0  0  0  0  0  0  0  0  0
  -24.6291    1.2608   27.5680 C   0  0  0  0  0  0  0  0  0  0  0  0
  -23.9847    2.0327   28.4077 C   0  0  0  0  0  0  0  0  0  0  0  0
  -24.5306    3.1474   28.8856 C   0  0  0  0  0  0  0  0  0  0  0  0
  -25.4969    3.8274   28.0979 C   0  0  0  0  0  0  0  0  0  0  0  0
  -26.1484    3.1664   27.4301 C   0  0  0  0  0  0  0  0  0  0  0  0
  -25.7201    1.4188   25.5088 C   0  0  0  0  0  0  0  0  0  0  0  0
  5  6  1  0
  6  8  1  0
  6  9  2  0
  1 10  1  0
  3 11  1  0
 11 12  1  0
 13 14  1  0
 11 16  1  0
 15 16  1  0
 11 17  1  0
 12 13  1  0
 14 15  1  0
  1  2  2  0
  2  3  1  0
  3  4  2  0
  4  5  1  0
  5  7  2  0
  7  1  1  0
M  END

$$$$
