No_2464-gen_results/8p0m/2024-11-27-11-27-31/
     RDKit          3D

 29 32  0  0  0  0  0  0  0  0999 V2000
  -28.0162   -0.8135   28.8779 C   0  0  0  0  0  0  0  0  0  0  0  0
  -27.0636   -0.1190   28.6079 C   0  0  0  0  0  0  0  0  0  0  0  0
  -25.7923   -0.4302   29.0761 C   0  0  0  0  0  0  0  0  0  0  0  0
  -24.5456    0.3494   28.8225 C   0  0  0  0  0  0  0  0  0  0  0  0
  -23.2409    0.0217   29.3323 C   0  0  0  0  0  0  0  0  0  0  0  0
  -27.8820   -1.8995   29.8633 C   0  0  0  0  0  0  0  0  0  0  0  0
  -26.6706   -2.3272   30.3212 C   0  0  0  0  0  0  0  0  0  0  0  0
  -25.5433   -1.5852   29.9316 C   0  0  0  0  0  0  0  0  0  0  0  0
  -22.1918    0.8302   29.0004 C   0  0  0  0  0  0  0  0  0  0  0  0
  -22.1472    1.7783   28.0287 C   0  0  0  0  0  0  0  0  0  0  0  0
  -24.5322    1.3987   27.8163 C   0  0  0  0  0  0  0  0  0  0  0  0
  -23.3620    2.0694   27.4607 C   0  0  0  0  0  0  0  0  0  0  0  0
  -29.0617   -2.7252   30.3001 C   0  0  0  0  0  0  0  0  0  0  0  0
  -29.0044   -3.9353   30.2807 O   0  0  0  0  0  0  0  0  0  0  0  0
  -30.2241   -2.1432   30.3635 O   0  0  0  0  0  0  0  0  0  0  0  0
  -23.4791    3.0110   26.5190 F   0  0  0  0  0  0  0  0  0  0  0  0
  -31.1317   -2.5241   31.1301 C   0  0  0  0  0  0  0  0  0  0  0  0
  -31.0673   -2.3325   32.4682 C   0  0  0  0  0  0  0  0  0  0  0  0
  -31.6294   -2.9623   33.1852 O   0  0  0  0  0  0  0  0  0  0  0  0
  -30.1277   -1.3898   32.9093 N   0  0  0  0  0  0  0  0  0  0  0  0
  -29.7964   -1.2250   34.3282 C   0  0  0  0  0  0  0  0  0  0  0  0
  -29.7493    0.0519   34.6519 C   0  0  0  0  0  0  0  0  0  0  0  0
  -29.1634    0.9503   33.8497 C   0  0  0  0  0  0  0  0  0  0  0  0
  -28.9778    2.3197   34.1435 C   0  0  0  0  0  0  0  0  0  0  0  0
  -28.3870    3.1983   33.1570 C   0  0  0  0  0  0  0  0  0  0  0  0
  -27.9806    2.6246   31.9287 C   0  0  0  0  0  0  0  0  0  0  0  0
  -28.1621    1.2860   31.6766 C   0  0  0  0  0  0  0  0  0  0  0  0
  -28.6958    0.5047   32.6150 C   0  0  0  0  0  0  0  0  0  0  0  0
  -29.6319   -0.6047   32.1808 C   0  0  0  0  0  0  0  0  0  0  0  0
  3  4  1  0
  6 13  1  0
 13 14  2  0
 13 15  1  0
 12 16  1  0
 15 17  1  0
 17 18  1  0
 18 19  2  0
 18 20  1  0
 20 21  1  0
 22 23  1  0
 20 29  1  0
 28 29  1  0
 21 22  1  0
 23 24  2  0
 24 25  1  0
 25 26  2  0
 26 27  1  0
 27 28  2  0
 28 23  1  0
  1  2  2  0
  2  3  1  0
  3  8  2  0
  8  7  1  0
  7  6  2  0
  6  1  1  0
  4  5  2  0
  5  9  1  0
  9 10  2  0
 10 12  1  0
 12 11  2  0
 11  4  1  0
M  END

$$$$
