No_2156-gen_results/8p0m/2024-11-27-11-27-31/
     RDKit          3D

 32 35  0  0  0  0  0  0  0  0999 V2000
  -28.0162   -0.8135   28.8779 C   0  0  0  0  0  0  0  0  0  0  0  0
  -27.0636   -0.1189   28.6079 C   0  0  0  0  0  0  0  0  0  0  0  0
  -25.7923   -0.4302   29.0761 C   0  0  0  0  0  0  0  0  0  0  0  0
  -24.5456    0.3494   28.8225 C   0  0  0  0  0  0  0  0  0  0  0  0
  -23.2409    0.0217   29.3323 C   0  0  0  0  0  0  0  0  0  0  0  0
  -27.8820   -1.8995   29.8633 C   0  0  0  0  0  0  0  0  0  0  0  0
  -26.6706   -2.3272   30.3212 C   0  0  0  0  0  0  0  0  0  0  0  0
  -25.5433   -1.5852   29.9316 C   0  0  0  0  0  0  0  0  0  0  0  0
  -23.1716   -1.2685   29.9342 C   0  0  0  0  0  0  0  0  0  0  0  0
  -24.2461   -1.9784   30.3357 C   0  0  0  0  0  0  0  0  0  0  0  0
  -24.5808    1.5862   27.9921 C   0  0  0  0  0  0  0  0  0  0  0  0
  -24.8062    2.6960   28.6074 C   0  0  0  0  0  0  0  0  0  0  0  0
  -25.1018    3.8673   27.8507 C   0  0  0  0  0  0  0  0  0  0  0  0
  -24.4215    1.4785   26.6466 C   0  0  0  0  0  0  0  0  0  0  0  0
  -24.5528    2.5956   25.8403 C   0  0  0  0  0  0  0  0  0  0  0  0
  -24.8329    3.8490   26.4808 C   0  0  0  0  0  0  0  0  0  0  0  0
  -29.3166   -2.8274   30.2272 Cl  0  0  0  0  0  0  0  0  0  0  0  0
  -25.3009    5.2087   28.4773 C   0  0  0  0  0  0  0  0  0  0  0  0
  -25.2496    6.2541   27.8863 O   0  0  0  0  0  0  0  0  0  0  0  0
  -25.6606    5.1927   29.7491 O   0  0  0  0  0  0  0  0  0  0  0  0
  -26.7220    5.9589   30.1802 C   0  0  0  0  0  0  0  0  0  0  0  0
  -27.5544    5.3395   30.9966 C   0  0  0  0  0  0  0  0  0  0  0  0
  -27.1392    4.3310   31.7807 C   0  0  0  0  0  0  0  0  0  0  0  0
  -27.7856    3.3218   32.2322 C   0  0  0  0  0  0  0  0  0  0  0  0
  -27.1987    2.1704   32.9263 C   0  0  0  0  0  0  0  0  0  0  0  0
  -25.8119    2.1170   32.9531 C   0  0  0  0  0  0  0  0  0  0  0  0
  -25.0271    3.1455   32.4780 C   0  0  0  0  0  0  0  0  0  0  0  0
  -25.6738    4.1832   31.8965 C   0  0  0  0  0  0  0  0  0  0  0  0
  -28.7387    4.8538   30.2459 O   0  0  0  0  0  0  0  0  0  0  0  0
  -29.8019    5.6774   30.0191 C   0  0  0  0  0  0  0  0  0  0  0  0
  -30.4872    5.4406   29.2110 C   0  0  0  0  0  0  0  0  0  0  0  0
  -31.6302    6.3243   28.8698 C   0  0  0  0  0  0  0  0  0  0  0  0
  4 11  1  0
  6 17  1  0
 13 18  1  0
 18 19  2  0
 18 20  1  0
 20 21  1  0
 21 22  1  0
 22 23  1  0
 22 29  1  0
 29 30  1  0
 30 31  2  3
 31 32  1  0
 23 24  2  0
 24 25  1  0
 25 26  2  0
 26 27  1  0
 27 28  2  0
 28 23  1  0
  1  2  2  0
  2  3  1  0
  8  7  1  0
  7  6  2  0
  6  1  1  0
  3  4  2  0
  4  5  1  0
  5  9  2  0
  9 10  1  0
 10  8  2  0
  8  3  1  0
 11 12  2  0
 12 13  1  0
 13 16  2  0
 16 15  1  0
 15 14  2  0
 14 11  1  0
M  END

$$$$
