No_2984-gen_results/8p0m/2024-11-27-11-27-31/
     RDKit          3D

 27 30  0  0  0  0  0  0  0  0999 V2000
  -28.0162   -0.8135   28.8779 C   0  0  0  0  0  0  0  0  0  0  0  0
  -27.0636   -0.1189   28.6079 C   0  0  0  0  0  0  0  0  0  0  0  0
  -25.7647   -0.3897   29.0360 C   0  0  0  0  0  0  0  0  0  0  0  0
  -25.5296   -1.5302   29.9014 C   0  0  0  0  0  0  0  0  0  0  0  0
  -26.6577   -2.2915   30.2035 C   0  0  0  0  0  0  0  0  0  0  0  0
  -27.8548   -1.9555   29.7630 C   0  0  0  0  0  0  0  0  0  0  0  0
  -24.5441    0.4126   28.7379 C   0  0  0  0  0  0  0  0  0  0  0  0
  -24.4731    1.2065   27.7114 C   0  0  0  0  0  0  0  0  0  0  0  0
  -23.2632    1.9110   27.3927 C   0  0  0  0  0  0  0  0  0  0  0  0
  -22.0960    1.7116   28.0459 C   0  0  0  0  0  0  0  0  0  0  0  0
  -23.3012    0.1559   29.4817 C   0  0  0  0  0  0  0  0  0  0  0  0
  -22.1018    0.8312   29.1085 C   0  0  0  0  0  0  0  0  0  0  0  0
  -29.0137   -2.7978   30.1831 C   0  0  0  0  0  0  0  0  0  0  0  0
  -28.8714   -4.1082   30.4201 N   0  0  0  0  0  0  0  0  0  0  0  0
  -29.9681   -4.9336   30.6461 C   0  0  0  0  0  0  0  0  0  0  0  0
  -30.9766   -4.4407   31.2616 C   0  0  0  0  0  0  0  0  0  0  0  0
  -31.2381   -3.0137   31.1908 C   0  0  0  0  0  0  0  0  0  0  0  0
  -30.1766   -2.1797   30.7463 C   0  0  0  0  0  0  0  0  0  0  0  0
  -32.1319   -5.3464   31.6617 C   0  0  0  0  0  0  0  0  0  0  0  0
  -33.1887   -5.0470   31.9509 O   0  0  0  0  0  0  0  0  0  0  0  0
  -31.6664   -6.6407   32.0343 N   0  0  0  0  0  0  0  0  0  0  0  0
  -30.4322   -7.1609   31.8963 C   0  0  0  0  0  0  0  0  0  0  0  0
  -29.4952   -6.2811   31.1686 C   0  0  0  0  0  0  0  0  0  0  0  0
  -30.4501   -0.4172   30.6540 P   0  0  0  0  0  0  0  0  0  0  0  0
  -29.4035    0.2025   31.2879 O   0  0  0  0  0  0  0  0  0  0  0  0
  -31.6147   -0.2508   31.6207 O   0  0  0  0  0  0  0  0  0  0  0  0
  -30.8210   -0.1269   29.2727 O   0  0  0  0  0  0  0  0  0  0  0  0
  3  7  1  0
  6 13  1  0
 16 19  1  0
 19 20  2  0
 19 21  1  0
 21 22  1  0
 15 23  1  0
 18 24  1  0
 24 25  2  0
 24 26  1  0
 24 27  2  0
 23 22  1  0
  7  8  2  0
  8  9  1  0
  9 10  2  0
 10 12  1  0
 12 11  2  0
 11  7  1  0
  1  2  2  0
  2  3  1  0
  3  4  2  0
  4  5  1  0
  5  6  2  0
  6  1  1  0
 13 14  2  0
 14 15  1  0
 15 16  2  0
 16 17  1  0
 17 18  2  0
 18 13  1  0
M  END

$$$$
