No_2573-gen_results/8p0m/2024-11-27-11-27-31/
     RDKit          3D

 11 12  0  0  0  0  0  0  0  0999 V2000
  -28.0162   -0.8135   28.8779 C   0  0  0  0  0  0  0  0  0  0  0  0
  -27.0636   -0.1189   28.6079 C   0  0  0  0  0  0  0  0  0  0  0  0
  -25.7647   -0.3897   29.0360 C   0  0  0  0  0  0  0  0  0  0  0  0
  -25.5296   -1.5302   29.9014 C   0  0  0  0  0  0  0  0  0  0  0  0
  -26.6577   -2.2915   30.2035 C   0  0  0  0  0  0  0  0  0  0  0  0
  -27.8548   -1.9555   29.7630 C   0  0  0  0  0  0  0  0  0  0  0  0
  -24.4900    0.1888   28.8362 N   0  0  0  0  0  0  0  0  0  0  0  0
  -24.3200    1.1768   27.9133 C   0  0  0  0  0  0  0  0  0  0  0  0
  -22.9804    1.6688   27.7260 C   0  0  0  0  0  0  0  0  0  0  0  0
  -23.2623   -0.1488   29.4147 C   0  0  0  0  0  0  0  0  0  0  0  0
  -22.2260    0.7993   28.7258 C   0  0  0  0  0  0  0  0  0  0  0  0
  3  7  1  0
  7  8  1  0
  8  9  2  0
  7 10  1  0
  9 11  1  0
 10 11  2  0
  1  2  2  0
  2  3  1  0
  3  4  2  0
  4  5  1  0
  5  6  2  0
  6  1  1  0
M  END

$$$$
