No_2975-gen_results/8p0m/2024-11-27-11-27-31/
     RDKit          3D

 17 18  0  0  0  0  0  0  0  0999 V2000
  -28.0162   -0.8135   28.8779 C   0  0  0  0  0  0  0  0  0  0  0  0
  -28.4690   -0.7850   29.8287 C   0  0  0  0  0  0  0  0  0  0  0  0
  -28.1960    0.3478   28.0550 C   0  0  0  0  0  0  0  0  0  0  0  0
  -29.0191    1.3501   28.3782 C   0  0  0  0  0  0  0  0  0  0  0  0
  -29.6249    1.2683   29.6012 C   0  0  0  0  0  0  0  0  0  0  0  0
  -29.3791    0.1470   30.3923 C   0  0  0  0  0  0  0  0  0  0  0  0
  -27.4550    0.3821   26.7102 C   0  0  0  0  0  0  0  0  0  0  0  0
  -28.0003    0.4229   25.6232 O   0  0  0  0  0  0  0  0  0  0  0  0
  -26.0527    0.6945   26.7769 N   0  0  0  0  0  0  0  0  0  0  0  0
  -25.2422    0.7642   25.5698 C   0  0  0  0  0  0  0  0  0  0  0  0
  -25.2682    0.6420   27.9717 C   0  0  0  0  0  0  0  0  0  0  0  0
  -24.5679   -0.3502   28.2151 C   0  0  0  0  0  0  0  0  0  0  0  0
  -23.6049   -0.3342   29.2598 C   0  0  0  0  0  0  0  0  0  0  0  0
  -23.2857    0.8532   29.8307 C   0  0  0  0  0  0  0  0  0  0  0  0
  -25.1508    1.9146   28.6116 C   0  0  0  0  0  0  0  0  0  0  0  0
  -24.1598    1.9410   29.6931 C   0  0  0  0  0  0  0  0  0  0  0  0
  -26.0600    3.3041   28.4087 Cl  0  0  0  0  0  0  0  0  0  0  0  0
  3  7  1  0
  7  8  2  0
  7  9  1  0
  9 10  1  0
  9 11  1  0
 15 17  1  0
  1  2  2  0
  2  6  1  0
  6  5  2  0
  5  4  1  0
  4  3  2  0
  3  1  1  0
 11 12  2  0
 12 13  1  0
 13 14  2  0
 14 16  1  0
 16 15  2  0
 15 11  1  0
M  END

$$$$
