No_2025-gen_results/8p0m/2024-11-27-11-27-31/
     RDKit          3D

 24 27  0  0  0  0  0  0  0  0999 V2000
  -28.0162   -0.8135   28.8779 C   0  0  0  0  0  0  0  0  0  0  0  0
  -28.4690   -0.7850   29.8287 C   0  0  0  0  0  0  0  0  0  0  0  0
  -26.5042   -0.7777   28.8766 C   0  0  0  0  0  0  0  0  0  0  0  0
  -25.8103   -0.8531   30.1028 C   0  0  0  0  0  0  0  0  0  0  0  0
  -27.9906   -0.8916   31.2257 C   0  0  0  0  0  0  0  0  0  0  0  0
  -26.6042   -0.8676   31.2652 C   0  0  0  0  0  0  0  0  0  0  0  0
  -30.0739   -0.8360   29.8615 C   0  0  0  0  0  0  0  0  0  0  0  0
  -30.6891   -1.6554   30.2229 O   0  0  0  0  0  0  0  0  0  0  0  0
  -30.6022    0.4333   29.5984 N   0  0  0  0  0  0  0  0  0  0  0  0
  -31.6257    0.7206   29.2957 C   0  0  0  0  0  0  0  0  0  0  0  0
  -32.6426    0.5426   29.1582 C   0  0  0  0  0  0  0  0  0  0  0  0
  -33.7997    1.3116   28.7142 C   0  0  0  0  0  0  0  0  0  0  0  0
  -33.4874    2.6368   28.4088 C   0  0  0  0  0  0  0  0  0  0  0  0
  -32.2404    3.1126   28.4621 C   0  0  0  0  0  0  0  0  0  0  0  0
  -31.2275    2.3657   28.8907 C   0  0  0  0  0  0  0  0  0  0  0  0
  -29.5065    1.6239   29.4483 C   0  0  0  0  0  0  0  0  0  0  0  0
  -29.8915    2.7899   29.1293 C   0  0  0  0  0  0  0  0  0  0  0  0
  -25.7766   -0.7436   27.7734 F   0  0  0  0  0  0  0  0  0  0  0  0
  -29.3105    4.0189   28.9430 C   0  0  0  0  0  0  0  0  0  0  0  0
  -29.5857    5.0082   29.0238 C   0  0  0  0  0  0  0  0  0  0  0  0
  -29.3214    6.1759   29.1099 C   0  0  0  0  0  0  0  0  0  0  0  0
  -27.8512    6.3291   28.9742 C   0  0  0  0  0  0  0  0  0  0  0  0
  -27.0801    5.1871   28.7716 C   0  0  0  0  0  0  0  0  0  0  0  0
  -27.7360    3.8998   28.8836 C   0  0  0  0  0  0  0  0  0  0  0  0
  2  7  1  0
  7  8  2  0
  7  9  1  0
  9 10  1  0
  9 16  1  0
 15 17  1  0
 16 17  2  0
  3 18  1  0
 17 19  1  0
 19 20  2  0
 20 21  1  0
 21 22  2  0
 22 23  1  0
 23 24  2  0
 24 19  1  0
  1  2  2  0
  2  5  1  0
  5  6  2  0
  6  4  1  0
  4  3  2  0
  3  1  1  0
 10 11  2  0
 11 12  1  0
 12 13  2  0
 13 14  1  0
 14 15  2  0
 15 10  1  0
M  END

$$$$
