No_2813-gen_results/8p0m/2024-11-27-11-27-31/
     RDKit          3D

 23 25  0  0  0  0  0  0  0  0999 V2000
  -28.0162   -0.8135   28.8779 C   0  0  0  0  0  0  0  0  0  0  0  0
  -28.4690   -0.7850   29.8287 C   0  0  0  0  0  0  0  0  0  0  0  0
  -27.0871    0.2903   28.6377 C   0  0  0  0  0  0  0  0  0  0  0  0
  -26.2516    0.4114   27.4223 C   0  0  0  0  0  0  0  0  0  0  0  0
  -28.3913    0.1041   30.9805 C   0  0  0  0  0  0  0  0  0  0  0  0
  -27.5332    1.1666   30.7866 C   0  0  0  0  0  0  0  0  0  0  0  0
  -26.8281    1.2557   29.6454 C   0  0  0  0  0  0  0  0  0  0  0  0
  -25.6444    1.6653   27.2216 C   0  0  0  0  0  0  0  0  0  0  0  0
  -25.3909    2.5603   28.2291 C   0  0  0  0  0  0  0  0  0  0  0  0
  -26.0983    2.4436   29.4094 C   0  0  0  0  0  0  0  0  0  0  0  0
  -25.8917    3.3852   30.3396 O   0  0  0  0  0  0  0  0  0  0  0  0
  -29.3636   -1.9467   30.1646 O   0  0  0  0  0  0  0  0  0  0  0  0
  -30.5728   -1.8359   30.2700 C   0  0  0  0  0  0  0  0  0  0  0  0
  -31.1296   -3.1062   30.2674 C   0  0  0  0  0  0  0  0  0  0  0  0
  -30.5524   -4.1129   30.3333 O   0  0  0  0  0  0  0  0  0  0  0  0
  -32.4823   -3.3110   30.1839 N   0  0  0  0  0  0  0  0  0  0  0  0
  -33.4066   -2.1744   30.0374 C   0  0  0  0  0  0  0  0  0  0  0  0
  -31.3257   -0.8986   29.5421 C   0  0  0  0  0  0  0  0  0  0  0  0
  -30.7999    0.4302   29.3054 N   0  0  0  0  0  0  0  0  0  0  0  0
  -32.7404   -0.8977   29.5620 C   0  0  0  0  0  0  0  0  0  0  0  0
  -31.5775    1.4569   28.8957 C   0  0  0  0  0  0  0  0  0  0  0  0
  -30.8084    2.5981   28.4921 C   0  0  0  0  0  0  0  0  0  0  0  0
  -31.3905    3.8079   28.1562 C   0  0  0  0  0  0  0  0  0  0  0  0
  3  4  1  0
  4  8  1  0
  7 10  1  0
  9 10  1  0
 10 11  2  0
  2 12  1  0
 12 13  1  0
 13 14  1  0
 14 15  2  0
 14 16  1  0
 16 17  1  0
 13 18  1  0
 18 19  1  0
 17 20  1  0
 18 20  1  0
 19 21  1  0
 21 22  2  3
 22 23  1  0
  8  9  1  0
  1  2  2  0
  2  5  1  0
  5  6  2  0
  6  7  1  0
  7  3  2  0
  3  1  1  0
M  END

$$$$
