No_2377-gen_results/8p0m/2024-11-27-11-27-31/
     RDKit          3D

 34 37  0  0  0  0  0  0  0  0999 V2000
  -28.0162   -0.8135   28.8779 C   0  0  0  0  0  0  0  0  0  0  0  0
  -27.0636   -0.1189   28.6079 C   0  0  0  0  0  0  0  0  0  0  0  0
  -25.7647   -0.3897   29.0360 C   0  0  0  0  0  0  0  0  0  0  0  0
  -25.5296   -1.5302   29.9014 C   0  0  0  0  0  0  0  0  0  0  0  0
  -26.6577   -2.2915   30.2035 C   0  0  0  0  0  0  0  0  0  0  0  0
  -27.8548   -1.9555   29.7630 C   0  0  0  0  0  0  0  0  0  0  0  0
  -24.5441    0.4126   28.7379 C   0  0  0  0  0  0  0  0  0  0  0  0
  -24.4731    1.2065   27.7114 C   0  0  0  0  0  0  0  0  0  0  0  0
  -25.5225    1.5146   26.8271 C   0  0  0  0  0  0  0  0  0  0  0  0
  -23.0726    1.5575   27.3092 C   0  0  0  0  0  0  0  0  0  0  0  0
  -22.9447    2.5173   26.3990 N   0  0  0  0  0  0  0  0  0  0  0  0
  -21.9368    1.3221   27.9065 O   0  0  0  0  0  0  0  0  0  0  0  0
  -24.0697    2.8914   25.5685 C   0  0  0  0  0  0  0  0  0  0  0  0
  -25.2368    2.1868   25.8810 C   0  0  0  0  0  0  0  0  0  0  0  0
  -29.0104   -2.7991   30.1570 C   0  0  0  0  0  0  0  0  0  0  0  0
  -29.3832   -2.6732   31.3364 N   0  0  0  0  0  0  0  0  0  0  0  0
  -29.8826   -3.6631   32.0389 C   0  0  0  0  0  0  0  0  0  0  0  0
  -29.3657   -1.4372   32.0215 C   0  0  0  0  0  0  0  0  0  0  0  0
  -23.4826    0.3099   29.8013 C   0  0  0  0  0  0  0  0  0  0  0  0
  -29.7309   -1.4174   33.3163 C   0  0  0  0  0  0  0  0  0  0  0  0
  -30.2250   -3.6869   33.4541 C   0  0  0  0  0  0  0  0  0  0  0  0
  -29.6533   -0.0720   34.0225 C   0  0  0  0  0  0  0  0  0  0  0  0
  -30.1577   -2.5085   34.0764 C   0  0  0  0  0  0  0  0  0  0  0  0
  -29.9269    0.1743   35.0855 O   0  0  0  0  0  0  0  0  0  0  0  0
  -29.4468    1.0162   33.1138 N   0  0  0  0  0  0  0  0  0  0  0  0
  -29.3455    2.3527   33.6659 C   0  0  0  0  0  0  0  0  0  0  0  0
  -29.6768   -3.3465   29.3233 O   0  0  0  0  0  0  0  0  0  0  0  0
  -28.9343    3.1003   33.0144 C   0  0  0  0  0  0  0  0  0  0  0  0
  -28.6394    4.4779   33.3568 C   0  0  0  0  0  0  0  0  0  0  0  0
  -29.0302    4.8689   34.7016 C   0  0  0  0  0  0  0  0  0  0  0  0
  -29.5581    3.8616   35.4837 C   0  0  0  0  0  0  0  0  0  0  0  0
  -29.6782    2.5550   35.0005 C   0  0  0  0  0  0  0  0  0  0  0  0
  -22.5791   -0.6293   29.8093 N   0  0  0  0  0  0  0  0  0  0  0  0
  -28.8636    6.0629   35.1777 F   0  0  0  0  0  0  0  0  0  0  0  0
  3  7  1  0
  8  9  1  0
  8 10  1  0
 10 11  1  0
 10 12  2  0
 13 14  1  0
  6 15  1  0
 15 16  1  0
 16 17  1  0
 16 18  1  0
  7 19  1  0
 20 22  1  0
 20 23  1  0
 21 23  1  0
 22 24  2  0
 22 25  1  0
 25 26  1  0
 15 27  2  0
 19 33  1  0
 30 34  1  0
  7  8  1  0
 17 21  1  0
 20 18  1  0
  9 14  1  0
 13 11  1  0
 26 28  2  0
 28 29  1  0
 29 30  2  0
 30 31  1  0
 31 32  2  0
 32 26  1  0
  1  2  2  0
  2  3  1  0
  3  4  2  0
  4  5  1  0
  5  6  2  0
  6  1  1  0
M  END

$$$$
