No_2714-gen_results/8p0m/2024-11-27-11-27-31/
     RDKit          3D

 20 21  0  0  0  0  0  0  0  0999 V2000
  -28.0162   -0.8135   28.8779 C   0  0  0  0  0  0  0  0  0  0  0  0
  -28.4690   -0.7850   29.8287 C   0  0  0  0  0  0  0  0  0  0  0  0
  -26.5042   -0.7777   28.8766 C   0  0  0  0  0  0  0  0  0  0  0  0
  -25.8103   -0.8531   30.1028 C   0  0  0  0  0  0  0  0  0  0  0  0
  -27.9906   -0.8916   31.2257 C   0  0  0  0  0  0  0  0  0  0  0  0
  -26.6042   -0.8676   31.2652 C   0  0  0  0  0  0  0  0  0  0  0  0
  -24.3894   -0.8050   30.1639 C   0  0  0  0  0  0  0  0  0  0  0  0
  -23.7660   -0.9500   31.0679 C   0  0  0  0  0  0  0  0  0  0  0  0
  -23.6669   -0.5949   28.8837 C   0  0  0  0  0  0  0  0  0  0  0  0
  -22.2646   -0.4069   28.9326 C   0  0  0  0  0  0  0  0  0  0  0  0
  -22.2742   -0.8313   31.2874 C   0  0  0  0  0  0  0  0  0  0  0  0
  -21.5985   -0.5272   30.1004 C   0  0  0  0  0  0  0  0  0  0  0  0
  -30.0893   -0.7795   29.8459 C   0  0  0  0  0  0  0  0  0  0  0  0
  -30.7580   -1.6047   30.2956 O   0  0  0  0  0  0  0  0  0  0  0  0
  -30.6028    0.2165   29.2113 O   0  0  0  0  0  0  0  0  0  0  0  0
  -31.8488    0.2543   28.7216 C   0  0  0  0  0  0  0  0  0  0  0  0
  -32.7916    0.8562   29.2284 C   0  0  0  0  0  0  0  0  0  0  0  0
  -32.5467    1.8599   29.9289 O   0  0  0  0  0  0  0  0  0  0  0  0
  -34.1733    0.4710   29.1085 C   0  0  0  0  0  0  0  0  0  0  0  0
  -35.0061    0.7481   29.9316 O   0  0  0  0  0  0  0  0  0  0  0  0
  4  7  1  0
  2 13  1  0
 13 14  2  0
 13 15  1  0
 15 16  1  0
 16 17  1  0
 17 18  1  0
 17 19  1  0
 19 20  2  0
  7  8  2  0
  8 11  1  0
 11 12  2  0
 12 10  1  0
 10  9  2  0
  9  7  1  0
  1  2  2  0
  2  5  1  0
  5  6  2  0
  6  4  1  0
  4  3  2  0
  3  1  1  0
M  END

$$$$
