No_2536-gen_results/8p0m/2024-11-27-11-27-31/
     RDKit          3D

 30 33  0  0  0  0  0  0  0  0999 V2000
  -28.0162   -0.8135   28.8779 C   0  0  0  0  0  0  0  0  0  0  0  0
  -27.0636   -0.1189   28.6079 C   0  0  0  0  0  0  0  0  0  0  0  0
  -25.7647   -0.3897   29.0360 C   0  0  0  0  0  0  0  0  0  0  0  0
  -25.5296   -1.5302   29.9014 C   0  0  0  0  0  0  0  0  0  0  0  0
  -26.6888   -2.2893   30.1810 C   0  0  0  0  0  0  0  0  0  0  0  0
  -27.8727   -1.9508   29.7373 C   0  0  0  0  0  0  0  0  0  0  0  0
  -29.0016   -2.8142   30.1793 C   0  0  0  0  0  0  0  0  0  0  0  0
  -29.3761   -2.6715   31.3038 N   0  0  0  0  0  0  0  0  0  0  0  0
  -29.5239   -1.6069   31.9020 C   0  0  0  0  0  0  0  0  0  0  0  0
  -29.9796   -1.6298   33.3315 C   0  0  0  0  0  0  0  0  0  0  0  0
  -29.7384   -3.9205   32.1427 C   0  0  0  0  0  0  0  0  0  0  0  0
  -29.6704   -5.1758   31.4739 C   0  0  0  0  0  0  0  0  0  0  0  0
  -30.4001   -3.6633   33.2795 C   0  0  0  0  0  0  0  0  0  0  0  0
  -30.5173   -2.6775   33.6961 C   0  0  0  0  0  0  0  0  0  0  0  0
  -30.8379   -5.7586   31.1529 C   0  0  0  0  0  0  0  0  0  0  0  0
  -30.8687   -6.8138   30.6562 C   0  0  0  0  0  0  0  0  0  0  0  0
  -32.0386   -7.3115   30.1392 C   0  0  0  0  0  0  0  0  0  0  0  0
  -33.2001   -6.6449   30.2470 C   0  0  0  0  0  0  0  0  0  0  0  0
  -33.1637   -5.4623   30.8875 C   0  0  0  0  0  0  0  0  0  0  0  0
  -31.9819   -4.9067   31.2922 C   0  0  0  0  0  0  0  0  0  0  0  0
  -24.5259    0.3846   28.6296 C   0  0  0  0  0  0  0  0  0  0  0  0
  -23.3226    0.1058   29.1472 C   0  0  0  0  0  0  0  0  0  0  0  0
  -23.2062   -1.1258   29.9179 C   0  0  0  0  0  0  0  0  0  0  0  0
  -24.2584   -1.8619   30.3358 C   0  0  0  0  0  0  0  0  0  0  0  0
  -22.1299    0.7884   28.7061 C   0  0  0  0  0  0  0  0  0  0  0  0
  -22.0855    1.4624   27.6813 O   0  0  0  0  0  0  0  0  0  0  0  0
  -20.9325    0.2591   29.1334 O   0  0  0  0  0  0  0  0  0  0  0  0
  -27.1775    1.0714   27.6443 C   0  0  0  0  0  0  0  0  0  0  0  0
  -27.6048    2.4864   28.2623 Cl  0  0  0  0  0  0  0  0  0  0  0  0
  -27.8966    0.7040   26.0829 Cl  0  0  0  0  0  0  0  0  0  0  0  0
  6  7  1  0
  7  8  1  0
  8  9  1  0
  8 11  1  0
 11 12  1  0
 11 13  1  0
 10 14  1  0
 13 14  1  0
 12 15  1  0
 22 25  1  0
 25 26  2  0
 25 27  1  0
  2 28  1  0
 28 29  1  0
 28 30  1  0
  9 10  1  0
 15 16  2  0
 16 17  1  0
 17 18  2  0
 18 19  1  0
 19 20  2  0
 20 15  1  0
  1  2  2  0
  2  3  1  0
  4  5  1  0
  5  6  2  0
  6  1  1  0
  3  4  2  0
  4 24  1  0
 24 23  2  0
 23 22  1  0
 22 21  2  0
 21  3  1  0
M  END

$$$$
