No_2449-gen_results/8p0m/2024-11-27-11-27-31/
     RDKit          3D

 21 22  0  0  0  0  0  0  0  0999 V2000
  -28.0162   -0.8135   28.8779 C   0  0  0  0  0  0  0  0  0  0  0  0
  -27.0636   -0.1189   28.6079 C   0  0  0  0  0  0  0  0  0  0  0  0
  -27.0010    0.6913   27.4910 C   0  0  0  0  0  0  0  0  0  0  0  0
  -28.1420    0.8282   26.7994 C   0  0  0  0  0  0  0  0  0  0  0  0
  -29.2898   -0.4871   28.3661 C   0  0  0  0  0  0  0  0  0  0  0  0
  -29.2849    0.2608   27.2623 C   0  0  0  0  0  0  0  0  0  0  0  0
  -27.9460   -1.7993   30.3313 Cl  0  0  0  0  0  0  0  0  0  0  0  0
  -30.6275    0.3909   26.6841 C   0  0  0  0  0  0  0  0  0  0  0  0
  -31.2556    1.3879   26.6887 O   0  0  0  0  0  0  0  0  0  0  0  0
  -30.9042   -0.5604   25.6958 O   0  0  0  0  0  0  0  0  0  0  0  0
  -25.6209   -0.3763   29.3100 C   0  0  0  0  0  0  0  0  0  0  0  0
  -24.9164   -1.4391   28.9565 C   0  0  0  0  0  0  0  0  0  0  0  0
  -23.6625   -1.6771   29.5244 C   0  0  0  0  0  0  0  0  0  0  0  0
  -23.0756   -0.7347   30.3428 C   0  0  0  0  0  0  0  0  0  0  0  0
  -23.8154    0.3904   30.7517 C   0  0  0  0  0  0  0  0  0  0  0  0
  -25.1150    0.5824   30.1747 C   0  0  0  0  0  0  0  0  0  0  0  0
  -25.8400    1.8177   30.5888 C   0  0  0  0  0  0  0  0  0  0  0  0
  -25.5537    3.0039   30.3906 C   0  0  0  0  0  0  0  0  0  0  0  0
  -26.2426    4.1562   30.8079 C   0  0  0  0  0  0  0  0  0  0  0  0
  -25.8264    5.4452   30.5748 C   0  0  0  0  0  0  0  0  0  0  0  0
  -26.6229    6.3288   29.9833 C   0  0  0  0  0  0  0  0  0  0  0  0
  1  7  1  0
  6  8  1  0
  8  9  2  0
  8 10  1  0
  2 11  1  0
 16 17  1  0
 17 18  2  3
 18 19  1  0
 19 20  1  0
 20 21  2  0
 11 12  2  0
 12 13  1  0
 13 14  2  0
 14 15  1  0
 15 16  2  0
 16 11  1  0
  1  2  2  0
  2  3  1  0
  3  4  2  0
  4  6  1  0
  6  5  2  0
  5  1  1  0
M  END

$$$$
