No_263-gen_results/8p0m/2024-11-27-11-27-31/
     RDKit          3D

  7  7  0  0  0  0  0  0  0  0999 V2000
  -28.0162   -0.8135   28.8779 C   0  0  0  0  0  0  0  0  0  0  0  0
  -28.4690   -0.7850   29.8287 C   0  0  0  0  0  0  0  0  0  0  0  0
  -26.5042   -0.7777   28.8766 C   0  0  0  0  0  0  0  0  0  0  0  0
  -25.9500    0.1157   29.4052 C   0  0  0  0  0  0  0  0  0  0  0  0
  -28.1871    0.3718   30.8329 C   0  0  0  0  0  0  0  0  0  0  0  0
  -26.4462    0.9283   30.0317 C   0  0  0  0  0  0  0  0  0  0  0  0
  -27.1286    1.2867   30.9083 C   0  0  0  0  0  0  0  0  0  0  0  0
  1  2  1  0
  1  3  1  0
  3  4  1  0
  2  5  1  0
  4  6  2  0
  5  7  2  0
  6  7  1  0
M  END

$$$$
