No_2883-gen_results/8p0m/2024-11-27-11-27-31/
     RDKit          3D

 27 30  0  0  0  0  0  0  0  0999 V2000
  -28.0162   -0.8135   28.8779 C   0  0  0  0  0  0  0  0  0  0  0  0
  -28.4690   -0.7850   29.8287 C   0  0  0  0  0  0  0  0  0  0  0  0
  -26.5455   -0.8762   28.8500 C   0  0  0  0  0  0  0  0  0  0  0  0
  -25.6825   -0.7773   27.6829 C   0  0  0  0  0  0  0  0  0  0  0  0
  -27.9181   -1.0034   31.1877 C   0  0  0  0  0  0  0  0  0  0  0  0
  -26.5308   -1.0794   31.2463 C   0  0  0  0  0  0  0  0  0  0  0  0
  -25.7798   -1.0462   30.0905 C   0  0  0  0  0  0  0  0  0  0  0  0
  -25.8976    0.2387   26.7449 C   0  0  0  0  0  0  0  0  0  0  0  0
  -24.9256    0.7629   26.0322 C   0  0  0  0  0  0  0  0  0  0  0  0
  -23.6887    0.9127   26.4602 C   0  0  0  0  0  0  0  0  0  0  0  0
  -23.2912    0.3782   27.7204 C   0  0  0  0  0  0  0  0  0  0  0  0
  -24.2225   -0.9649   28.0380 C   0  0  0  0  0  0  0  0  0  0  0  0
  -30.0448   -0.6656   29.8916 C   0  0  0  0  0  0  0  0  0  0  0  0
  -30.7949   -1.3621   30.1424 O   0  0  0  0  0  0  0  0  0  0  0  0
  -30.4141    0.6501   29.4644 N   0  0  0  0  0  0  0  0  0  0  0  0
  -31.7914    0.9986   29.3317 C   0  0  0  0  0  0  0  0  0  0  0  0
  -32.1006    1.9166   28.9761 C   0  0  0  0  0  0  0  0  0  0  0  0
  -31.1380    3.0035   28.5419 C   0  0  0  0  0  0  0  0  0  0  0  0
  -31.5006    4.2920   28.0516 C   0  0  0  0  0  0  0  0  0  0  0  0
  -29.7487    2.7570   28.6065 C   0  0  0  0  0  0  0  0  0  0  0  0
  -29.4213    1.6034   29.0714 C   0  0  0  0  0  0  0  0  0  0  0  0
  -32.6224    4.8332   28.2600 C   0  0  0  0  0  0  0  0  0  0  0  0
  -32.9730    6.0687   27.6096 C   0  0  0  0  0  0  0  0  0  0  0  0
  -32.0434    6.7005   26.7440 C   0  0  0  0  0  0  0  0  0  0  0  0
  -30.8275    6.0911   26.4889 C   0  0  0  0  0  0  0  0  0  0  0  0
  -30.5241    4.9398   27.1025 C   0  0  0  0  0  0  0  0  0  0  0  0
  -22.7537    1.7970   26.0586 F   0  0  0  0  0  0  0  0  0  0  0  0
  3  4  1  0
  2 13  1  0
 13 14  2  0
 13 15  1  0
 15 16  1  0
 17 18  1  0
 18 19  1  0
 18 20  1  0
 15 21  1  0
 10 27  1  0
 16 17  1  0
 20 21  1  0
  4  8  2  0
  8  9  1  0
  9 10  2  0
 10 11  1  0
 11 12  2  0
 12  4  1  0
  1  2  2  0
  2  5  1  0
  5  6  2  0
  6  7  1  0
  7  3  2  0
  3  1  1  0
 19 22  2  0
 22 23  1  0
 23 24  2  0
 24 25  1  0
 25 26  2  0
 26 19  1  0
M  END

$$$$
