No_2832-gen_results/8p0m/2024-11-27-11-27-31/
     RDKit          3D

 17 18  0  0  0  0  0  0  0  0999 V2000
  -28.0162   -0.8135   28.8779 C   0  0  0  0  0  0  0  0  0  0  0  0
  -28.4690   -0.7850   29.8287 C   0  0  0  0  0  0  0  0  0  0  0  0
  -28.1816    0.4277   28.1134 C   0  0  0  0  0  0  0  0  0  0  0  0
  -28.9841    1.4155   28.5154 C   0  0  0  0  0  0  0  0  0  0  0  0
  -29.3802    0.1384   30.4612 C   0  0  0  0  0  0  0  0  0  0  0  0
  -29.5415    1.2736   29.7242 C   0  0  0  0  0  0  0  0  0  0  0  0
  -27.4586    0.4934   26.7701 C   0  0  0  0  0  0  0  0  0  0  0  0
  -26.4813    1.5210   26.6301 C   0  0  0  0  0  0  0  0  0  0  0  0
  -25.2906    1.5248   26.9342 C   0  0  0  0  0  0  0  0  0  0  0  0
  -24.3958    2.6501   26.8212 C   0  0  0  0  0  0  0  0  0  0  0  0
  -23.0456    2.6836   27.1402 C   0  0  0  0  0  0  0  0  0  0  0  0
  -22.4625    1.4913   27.6631 C   0  0  0  0  0  0  0  0  0  0  0  0
  -23.2792    0.4156   27.9513 C   0  0  0  0  0  0  0  0  0  0  0  0
  -24.6054    0.3827   27.5845 C   0  0  0  0  0  0  0  0  0  0  0  0
  -21.2051    1.5273   27.9553 F   0  0  0  0  0  0  0  0  0  0  0  0
  -27.1167    2.7343   25.9791 C   0  0  0  0  0  0  0  0  0  0  0  0
  -28.2788   -2.3040   30.8818 Cl  0  0  0  0  0  0  0  0  0  0  0  0
  3  7  1  0
  7  8  2  3
  8  9  1  0
 12 15  1  0
  8 16  1  0
  2 17  1  0
  9 10  2  0
 10 11  1  0
 11 12  2  0
 12 13  1  0
 13 14  2  0
 14  9  1  0
  1  2  2  0
  2  5  1  0
  5  6  2  0
  6  4  1  0
  4  3  2  0
  3  1  1  0
M  END

$$$$
