No_2593-gen_results/8p0m/2024-11-27-11-27-31/
     RDKit          3D

 20 22  0  0  0  0  0  0  0  0999 V2000
  -28.0162   -0.8135   28.8779 C   0  0  0  0  0  0  0  0  0  0  0  0
  -28.4690   -0.7850   29.8287 C   0  0  0  0  0  0  0  0  0  0  0  0
  -26.5042   -0.7777   28.8766 C   0  0  0  0  0  0  0  0  0  0  0  0
  -25.8103   -0.8531   30.1028 C   0  0  0  0  0  0  0  0  0  0  0  0
  -27.9906   -0.8916   31.2257 C   0  0  0  0  0  0  0  0  0  0  0  0
  -24.3976   -0.8364   30.1775 C   0  0  0  0  0  0  0  0  0  0  0  0
  -26.5754   -0.8899   31.2661 C   0  0  0  0  0  0  0  0  0  0  0  0
  -23.7708   -0.9176   31.0960 C   0  0  0  0  0  0  0  0  0  0  0  0
  -22.3018   -0.8444   31.2151 C   0  0  0  0  0  0  0  0  0  0  0  0
  -21.6829   -0.5879   30.0577 C   0  0  0  0  0  0  0  0  0  0  0  0
  -23.6382   -0.6309   28.9339 C   0  0  0  0  0  0  0  0  0  0  0  0
  -22.3460   -0.4649   28.8964 C   0  0  0  0  0  0  0  0  0  0  0  0
  -30.0888   -0.7644   29.8519 C   0  0  0  0  0  0  0  0  0  0  0  0
  -30.4907   -0.2893   28.8970 O   0  0  0  0  0  0  0  0  0  0  0  0
  -30.7800   -0.8925   30.9960 N   0  0  0  0  0  0  0  0  0  0  0  0
  -32.2214   -0.7913   30.9624 C   0  0  0  0  0  0  0  0  0  0  0  0
  -32.9092   -0.9742   31.7823 C   0  0  0  0  0  0  0  0  0  0  0  0
  -32.3382   -1.3691   33.1289 C   0  0  0  0  0  0  0  0  0  0  0  0
  -30.9590   -1.5519   33.2492 C   0  0  0  0  0  0  0  0  0  0  0  0
  -30.1820   -1.3823   32.1938 C   0  0  0  0  0  0  0  0  0  0  0  0
  4  6  1  0
  2 13  1  0
 13 14  2  0
 13 15  1  0
 15 16  1  0
 17 18  1  0
 15 20  1  0
 19 20  1  0
 16 17  1  0
 18 19  1  0
  6  8  2  0
  8  9  1  0
  9 10  2  0
 10 12  1  0
 12 11  2  0
 11  6  1  0
  1  2  2  0
  2  5  1  0
  5  7  2  0
  7  4  1  0
  4  3  2  0
  3  1  1  0
M  END

$$$$
