No_2668-gen_results/8p0m/2024-11-27-11-27-31/
     RDKit          3D

 23 24  0  0  0  0  0  0  0  0999 V2000
  -28.0162   -0.8135   28.8779 C   0  0  0  0  0  0  0  0  0  0  0  0
  -28.4690   -0.7850   29.8287 C   0  0  0  0  0  0  0  0  0  0  0  0
  -28.1816    0.4277   28.1134 C   0  0  0  0  0  0  0  0  0  0  0  0
  -27.4498    0.6435   26.8500 C   0  0  0  0  0  0  0  0  0  0  0  0
  -27.8596    1.4573   25.9076 C   0  0  0  0  0  0  0  0  0  0  0  0
  -29.4263    0.1097   30.4178 C   0  0  0  0  0  0  0  0  0  0  0  0
  -29.6233    1.2198   29.7351 C   0  0  0  0  0  0  0  0  0  0  0  0
  -28.9609    1.4529   28.5513 C   0  0  0  0  0  0  0  0  0  0  0  0
  -27.1733    1.5743   24.7028 C   0  0  0  0  0  0  0  0  0  0  0  0
  -26.2980    0.6788   24.4655 C   0  0  0  0  0  0  0  0  0  0  0  0
  -25.7369   -0.2006   25.3237 C   0  0  0  0  0  0  0  0  0  0  0  0
  -26.3413   -0.2721   26.5414 C   0  0  0  0  0  0  0  0  0  0  0  0
  -30.5367    2.3223   30.2531 C   0  0  0  0  0  0  0  0  0  0  0  0
  -31.2026    2.9490   29.6170 O   0  0  0  0  0  0  0  0  0  0  0  0
  -30.1402    2.7164   31.5087 O   0  0  0  0  0  0  0  0  0  0  0  0
  -28.2744   -2.1620   30.7125 C   0  0  0  0  0  0  0  0  0  0  0  0
  -27.4955   -2.9568   30.3375 O   0  0  0  0  0  0  0  0  0  0  0  0
  -29.0080   -2.3667   31.7426 O   0  0  0  0  0  0  0  0  0  0  0  0
  -31.0334    3.2388   32.3408 C   0  0  0  0  0  0  0  0  0  0  0  0
  -30.5898    3.5977   33.4633 C   0  0  0  0  0  0  0  0  0  0  0  0
  -29.2861    3.6240   33.8536 C   0  0  0  0  0  0  0  0  0  0  0  0
  -28.2742    3.4980   32.9775 C   0  0  0  0  0  0  0  0  0  0  0  0
  -28.3075    3.3478   31.9811 C   0  0  0  0  0  0  0  0  0  0  0  0
  3  4  1  0
  7 13  1  0
 13 14  2  0
 13 15  1  0
  2 16  1  0
 16 17  2  0
 16 18  1  0
 15 19  1  0
 19 20  2  3
 20 21  1  0
 21 22  2  3
 22 23  1  0
  4  5  2  0
  5  9  1  0
  9 10  2  0
 10 11  1  0
 11 12  2  0
 12  4  1  0
  1  2  2  0
  2  6  1  0
  6  7  2  0
  7  8  1  0
  8  3  2  0
  3  1  1  0
M  END

$$$$
