No_224-gen_results/8p0m/2024-11-27-11-27-31/
     RDKit          3D

 29 31  0  0  0  0  0  0  0  0999 V2000
  -28.0162   -0.8135   28.8779 C   0  0  0  0  0  0  0  0  0  0  0  0
  -27.0636   -0.1189   28.6079 C   0  0  0  0  0  0  0  0  0  0  0  0
  -25.7647   -0.3897   29.0360 C   0  0  0  0  0  0  0  0  0  0  0  0
  -25.5296   -1.5302   29.9014 C   0  0  0  0  0  0  0  0  0  0  0  0
  -26.6888   -2.2893   30.1810 C   0  0  0  0  0  0  0  0  0  0  0  0
  -27.8727   -1.9508   29.7373 C   0  0  0  0  0  0  0  0  0  0  0  0
  -24.5491    0.4100   28.7341 C   0  0  0  0  0  0  0  0  0  0  0  0
  -24.4789    1.1871   27.6843 C   0  0  0  0  0  0  0  0  0  0  0  0
  -23.2716    1.8973   27.3731 C   0  0  0  0  0  0  0  0  0  0  0  0
  -22.1063    1.7032   28.0412 C   0  0  0  0  0  0  0  0  0  0  0  0
  -23.3188    0.1792   29.4669 C   0  0  0  0  0  0  0  0  0  0  0  0
  -22.1165    0.8402   29.1011 C   0  0  0  0  0  0  0  0  0  0  0  0
  -29.0352   -2.7858   30.1613 C   0  0  0  0  0  0  0  0  0  0  0  0
  -28.9002   -4.0976   30.3678 N   0  0  0  0  0  0  0  0  0  0  0  0
  -30.0490   -2.2773   30.6719 O   0  0  0  0  0  0  0  0  0  0  0  0
  -29.9105   -4.9357   30.5115 C   0  0  0  0  0  0  0  0  0  0  0  0
  -30.7894   -5.1551   29.4647 C   0  0  0  0  0  0  0  0  0  0  0  0
  -30.6650   -4.8450   28.3738 C   0  0  0  0  0  0  0  0  0  0  0  0
  -31.4902   -5.1563   27.1917 C   0  0  0  0  0  0  0  0  0  0  0  0
  -32.4741   -5.5586   27.4800 C   0  0  0  0  0  0  0  0  0  0  0  0
  -32.9524   -6.0010   28.7346 C   0  0  0  0  0  0  0  0  0  0  0  0
  -32.0582   -5.7988   29.8080 C   0  0  0  0  0  0  0  0  0  0  0  0
  -33.5494   -5.8977   26.3209 C   0  0  0  0  0  0  0  0  0  0  0  0
  -34.8025   -4.9680   26.1070 Cl  0  0  0  0  0  0  0  0  0  0  0  0
  -33.0197   -6.5583   24.9917 C   0  0  0  0  0  0  0  0  0  0  0  0
  -32.0119   -6.9297   24.9811 O   0  0  0  0  0  0  0  0  0  0  0  0
  -33.9079   -6.6223   24.1412 O   0  0  0  0  0  0  0  0  0  0  0  0
  -23.3481    2.9847   26.0040 Cl  0  0  0  0  0  0  0  0  0  0  0  0
  -29.8506   -5.6568   31.6550 O   0  0  0  0  0  0  0  0  0  0  0  0
  3  7  1  0
  6 13  1  0
 13 14  1  0
 13 15  2  0
 14 16  1  0
 16 17  1  0
 20 23  1  0
 23 24  1  0
 23 25  1  0
 25 26  2  0
 25 27  1  0
  9 28  1  0
 16 29  2  0
  7  8  2  0
  8  9  1  0
  9 10  2  0
 10 12  1  0
 12 11  2  0
 11  7  1  0
  1  2  2  0
  2  3  1  0
  3  4  2  0
  4  5  1  0
  5  6  2  0
  6  1  1  0
 17 18  2  0
 18 19  1  0
 19 20  2  0
 20 21  1  0
 21 22  2  0
 22 17  1  0
M  END

$$$$
