No_2707-gen_results/8p0m/2024-11-27-11-27-31/
     RDKit          3D

 15 17  0  0  0  0  0  0  0  0999 V2000
  -28.0162   -0.8135   28.8779 C   0  0  0  0  0  0  0  0  0  0  0  0
  -27.0636   -0.1189   28.6079 C   0  0  0  0  0  0  0  0  0  0  0  0
  -26.9716    0.7139   27.5060 C   0  0  0  0  0  0  0  0  0  0  0  0
  -25.8205    1.4909   27.1160 C   0  0  0  0  0  0  0  0  0  0  0  0
  -24.6562    1.4242   27.9180 C   0  0  0  0  0  0  0  0  0  0  0  0
  -23.4598    2.1165   27.6160 C   0  0  0  0  0  0  0  0  0  0  0  0
  -22.3627    1.9155   28.4482 C   0  0  0  0  0  0  0  0  0  0  0  0
  -22.4137    0.9215   29.4584 C   0  0  0  0  0  0  0  0  0  0  0  0
  -23.5531    0.2322   29.7679 C   0  0  0  0  0  0  0  0  0  0  0  0
  -24.6758    0.4356   28.9850 C   0  0  0  0  0  0  0  0  0  0  0  0
  -25.7809   -0.2644   29.3119 C   0  0  0  0  0  0  0  0  0  0  0  0
  -28.0384   -1.6122   30.1539 C   0  0  0  0  0  0  0  0  0  0  0  0
  -26.8852   -1.8459   30.7884 N   0  0  0  0  0  0  0  0  0  0  0  0
  -25.8341   -1.1679   30.4552 C   0  0  0  0  0  0  0  0  0  0  0  0
  -28.3578    0.8804   26.4990 Cl  0  0  0  0  0  0  0  0  0  0  0  0
  2  3  1  0
  3  4  1  0
  4  5  1  0
 10 11  1  0
  3 15  1  0
  5  6  2  0
  6  7  1  0
  7  8  2  0
  8  9  1  0
  9 10  2  0
 10  5  1  0
  1  2  2  0
  2 11  1  0
 11 14  2  0
 14 13  1  0
 13 12  2  0
 12  1  1  0
M  END

$$$$
