No_2511-gen_results/8p0m/2024-11-27-11-27-31/
     RDKit          3D

 35 38  0  0  0  0  0  0  0  0999 V2000
  -28.0162   -0.8135   28.8779 C   0  0  0  0  0  0  0  0  0  0  0  0
  -28.4690   -0.7850   29.8287 C   0  0  0  0  0  0  0  0  0  0  0  0
  -27.1356    0.2359   28.5352 C   0  0  0  0  0  0  0  0  0  0  0  0
  -26.8745    1.2825   29.3982 C   0  0  0  0  0  0  0  0  0  0  0  0
  -28.3613    0.1987   30.9244 C   0  0  0  0  0  0  0  0  0  0  0  0
  -27.5277    1.2234   30.6356 C   0  0  0  0  0  0  0  0  0  0  0  0
  -26.3987    0.2949   27.2279 C   0  0  0  0  0  0  0  0  0  0  0  0
  -25.0392    0.2356   27.3538 C   0  0  0  0  0  0  0  0  0  0  0  0
  -26.8419    1.2723   26.2572 C   0  0  0  0  0  0  0  0  0  0  0  0
  -24.1353    0.9376   26.5875 C   0  0  0  0  0  0  0  0  0  0  0  0
  -24.6368    1.7194   25.5290 C   0  0  0  0  0  0  0  0  0  0  0  0
  -25.9592    1.8671   25.3832 C   0  0  0  0  0  0  0  0  0  0  0  0
  -28.2664    1.3946   25.9246 C   0  0  0  0  0  0  0  0  0  0  0  0
  -28.8626    1.8876   25.1772 C   0  0  0  0  0  0  0  0  0  0  0  0
  -30.0808    2.0745   24.8593 C   0  0  0  0  0  0  0  0  0  0  0  0
  -31.0347    1.4778   25.7580 C   0  0  0  0  0  0  0  0  0  0  0  0
  -30.4994    0.7542   26.8298 C   0  0  0  0  0  0  0  0  0  0  0  0
  -29.1029    0.6671   26.9941 C   0  0  0  0  0  0  0  0  0  0  0  0
  -28.8631   -0.6601   26.9377 F   0  0  0  0  0  0  0  0  0  0  0  0
  -31.4509    0.1363   27.7636 C   0  0  0  0  0  0  0  0  0  0  0  0
  -31.4503    0.6328   29.0412 N   0  0  0  0  0  0  0  0  0  0  0  0
  -32.2074    0.1386   30.0713 C   0  0  0  0  0  0  0  0  0  0  0  0
  -32.2383   -1.1701   27.4119 Cl  0  0  0  0  0  0  0  0  0  0  0  0
  -32.2062    0.8899   31.2683 C   0  0  0  0  0  0  0  0  0  0  0  0
  -32.5717    0.3418   32.4836 C   0  0  0  0  0  0  0  0  0  0  0  0
  -33.1194   -0.9919   32.3912 C   0  0  0  0  0  0  0  0  0  0  0  0
  -33.0865   -1.7077   31.2285 C   0  0  0  0  0  0  0  0  0  0  0  0
  -32.5110   -1.1595   30.1130 C   0  0  0  0  0  0  0  0  0  0  0  0
  -29.1211   -0.0547   32.4451 Cl  0  0  0  0  0  0  0  0  0  0  0  0
  -24.4225   -0.6456   28.4182 C   0  0  0  0  0  0  0  0  0  0  0  0
  -23.3538   -0.3036   29.2083 C   0  0  0  0  0  0  0  0  0  0  0  0
  -22.7429    0.8940   29.1139 C   0  0  0  0  0  0  0  0  0  0  0  0
  -22.9588   -1.2518   30.2046 C   0  0  0  0  0  0  0  0  0  0  0  0
  -24.9939   -1.9635   28.5254 C   0  0  0  0  0  0  0  0  0  0  0  0
  -24.5488   -2.9152   29.4064 C   0  0  0  0  0  0  0  0  0  0  0  0
  3  7  1  0
  9 13  1  0
 18 19  1  0
 17 20  1  0
 20 21  1  0
 20 23  1  0
  5 29  1  0
  8 30  1  0
 30 31  1  0
 31 32  1  0
 31 33  1  0
 30 34  1  0
 34 35  2  0
 21 22  1  0
 22 24  2  0
 24 25  1  0
 25 26  2  0
 26 27  1  0
 27 28  2  0
 28 22  1  0
 13 14  2  0
 14 15  1  0
 15 16  2  0
 16 17  1  0
 17 18  2  0
 18 13  1  0
  1  2  2  0
  2  5  1  0
  5  6  2  0
  6  4  1  0
  4  3  2  0
  3  1  1  0
  7  8  2  0
  8 10  1  0
 10 11  2  0
 11 12  1  0
 12  9  2  0
  9  7  1  0
M  END

$$$$
