No_2693-gen_results/8p0m/2024-11-27-11-27-31/
     RDKit          3D

 17 19  0  0  0  0  0  0  0  0999 V2000
  -28.0162   -0.8135   28.8779 C   0  0  0  0  0  0  0  0  0  0  0  0
  -27.0636   -0.1189   28.6079 C   0  0  0  0  0  0  0  0  0  0  0  0
  -26.9716    0.7139   27.5060 C   0  0  0  0  0  0  0  0  0  0  0  0
  -28.1053    0.7744   26.6421 C   0  0  0  0  0  0  0  0  0  0  0  0
  -29.2008    0.1044   27.0527 C   0  0  0  0  0  0  0  0  0  0  0  0
  -29.2096   -0.6029   28.1853 C   0  0  0  0  0  0  0  0  0  0  0  0
  -30.2055    0.3215   26.0588 N   0  0  0  0  0  0  0  0  0  0  0  0
  -31.2935   -0.3683   26.2455 C   0  0  0  0  0  0  0  0  0  0  0  0
  -32.1905   -0.4383   25.1039 C   0  0  0  0  0  0  0  0  0  0  0  0
  -30.0638    1.0097   24.9110 C   0  0  0  0  0  0  0  0  0  0  0  0
  -30.9759    1.0922   23.8698 C   0  0  0  0  0  0  0  0  0  0  0  0
  -32.1140    0.3213   24.0535 C   0  0  0  0  0  0  0  0  0  0  0  0
  -28.7806    1.7747   24.7557 C   0  0  0  0  0  0  0  0  0  0  0  0
  -27.8664    1.6384   25.5725 C   0  0  0  0  0  0  0  0  0  0  0  0
  -28.1519   -1.6983   30.1365 C   0  0  0  0  0  0  0  0  0  0  0  0
  -27.5273   -2.6859   30.1172 O   0  0  0  0  0  0  0  0  0  0  0  0
  -28.5715   -1.2158   31.2237 O   0  0  0  0  0  0  0  0  0  0  0  0
  5  7  1  0
  7  8  1  0
  7 10  1  0
  9 12  1  0
 11 12  1  0
 10 13  1  0
  4 14  1  0
 13 14  1  0
  1 15  1  0
 15 16  2  0
 15 17  1  0
  8  9  1  0
 11 10  1  0
  1  2  2  0
  2  3  1  0
  3  4  2  0
  4  5  1  0
  5  6  2  0
  6  1  1  0
M  END

$$$$
