No_2735-gen_results/8p0m/2024-11-27-11-27-31/
     RDKit          3D

 15 16  0  0  0  0  0  0  0  0999 V2000
  -28.1229   -1.3353   28.4874 O   0  0  0  0  0  0  0  0  0  0  0  0
  -27.4806   -0.4044   28.7094 C   0  0  0  0  0  0  0  0  0  0  0  0
  -27.1904    0.2460   29.5268 C   0  0  0  0  0  0  0  0  0  0  0  0
  -26.6021   -0.1576   27.5515 N   0  0  0  0  0  0  0  0  0  0  0  0
  -25.6421    0.9031   27.5822 C   0  0  0  0  0  0  0  0  0  0  0  0
  -25.5004    1.6142   28.7368 C   0  0  0  0  0  0  0  0  0  0  0  0
  -26.2553    1.3158   29.8133 C   0  0  0  0  0  0  0  0  0  0  0  0
  -24.9210    1.1195   26.5182 F   0  0  0  0  0  0  0  0  0  0  0  0
  -28.0249   -0.0684   30.9354 C   0  0  0  0  0  0  0  0  0  0  0  0
  -29.1858    0.8288   31.0213 C   0  0  0  0  0  0  0  0  0  0  0  0
  -29.1512    1.9695   30.7168 C   0  0  0  0  0  0  0  0  0  0  0  0
  -28.1806    2.7445   31.0761 C   0  0  0  0  0  0  0  0  0  0  0  0
  -26.9315    2.5427   31.2344 C   0  0  0  0  0  0  0  0  0  0  0  0
  -25.2449    0.8445   31.0683 C   0  0  0  0  0  0  0  0  0  0  0  0
  -25.9752    2.0228   31.6765 C   0  0  0  0  0  0  0  0  0  0  0  0
  1  2  2  0
  2  3  1  0
  2  4  1  0
  4  5  1  0
  5  6  1  0
  6  7  1  0
  5  8  1  0
  3  9  1  0
  9 10  1  0
 10 11  1  0
 11 12  2  3
 12 13  1  0
  7 14  1  0
 13 15  1  0
 14 15  1  0
  3  7  1  0
M  END

$$$$
