No_2632-gen_results/8p0m/2024-11-27-11-27-31/
     RDKit          3D

 31 34  0  0  0  0  0  0  0  0999 V2000
  -28.0162   -0.8135   28.8779 C   0  0  0  0  0  0  0  0  0  0  0  0
  -27.0636   -0.1190   28.6079 C   0  0  0  0  0  0  0  0  0  0  0  0
  -25.7923   -0.4302   29.0761 C   0  0  0  0  0  0  0  0  0  0  0  0
  -25.5756   -1.5654   29.9363 C   0  0  0  0  0  0  0  0  0  0  0  0
  -26.7354   -2.3004   30.2173 C   0  0  0  0  0  0  0  0  0  0  0  0
  -27.9184   -1.9537   29.7629 C   0  0  0  0  0  0  0  0  0  0  0  0
  -27.1463    1.2916   27.6407 Cl  0  0  0  0  0  0  0  0  0  0  0  0
  -29.1644   -2.6283   30.1397 C   0  0  0  0  0  0  0  0  0  0  0  0
  -29.1597   -3.8842   30.4178 N   0  0  0  0  0  0  0  0  0  0  0  0
  -30.2449   -2.0448   30.1652 O   0  0  0  0  0  0  0  0  0  0  0  0
  -30.3151   -4.7315   30.7461 C   0  0  0  0  0  0  0  0  0  0  0  0
  -30.9560   -5.1379   29.6118 C   0  0  0  0  0  0  0  0  0  0  0  0
  -31.5919   -6.3222   29.6503 C   0  0  0  0  0  0  0  0  0  0  0  0
  -31.7675   -7.0175   30.9086 C   0  0  0  0  0  0  0  0  0  0  0  0
  -31.0627   -6.5506   32.0203 C   0  0  0  0  0  0  0  0  0  0  0  0
  -30.1828   -5.4600   31.9384 C   0  0  0  0  0  0  0  0  0  0  0  0
  -24.5195    0.3472   28.7182 C   0  0  0  0  0  0  0  0  0  0  0  0
  -23.3386   -0.1542   29.0964 C   0  0  0  0  0  0  0  0  0  0  0  0
  -22.1525    0.5991   28.8158 C   0  0  0  0  0  0  0  0  0  0  0  0
  -22.1731    1.6208   27.8958 C   0  0  0  0  0  0  0  0  0  0  0  0
  -23.3926    2.1462   27.4859 C   0  0  0  0  0  0  0  0  0  0  0  0
  -24.5482    1.4880   27.8815 C   0  0  0  0  0  0  0  0  0  0  0  0
  -32.3998   -6.7794   28.5053 C   0  0  0  0  0  0  0  0  0  0  0  0
  -31.8237   -7.7384   27.7225 C   0  0  0  0  0  0  0  0  0  0  0  0
  -32.2284   -7.9541   26.3910 C   0  0  0  0  0  0  0  0  0  0  0  0
  -33.2778   -7.1317   25.9083 C   0  0  0  0  0  0  0  0  0  0  0  0
  -33.3139   -5.9413   27.8882 C   0  0  0  0  0  0  0  0  0  0  0  0
  -33.7635   -6.1096   26.6233 C   0  0  0  0  0  0  0  0  0  0  0  0
  -33.8365   -4.7875   28.6732 C   0  0  0  0  0  0  0  0  0  0  0  0
  -34.8942   -5.0712   29.5037 C   0  0  0  0  0  0  0  0  0  0  0  0
  -35.4377   -4.0291   30.3067 C   0  0  0  0  0  0  0  0  0  0  0  0
  2  7  1  0
  6  8  1  0
  8  9  1  0
  8 10  2  0
  9 11  1  0
  3 17  1  0
 13 23  1  0
 27 29  1  0
 29 30  2  3
 30 31  1  0
 11 12  2  0
 12 13  1  0
 13 14  2  0
 14 15  1  0
 15 16  2  0
 16 11  1  0
  1  2  2  0
  2  3  1  0
  3  4  2  0
  4  5  1  0
  5  6  2  0
  6  1  1  0
 17 18  2  0
 18 19  1  0
 19 20  2  0
 20 21  1  0
 21 22  2  0
 22 17  1  0
 23 24  2  0
 24 25  1  0
 25 26  2  0
 26 28  1  0
 28 27  2  0
 27 23  1  0
M  END

$$$$
