No_2915-gen_results/8p0m/2024-11-27-11-27-31/
     RDKit          3D

 32 35  0  0  0  0  0  0  0  0999 V2000
  -28.0162   -0.8135   28.8779 C   0  0  0  0  0  0  0  0  0  0  0  0
  -27.0636   -0.1189   28.6079 C   0  0  0  0  0  0  0  0  0  0  0  0
  -25.7647   -0.3897   29.0360 C   0  0  0  0  0  0  0  0  0  0  0  0
  -24.5516    0.4058   28.7646 C   0  0  0  0  0  0  0  0  0  0  0  0
  -23.2300    0.1178   29.2575 C   0  0  0  0  0  0  0  0  0  0  0  0
  -22.1393    0.9427   28.9224 C   0  0  0  0  0  0  0  0  0  0  0  0
  -27.8294   -1.9287   29.8545 C   0  0  0  0  0  0  0  0  0  0  0  0
  -26.5882   -2.3272   30.2682 C   0  0  0  0  0  0  0  0  0  0  0  0
  -25.4565   -1.5432   29.9146 C   0  0  0  0  0  0  0  0  0  0  0  0
  -22.2302    1.9089   27.8723 C   0  0  0  0  0  0  0  0  0  0  0  0
  -24.5538    1.4700   27.7617 C   0  0  0  0  0  0  0  0  0  0  0  0
  -23.4471    2.1666   27.3764 C   0  0  0  0  0  0  0  0  0  0  0  0
  -28.9783   -2.7708   30.2578 C   0  0  0  0  0  0  0  0  0  0  0  0
  -28.9057   -3.9951   30.3320 O   0  0  0  0  0  0  0  0  0  0  0  0
  -30.1178   -2.1689   30.6277 N   0  0  0  0  0  0  0  0  0  0  0  0
  -31.2828   -2.9459   31.0606 C   0  0  0  0  0  0  0  0  0  0  0  0
  -31.2691   -3.7674   31.8923 C   0  0  0  0  0  0  0  0  0  0  0  0
  -32.3796   -4.5607   32.1437 C   0  0  0  0  0  0  0  0  0  0  0  0
  -32.4600   -2.5002   30.3980 C   0  0  0  0  0  0  0  0  0  0  0  0
  -33.6274   -3.2112   30.6936 C   0  0  0  0  0  0  0  0  0  0  0  0
  -33.5816   -4.2229   31.6186 C   0  0  0  0  0  0  0  0  0  0  0  0
  -34.8252   -4.9514   31.9482 C   0  0  0  0  0  0  0  0  0  0  0  0
  -35.0833   -5.1326   33.1480 N   0  0  0  0  0  0  0  0  0  0  0  0
  -34.7040   -4.6565   34.1276 C   0  0  0  0  0  0  0  0  0  0  0  0
  -35.2153   -5.1022   35.5045 C   0  0  0  0  0  0  0  0  0  0  0  0
  -36.0593   -6.2816   33.5251 C   0  0  0  0  0  0  0  0  0  0  0  0
  -36.4867   -6.5770   34.6773 C   0  0  0  0  0  0  0  0  0  0  0  0
  -36.0424   -5.9772   35.7624 C   0  0  0  0  0  0  0  0  0  0  0  0
  -35.2909   -5.5923   30.9588 O   0  0  0  0  0  0  0  0  0  0  0  0
  -36.4838   -6.2852   37.1189 C   0  0  0  0  0  0  0  0  0  0  0  0
  -35.9841   -5.6063   38.1131 C   0  0  0  0  0  0  0  0  0  0  0  0
  -35.0010   -4.5609   37.8295 C   0  0  0  0  0  0  0  0  0  0  0  0
  3  4  1  0
  7 13  1  0
 13 14  2  0
 13 15  1  0
 15 16  1  0
 21 22  1  0
 22 23  1  0
 23 24  1  0
 23 26  1  0
 25 28  1  0
 27 28  1  0
 22 29  2  0
 28 30  1  0
 30 31  2  3
 31 32  1  0
 24 25  1  0
 27 26  1  0
  1  2  2  0
  2  3  1  0
  3  9  2  0
  9  8  1  0
  8  7  2  0
  7  1  1  0
  4  5  2  0
  5  6  1  0
  6 10  2  0
 10 12  1  0
 12 11  2  0
 11  4  1  0
 16 17  2  0
 17 18  1  0
 18 21  2  0
 21 20  1  0
 20 19  2  0
 19 16  1  0
M  END

$$$$
