No_2069-gen_results/8p0m/2024-11-27-11-27-31/
     RDKit          3D

 35 38  0  0  0  0  0  0  0  0999 V2000
  -28.0162   -0.8135   28.8779 C   0  0  0  0  0  0  0  0  0  0  0  0
  -28.4690   -0.7850   29.8287 C   0  0  0  0  0  0  0  0  0  0  0  0
  -27.1356    0.2359   28.5352 C   0  0  0  0  0  0  0  0  0  0  0  0
  -26.8745    1.2825   29.3982 C   0  0  0  0  0  0  0  0  0  0  0  0
  -28.3613    0.1987   30.9244 C   0  0  0  0  0  0  0  0  0  0  0  0
  -27.5277    1.2234   30.6356 C   0  0  0  0  0  0  0  0  0  0  0  0
  -26.2062    0.2789   26.8838 Br  0  0  0  0  0  0  0  0  0  0  0  0
  -29.0754    0.1047   32.2441 C   0  0  0  0  0  0  0  0  0  0  0  0
  -30.0729    0.3866   32.2961 O   0  0  0  0  0  0  0  0  0  0  0  0
  -28.1612    0.0501   33.2794 O   0  0  0  0  0  0  0  0  0  0  0  0
  -25.8631    2.2061   28.9327 C   0  0  0  0  0  0  0  0  0  0  0  0
  -24.4647    1.8808   29.2178 C   0  0  0  0  0  0  0  0  0  0  0  0
  -23.4738    2.0948   28.1723 C   0  0  0  0  0  0  0  0  0  0  0  0
  -22.0925    1.5783   28.4065 C   0  0  0  0  0  0  0  0  0  0  0  0
  -23.9563    0.8747   30.1657 C   0  0  0  0  0  0  0  0  0  0  0  0
  -22.7240    0.3443   30.2789 C   0  0  0  0  0  0  0  0  0  0  0  0
  -21.7549    0.7472   29.3180 C   0  0  0  0  0  0  0  0  0  0  0  0
  -23.7191    2.9695   27.2549 F   0  0  0  0  0  0  0  0  0  0  0  0
  -29.3535   -1.8692   30.2032 F   0  0  0  0  0  0  0  0  0  0  0  0
  -28.4039   -0.8410   34.2800 C   0  0  0  0  0  0  0  0  0  0  0  0
  -27.4551   -0.6219   35.3041 C   0  0  0  0  0  0  0  0  0  0  0  0
  -27.5717    0.4440   36.0749 C   0  0  0  0  0  0  0  0  0  0  0  0
  -27.2790    1.6472   35.5180 N   0  0  0  0  0  0  0  0  0  0  0  0
  -28.1739    2.6132   35.1889 C   0  0  0  0  0  0  0  0  0  0  0  0
  -27.6657    3.7243   34.4033 C   0  0  0  0  0  0  0  0  0  0  0  0
  -26.3078    3.3844   34.0838 C   0  0  0  0  0  0  0  0  0  0  0  0
  -26.1040    1.9558   34.7428 C   0  0  0  0  0  0  0  0  0  0  0  0
  -25.9603    3.4080   32.6150 C   0  0  0  0  0  0  0  0  0  0  0  0
  -25.5569    4.7443   32.1816 C   0  0  0  0  0  0  0  0  0  0  0  0
  -26.2388    5.7670   32.5796 C   0  0  0  0  0  0  0  0  0  0  0  0
  -26.9212    5.8591   33.4832 C   0  0  0  0  0  0  0  0  0  0  0  0
  -28.0628    5.0226   34.1744 C   0  0  0  0  0  0  0  0  0  0  0  0
  -29.5147    2.7504   35.7268 C   0  0  0  0  0  0  0  0  0  0  0  0
  -30.5979    2.5252   34.8645 C   0  0  0  0  0  0  0  0  0  0  0  0
  -31.8809    2.6186   35.3594 C   0  0  0  0  0  0  0  0  0  0  0  0
  3  7  1  0
  5  8  1  0
  8  9  2  0
  8 10  1  0
  4 11  1  0
 11 12  1  0
 13 18  1  0
  2 19  1  0
 10 20  1  0
 20 21  2  3
 21 22  1  0
 22 23  1  0
 23 24  1  0
 24 25  2  0
 25 26  1  0
 23 27  1  0
 26 27  1  0
 26 28  1  0
 28 29  1  0
 29 30  1  0
 30 31  2  0
 25 32  1  0
 31 32  1  0
 24 33  1  0
 33 34  2  3
 34 35  1  0
 12 13  2  0
 13 14  1  0
 14 17  2  0
 17 16  1  0
 16 15  2  0
 15 12  1  0
  1  2  2  0
  2  5  1  0
  5  6  2  0
  6  4  1  0
  4  3  2  0
  3  1  1  0
M  END

$$$$
