No_2425-gen_results/8p0m/2024-11-27-11-27-31/
     RDKit          3D

 21 24  0  0  0  0  0  0  0  0999 V2000
  -28.0162   -0.8135   28.8779 C   0  0  0  0  0  0  0  0  0  0  0  0
  -27.0636   -0.1189   28.6079 C   0  0  0  0  0  0  0  0  0  0  0  0
  -26.9849    0.5972   27.5218 N   0  0  0  0  0  0  0  0  0  0  0  0
  -27.9606   -1.5421   30.1660 C   0  0  0  0  0  0  0  0  0  0  0  0
  -26.7813   -1.6198   30.8836 C   0  0  0  0  0  0  0  0  0  0  0  0
  -25.6460   -0.9698   30.4630 C   0  0  0  0  0  0  0  0  0  0  0  0
  -25.7563   -0.1767   29.2863 C   0  0  0  0  0  0  0  0  0  0  0  0
  -25.9019    0.8964   26.8088 C   0  0  0  0  0  0  0  0  0  0  0  0
  -24.6584    0.9713   27.4796 C   0  0  0  0  0  0  0  0  0  0  0  0
  -24.5490    0.3775   28.7086 C   0  0  0  0  0  0  0  0  0  0  0  0
  -28.2415    0.8034   26.7331 C   0  0  0  0  0  0  0  0  0  0  0  0
  -28.6257    2.1090   26.7973 C   0  0  0  0  0  0  0  0  0  0  0  0
  -23.2362    0.3615   29.4414 C   0  0  0  0  0  0  0  0  0  0  0  0
  -22.2121   -0.5513   28.9599 C   0  0  0  0  0  0  0  0  0  0  0  0
  -28.9189   -0.1478   26.0462 C   0  0  0  0  0  0  0  0  0  0  0  0
  -30.1405    0.1245   25.4447 C   0  0  0  0  0  0  0  0  0  0  0  0
  -29.8806    2.4161   26.1795 C   0  0  0  0  0  0  0  0  0  0  0  0
  -30.5605    1.4426   25.4575 C   0  0  0  0  0  0  0  0  0  0  0  0
  -22.5382    1.7305   29.5625 C   0  0  0  0  0  0  0  0  0  0  0  0
  -23.4222   -0.0054   31.0180 C   0  0  0  0  0  0  0  0  0  0  0  0
  -24.4781   -0.9005   31.3811 C   0  0  0  0  0  0  0  0  0  0  0  0
  2  3  1  0
  3  8  1  0
  7 10  1  0
  9 10  1  0
  3 11  1  0
 10 13  1  0
 13 14  1  0
 13 19  1  0
 13 20  1  0
  6 21  1  0
  9  8  1  0
 21 20  1  0
 11 12  2  0
 12 17  1  0
 17 18  2  0
 18 16  1  0
 16 15  2  0
 15 11  1  0
  1  2  2  0
  2  7  1  0
  7  6  2  0
  6  5  1  0
  5  4  2  0
  4  1  1  0
M  END

$$$$
