No_2353-gen_results/8p0m/2024-11-27-11-27-31/
     RDKit          3D

 18 18  0  0  0  0  0  0  0  0999 V2000
  -28.0162   -0.8135   28.8779 C   0  0  0  0  0  0  0  0  0  0  0  0
  -27.0636   -0.1189   28.6079 C   0  0  0  0  0  0  0  0  0  0  0  0
  -27.0010    0.6913   27.4910 C   0  0  0  0  0  0  0  0  0  0  0  0
  -25.8548    1.4825   27.0830 C   0  0  0  0  0  0  0  0  0  0  0  0
  -24.9008    1.3894   27.5922 C   0  0  0  0  0  0  0  0  0  0  0  0
  -24.6783    0.5764   28.8299 C   0  0  0  0  0  0  0  0  0  0  0  0
  -25.7704   -0.2051   29.2800 C   0  0  0  0  0  0  0  0  0  0  0  0
  -27.8957   -1.5414   30.0594 N   0  0  0  0  0  0  0  0  0  0  0  0
  -23.2520    2.4048   27.2179 Br  0  0  0  0  0  0  0  0  0  0  0  0
  -29.1743   -0.6300   28.5172 O   0  0  0  0  0  0  0  0  0  0  0  0
  -28.9971   -2.4239   30.6130 C   0  0  0  0  0  0  0  0  0  0  0  0
  -29.9211   -2.8079   29.7932 C   0  0  0  0  0  0  0  0  0  0  0  0
  -30.7125   -2.1737   29.3831 O   0  0  0  0  0  0  0  0  0  0  0  0
  -29.9498   -4.1564   29.6400 O   0  0  0  0  0  0  0  0  0  0  0  0
  -23.3575    0.4942   29.5612 C   0  0  0  0  0  0  0  0  0  0  0  0
  -23.0466   -0.6813   30.1225 C   0  0  0  0  0  0  0  0  0  0  0  0
  -22.2101    0.7176   28.7142 C   0  0  0  0  0  0  0  0  0  0  0  0
  -23.4636    1.6572   30.6499 C   0  0  0  0  0  0  0  0  0  0  0  0
  1  2  1  0
  1  8  1  0
  5  9  1  0
  1 10  2  0
  8 11  1  0
 11 12  1  0
 12 13  1  0
 12 14  2  0
  6 15  1  0
 15 16  1  0
 15 17  1  0
 15 18  1  0
  2  3  2  0
  3  4  1  0
  4  5  2  0
  5  6  1  0
  6  7  2  0
  7  2  1  0
M  END

$$$$
