No_2320-gen_results/8p0m/2024-11-27-11-27-31/
     RDKit          3D

 21 21  0  0  0  0  0  0  0  0999 V2000
  -28.0162   -0.8135   28.8779 C   0  0  0  0  0  0  0  0  0  0  0  0
  -28.4690   -0.7850   29.8287 C   0  0  0  0  0  0  0  0  0  0  0  0
  -27.1356    0.2359   28.5352 C   0  0  0  0  0  0  0  0  0  0  0  0
  -26.8745    1.2825   29.3982 C   0  0  0  0  0  0  0  0  0  0  0  0
  -28.3613    0.1987   30.9244 C   0  0  0  0  0  0  0  0  0  0  0  0
  -27.5277    1.2234   30.6356 C   0  0  0  0  0  0  0  0  0  0  0  0
  -26.3879    0.2914   27.2334 C   0  0  0  0  0  0  0  0  0  0  0  0
  -25.7787   -0.5228   27.0340 F   0  0  0  0  0  0  0  0  0  0  0  0
  -25.6034    1.4597   27.1041 F   0  0  0  0  0  0  0  0  0  0  0  0
  -27.3759    0.5234   26.2013 F   0  0  0  0  0  0  0  0  0  0  0  0
  -29.3958   -2.0216   30.3203 C   0  0  0  0  0  0  0  0  0  0  0  0
  -30.4676   -2.0325   30.0565 O   0  0  0  0  0  0  0  0  0  0  0  0
  -28.7978   -3.0229   31.0017 O   0  0  0  0  0  0  0  0  0  0  0  0
  -27.2715    2.3405   31.5973 C   0  0  0  0  0  0  0  0  0  0  0  0
  -26.5045    3.0861   31.5305 C   0  0  0  0  0  0  0  0  0  0  0  0
  -25.3906    3.1482   30.5092 C   0  0  0  0  0  0  0  0  0  0  0  0
  -25.2920    2.3766   29.4229 C   0  0  0  0  0  0  0  0  0  0  0  0
  -27.2942    2.6224   28.7080 O   0  0  0  0  0  0  0  0  0  0  0  0
  -24.9716    2.6489   28.2898 O   0  0  0  0  0  0  0  0  0  0  0  0
  -24.3197    1.0845   29.9541 C   0  0  0  0  0  0  0  0  0  0  0  0
  -24.0899    3.1761   27.6732 C   0  0  0  0  0  0  0  0  0  0  0  0
  3  7  1  0
  7  8  1  0
  7  9  1  0
  7 10  1  0
  2 11  1  0
 11 12  1  0
 11 13  2  0
  6 14  1  0
 14 15  2  3
 15 16  1  0
 16 17  2  3
  4 18  1  0
 17 19  1  0
 17 20  1  0
 19 21  1  0
  1  2  2  0
  2  5  1  0
  5  6  2  0
  6  4  1  0
  4  3  2  0
  3  1  1  0
M  END

$$$$
