No_211-gen_results/8p0m/2024-11-27-11-27-31/
     RDKit          3D

 18 20  0  0  0  0  0  0  0  0999 V2000
  -28.0162   -0.8135   28.8779 C   0  0  0  0  0  0  0  0  0  0  0  0
  -28.4690   -0.7850   29.8287 C   0  0  0  0  0  0  0  0  0  0  0  0
  -28.1960    0.3478   28.0550 C   0  0  0  0  0  0  0  0  0  0  0  0
  -27.4421    0.5100   26.7946 C   0  0  0  0  0  0  0  0  0  0  0  0
  -26.1689   -0.0794   26.6787 C   0  0  0  0  0  0  0  0  0  0  0  0
  -25.7312   -0.9607   27.6875 C   0  0  0  0  0  0  0  0  0  0  0  0
  -26.5043   -1.2222   28.7582 C   0  0  0  0  0  0  0  0  0  0  0  0
  -29.5802   -0.2435   30.2170 C   0  0  0  0  0  0  0  0  0  0  0  0
  -30.0568    0.7240   29.3104 C   0  0  0  0  0  0  0  0  0  0  0  0
  -29.3596    1.0530   28.1223 C   0  0  0  0  0  0  0  0  0  0  0  0
  -29.8824    2.1635   27.0303 Cl  0  0  0  0  0  0  0  0  0  0  0  0
  -25.9463   -2.2770   29.7019 C   0  0  0  0  0  0  0  0  0  0  0  0
  -24.9925   -3.0644   29.2389 C   0  0  0  0  0  0  0  0  0  0  0  0
  -25.5293   -1.5758   30.9752 C   0  0  0  0  0  0  0  0  0  0  0  0
  -27.1149   -3.2622   30.0503 C   0  0  0  0  0  0  0  0  0  0  0  0
  -26.9968   -4.6358   29.7309 C   0  0  0  0  0  0  0  0  0  0  0  0
  -24.8190   -4.4271   28.9709 C   0  0  0  0  0  0  0  0  0  0  0  0
  -25.9091   -5.1779   29.3605 C   0  0  0  0  0  0  0  0  0  0  0  0
  3  4  1  0
  4  5  1  0
  5  6  1  0
  1  7  1  0
  6  7  1  0
 10 11  1  0
  7 12  1  0
 12 13  1  0
 12 14  1  0
 12 15  1  0
 16 18  1  0
 17 18  1  0
 13 17  1  0
 16 15  1  0
  1  2  2  0
  2  8  1  0
  8  9  2  0
  9 10  1  0
 10  3  2  0
  3  1  1  0
M  END

$$$$
