No_2402-gen_results/8p0m/2024-11-27-11-27-31/
     RDKit          3D

 20 21  0  0  0  0  0  0  0  0999 V2000
  -28.0162   -0.8135   28.8779 C   0  0  0  0  0  0  0  0  0  0  0  0
  -28.4690   -0.7850   29.8287 C   0  0  0  0  0  0  0  0  0  0  0  0
  -26.5455   -0.8762   28.8500 C   0  0  0  0  0  0  0  0  0  0  0  0
  -25.8041   -1.0324   30.0571 C   0  0  0  0  0  0  0  0  0  0  0  0
  -27.9437   -0.9869   31.2075 C   0  0  0  0  0  0  0  0  0  0  0  0
  -26.5825   -1.0386   31.2231 C   0  0  0  0  0  0  0  0  0  0  0  0
  -30.0606   -0.7371   29.9024 C   0  0  0  0  0  0  0  0  0  0  0  0
  -30.6052    0.0855   30.7066 O   0  0  0  0  0  0  0  0  0  0  0  0
  -30.6701   -1.4594   29.0728 O   0  0  0  0  0  0  0  0  0  0  0  0
  -24.3711   -1.0948   30.0783 C   0  0  0  0  0  0  0  0  0  0  0  0
  -23.7030    0.1902   30.1011 C   0  0  0  0  0  0  0  0  0  0  0  0
  -23.3045    0.8269   28.9279 C   0  0  0  0  0  0  0  0  0  0  0  0
  -22.0684    0.7820   28.5113 C   0  0  0  0  0  0  0  0  0  0  0  0
  -21.0820    0.1235   29.2152 C   0  0  0  0  0  0  0  0  0  0  0  0
  -19.8953    0.0310   28.5959 N   0  0  0  0  0  0  0  0  0  0  0  0
  -24.4048    1.5027   28.2179 C   0  0  0  0  0  0  0  0  0  0  0  0
  -24.0716    2.0256   26.9333 C   0  0  0  0  0  0  0  0  0  0  0  0
  -22.6916    2.0208   26.4738 C   0  0  0  0  0  0  0  0  0  0  0  0
  -21.7292    1.4235   27.2670 C   0  0  0  0  0  0  0  0  0  0  0  0
  -23.7272    0.8660   31.4068 C   0  0  0  0  0  0  0  0  0  0  0  0
  2  7  1  0
  7  8  2  0
  7  9  1  0
  4 10  1  0
 10 11  1  0
 11 12  1  0
 13 14  1  0
 14 15  1  0
 11 20  1  0
 12 13  2  0
 13 19  1  0
 19 18  2  0
 18 17  1  0
 17 16  2  0
 16 12  1  0
  1  2  2  0
  2  5  1  0
  5  6  2  0
  6  4  1  0
  4  3  2  0
  3  1  1  0
M  END

$$$$
