No_297-gen_results/8p0m/2024-11-27-11-27-31/
     RDKit          3D

 18 19  0  0  0  0  0  0  0  0999 V2000
  -28.0162   -0.8135   28.8779 C   0  0  0  0  0  0  0  0  0  0  0  0
  -28.4690   -0.7850   29.8287 C   0  0  0  0  0  0  0  0  0  0  0  0
  -26.5042   -0.7777   28.8766 C   0  0  0  0  0  0  0  0  0  0  0  0
  -25.8103   -0.8531   30.1028 C   0  0  0  0  0  0  0  0  0  0  0  0
  -27.9906   -0.8916   31.2257 C   0  0  0  0  0  0  0  0  0  0  0  0
  -26.6042   -0.8676   31.2652 C   0  0  0  0  0  0  0  0  0  0  0  0
  -29.9203   -0.8331   29.8239 F   0  0  0  0  0  0  0  0  0  0  0  0
  -24.3796   -0.8022   30.1424 C   0  0  0  0  0  0  0  0  0  0  0  0
  -23.8075    0.5641   30.1478 C   0  0  0  0  0  0  0  0  0  0  0  0
  -23.2709    1.1039   28.9795 C   0  0  0  0  0  0  0  0  0  0  0  0
  -22.0549    0.8079   28.5293 C   0  0  0  0  0  0  0  0  0  0  0  0
  -24.1849    1.8391   28.0703 C   0  0  0  0  0  0  0  0  0  0  0  0
  -23.6978    2.2546   26.8063 C   0  0  0  0  0  0  0  0  0  0  0  0
  -21.5703    1.2742   27.2873 C   0  0  0  0  0  0  0  0  0  0  0  0
  -22.3813    2.0464   26.4861 C   0  0  0  0  0  0  0  0  0  0  0  0
  -23.8733    1.4251   31.3004 C   0  0  0  0  0  0  0  0  0  0  0  0
  -25.5832   -0.7070   27.4192 Cl  0  0  0  0  0  0  0  0  0  0  0  0
  -23.4867    2.6556   31.2547 O   0  0  0  0  0  0  0  0  0  0  0  0
  2  7  1  0
  4  8  1  0
  8  9  1  0
  9 10  1  0
  9 16  1  0
  3 17  1  0
 16 18  1  0
 10 11  2  0
 11 14  1  0
 14 15  2  0
 15 13  1  0
 13 12  2  0
 12 10  1  0
  1  2  2  0
  2  5  1  0
  5  6  2  0
  6  4  1  0
  4  3  2  0
  3  1  1  0
M  END

$$$$
