No_2125-gen_results/8p0m/2024-11-27-11-27-31/
     RDKit          3D

 22 24  0  0  0  0  0  0  0  0999 V2000
  -28.0162   -0.8135   28.8779 C   0  0  0  0  0  0  0  0  0  0  0  0
  -27.0636   -0.1189   28.6079 C   0  0  0  0  0  0  0  0  0  0  0  0
  -27.0010    0.6913   27.4910 C   0  0  0  0  0  0  0  0  0  0  0  0
  -27.1778    1.9037   27.5632 C   0  0  0  0  0  0  0  0  0  0  0  0
  -28.0594   -1.3960   30.2136 C   0  0  0  0  0  0  0  0  0  0  0  0
  -26.8947   -1.6080   30.9179 C   0  0  0  0  0  0  0  0  0  0  0  0
  -25.7681   -0.2056   29.2627 C   0  0  0  0  0  0  0  0  0  0  0  0
  -25.7249   -0.9566   30.4860 C   0  0  0  0  0  0  0  0  0  0  0  0
  -27.1212    2.8031   26.3669 C   0  0  0  0  0  0  0  0  0  0  0  0
  -26.8863    2.2234   25.1194 C   0  0  0  0  0  0  0  0  0  0  0  0
  -26.7154    0.1722   26.1442 C   0  0  0  0  0  0  0  0  0  0  0  0
  -26.6620    0.9299   25.0219 C   0  0  0  0  0  0  0  0  0  0  0  0
  -29.2756   -2.1629   30.6711 C   0  0  0  0  0  0  0  0  0  0  0  0
  -29.2975   -3.3253   30.9155 O   0  0  0  0  0  0  0  0  0  0  0  0
  -30.4214   -1.4493   30.6880 N   0  0  0  0  0  0  0  0  0  0  0  0
  -30.5633   -0.0593   30.4687 C   0  0  0  0  0  0  0  0  0  0  0  0
  -30.2263    0.7214   31.4820 C   0  0  0  0  0  0  0  0  0  0  0  0
  -30.2211    2.1935   31.2766 C   0  0  0  0  0  0  0  0  0  0  0  0
  -30.6933    2.6700   30.0364 C   0  0  0  0  0  0  0  0  0  0  0  0
  -31.2451    0.3740   29.3702 C   0  0  0  0  0  0  0  0  0  0  0  0
  -31.2163    1.7923   29.0958 C   0  0  0  0  0  0  0  0  0  0  0  0
  -31.6280   -2.1411   31.0725 C   0  0  0  0  0  0  0  0  0  0  0  0
  2  3  1  0
  5 13  1  0
 13 14  2  0
 13 15  1  0
 15 16  1  0
 15 22  1  0
  1  2  2  0
  2  7  1  0
  7  8  2  0
  8  6  1  0
  6  5  2  0
  5  1  1  0
  3  4  2  0
  4  9  1  0
  9 10  2  0
 10 12  1  0
 12 11  2  0
 11  3  1  0
 16 17  2  0
 17 18  1  0
 18 19  2  0
 19 21  1  0
 21 20  2  0
 20 16  1  0
M  END

$$$$
