No_2436-gen_results/8p0m/2024-11-27-11-27-31/
     RDKit          3D

 14 15  0  0  0  0  0  0  0  0999 V2000
  -28.0162   -0.8135   28.8779 C   0  0  0  0  0  0  0  0  0  0  0  0
  -28.4690   -0.7850   29.8287 C   0  0  0  0  0  0  0  0  0  0  0  0
  -26.5455   -0.8762   28.8500 C   0  0  0  0  0  0  0  0  0  0  0  0
  -25.8974   -0.8267   29.8894 C   0  0  0  0  0  0  0  0  0  0  0  0
  -27.9129   -0.8385   31.1942 C   0  0  0  0  0  0  0  0  0  0  0  0
  -26.5519   -0.8324   31.1775 C   0  0  0  0  0  0  0  0  0  0  0  0
  -29.9716   -0.7904   29.9222 N   0  0  0  0  0  0  0  0  0  0  0  0
  -30.7125    0.1848   30.3436 C   0  0  0  0  0  0  0  0  0  0  0  0
  -30.2293    1.2657   30.5620 C   0  0  0  0  0  0  0  0  0  0  0  0
  -31.1228    2.4356   30.9677 C   0  0  0  0  0  0  0  0  0  0  0  0
  -30.6356    3.7193   31.2569 C   0  0  0  0  0  0  0  0  0  0  0  0
  -29.2276    3.9106   31.1255 C   0  0  0  0  0  0  0  0  0  0  0  0
  -28.3511    2.8778   30.7710 C   0  0  0  0  0  0  0  0  0  0  0  0
  -28.8330    1.6542   30.5287 C   0  0  0  0  0  0  0  0  0  0  0  0
  2  7  1  0
  7  8  1  0
  8  9  1  0
  9 10  2  0
 10 11  1  0
 11 12  2  0
 12 13  1  0
 13 14  2  0
 14  9  1  0
  1  2  2  0
  2  5  1  0
  5  6  2  0
  6  4  1  0
  4  3  2  0
  3  1  1  0
M  END

$$$$
