No_2605-gen_results/8p0m/2024-11-27-11-27-31/
     RDKit          3D

 24 26  0  0  0  0  0  0  0  0999 V2000
  -28.0162   -0.8135   28.8779 C   0  0  0  0  0  0  0  0  0  0  0  0
  -27.0636   -0.1189   28.6079 C   0  0  0  0  0  0  0  0  0  0  0  0
  -26.9287    1.1713   29.0083 C   0  0  0  0  0  0  0  0  0  0  0  0
  -25.7702    2.0341   28.6884 C   0  0  0  0  0  0  0  0  0  0  0  0
  -24.7141    1.4431   27.9188 C   0  0  0  0  0  0  0  0  0  0  0  0
  -24.8590    0.0783   27.5836 C   0  0  0  0  0  0  0  0  0  0  0  0
  -25.9647   -0.6606   27.9164 C   0  0  0  0  0  0  0  0  0  0  0  0
  -29.2406   -0.2045   29.0738 C   0  0  0  0  0  0  0  0  0  0  0  0
  -29.2782    1.1474   29.4856 C   0  0  0  0  0  0  0  0  0  0  0  0
  -28.1299    1.9048   29.3190 C   0  0  0  0  0  0  0  0  0  0  0  0
  -23.4496    2.0913   27.6809 C   0  0  0  0  0  0  0  0  0  0  0  0
  -22.8713    2.6561   28.3288 O   0  0  0  0  0  0  0  0  0  0  0  0
  -23.2011    2.1146   26.2968 O   0  0  0  0  0  0  0  0  0  0  0  0
  -30.3504   -0.9757   29.4141 O   0  0  0  0  0  0  0  0  0  0  0  0
  -31.4294   -0.9900   28.6014 C   0  0  0  0  0  0  0  0  0  0  0  0
  -32.1852   -2.1409   28.7398 C   0  0  0  0  0  0  0  0  0  0  0  0
  -33.1125   -2.4820   27.7433 C   0  0  0  0  0  0  0  0  0  0  0  0
  -33.3527   -1.5626   26.6647 C   0  0  0  0  0  0  0  0  0  0  0  0
  -31.5884   -0.2686   27.4212 C   0  0  0  0  0  0  0  0  0  0  0  0
  -32.5016   -0.5335   26.5189 C   0  0  0  0  0  0  0  0  0  0  0  0
  -28.1087    3.3421   29.5863 C   0  0  0  0  0  0  0  0  0  0  0  0
  -27.3028    3.7034   30.3010 F   0  0  0  0  0  0  0  0  0  0  0  0
  -29.3607    3.5714   30.1786 F   0  0  0  0  0  0  0  0  0  0  0  0
  -28.1284    3.9349   28.3775 F   0  0  0  0  0  0  0  0  0  0  0  0
  5 11  1  0
 11 12  2  0
 11 13  1  0
  8 14  1  0
 14 15  1  0
 10 21  1  0
 21 22  1  0
 21 23  1  0
 21 24  1  0
 15 16  2  0
 16 17  1  0
 17 18  2  0
 18 20  1  0
 20 19  2  0
 19 15  1  0
  3  4  1  0
  4  5  2  0
  5  6  1  0
  6  7  2  0
  7  2  1  0
  1  2  2  0
  2  3  1  0
  3 10  2  0
 10  9  1  0
  9  8  2  0
  8  1  1  0
M  END

$$$$
