No_2356-gen_results/8p0m/2024-11-27-11-27-31/
     RDKit          3D

 16 17  0  0  0  0  0  0  0  0999 V2000
  -28.0162   -0.8135   28.8779 C   0  0  0  0  0  0  0  0  0  0  0  0
  -27.0636   -0.1189   28.6079 C   0  0  0  0  0  0  0  0  0  0  0  0
  -25.7923   -0.4302   29.0761 C   0  0  0  0  0  0  0  0  0  0  0  0
  -25.5756   -1.5654   29.9363 C   0  0  0  0  0  0  0  0  0  0  0  0
  -24.3722   -1.9422   30.4466 C   0  0  0  0  0  0  0  0  0  0  0  0
  -27.9640   -1.9247   29.7899 C   0  0  0  0  0  0  0  0  0  0  0  0
  -26.7624   -2.3055   30.3031 C   0  0  0  0  0  0  0  0  0  0  0  0
  -23.3146   -1.9932   29.5545 C   0  0  0  0  0  0  0  0  0  0  0  0
  -27.1153    1.0774   27.7001 C   0  0  0  0  0  0  0  0  0  0  0  0
  -27.8599    1.9546   27.8556 C   0  0  0  0  0  0  0  0  0  0  0  0
  -28.1762    2.8943   27.6778 C   0  0  0  0  0  0  0  0  0  0  0  0
  -29.3298    3.7234   28.1541 C   0  0  0  0  0  0  0  0  0  0  0  0
  -30.1281    3.0450   29.0120 C   0  0  0  0  0  0  0  0  0  0  0  0
  -29.8779    1.8393   29.3447 C   0  0  0  0  0  0  0  0  0  0  0  0
  -28.8448    1.2524   28.9145 C   0  0  0  0  0  0  0  0  0  0  0  0
  -28.6738   -0.0605   29.1866 N   0  0  0  0  0  0  0  0  0  0  0  0
  5  8  1  0
  2  9  1  0
  9 10  2  3
 10 11  1  0
 11 12  2  3
 12 13  1  0
 13 14  2  3
 14 15  1  0
 15 16  1  0
 16  1  1  0
  5  4  1  0
  1  2  1  0
  2  3  2  0
  3  4  1  0
  4  7  2  0
  7  6  1  0
  6  1  2  0
M  END

$$$$
