No_267-gen_results/8p0m/2024-11-27-11-27-31/
     RDKit          3D

 17 18  0  0  0  0  0  0  0  0999 V2000
  -28.0162   -0.8135   28.8779 C   0  0  0  0  0  0  0  0  0  0  0  0
  -28.4690   -0.7850   29.8287 C   0  0  0  0  0  0  0  0  0  0  0  0
  -27.0871    0.2903   28.6377 C   0  0  0  0  0  0  0  0  0  0  0  0
  -26.0238    0.3644   29.2526 C   0  0  0  0  0  0  0  0  0  0  0  0
  -27.5370   -0.6187   31.0883 C   0  0  0  0  0  0  0  0  0  0  0  0
  -26.3844    0.1834   30.8012 C   0  0  0  0  0  0  0  0  0  0  0  0
  -29.6227   -1.6698   30.2973 C   0  0  0  0  0  0  0  0  0  0  0  0
  -30.6594   -1.3298   29.6877 O   0  0  0  0  0  0  0  0  0  0  0  0
  -29.6096   -2.6153   31.1898 O   0  0  0  0  0  0  0  0  0  0  0  0
  -24.8731    1.3086   29.1038 C   0  0  0  0  0  0  0  0  0  0  0  0
  -23.7898    1.1234   29.4037 C   0  0  0  0  0  0  0  0  0  0  0  0
  -22.5367    1.8063   28.9597 C   0  0  0  0  0  0  0  0  0  0  0  0
  -25.0731    2.4404   28.1805 C   0  0  0  0  0  0  0  0  0  0  0  0
  -23.9644    3.1044   27.5629 C   0  0  0  0  0  0  0  0  0  0  0  0
  -22.6711    2.7789   28.0092 C   0  0  0  0  0  0  0  0  0  0  0  0
  -23.4849    0.1711   30.4177 O   0  0  0  0  0  0  0  0  0  0  0  0
  -23.3712   -1.1706   30.1914 C   0  0  0  0  0  0  0  0  0  0  0  0
  2  7  1  0
  7  8  2  0
  7  9  1  0
  4 10  1  0
 11 16  1  0
 16 17  1  0
  1  2  2  0
  2  5  1  0
  5  6  2  0
  6  4  1  0
  4  3  2  0
  3  1  1  0
 10 11  2  0
 11 12  1  0
 12 15  2  0
 15 14  1  0
 14 13  2  0
 13 10  1  0
M  END

$$$$
