No_2628-gen_results/8p0m/2024-11-27-11-27-31/
     RDKit          3D

 32 34  0  0  0  0  0  0  0  0999 V2000
  -28.0162   -0.8135   28.8779 C   0  0  0  0  0  0  0  0  0  0  0  0
  -27.0636   -0.1189   28.6079 C   0  0  0  0  0  0  0  0  0  0  0  0
  -26.9716    0.7139   27.5060 C   0  0  0  0  0  0  0  0  0  0  0  0
  -28.1053    0.7744   26.6421 C   0  0  0  0  0  0  0  0  0  0  0  0
  -29.2008    0.1044   27.0527 C   0  0  0  0  0  0  0  0  0  0  0  0
  -29.2096   -0.6029   28.1853 C   0  0  0  0  0  0  0  0  0  0  0  0
  -30.2828    0.2138   26.2960 F   0  0  0  0  0  0  0  0  0  0  0  0
  -25.7134   -0.2153   29.4104 C   0  0  0  0  0  0  0  0  0  0  0  0
  -25.6083   -0.4485   30.4669 C   0  0  0  0  0  0  0  0  0  0  0  0
  -24.3074   -0.5283   31.2105 C   0  0  0  0  0  0  0  0  0  0  0  0
  -23.1348   -0.2695   30.4910 C   0  0  0  0  0  0  0  0  0  0  0  0
  -23.3199    0.0513   29.1871 C   0  0  0  0  0  0  0  0  0  0  0  0
  -24.5355    0.0857   28.5193 C   0  0  0  0  0  0  0  0  0  0  0  0
  -22.0620    0.4212   28.4195 C   0  0  0  0  0  0  0  0  0  0  0  0
  -20.9015   -0.0665   28.6741 N   0  0  0  0  0  0  0  0  0  0  0  0
  -22.1645    1.3414   27.5225 O   0  0  0  0  0  0  0  0  0  0  0  0
  -28.0430    1.6777   25.4815 C   0  0  0  0  0  0  0  0  0  0  0  0
  -26.8999    1.8166   24.9078 F   0  0  0  0  0  0  0  0  0  0  0  0
  -28.7708    1.0650   24.4629 F   0  0  0  0  0  0  0  0  0  0  0  0
  -28.6129    2.8494   25.7481 F   0  0  0  0  0  0  0  0  0  0  0  0
  -30.2946   -1.2770   28.5364 O   0  0  0  0  0  0  0  0  0  0  0  0
  -31.4643   -0.7003   28.8096 C   0  0  0  0  0  0  0  0  0  0  0  0
  -31.5815    0.0774   29.8896 C   0  0  0  0  0  0  0  0  0  0  0  0
  -31.1620   -0.4118   31.1048 C   0  0  0  0  0  0  0  0  0  0  0  0
  -31.6544   -0.0293   32.1379 C   0  0  0  0  0  0  0  0  0  0  0  0
  -30.9119    1.4316   29.7361 N   0  0  0  0  0  0  0  0  0  0  0  0
  -31.0846    2.4066   29.9856 C   0  0  0  0  0  0  0  0  0  0  0  0
  -30.3867    3.5976   29.4542 C   0  0  0  0  0  0  0  0  0  0  0  0
  -31.3290   -0.5526   33.4782 C   0  0  0  0  0  0  0  0  0  0  0  0
  -30.4550   -1.6511   33.5166 C   0  0  0  0  0  0  0  0  0  0  0  0
  -29.8891   -2.1567   32.3370 C   0  0  0  0  0  0  0  0  0  0  0  0
  -30.2330   -1.5554   31.1418 C   0  0  0  0  0  0  0  0  0  0  0  0
  5  7  1  0
  2  8  1  0
 12 14  1  0
 14 15  1  0
 14 16  2  0
  4 17  1  0
 17 18  1  0
 17 19  1  0
 17 20  1  0
  6 21  1  0
 21 22  1  0
 22 23  1  0
 23 24  1  0
 23 26  1  0
 26 27  1  0
 27 28  2  0
  1  2  2  0
  2  3  1  0
  3  4  2  0
  4  5  1  0
  5  6  2  0
  6  1  1  0
 24 25  2  0
 25 29  1  0
 29 30  2  0
 30 31  1  0
 31 32  2  0
 32 24  1  0
  8  9  2  0
  9 10  1  0
 10 11  2  0
 11 12  1  0
 12 13  2  0
 13  8  1  0
M  END

$$$$
