No_2342-gen_results/8p0m/2024-11-27-11-27-31/
     RDKit          3D

 19 20  0  0  0  0  0  0  0  0999 V2000
  -28.0727   -1.2542   28.5316 F   0  0  0  0  0  0  0  0  0  0  0  0
  -27.0607   -0.6291   28.8721 C   0  0  0  0  0  0  0  0  0  0  0  0
  -26.1528   -1.1557   29.4537 C   0  0  0  0  0  0  0  0  0  0  0  0
  -24.8778   -0.5788   29.8639 C   0  0  0  0  0  0  0  0  0  0  0  0
  -24.7426    0.8273   29.4808 C   0  0  0  0  0  0  0  0  0  0  0  0
  -25.7883    1.3927   28.7628 C   0  0  0  0  0  0  0  0  0  0  0  0
  -26.9145    0.7309   28.4427 C   0  0  0  0  0  0  0  0  0  0  0  0
  -23.6958    1.4867   29.8328 F   0  0  0  0  0  0  0  0  0  0  0  0
  -27.8532    1.3066   27.7278 F   0  0  0  0  0  0  0  0  0  0  0  0
  -26.1634   -2.4609   29.9179 F   0  0  0  0  0  0  0  0  0  0  0  0
  -25.5434    2.8530   28.3637 C   0  0  0  0  0  0  0  0  0  0  0  0
  -24.7599    3.1346   27.3776 O   0  0  0  0  0  0  0  0  0  0  0  0
  -26.2062    3.8823   29.0539 C   0  0  0  0  0  0  0  0  0  0  0  0
  -26.4985    3.9389   30.3271 C   0  0  0  0  0  0  0  0  0  0  0  0
  -25.8900    3.6414   31.2362 N   0  0  0  0  0  0  0  0  0  0  0  0
  -26.2726    3.2981   32.5982 C   0  0  0  0  0  0  0  0  0  0  0  0
  -27.5205    4.9159   30.7587 C   0  0  0  0  0  0  0  0  0  0  0  0
  -28.0635    4.8551   32.0541 C   0  0  0  0  0  0  0  0  0  0  0  0
  -27.2686    4.1649   33.0719 C   0  0  0  0  0  0  0  0  0  0  0  0
  1  2  1  0
  5  8  1  0
  7  9  1  0
  3 10  1  0
  6 11  1  0
 11 12  1  0
 11 13  1  0
 13 14  1  0
  2  3  2  0
  3  4  1  0
  4  5  2  0
  5  6  1  0
  6  7  2  0
  7  2  1  0
 14 15  2  0
 15 16  1  0
 16 19  2  0
 19 18  1  0
 18 17  2  0
 17 14  1  0
M  END

$$$$
