No_2957-gen_results/8p0m/2024-11-27-11-27-31/
     RDKit          3D

 16 18  0  0  0  0  0  0  0  0999 V2000
  -28.0162   -0.8135   28.8779 C   0  0  0  0  0  0  0  0  0  0  0  0
  -27.0636   -0.1189   28.6079 C   0  0  0  0  0  0  0  0  0  0  0  0
  -25.7923   -0.4302   29.0761 C   0  0  0  0  0  0  0  0  0  0  0  0
  -24.5456    0.3494   28.8225 C   0  0  0  0  0  0  0  0  0  0  0  0
  -24.6586    1.4196   27.8878 C   0  0  0  0  0  0  0  0  0  0  0  0
  -23.5403    2.1791   27.5500 C   0  0  0  0  0  0  0  0  0  0  0  0
  -23.6462    3.2124   26.5935 C   0  0  0  0  0  0  0  0  0  0  0  0
  -27.8921   -1.8910   29.8769 C   0  0  0  0  0  0  0  0  0  0  0  0
  -26.6689   -2.3267   30.3115 C   0  0  0  0  0  0  0  0  0  0  0  0
  -25.5673   -1.5695   29.9726 C   0  0  0  0  0  0  0  0  0  0  0  0
  -24.9729    3.5457   26.1614 C   0  0  0  0  0  0  0  0  0  0  0  0
  -26.0388    2.8787   26.5829 C   0  0  0  0  0  0  0  0  0  0  0  0
  -25.9306    1.8010   27.4568 C   0  0  0  0  0  0  0  0  0  0  0  0
  -27.1106    1.0432   27.7279 C   0  0  0  0  0  0  0  0  0  0  0  0
  -28.3939    1.3411   27.1309 C   0  0  0  0  0  0  0  0  0  0  0  0
  -29.1545    2.3535   27.7296 C   0  0  0  0  0  0  0  0  0  0  0  0
 14 15  1  0
 15 16  2  0
  3  4  1  0
  4  5  2  0
 13 14  2  0
 14  2  1  0
  1  2  2  0
  2  3  1  0
  3 10  2  0
 10  9  1  0
  9  8  2  0
  8  1  1  0
  5  6  1  0
  6  7  2  0
  7 11  1  0
 11 12  2  0
 12 13  1  0
 13  5  1  0
M  END

$$$$
