No_2894-gen_results/8p0m/2024-11-27-11-27-31/
     RDKit          3D

 13 13  0  0  0  0  0  0  0  0999 V2000
  -28.0162   -0.8135   28.8779 C   0  0  0  0  0  0  0  0  0  0  0  0
  -28.4690   -0.7850   29.8287 C   0  0  0  0  0  0  0  0  0  0  0  0
  -27.1356    0.2359   28.5352 C   0  0  0  0  0  0  0  0  0  0  0  0
  -26.8745    1.2825   29.3982 C   0  0  0  0  0  0  0  0  0  0  0  0
  -28.3613    0.1987   30.9244 C   0  0  0  0  0  0  0  0  0  0  0  0
  -27.5277    1.2234   30.6356 C   0  0  0  0  0  0  0  0  0  0  0  0
  -26.3879    0.2914   27.2334 C   0  0  0  0  0  0  0  0  0  0  0  0
  -26.4937    0.9729   26.2859 C   0  0  0  0  0  0  0  0  0  0  0  0
  -27.4082    2.0367   26.3336 C   0  0  0  0  0  0  0  0  0  0  0  0
  -27.9071    2.5498   25.0677 C   0  0  0  0  0  0  0  0  0  0  0  0
  -28.7658    3.6638   25.0808 C   0  0  0  0  0  0  0  0  0  0  0  0
  -29.2419    4.1921   26.2987 C   0  0  0  0  0  0  0  0  0  0  0  0
  -28.7710    3.6399   27.5025 C   0  0  0  0  0  0  0  0  0  0  0  0
  3  7  1  0
  7  8  1  0
  8  9  2  3
  9 10  1  0
 10 11  2  3
 11 12  1  0
 12 13  2  0
  1  2  2  0
  2  5  1  0
  5  6  2  0
  6  4  1  0
  4  3  2  0
  3  1  1  0
M  END

$$$$
