No_2990-gen_results/8p0m/2024-11-27-11-27-31/
     RDKit          3D

  7  6  0  0  0  0  0  0  0  0999 V2000
  -28.0544   -1.0498   28.7246 N   0  0  0  0  0  0  0  0  0  0  0  0
  -26.9659   -0.4722   28.7709 C   0  0  0  0  0  0  0  0  0  0  0  0
  -26.8762    0.8133   29.2194 C   0  0  0  0  0  0  0  0  0  0  0  0
  -28.0285    1.4778   29.6014 C   0  0  0  0  0  0  0  0  0  0  0  0
  -27.9918    2.7864   30.0368 C   0  0  0  0  0  0  0  0  0  0  0  0
  -26.7530    3.4529   30.1077 C   0  0  0  0  0  0  0  0  0  0  0  0
  -25.5418    2.7962   29.7245 C   0  0  0  0  0  0  0  0  0  0  0  0
  1  2  1  0
  2  3  2  3
  3  4  1  0
  4  5  1  0
  5  6  2  3
  6  7  1  0
M  END

$$$$
