No_2993-gen_results/8p0m/2024-11-27-11-27-31/
     RDKit          3D

 10 11  0  0  0  0  0  0  0  0999 V2000
  -28.0544   -1.0498   28.7246 N   0  0  0  0  0  0  0  0  0  0  0  0
  -28.6544   -0.5669   29.5076 C   0  0  0  0  0  0  0  0  0  0  0  0
  -26.6945   -1.3221   29.0236 C   0  0  0  0  0  0  0  0  0  0  0  0
  -25.6917   -1.7368   28.1425 C   0  0  0  0  0  0  0  0  0  0  0  0
  -24.3201   -1.9252   28.7156 C   0  0  0  0  0  0  0  0  0  0  0  0
  -24.0628   -1.5770   29.9795 C   0  0  0  0  0  0  0  0  0  0  0  0
  -26.0309   -1.1524   30.3748 C   0  0  0  0  0  0  0  0  0  0  0  0
  -24.9613   -1.2315   30.8587 C   0  0  0  0  0  0  0  0  0  0  0  0
  -28.4952   -0.5515   30.9152 C   0  0  0  0  0  0  0  0  0  0  0  0
  -27.2668   -0.6739   31.3512 C   0  0  0  0  0  0  0  0  0  0  0  0
  1  2  2  0
  2  9  1  0
  9 10  2  0
 10  7  1  0
  3  1  1  0
  3  4  2  0
  4  5  1  0
  5  6  2  0
  6  8  1  0
  8  7  2  0
  7  3  1  0
M  END

$$$$
