No_2576-gen_results/8p0m/2024-11-27-11-27-31/
     RDKit          3D

 18 19  0  0  0  0  0  0  0  0999 V2000
  -28.0162   -0.8135   28.8779 C   0  0  0  0  0  0  0  0  0  0  0  0
  -27.0636   -0.1190   28.6079 C   0  0  0  0  0  0  0  0  0  0  0  0
  -25.7647   -0.3897   29.0360 C   0  0  0  0  0  0  0  0  0  0  0  0
  -24.5516    0.4058   28.7646 C   0  0  0  0  0  0  0  0  0  0  0  0
  -24.6957    1.4480   27.7988 C   0  0  0  0  0  0  0  0  0  0  0  0
  -25.9755    1.7250   27.3077 C   0  0  0  0  0  0  0  0  0  0  0  0
  -27.0718    1.0134   27.6535 C   0  0  0  0  0  0  0  0  0  0  0  0
  -27.9852   -1.5947   30.1522 C   0  0  0  0  0  0  0  0  0  0  0  0
  -26.7609   -2.1317   30.4947 N   0  0  0  0  0  0  0  0  0  0  0  0
  -25.5869   -1.3733   30.1666 C   0  0  0  0  0  0  0  0  0  0  0  0
  -23.4702    2.2149   27.4495 C   0  0  0  0  0  0  0  0  0  0  0  0
  -23.6983    3.2007   26.7460 F   0  0  0  0  0  0  0  0  0  0  0  0
  -22.8701    2.7370   28.5446 F   0  0  0  0  0  0  0  0  0  0  0  0
  -22.4918    1.4669   26.8747 F   0  0  0  0  0  0  0  0  0  0  0  0
  -28.3471    1.3163   27.0108 C   0  0  0  0  0  0  0  0  0  0  0  0
  -28.3761    1.2297   25.9380 F   0  0  0  0  0  0  0  0  0  0  0  0
  -28.6785    2.5790   27.4979 F   0  0  0  0  0  0  0  0  0  0  0  0
  -29.3959    0.5965   27.4966 F   0  0  0  0  0  0  0  0  0  0  0  0
  3  4  1  0
  4  5  1  0
  5  6  1  0
  2  7  1  0
  6  7  1  0
  5 11  1  0
 11 12  1  0
 11 13  1  0
 11 14  1  0
  7 15  1  0
 15 16  1  0
 15 17  1  0
 15 18  1  0
  1  2  2  0
  2  3  1  0
  3 10  2  0
 10  9  1  0
  9  8  2  0
  8  1  1  0
M  END

$$$$
