No_2672-gen_results/8p0m/2024-11-27-11-27-31/
     RDKit          3D

 13 14  0  0  0  0  0  0  0  0999 V2000
  -28.0544   -1.0498   28.7246 N   0  0  0  0  0  0  0  0  0  0  0  0
  -28.6544   -0.5669   29.5076 C   0  0  0  0  0  0  0  0  0  0  0  0
  -27.2203   -0.1706   28.1254 C   0  0  0  0  0  0  0  0  0  0  0  0
  -27.1115    0.8193   28.3175 C   0  0  0  0  0  0  0  0  0  0  0  0
  -28.7579    0.6919   29.9755 N   0  0  0  0  0  0  0  0  0  0  0  0
  -27.9112    1.4853   29.3340 C   0  0  0  0  0  0  0  0  0  0  0  0
  -26.1618    1.8775   27.6334 C   0  0  0  0  0  0  0  0  0  0  0  0
  -25.3116    1.5478   26.6928 C   0  0  0  0  0  0  0  0  0  0  0  0
  -24.3170    2.4892   26.2080 C   0  0  0  0  0  0  0  0  0  0  0  0
  -24.4006    3.8036   26.6079 C   0  0  0  0  0  0  0  0  0  0  0  0
  -26.0007    3.3102   27.9752 C   0  0  0  0  0  0  0  0  0  0  0  0
  -25.2126    4.2128   27.4693 C   0  0  0  0  0  0  0  0  0  0  0  0
  -29.5422   -1.5310   30.2401 N   0  0  0  0  0  0  0  0  0  0  0  0
  4  7  1  0
  2 13  1  0
  7  8  2  0
  8  9  1  0
  9 10  2  0
 10 12  1  0
 12 11  2  0
 11  7  1  0
  1  2  2  0
  2  5  1  0
  5  6  2  0
  6  4  1  0
  4  3  2  0
  3  1  1  0
M  END

$$$$
