No_2384-gen_results/8p0m/2024-11-27-11-27-31/
     RDKit          3D

 19 20  0  0  0  0  0  0  0  0999 V2000
  -28.1229   -1.3353   28.4874 O   0  0  0  0  0  0  0  0  0  0  0  0
  -27.0637   -0.8242   28.8687 C   0  0  0  0  0  0  0  0  0  0  0  0
  -26.9592    0.0926   29.7582 C   0  0  0  0  0  0  0  0  0  0  0  0
  -25.9002   -1.3969   28.3552 F   0  0  0  0  0  0  0  0  0  0  0  0
  -27.8767    0.6185   30.4060 C   0  0  0  0  0  0  0  0  0  0  0  0
  -27.7564    1.7018   31.3592 C   0  0  0  0  0  0  0  0  0  0  0  0
  -26.4336    2.2555   31.5165 C   0  0  0  0  0  0  0  0  0  0  0  0
  -25.3537    1.7028   30.7900 C   0  0  0  0  0  0  0  0  0  0  0  0
  -25.5434    0.6431   29.9422 C   0  0  0  0  0  0  0  0  0  0  0  0
  -24.0393    2.2870   31.0045 C   0  0  0  0  0  0  0  0  0  0  0  0
  -23.0214    1.5669   30.7269 O   0  0  0  0  0  0  0  0  0  0  0  0
  -23.9031    3.4220   31.6405 O   0  0  0  0  0  0  0  0  0  0  0  0
  -28.8576    2.2698   32.1054 C   0  0  0  0  0  0  0  0  0  0  0  0
  -28.9845    3.4440   32.4564 C   0  0  0  0  0  0  0  0  0  0  0  0
  -30.1131    3.9825   33.2088 C   0  0  0  0  0  0  0  0  0  0  0  0
  -30.2358    5.3003   33.6319 C   0  0  0  0  0  0  0  0  0  0  0  0
  -29.1633    6.1641   33.3147 C   0  0  0  0  0  0  0  0  0  0  0  0
  -28.0349    5.7508   32.6404 C   0  0  0  0  0  0  0  0  0  0  0  0
  -27.9337    4.4222   32.2322 C   0  0  0  0  0  0  0  0  0  0  0  0
  1  2  2  0
  2  3  1  0
  2  4  1  0
  8 10  1  0
 10 11  2  0
 10 12  1  0
  6 13  1  0
 13 14  1  0
 14 15  2  0
 15 16  1  0
 16 17  2  0
 17 18  1  0
 18 19  2  0
 19 14  1  0
  3  5  2  0
  5  6  1  0
  6  7  2  0
  7  8  1  0
  8  9  2  0
  9  3  1  0
M  END

$$$$
