No_2497-gen_results/8p0m/2024-11-27-11-27-31/
     RDKit          3D

  9  9  0  0  0  0  0  0  0  0999 V2000
  -28.1229   -1.3353   28.4874 O   0  0  0  0  0  0  0  0  0  0  0  0
  -27.0637   -0.8242   28.8687 C   0  0  0  0  0  0  0  0  0  0  0  0
  -25.9773   -1.1378   28.8137 N   0  0  0  0  0  0  0  0  0  0  0  0
  -24.7669   -0.3464   29.1634 C   0  0  0  0  0  0  0  0  0  0  0  0
  -27.2591    0.3603   29.7785 N   0  0  0  0  0  0  0  0  0  0  0  0
  -25.0662    0.7161   29.9483 C   0  0  0  0  0  0  0  0  0  0  0  0
  -26.3246    1.0999   30.1848 C   0  0  0  0  0  0  0  0  0  0  0  0
  -23.5173   -0.4857   28.9006 N   0  0  0  0  0  0  0  0  0  0  0  0
  -22.6642    0.3995   29.3277 C   0  0  0  0  0  0  0  0  0  0  0  0
  1  2  2  0
  2  3  1  0
  3  4  1  0
  2  5  1  0
  5  7  1  0
  6  7  1  0
  4  8  1  0
  8  9  2  0
  4  6  1  0
M  END

$$$$
