No_2657-gen_results/8p0m/2024-11-27-11-27-31/
     RDKit          3D

 25 27  0  0  0  0  0  0  0  0999 V2000
  -28.0162   -0.8135   28.8779 C   0  0  0  0  0  0  0  0  0  0  0  0
  -28.4690   -0.7850   29.8287 C   0  0  0  0  0  0  0  0  0  0  0  0
  -28.1816    0.4277   28.1134 C   0  0  0  0  0  0  0  0  0  0  0  0
  -27.4498    0.6435   26.8500 C   0  0  0  0  0  0  0  0  0  0  0  0
  -27.8596    1.4573   25.9076 C   0  0  0  0  0  0  0  0  0  0  0  0
  -29.4263    0.1097   30.4178 C   0  0  0  0  0  0  0  0  0  0  0  0
  -29.6233    1.2198   29.7351 C   0  0  0  0  0  0  0  0  0  0  0  0
  -28.9609    1.4529   28.5513 C   0  0  0  0  0  0  0  0  0  0  0  0
  -27.1733    1.5743   24.7028 C   0  0  0  0  0  0  0  0  0  0  0  0
  -26.0892    0.7468   24.4126 C   0  0  0  0  0  0  0  0  0  0  0  0
  -25.6364   -0.1191   25.3972 C   0  0  0  0  0  0  0  0  0  0  0  0
  -26.2807   -0.2063   26.5817 C   0  0  0  0  0  0  0  0  0  0  0  0
  -30.5459    2.3201   30.2418 C   0  0  0  0  0  0  0  0  0  0  0  0
  -30.8184    2.6174   31.6979 Cl  0  0  0  0  0  0  0  0  0  0  0  0
  -31.2218    3.0666   29.2001 C   0  0  0  0  0  0  0  0  0  0  0  0
  -31.0063    4.3462   29.2717 C   0  0  0  0  0  0  0  0  0  0  0  0
  -30.7797    5.2127   28.8016 C   0  0  0  0  0  0  0  0  0  0  0  0
  -30.3136    5.2666   27.3986 C   0  0  0  0  0  0  0  0  0  0  0  0
  -29.7081    6.3463   26.8127 C   0  0  0  0  0  0  0  0  0  0  0  0
  -28.9069    6.1917   25.6981 C   0  0  0  0  0  0  0  0  0  0  0  0
  -28.9413    4.8984   25.1414 C   0  0  0  0  0  0  0  0  0  0  0  0
  -29.5922    4.2348   26.7053 C   0  0  0  0  0  0  0  0  0  0  0  0
  -28.3187   -2.1646   30.6917 C   0  0  0  0  0  0  0  0  0  0  0  0
  -27.5368   -3.0234   30.3127 O   0  0  0  0  0  0  0  0  0  0  0  0
  -28.7017   -2.2237   31.9300 O   0  0  0  0  0  0  0  0  0  0  0  0
  3  4  1  0
  7 13  1  0
 13 14  1  0
 13 15  1  0
 15 16  2  3
 16 17  1  0
 17 18  2  3
 18 19  1  0
 19 20  2  0
 20 21  1  0
 18 22  1  0
 21 22  2  0
  2 23  1  0
 23 24  2  0
 23 25  1  0
  4  5  2  0
  5  9  1  0
  9 10  2  0
 10 11  1  0
 11 12  2  0
 12  4  1  0
  1  2  2  0
  2  6  1  0
  6  7  2  0
  7  8  1  0
  8  3  2  0
  3  1  1  0
M  END

$$$$
