No_2956-gen_results/8p0m/2024-11-27-11-27-31/
     RDKit          3D

 15 16  0  0  0  0  0  0  0  0999 V2000
  -28.1229   -1.3353   28.4874 O   0  0  0  0  0  0  0  0  0  0  0  0
  -27.4806   -0.4044   28.7094 C   0  0  0  0  0  0  0  0  0  0  0  0
  -27.1904    0.2460   29.5268 C   0  0  0  0  0  0  0  0  0  0  0  0
  -26.8157    0.1371   27.4262 N   0  0  0  0  0  0  0  0  0  0  0  0
  -26.5177    0.6156   30.2044 C   0  0  0  0  0  0  0  0  0  0  0  0
  -25.4600    1.4911   29.4499 C   0  0  0  0  0  0  0  0  0  0  0  0
  -25.1283    1.4730   28.1444 C   0  0  0  0  0  0  0  0  0  0  0  0
  -25.7688    0.8472   27.2259 C   0  0  0  0  0  0  0  0  0  0  0  0
  -28.4082   -0.0759   30.6334 C   0  0  0  0  0  0  0  0  0  0  0  0
  -28.3890   -0.3658   31.6051 C   0  0  0  0  0  0  0  0  0  0  0  0
  -27.2426    0.2626   32.4426 C   0  0  0  0  0  0  0  0  0  0  0  0
  -26.2705    0.9730   31.6665 C   0  0  0  0  0  0  0  0  0  0  0  0
  -23.9437    2.1682   27.5815 C   0  0  0  0  0  0  0  0  0  0  0  0
  -22.6280    2.7258   28.6538 Br  0  0  0  0  0  0  0  0  0  0  0  0
  -23.7832    2.5313   26.1943 C   0  0  0  0  0  0  0  0  0  0  0  0
  1  2  2  0
  2  3  1  0
  2  4  1  0
  6  7  1  0
  4  8  2  0
  7  8  2  0
  7 13  1  0
 13 14  1  0
 13 15  1  0
  6  5  1  0
  3  5  2  0
  5 12  1  0
 12 11  2  0
 11 10  1  0
 10  9  2  0
  9  3  1  0
M  END

$$$$
