No_2160-gen_results/8p0m/2024-11-27-11-27-31/
     RDKit          3D

 19 20  0  0  0  0  0  0  0  0999 V2000
  -28.0162   -0.8135   28.8779 C   0  0  0  0  0  0  0  0  0  0  0  0
  -28.4690   -0.7850   29.8287 C   0  0  0  0  0  0  0  0  0  0  0  0
  -26.5042   -0.7777   28.8766 C   0  0  0  0  0  0  0  0  0  0  0  0
  -25.8103   -0.8531   30.1028 C   0  0  0  0  0  0  0  0  0  0  0  0
  -27.9906   -0.8916   31.2257 C   0  0  0  0  0  0  0  0  0  0  0  0
  -26.6042   -0.8676   31.2652 C   0  0  0  0  0  0  0  0  0  0  0  0
  -30.3170   -0.9202   29.9223 Cl  0  0  0  0  0  0  0  0  0  0  0  0
  -24.3704   -0.8041   30.1340 C   0  0  0  0  0  0  0  0  0  0  0  0
  -23.8030    0.5560   30.1126 C   0  0  0  0  0  0  0  0  0  0  0  0
  -23.3829    1.1094   28.8949 C   0  0  0  0  0  0  0  0  0  0  0  0
  -23.9978    2.2212   28.2698 C   0  0  0  0  0  0  0  0  0  0  0  0
  -24.9823    2.8959   28.8807 C   0  0  0  0  0  0  0  0  0  0  0  0
  -25.6322    3.9694   28.2632 C   0  0  0  0  0  0  0  0  0  0  0  0
  -25.2348    4.2433   26.9650 C   0  0  0  0  0  0  0  0  0  0  0  0
  -24.3072    3.5397   26.2187 C   0  0  0  0  0  0  0  0  0  0  0  0
  -23.6423    2.5161   26.9276 C   0  0  0  0  0  0  0  0  0  0  0  0
  -22.1355    0.5291   28.4497 C   0  0  0  0  0  0  0  0  0  0  0  0
  -25.7143   -0.5793   27.3915 Cl  0  0  0  0  0  0  0  0  0  0  0  0
  -22.7891    0.8530   31.2685 C   0  0  0  0  0  0  0  0  0  0  0  0
  2  7  1  0
  4  8  1  0
  8  9  1  0
  9 10  1  0
 10 11  1  0
 10 17  1  0
  3 18  1  0
  9 19  1  0
 11 12  2  0
 12 13  1  0
 13 14  2  0
 14 15  1  0
 15 16  2  0
 16 11  1  0
  1  2  2  0
  2  5  1  0
  5  6  2  0
  6  4  1  0
  4  3  2  0
  3  1  1  0
M  END

$$$$
