No_2288-gen_results/8p0m/2024-11-27-11-27-31/
     RDKit          3D

 12 12  0  0  0  0  0  0  0  0999 V2000
  -28.0162   -0.8135   28.8779 C   0  0  0  0  0  0  0  0  0  0  0  0
  -28.4690   -0.7850   29.8287 C   0  0  0  0  0  0  0  0  0  0  0  0
  -27.0871    0.2903   28.6377 C   0  0  0  0  0  0  0  0  0  0  0  0
  -26.9102    0.8486   27.4199 C   0  0  0  0  0  0  0  0  0  0  0  0
  -29.6069   -1.6266   30.1338 C   0  0  0  0  0  0  0  0  0  0  0  0
  -25.7234    1.3208   27.0407 C   0  0  0  0  0  0  0  0  0  0  0  0
  -24.6229    1.5356   27.9411 C   0  0  0  0  0  0  0  0  0  0  0  0
  -24.7675    0.9407   29.1933 C   0  0  0  0  0  0  0  0  0  0  0  0
  -25.9505    0.2472   29.4560 C   0  0  0  0  0  0  0  0  0  0  0  0
  -29.5925   -2.7078   30.7727 C   0  0  0  0  0  0  0  0  0  0  0  0
  -28.8889   -3.4280   30.7533 C   0  0  0  0  0  0  0  0  0  0  0  0
  -28.9718   -4.7657   31.2654 N   0  0  0  0  0  0  0  0  0  0  0  0
  1  2  1  0
  1  3  1  0
  2  5  1  0
  5 10  2  3
 10 11  1  0
 11 12  2  0
  3  4  2  0
  4  6  1  0
  6  7  2  0
  7  8  1  0
  8  9  2  0
  9  3  1  0
M  END

$$$$
