No_2644-gen_results/8p0m/2024-11-27-11-27-31/
     RDKit          3D

 11 12  0  0  0  0  0  0  0  0999 V2000
  -28.0162   -0.8135   28.8779 C   0  0  0  0  0  0  0  0  0  0  0  0
  -28.4690   -0.7850   29.8287 C   0  0  0  0  0  0  0  0  0  0  0  0
  -27.1356    0.2359   28.5352 C   0  0  0  0  0  0  0  0  0  0  0  0
  -26.8745    1.2825   29.3982 C   0  0  0  0  0  0  0  0  0  0  0  0
  -28.3613    0.1987   30.9244 C   0  0  0  0  0  0  0  0  0  0  0  0
  -27.5277    1.2234   30.6356 C   0  0  0  0  0  0  0  0  0  0  0  0
  -26.4533    0.0749   27.2390 C   0  0  0  0  0  0  0  0  0  0  0  0
  -25.7051    1.2405   26.7726 C   0  0  0  0  0  0  0  0  0  0  0  0
  -25.2809    2.1406   27.6563 C   0  0  0  0  0  0  0  0  0  0  0  0
  -25.9957    2.2779   28.9502 C   0  0  0  0  0  0  0  0  0  0  0  0
  -25.6888    3.3135   29.7265 F   0  0  0  0  0  0  0  0  0  0  0  0
 10 11  1  0
  4 10  2  0
 10  9  1  0
  9  8  2  0
  8  7  1  0
  7  3  2  0
  1  2  2  0
  2  5  1  0
  5  6  2  0
  6  4  1  0
  4  3  1  0
  3  1  1  0
M  END

$$$$
