No_2455-gen_results/8p0m/2024-11-27-11-27-31/
     RDKit          3D

 13 14  0  0  0  0  0  0  0  0999 V2000
  -28.1229   -1.3353   28.4874 O   0  0  0  0  0  0  0  0  0  0  0  0
  -27.4806   -0.4044   28.7094 C   0  0  0  0  0  0  0  0  0  0  0  0
  -26.3804   -0.0867   27.9394 C   0  0  0  0  0  0  0  0  0  0  0  0
  -27.4232    0.1749   30.0549 N   0  0  0  0  0  0  0  0  0  0  0  0
  -25.4065    0.7421   28.2860 C   0  0  0  0  0  0  0  0  0  0  0  0
  -24.3010    1.1589   27.4854 C   0  0  0  0  0  0  0  0  0  0  0  0
  -23.2507    1.9038   28.0519 C   0  0  0  0  0  0  0  0  0  0  0  0
  -23.3091    1.9789   29.4181 N   0  0  0  0  0  0  0  0  0  0  0  0
  -24.2261    1.5168   30.2792 C   0  0  0  0  0  0  0  0  0  0  0  0
  -25.2741    0.8219   29.6817 C   0  0  0  0  0  0  0  0  0  0  0  0
  -26.3766    0.5612   30.5550 C   0  0  0  0  0  0  0  0  0  0  0  0
  -24.0296    1.8369   31.4987 O   0  0  0  0  0  0  0  0  0  0  0  0
  -28.4654   -0.5552   30.9430 C   0  0  0  0  0  0  0  0  0  0  0  0
  1  2  2  0
  2  3  1  0
  2  4  1  0
  3  5  1  0
  6  7  1  0
  8  9  1  0
  5 10  1  0
  9 10  1  0
  4 11  1  0
 10 11  1  0
  9 12  2  0
  4 13  1  0
  8  7  1  0
  6  5  1  0
M  END

$$$$
