No_2850-gen_results/8p0m/2024-11-27-11-27-31/
     RDKit          3D

 21 23  0  0  0  0  0  0  0  0999 V2000
  -28.0162   -0.8135   28.8779 C   0  0  0  0  0  0  0  0  0  0  0  0
  -27.0636   -0.1190   28.6079 C   0  0  0  0  0  0  0  0  0  0  0  0
  -27.0010    0.6913   27.4910 C   0  0  0  0  0  0  0  0  0  0  0  0
  -25.7770    1.0214   26.9135 C   0  0  0  0  0  0  0  0  0  0  0  0
  -24.5088    0.7364   27.5686 C   0  0  0  0  0  0  0  0  0  0  0  0
  -24.5930   -0.0361   28.7390 C   0  0  0  0  0  0  0  0  0  0  0  0
  -25.8114   -0.4771   29.1584 C   0  0  0  0  0  0  0  0  0  0  0  0
  -29.2371   -0.0330   29.2429 C   0  0  0  0  0  0  0  0  0  0  0  0
  -29.1579    1.2285   29.0769 C   0  0  0  0  0  0  0  0  0  0  0  0
  -28.8271    1.9724   27.9237 C   0  0  0  0  0  0  0  0  0  0  0  0
  -29.4599    3.2024   27.6837 C   0  0  0  0  0  0  0  0  0  0  0  0
  -27.6847    1.6857   27.1766 C   0  0  0  0  0  0  0  0  0  0  0  0
  -23.2694   -0.4229   29.3769 C   0  0  0  0  0  0  0  0  0  0  0  0
  -23.1971   -1.3322   30.2459 C   0  0  0  0  0  0  0  0  0  0  0  0
  -22.1055    0.2797   28.8377 C   0  0  0  0  0  0  0  0  0  0  0  0
  -22.1344    1.3399   28.1604 N   0  0  0  0  0  0  0  0  0  0  0  0
  -23.3241    1.5847   27.3145 C   0  0  0  0  0  0  0  0  0  0  0  0
  -23.2784    2.4863   26.4650 O   0  0  0  0  0  0  0  0  0  0  0  0
  -29.8095    4.0307   28.4877 N   0  0  0  0  0  0  0  0  0  0  0  0
  -29.6212    4.9438   28.9857 C   0  0  0  0  0  0  0  0  0  0  0  0
  -30.1580    5.4505   30.2542 C   0  0  0  0  0  0  0  0  0  0  0  0
  1  2  1  0
  1  8  2  0
  8  9  1  0
  9 10  2  0
 10 11  1  0
  3 12  1  0
 10 12  1  0
  6 13  1  0
 13 14  1  0
 13 15  1  0
  5 17  1  0
 16 17  1  0
 17 18  2  0
 11 19  1  0
 19 20  1  0
 20 21  2  0
 15 16  1  0
  2  3  2  0
  3  4  1  0
  4  5  2  0
  5  6  1  0
  6  7  2  0
  7  2  1  0
M  END

$$$$
