No_27-gen_results/8p0m/2024-11-27-11-27-31/
     RDKit          3D

 21 23  0  0  0  0  0  0  0  0999 V2000
  -28.0162   -0.8135   28.8779 C   0  0  0  0  0  0  0  0  0  0  0  0
  -27.0636   -0.1190   28.6079 C   0  0  0  0  0  0  0  0  0  0  0  0
  -27.0010    0.6913   27.4910 C   0  0  0  0  0  0  0  0  0  0  0  0
  -28.1373    0.7363   26.6350 C   0  0  0  0  0  0  0  0  0  0  0  0
  -28.1438    1.4323   25.4880 C   0  0  0  0  0  0  0  0  0  0  0  0
  -27.9644   -1.5920   30.1433 C   0  0  0  0  0  0  0  0  0  0  0  0
  -26.7347   -1.8442   30.6959 C   0  0  0  0  0  0  0  0  0  0  0  0
  -25.5743   -1.2494   30.2886 C   0  0  0  0  0  0  0  0  0  0  0  0
  -25.6965   -0.3422   29.2120 C   0  0  0  0  0  0  0  0  0  0  0  0
  -26.9867    2.1034   25.0389 C   0  0  0  0  0  0  0  0  0  0  0  0
  -25.8299    2.0481   25.7778 C   0  0  0  0  0  0  0  0  0  0  0  0
  -25.8106    1.3524   26.9450 C   0  0  0  0  0  0  0  0  0  0  0  0
  -29.1469   -2.3527   30.6315 C   0  0  0  0  0  0  0  0  0  0  0  0
  -30.0146   -1.9226   31.0538 O   0  0  0  0  0  0  0  0  0  0  0  0
  -29.0774   -3.7060   30.2157 O   0  0  0  0  0  0  0  0  0  0  0  0
  -29.3386    1.5560   24.6477 C   0  0  0  0  0  0  0  0  0  0  0  0
  -30.5124    1.8886   25.3872 C   0  0  0  0  0  0  0  0  0  0  0  0
  -31.6955    1.9869   24.7042 C   0  0  0  0  0  0  0  0  0  0  0  0
  -31.7069    1.6396   23.3437 C   0  0  0  0  0  0  0  0  0  0  0  0
  -30.5658    1.3335   22.6680 C   0  0  0  0  0  0  0  0  0  0  0  0
  -29.3471    1.2692   23.3336 C   0  0  0  0  0  0  0  0  0  0  0  0
  6 13  1  0
 13 14  2  0
 13 15  1  0
  5 16  1  0
  2  3  1  0
  3  4  2  0
  4  5  1  0
  5 10  2  0
 10 11  1  0
 11 12  2  0
 12  3  1  0
  1  2  2  0
  2  9  1  0
  9  8  2  0
  8  7  1  0
  7  6  2  0
  6  1  1  0
 16 17  2  0
 17 18  1  0
 18 19  2  0
 19 20  1  0
 20 21  2  0
 21 16  1  0
M  END

$$$$
