No_288-gen_results/8p0m/2024-11-27-11-27-31/
     RDKit          3D

 24 25  0  0  0  0  0  0  0  0999 V2000
  -28.0162   -0.8135   28.8779 C   0  0  0  0  0  0  0  0  0  0  0  0
  -28.4690   -0.7850   29.8287 C   0  0  0  0  0  0  0  0  0  0  0  0
  -27.0871    0.2903   28.6377 C   0  0  0  0  0  0  0  0  0  0  0  0
  -26.7676    1.0274   29.4716 C   0  0  0  0  0  0  0  0  0  0  0  0
  -28.2764    0.0268   31.0145 C   0  0  0  0  0  0  0  0  0  0  0  0
  -27.3287    1.0538   30.7535 C   0  0  0  0  0  0  0  0  0  0  0  0
  -26.4771    0.2620   27.3935 F   0  0  0  0  0  0  0  0  0  0  0  0
  -29.4181   -1.8682   30.1908 O   0  0  0  0  0  0  0  0  0  0  0  0
  -29.1772   -3.1461   30.3662 C   0  0  0  0  0  0  0  0  0  0  0  0
  -25.6089    2.4246   29.1433 S   0  0  0  0  0  0  0  0  0  0  0  0
  -24.4488    2.0866   29.5379 O   0  0  0  0  0  0  0  0  0  0  0  0
  -25.6809    2.6551   27.6542 O   0  0  0  0  0  0  0  0  0  0  0  0
  -26.2324    3.7489   29.8872 N   0  0  0  0  0  0  0  0  0  0  0  0
  -27.1421    4.5422   29.3902 C   0  0  0  0  0  0  0  0  0  0  0  0
  -27.9241    5.0541   30.3381 C   0  0  0  0  0  0  0  0  0  0  0  0
  -27.2871    4.9404   31.5770 C   0  0  0  0  0  0  0  0  0  0  0  0
  -26.4139    3.7224   31.4282 C   0  0  0  0  0  0  0  0  0  0  0  0
  -27.8721   -3.5319   30.6322 C   0  0  0  0  0  0  0  0  0  0  0  0
  -30.1365   -4.0913   30.2127 C   0  0  0  0  0  0  0  0  0  0  0  0
  -26.8673   -2.7042   30.6934 O   0  0  0  0  0  0  0  0  0  0  0  0
  -30.9677   -4.1524   29.3907 N   0  0  0  0  0  0  0  0  0  0  0  0
  -31.9871   -4.5189   29.1922 C   0  0  0  0  0  0  0  0  0  0  0  0
  -32.8225   -4.4003   27.9686 C   0  0  0  0  0  0  0  0  0  0  0  0
  -33.5467   -4.9601   27.4169 C   0  0  0  0  0  0  0  0  0  0  0  0
  3  7  1  0
  2  8  1  0
  8  9  1  0
  4 10  1  0
 10 11  2  0
 10 12  2  0
 10 13  1  0
 13 14  1  0
 14 15  2  0
 15 16  1  0
 13 17  1  0
 16 17  2  0
  9 18  2  3
  9 19  1  0
 18 20  1  0
 19 21  1  0
 21 22  2  3
 22 23  1  0
 23 24  2  0
  1  2  2  0
  2  5  1  0
  5  6  2  0
  6  4  1  0
  4  3  2  0
  3  1  1  0
M  END

$$$$
