No_2248-gen_results/8p0m/2024-11-27-11-27-31/
     RDKit          3D

 16 16  0  0  0  0  0  0  0  0999 V2000
  -28.0162   -0.8135   28.8779 C   0  0  0  0  0  0  0  0  0  0  0  0
  -28.4690   -0.7850   29.8287 C   0  0  0  0  0  0  0  0  0  0  0  0
  -26.5455   -0.8762   28.8500 C   0  0  0  0  0  0  0  0  0  0  0  0
  -25.8041   -1.0324   30.0571 C   0  0  0  0  0  0  0  0  0  0  0  0
  -26.5373   -1.0386   31.2171 C   0  0  0  0  0  0  0  0  0  0  0  0
  -27.8843   -0.9532   31.1862 C   0  0  0  0  0  0  0  0  0  0  0  0
  -24.3655   -1.1134   30.0483 C   0  0  0  0  0  0  0  0  0  0  0  0
  -23.6254   -0.9434   29.0230 C   0  0  0  0  0  0  0  0  0  0  0  0
  -24.0623   -0.2052   27.9349 C   0  0  0  0  0  0  0  0  0  0  0  0
  -25.8333   -0.5661   27.5939 C   0  0  0  0  0  0  0  0  0  0  0  0
  -26.0400   -2.0933   28.5964 N   0  0  0  0  0  0  0  0  0  0  0  0
  -26.1999    0.0031   26.4299 C   0  0  0  0  0  0  0  0  0  0  0  0
  -25.7444   -0.9650   26.6740 O   0  0  0  0  0  0  0  0  0  0  0  0
  -25.6083    0.7184   28.2558 O   0  0  0  0  0  0  0  0  0  0  0  0
  -25.4966    1.7699   28.6921 C   0  0  0  0  0  0  0  0  0  0  0  0
  -25.8145   -3.1686   28.7224 C   0  0  0  0  0  0  0  0  0  0  0  0
  4  7  1  0
  7  8  2  3
  8  9  1  0
  9 10  2  3
  3 11  1  0
 10 12  1  0
 12 13  1  0
 10 14  1  0
 14 15  1  0
 11 16  1  0
  1  2  2  0
  2  6  1  0
  6  5  2  0
  5  4  1  0
  4  3  2  0
  3  1  1  0
M  END

$$$$
