No_2055-gen_results/8p0m/2024-11-27-11-27-31/
     RDKit          3D

 25 26  0  0  0  0  0  0  0  0999 V2000
  -28.0162   -0.8135   28.8779 C   0  0  0  0  0  0  0  0  0  0  0  0
  -28.4690   -0.7850   29.8287 C   0  0  0  0  0  0  0  0  0  0  0  0
  -26.5042   -0.7777   28.8766 C   0  0  0  0  0  0  0  0  0  0  0  0
  -25.8103   -0.8531   30.1028 C   0  0  0  0  0  0  0  0  0  0  0  0
  -27.9906   -0.8916   31.2257 C   0  0  0  0  0  0  0  0  0  0  0  0
  -26.6042   -0.8676   31.2652 C   0  0  0  0  0  0  0  0  0  0  0  0
  -30.0739   -0.8360   29.8615 C   0  0  0  0  0  0  0  0  0  0  0  0
  -30.4860   -0.5896   28.8487 F   0  0  0  0  0  0  0  0  0  0  0  0
  -30.5162   -2.0731   30.3017 F   0  0  0  0  0  0  0  0  0  0  0  0
  -30.5425    0.0617   30.7005 F   0  0  0  0  0  0  0  0  0  0  0  0
  -25.5101   -0.7015   27.4827 Cl  0  0  0  0  0  0  0  0  0  0  0  0
  -24.5002   -0.7787   30.1926 O   0  0  0  0  0  0  0  0  0  0  0  0
  -23.7257    0.3525   29.9875 C   0  0  0  0  0  0  0  0  0  0  0  0
  -23.3617    0.7550   28.7448 C   0  0  0  0  0  0  0  0  0  0  0  0
  -21.9779    0.5187   28.3980 C   0  0  0  0  0  0  0  0  0  0  0  0
  -21.5484    1.1312   27.1799 C   0  0  0  0  0  0  0  0  0  0  0  0
  -22.4491    2.0274   26.5037 C   0  0  0  0  0  0  0  0  0  0  0  0
  -23.7232    2.2327   26.9456 C   0  0  0  0  0  0  0  0  0  0  0  0
  -24.0974    1.7112   28.1409 C   0  0  0  0  0  0  0  0  0  0  0  0
  -24.5268    3.2449   26.2218 C   0  0  0  0  0  0  0  0  0  0  0  0
  -25.9159    3.0579   26.3064 C   0  0  0  0  0  0  0  0  0  0  0  0
  -26.7815    4.0561   26.6618 C   0  0  0  0  0  0  0  0  0  0  0  0
  -28.1975    3.8708   26.5527 C   0  0  0  0  0  0  0  0  0  0  0  0
  -28.6270    2.6440   26.0012 C   0  0  0  0  0  0  0  0  0  0  0  0
  -27.8086    1.6879   25.5918 C   0  0  0  0  0  0  0  0  0  0  0  0
  2  7  1  0
  7  8  1  0
  7  9  1  0
  7 10  1  0
  3 11  1  0
  4 12  1  0
 12 13  1  0
 13 14  1  0
 18 20  1  0
 20 21  2  3
 21 22  1  0
 22 23  2  3
 23 24  1  0
 24 25  2  0
 14 15  2  0
 15 16  1  0
 16 17  2  0
 17 18  1  0
 18 19  2  0
 19 14  1  0
  1  2  2  0
  2  5  1  0
  5  6  2  0
  6  4  1  0
  4  3  2  0
  3  1  1  0
M  END

$$$$
