No_2653-gen_results/8p0m/2024-11-27-11-27-31/
     RDKit          3D

 35 37  0  0  0  0  0  0  0  0999 V2000
  -28.0162   -0.8135   28.8779 C   0  0  0  0  0  0  0  0  0  0  0  0
  -27.0636   -0.1190   28.6079 C   0  0  0  0  0  0  0  0  0  0  0  0
  -25.7923   -0.4302   29.0761 C   0  0  0  0  0  0  0  0  0  0  0  0
  -24.5456    0.3494   28.8225 C   0  0  0  0  0  0  0  0  0  0  0  0
  -24.6586    1.4196   27.8878 C   0  0  0  0  0  0  0  0  0  0  0  0
  -25.9471    1.6811   27.3792 C   0  0  0  0  0  0  0  0  0  0  0  0
  -27.0439    0.9739   27.6871 C   0  0  0  0  0  0  0  0  0  0  0  0
  -28.6567   -0.5529   30.0960 N   0  0  0  0  0  0  0  0  0  0  0  0
  -28.5841    0.2509   30.7384 C   0  0  0  0  0  0  0  0  0  0  0  0
  -28.7996    0.8319   31.7151 C   0  0  0  0  0  0  0  0  0  0  0  0
  -29.0037    1.9598   32.5040 C   0  0  0  0  0  0  0  0  0  0  0  0
  -28.9760    2.9949   33.0196 C   0  0  0  0  0  0  0  0  0  0  0  0
  -23.4569    2.1655   27.5857 C   0  0  0  0  0  0  0  0  0  0  0  0
  -22.2539    1.7708   28.0859 N   0  0  0  0  0  0  0  0  0  0  0  0
  -23.5021    3.0193   26.6520 O   0  0  0  0  0  0  0  0  0  0  0  0
  -28.9219    4.0936   33.6337 C   0  0  0  0  0  0  0  0  0  0  0  0
  -28.4923    5.2454   32.9519 C   0  0  0  0  0  0  0  0  0  0  0  0
  -28.4452    6.5139   33.6748 C   0  0  0  0  0  0  0  0  0  0  0  0
  -28.8333    6.4757   35.0199 C   0  0  0  0  0  0  0  0  0  0  0  0
  -29.2119    5.3270   35.6363 C   0  0  0  0  0  0  0  0  0  0  0  0
  -29.1962    4.1697   35.0144 C   0  0  0  0  0  0  0  0  0  0  0  0
  -29.7826   -1.5553   30.3772 C   0  0  0  0  0  0  0  0  0  0  0  0
  -31.0547   -1.1566   30.1856 C   0  0  0  0  0  0  0  0  0  0  0  0
  -31.9167   -1.9944   30.3053 N   0  0  0  0  0  0  0  0  0  0  0  0
  -32.1115   -2.5766   31.3513 C   0  0  0  0  0  0  0  0  0  0  0  0
  -30.8763   -3.1963   31.9255 C   0  0  0  0  0  0  0  0  0  0  0  0
  -29.5718   -2.5719   31.4498 C   0  0  0  0  0  0  0  0  0  0  0  0
  -32.9081   -2.2423   29.2182 C   0  0  0  0  0  0  0  0  0  0  0  0
  -32.4760   -2.7547   28.1181 C   0  0  0  0  0  0  0  0  0  0  0  0
  -31.7332   -3.5026   28.0374 O   0  0  0  0  0  0  0  0  0  0  0  0
  -32.6344   -1.9629   26.9490 N   0  0  0  0  0  0  0  0  0  0  0  0
  -32.0934   -2.3509   25.6010 C   0  0  0  0  0  0  0  0  0  0  0  0
  -33.5192   -0.8171   26.7933 C   0  0  0  0  0  0  0  0  0  0  0  0
  -30.9590   -1.3598   25.1687 C   0  0  0  0  0  0  0  0  0  0  0  0
  -30.7569   -0.2243   25.8642 C   0  0  0  0  0  0  0  0  0  0  0  0
  1  2  1  0
  1  8  1  0
  8  9  1  0
  9 10  2  3
 10 11  1  0
 11 12  2  3
  5 13  1  0
 13 14  1  0
 13 15  2  0
 12 16  1  0
  8 22  1  0
 22 23  1  0
 23 24  1  0
 24 25  1  0
 25 26  1  0
 22 27  1  0
 24 28  1  0
 28 29  1  0
 29 30  2  0
 29 31  1  0
 31 32  1  0
 31 33  1  0
 32 34  1  0
 34 35  1  0
 27 26  1  0
  2  3  2  0
  3  4  1  0
  4  5  2  0
  5  6  1  0
  6  7  2  0
  7  2  1  0
 16 17  2  0
 17 18  1  0
 18 19  2  0
 19 20  1  0
 20 21  2  0
 21 16  1  0
M  END

$$$$
