No_2041-gen_results/8p0m/2024-11-27-11-27-31/
     RDKit          3D

 26 27  0  0  0  0  0  0  0  0999 V2000
  -28.0162   -0.8135   28.8779 C   0  0  0  0  0  0  0  0  0  0  0  0
  -27.0636   -0.1190   28.6079 C   0  0  0  0  0  0  0  0  0  0  0  0
  -26.9716    0.7139   27.5060 C   0  0  0  0  0  0  0  0  0  0  0  0
  -28.1053    0.7744   26.6421 C   0  0  0  0  0  0  0  0  0  0  0  0
  -29.2008    0.1044   27.0527 C   0  0  0  0  0  0  0  0  0  0  0  0
  -29.2096   -0.6029   28.1853 C   0  0  0  0  0  0  0  0  0  0  0  0
  -30.3044    0.2267   26.2604 O   0  0  0  0  0  0  0  0  0  0  0  0
  -25.7141   -0.2197   29.4065 C   0  0  0  0  0  0  0  0  0  0  0  0
  -25.4132   -1.0544   30.0373 C   0  0  0  0  0  0  0  0  0  0  0  0
  -24.1409   -1.1883   30.8108 C   0  0  0  0  0  0  0  0  0  0  0  0
  -23.8070   -1.9741   31.7558 C   0  0  0  0  0  0  0  0  0  0  0  0
  -23.0458   -0.2276   30.2569 C   0  0  0  0  0  0  0  0  0  0  0  0
  -23.4184    0.7091   29.3115 C   0  0  0  0  0  0  0  0  0  0  0  0
  -24.6939    0.6707   28.7513 C   0  0  0  0  0  0  0  0  0  0  0  0
  -30.4318   -0.5737   25.2414 C   0  0  0  0  0  0  0  0  0  0  0  0
  -22.3714    1.5825   28.7811 C   0  0  0  0  0  0  0  0  0  0  0  0
  -21.4003    1.7999   29.4091 F   0  0  0  0  0  0  0  0  0  0  0  0
  -22.4705    2.0669   27.5933 F   0  0  0  0  0  0  0  0  0  0  0  0
  -28.0390    1.6396   25.4482 C   0  0  0  0  0  0  0  0  0  0  0  0
  -28.1063    2.6649   25.4952 C   0  0  0  0  0  0  0  0  0  0  0  0
  -27.8506    0.8479   24.2263 C   0  0  0  0  0  0  0  0  0  0  0  0
  -27.7481    3.5738   26.6538 C   0  0  0  0  0  0  0  0  0  0  0  0
  -28.2448    4.6674   27.2141 C   0  0  0  0  0  0  0  0  0  0  0  0
  -27.8678    5.2797   28.3339 C   0  0  0  0  0  0  0  0  0  0  0  0
  -26.8119    4.7364   29.0863 C   0  0  0  0  0  0  0  0  0  0  0  0
  -26.1187    3.6079   28.6002 C   0  0  0  0  0  0  0  0  0  0  0  0
  5  7  1  0
  2  8  1  0
  7 15  1  0
 13 16  1  0
 16 17  1  0
 16 18  1  0
  4 19  1  0
 19 20  1  0
 19 21  1  0
 20 22  2  3
 22 23  1  0
 23 24  2  3
 24 25  1  0
 25 26  2  0
 11 10  1  0
  1  2  2  0
  2  3  1  0
  3  4  2  0
  4  5  1  0
  5  6  2  0
  6  1  1  0
  8  9  2  0
  9 10  1  0
 10 12  2  0
 12 13  1  0
 13 14  2  0
 14  8  1  0
M  END

$$$$
