No_2091-gen_results/8p0m/2024-11-27-11-27-31/
     RDKit          3D

 19 20  0  0  0  0  0  0  0  0999 V2000
  -28.0162   -0.8135   28.8779 C   0  0  0  0  0  0  0  0  0  0  0  0
  -28.4690   -0.7850   29.8287 C   0  0  0  0  0  0  0  0  0  0  0  0
  -26.5042   -0.7777   28.8766 C   0  0  0  0  0  0  0  0  0  0  0  0
  -25.8103   -0.8531   30.1028 C   0  0  0  0  0  0  0  0  0  0  0  0
  -30.0136   -0.8410   29.8508 C   0  0  0  0  0  0  0  0  0  0  0  0
  -24.3668   -0.8189   30.1382 C   0  0  0  0  0  0  0  0  0  0  0  0
  -23.8230    0.5080   30.1227 C   0  0  0  0  0  0  0  0  0  0  0  0
  -22.6871    0.6589   29.2569 C   0  0  0  0  0  0  0  0  0  0  0  0
  -27.9139   -0.9590   31.2085 C   0  0  0  0  0  0  0  0  0  0  0  0
  -26.5259   -0.9721   31.3017 C   0  0  0  0  0  0  0  0  0  0  0  0
  -21.9350   -0.4699   28.9246 C   0  0  0  0  0  0  0  0  0  0  0  0
  -22.5078   -1.7204   29.0166 C   0  0  0  0  0  0  0  0  0  0  0  0
  -23.7619   -1.7352   29.2007 C   0  0  0  0  0  0  0  0  0  0  0  0
  -30.5005   -0.3644   28.9225 O   0  0  0  0  0  0  0  0  0  0  0  0
  -30.7037   -0.9997   30.9695 O   0  0  0  0  0  0  0  0  0  0  0  0
  -23.9184   -1.3285   31.6475 C   0  0  0  0  0  0  0  0  0  0  0  0
  -24.3513    1.6816   30.8175 C   0  0  0  0  0  0  0  0  0  0  0  0
  -24.8403    2.6575   30.1853 O   0  0  0  0  0  0  0  0  0  0  0  0
  -24.2635    1.7548   32.1382 O   0  0  0  0  0  0  0  0  0  0  0  0
  2  5  1  0
  4  6  1  0
  6  7  1  0
  8 11  1  0
  6 13  1  0
 12 13  1  0
  5 14  2  0
  5 15  1  0
  6 16  1  0
  7 17  1  0
 17 18  2  0
 17 19  1  0
  7  8  1  0
 11 12  1  0
  1  2  2  0
  2  9  1  0
  9 10  2  0
 10  4  1  0
  4  3  2  0
  3  1  1  0
M  END

$$$$
