No_2982-gen_results/8p0m/2024-11-27-11-27-31/
     RDKit          3D

 19 20  0  0  0  0  0  0  0  0999 V2000
  -28.0162   -0.8135   28.8779 C   0  0  0  0  0  0  0  0  0  0  0  0
  -27.0636   -0.1189   28.6079 C   0  0  0  0  0  0  0  0  0  0  0  0
  -26.9716    0.7139   27.5060 C   0  0  0  0  0  0  0  0  0  0  0  0
  -28.1053    0.7744   26.6421 C   0  0  0  0  0  0  0  0  0  0  0  0
  -29.2008    0.1044   27.0527 C   0  0  0  0  0  0  0  0  0  0  0  0
  -29.2096   -0.6029   28.1853 C   0  0  0  0  0  0  0  0  0  0  0  0
  -30.3749    0.2232   26.1670 C   0  0  0  0  0  0  0  0  0  0  0  0
  -30.3985    0.2585   24.5213 P   0  0  0  0  0  0  0  0  0  0  0  0
  -31.1997   -0.6556   23.9724 O   0  0  0  0  0  0  0  0  0  0  0  0
  -28.8556   -0.0511   24.2406 O   0  0  0  0  0  0  0  0  0  0  0  0
  -30.6230    1.7045   24.1677 O   0  0  0  0  0  0  0  0  0  0  0  0
  -31.2108   -0.9306   26.5352 F   0  0  0  0  0  0  0  0  0  0  0  0
  -31.1400    1.2378   26.7074 F   0  0  0  0  0  0  0  0  0  0  0  0
  -25.7231   -0.2108   29.4438 C   0  0  0  0  0  0  0  0  0  0  0  0
  -25.1196   -1.3530   29.7242 C   0  0  0  0  0  0  0  0  0  0  0  0
  -23.9192   -1.4406   30.4135 C   0  0  0  0  0  0  0  0  0  0  0  0
  -23.1634   -0.2998   30.6953 C   0  0  0  0  0  0  0  0  0  0  0  0
  -23.7143    0.8982   30.3158 C   0  0  0  0  0  0  0  0  0  0  0  0
  -24.9661    0.9737   29.6538 C   0  0  0  0  0  0  0  0  0  0  0  0
  5  7  1  0
  7  8  1  0
  8  9  2  0
  8 10  1  0
  8 11  1  0
  7 12  1  0
  7 13  1  0
  2 14  1  0
  1  2  2  0
  2  3  1  0
  3  4  2  0
  4  5  1  0
  5  6  2  0
  6  1  1  0
 14 15  2  0
 15 16  1  0
 16 17  2  0
 17 18  1  0
 18 19  2  0
 19 14  1  0
M  END

$$$$
