No_2380-gen_results/8p0m/2024-11-27-11-27-31/
     RDKit          3D

 30 31  0  0  0  0  0  0  0  0999 V2000
  -28.0162   -0.8135   28.8779 C   0  0  0  0  0  0  0  0  0  0  0  0
  -27.0636   -0.1189   28.6079 C   0  0  0  0  0  0  0  0  0  0  0  0
  -25.7923   -0.4302   29.0761 C   0  0  0  0  0  0  0  0  0  0  0  0
  -25.5756   -1.5654   29.9363 C   0  0  0  0  0  0  0  0  0  0  0  0
  -26.7354   -2.3004   30.2173 C   0  0  0  0  0  0  0  0  0  0  0  0
  -27.9184   -1.9537   29.7629 C   0  0  0  0  0  0  0  0  0  0  0  0
  -27.3243    1.0850   27.8190 C   0  0  0  0  0  0  0  0  0  0  0  0
  -27.7568    2.0125   28.0222 C   0  0  0  0  0  0  0  0  0  0  0  0
  -26.6181    0.8694   26.4216 C   0  0  0  0  0  0  0  0  0  0  0  0
  -26.8486    1.7639   25.4404 C   0  0  0  0  0  0  0  0  0  0  0  0
  -28.0019    3.1478   27.0833 C   0  0  0  0  0  0  0  0  0  0  0  0
  -27.4744    3.0035   25.7723 C   0  0  0  0  0  0  0  0  0  0  0  0
  -29.0517   -2.7971   30.2416 C   0  0  0  0  0  0  0  0  0  0  0  0
  -30.0878   -2.4582   30.0586 O   0  0  0  0  0  0  0  0  0  0  0  0
  -28.7397   -4.0675   30.5502 O   0  0  0  0  0  0  0  0  0  0  0  0
  -26.1359   -0.3240   26.2221 O   0  0  0  0  0  0  0  0  0  0  0  0
  -24.2396   -1.8758   30.3513 C   0  0  0  0  0  0  0  0  0  0  0  0
  -23.2541   -0.7990   30.1965 C   0  0  0  0  0  0  0  0  0  0  0  0
  -23.0805    0.1858   31.0348 C   0  0  0  0  0  0  0  0  0  0  0  0
  -22.3570   -0.9781   29.0275 C   0  0  0  0  0  0  0  0  0  0  0  0
  -21.3094   -0.0503   28.8014 C   0  0  0  0  0  0  0  0  0  0  0  0
  -23.9995    0.3580   32.1685 C   0  0  0  0  0  0  0  0  0  0  0  0
  -21.4262    0.9788   27.7786 C   0  0  0  0  0  0  0  0  0  0  0  0
  -22.5288    1.8886   27.7508 C   0  0  0  0  0  0  0  0  0  0  0  0
  -23.1193    2.2347   26.4708 C   0  0  0  0  0  0  0  0  0  0  0  0
  -22.8972    1.4564   25.4121 C   0  0  0  0  0  0  0  0  0  0  0  0
  -24.1162    3.3339   26.4928 C   0  0  0  0  0  0  0  0  0  0  0  0
  -24.9092    1.4976   32.2279 C   0  0  0  0  0  0  0  0  0  0  0  0
  -25.8538    1.5875   33.2451 C   0  0  0  0  0  0  0  0  0  0  0  0
  -26.6993    2.7346   33.3092 C   0  0  0  0  0  0  0  0  0  0  0  0
  2  7  1  0
  6 13  1  0
 13 14  1  0
 13 15  2  0
  9 16  1  0
  4 17  1  0
 17 18  1  0
 18 19  1  0
 18 20  1  0
 20 21  2  3
 19 22  1  0
 21 23  1  0
 23 24  1  0
 24 25  1  0
 25 26  1  0
 25 27  1  0
 22 28  2  3
 28 29  1  0
 29 30  2  0
  1  2  2  0
  2  3  1  0
  3  4  2  0
  4  5  1  0
  5  6  2  0
  6  1  1  0
  7  8  2  0
  8 11  1  0
 11 12  2  0
 12 10  1  0
 10  9  2  0
  9  7  1  0
M  END

$$$$
