No_2170-gen_results/8p0m/2024-11-27-11-27-31/
     RDKit          3D

  7  7  0  0  0  0  0  0  0  0999 V2000
  -28.0162   -0.8135   28.8779 C   0  0  0  0  0  0  0  0  0  0  0  0
  -27.0636   -0.1189   28.6079 C   0  0  0  0  0  0  0  0  0  0  0  0
  -27.0425    0.2440   27.4277 F   0  0  0  0  0  0  0  0  0  0  0  0
  -27.8750   -1.6429   29.9472 O   0  0  0  0  0  0  0  0  0  0  0  0
  -25.8841    0.2272   29.3947 C   0  0  0  0  0  0  0  0  0  0  0  0
  -25.7190   -0.5027   30.6045 C   0  0  0  0  0  0  0  0  0  0  0  0
  -26.8863   -1.4283   30.9206 C   0  0  0  0  0  0  0  0  0  0  0  0
  1  2  1  0
  2  3  1  0
  1  4  1  0
  2  5  1  0
  5  6  2  0
  4  7  1  0
  6  7  1  0
M  END

$$$$
