No_2256-gen_results/8p0m/2024-11-27-11-27-31/
     RDKit          3D

 35 38  0  0  0  0  0  0  0  0999 V2000
  -28.0162   -0.8135   28.8779 C   0  0  0  0  0  0  0  0  0  0  0  0
  -27.0636   -0.1190   28.6079 C   0  0  0  0  0  0  0  0  0  0  0  0
  -25.7923   -0.4302   29.0761 C   0  0  0  0  0  0  0  0  0  0  0  0
  -24.5456    0.3494   28.8225 C   0  0  0  0  0  0  0  0  0  0  0  0
  -24.6586    1.4196   27.8878 C   0  0  0  0  0  0  0  0  0  0  0  0
  -25.9471    1.6811   27.3792 C   0  0  0  0  0  0  0  0  0  0  0  0
  -27.0439    0.9739   27.6871 C   0  0  0  0  0  0  0  0  0  0  0  0
  -28.6567   -0.5529   30.0960 N   0  0  0  0  0  0  0  0  0  0  0  0
  -29.5646   -0.5256   30.5354 C   0  0  0  0  0  0  0  0  0  0  0  0
  -30.5766   -0.7515   29.8064 O   0  0  0  0  0  0  0  0  0  0  0  0
  -29.8842   -0.1177   32.0425 C   0  0  0  0  0  0  0  0  0  0  0  0
  -23.3543    1.8882   27.5818 C   0  0  0  0  0  0  0  0  0  0  0  0
  -23.2370    2.8894   26.7111 N   0  0  0  0  0  0  0  0  0  0  0  0
  -22.1221    1.4683   28.1010 C   0  0  0  0  0  0  0  0  0  0  0  0
  -21.9546    0.5214   29.0662 C   0  0  0  0  0  0  0  0  0  0  0  0
  -23.2560   -0.1811   29.3988 C   0  0  0  0  0  0  0  0  0  0  0  0
  -29.3857    0.9572   32.5074 C   0  0  0  0  0  0  0  0  0  0  0  0
  -27.9613    0.8698   32.6558 C   0  0  0  0  0  0  0  0  0  0  0  0
  -27.0504    0.7982   31.4424 C   0  0  0  0  0  0  0  0  0  0  0  0
  -27.4674    0.5103   30.5814 C   0  0  0  0  0  0  0  0  0  0  0  0
  -27.6807    1.8673   29.8303 C   0  0  0  0  0  0  0  0  0  0  0  0
  -27.1602    3.0080   30.6318 C   0  0  0  0  0  0  0  0  0  0  0  0
  -26.9879    4.2176   29.7294 C   0  0  0  0  0  0  0  0  0  0  0  0
  -29.1317    2.4136   29.6633 C   0  0  0  0  0  0  0  0  0  0  0  0
  -29.1867    3.6462   28.9248 C   0  0  0  0  0  0  0  0  0  0  0  0
  -30.5450    4.1195   28.5241 C   0  0  0  0  0  0  0  0  0  0  0  0
  -28.3076    4.7668   29.3081 C   0  0  0  0  0  0  0  0  0  0  0  0
  -27.3603    1.1406   34.0097 C   0  0  0  0  0  0  0  0  0  0  0  0
  -30.6669    4.0840   27.1985 C   0  0  0  0  0  0  0  0  0  0  0  0
  -29.7228    4.3541   26.5155 F   0  0  0  0  0  0  0  0  0  0  0  0
  -31.7283    4.8794   26.7839 F   0  0  0  0  0  0  0  0  0  0  0  0
  -31.1088    2.6770   26.6479 C   0  0  0  0  0  0  0  0  0  0  0  0
  -31.9334    2.0269   27.1578 N   0  0  0  0  0  0  0  0  0  0  0  0
  -33.0725    1.6040   26.6550 C   0  0  0  0  0  0  0  0  0  0  0  0
  -33.9868    0.8173   27.4752 C   0  0  0  0  0  0  0  0  0  0  0  0
  1  2  1  0
  1  8  1  0
  8  9  1  0
  9 10  2  0
  9 11  1  0
 11 17  1  0
 17 18  1  0
 18 19  1  0
  8 20  1  0
 19 20  1  0
 20 21  1  0
 21 22  1  0
 22 23  1  0
 21 24  1  0
 24 25  1  0
 25 26  1  0
 23 27  1  0
 25 27  1  0
 18 28  1  0
 26 29  1  0
 29 30  1  0
 29 31  1  0
 29 32  1  0
 32 33  1  0
 33 34  1  0
 34 35  2  0
 13 12  1  0
  2  3  2  0
  3  4  1  0
  5  6  1  0
  6  7  2  0
  7  2  1  0
  4  5  2  0
  5 12  1  0
 12 14  2  0
 14 15  1  0
 15 16  2  0
 16  4  1  0
M  END

$$$$
