No_2615-gen_results/8p0m/2024-11-27-11-27-31/
     RDKit          3D

  6  5  0  0  0  0  0  0  0  0999 V2000
  -28.0727   -1.2542   28.5316 F   0  0  0  0  0  0  0  0  0  0  0  0
  -28.2662   -0.4214   29.1931 C   0  0  0  0  0  0  0  0  0  0  0  0
  -27.2356   -0.0574   30.0145 C   0  0  0  0  0  0  0  0  0  0  0  0
  -25.8939   -0.7075   29.9664 C   0  0  0  0  0  0  0  0  0  0  0  0
  -25.8796   -1.8759   29.1861 C   0  0  0  0  0  0  0  0  0  0  0  0
  -24.6373   -2.6252   29.0056 C   0  0  0  0  0  0  0  0  0  0  0  0
  1  2  1  0
  2  3  2  3
  3  4  1  0
  4  5  2  3
  5  6  1  0
M  END

$$$$
