No_255-gen_results/8p0m/2024-11-27-11-27-31/
     RDKit          3D

 35 38  0  0  0  0  0  0  0  0999 V2000
  -28.0162   -0.8135   28.8779 C   0  0  0  0  0  0  0  0  0  0  0  0
  -28.4690   -0.7850   29.8287 C   0  0  0  0  0  0  0  0  0  0  0  0
  -27.0871    0.2903   28.6377 C   0  0  0  0  0  0  0  0  0  0  0  0
  -26.2516    0.4114   27.4223 C   0  0  0  0  0  0  0  0  0  0  0  0
  -28.3913    0.1041   30.9805 C   0  0  0  0  0  0  0  0  0  0  0  0
  -27.5332    1.1666   30.7866 C   0  0  0  0  0  0  0  0  0  0  0  0
  -26.8281    1.2557   29.6454 C   0  0  0  0  0  0  0  0  0  0  0  0
  -25.1382    0.6746   27.2310 C   0  0  0  0  0  0  0  0  0  0  0  0
  -24.5119    1.0056   25.9536 C   0  0  0  0  0  0  0  0  0  0  0  0
  -25.2543    0.5909   24.8011 C   0  0  0  0  0  0  0  0  0  0  0  0
  -26.7865    0.2571   25.9902 C   0  0  0  0  0  0  0  0  0  0  0  0
  -27.6941   -0.1151   24.9986 C   0  0  0  0  0  0  0  0  0  0  0  0
  -28.1754    0.3856   24.1130 C   0  0  0  0  0  0  0  0  0  0  0  0
  -29.5730    0.2621   23.8751 C   0  0  0  0  0  0  0  0  0  0  0  0
  -30.3964    0.1492   24.7131 C   0  0  0  0  0  0  0  0  0  0  0  0
  -30.0837   -0.3345   26.0116 C   0  0  0  0  0  0  0  0  0  0  0  0
  -28.7615   -0.6824   25.9051 O   0  0  0  0  0  0  0  0  0  0  0  0
  -30.7575   -0.6980   26.9457 O   0  0  0  0  0  0  0  0  0  0  0  0
  -24.4227    1.2390   28.3802 C   0  0  0  0  0  0  0  0  0  0  0  0
  -22.9110    0.7167   28.4811 C   0  0  0  0  0  0  0  0  0  0  0  0
  -21.7635    1.3021   27.5550 Br  0  0  0  0  0  0  0  0  0  0  0  0
  -22.7657   -0.4580   29.3214 C   0  0  0  0  0  0  0  0  0  0  0  0
  -23.6860   -0.7809   30.2512 C   0  0  0  0  0  0  0  0  0  0  0  0
  -24.4802   -1.9434   30.1293 C   0  0  0  0  0  0  0  0  0  0  0  0
  -25.6498   -2.0662   30.9816 C   0  0  0  0  0  0  0  0  0  0  0  0
  -25.6757   -1.2283   32.1774 C   0  0  0  0  0  0  0  0  0  0  0  0
  -24.7775   -0.1782   32.3895 C   0  0  0  0  0  0  0  0  0  0  0  0
  -23.8405    0.1410   31.4215 C   0  0  0  0  0  0  0  0  0  0  0  0
  -27.3660    2.1740   31.8861 C   0  0  0  0  0  0  0  0  0  0  0  0
  -27.7353    2.0288   33.0799 N   0  0  0  0  0  0  0  0  0  0  0  0
  -26.7589    3.2920   31.5323 O   0  0  0  0  0  0  0  0  0  0  0  0
  -27.5058    3.0159   34.1700 C   0  0  0  0  0  0  0  0  0  0  0  0
  -28.6925    3.7498   34.4812 C   0  0  0  0  0  0  0  0  0  0  0  0
  -28.5590    4.6766   35.1529 C   0  0  0  0  0  0  0  0  0  0  0  0
  -27.3106    5.1018   35.8927 C   0  0  0  0  0  0  0  0  0  0  0  0
  3  4  1  0
  4  8  2  0
  8  9  1  0
  9 10  2  0
  4 11  1  0
 10 11  1  0
 11 12  1  0
 12 13  2  0
 13 14  1  0
 14 15  2  0
 15 16  1  0
 12 17  1  0
 16 17  1  0
 16 18  2  0
  8 19  1  0
 19 20  1  0
 20 21  1  0
 20 22  1  0
 22 23  1  0
  6 29  1  0
 29 30  1  0
 29 31  2  0
 30 32  1  0
 32 33  1  0
 33 34  2  3
 34 35  1  0
 23 24  2  0
 24 25  1  0
 25 26  2  0
 26 27  1  0
 27 28  2  0
 28 23  1  0
  1  2  2  0
  2  5  1  0
  5  6  2  0
  6  7  1  0
  7  3  2  0
  3  1  1  0
M  END

$$$$
