No_2229-gen_results/8p0m/2024-11-27-11-27-31/
     RDKit          3D

 27 29  0  0  0  0  0  0  0  0999 V2000
  -28.0544   -1.0498   28.7246 N   0  0  0  0  0  0  0  0  0  0  0  0
  -26.9659   -0.4722   28.7709 C   0  0  0  0  0  0  0  0  0  0  0  0
  -25.9289   -1.0196   29.5059 C   0  0  0  0  0  0  0  0  0  0  0  0
  -24.5844   -0.4437   29.6599 C   0  0  0  0  0  0  0  0  0  0  0  0
  -24.3615    0.7792   28.9691 C   0  0  0  0  0  0  0  0  0  0  0  0
  -25.4238    1.3029   28.1832 C   0  0  0  0  0  0  0  0  0  0  0  0
  -26.6399    0.7108   28.0777 C   0  0  0  0  0  0  0  0  0  0  0  0
  -29.0001   -0.6219   29.6852 C   0  0  0  0  0  0  0  0  0  0  0  0
  -30.0545   -0.7458   29.7865 C   0  0  0  0  0  0  0  0  0  0  0  0
  -30.9456   -0.2911   30.8410 C   0  0  0  0  0  0  0  0  0  0  0  0
  -30.3151    0.3874   31.8852 C   0  0  0  0  0  0  0  0  0  0  0  0
  -28.3162    0.1081   30.9245 C   0  0  0  0  0  0  0  0  0  0  0  0
  -29.0383    0.5132   31.9404 C   0  0  0  0  0  0  0  0  0  0  0  0
  -27.6290    1.3222   27.2308 C   0  0  0  0  0  0  0  0  0  0  0  0
  -27.4123    2.3525   26.5966 C   0  0  0  0  0  0  0  0  0  0  0  0
  -26.0841    2.9465   26.5785 C   0  0  0  0  0  0  0  0  0  0  0  0
  -25.0640    2.4782   27.4028 C   0  0  0  0  0  0  0  0  0  0  0  0
  -23.0174    1.3666   28.9618 C   0  0  0  0  0  0  0  0  0  0  0  0
  -22.0774    0.7296   28.4280 O   0  0  0  0  0  0  0  0  0  0  0  0
  -26.0564   -2.2750   30.3146 C   0  0  0  0  0  0  0  0  0  0  0  0
  -28.3515    1.2337   33.0650 C   0  0  0  0  0  0  0  0  0  0  0  0
  -27.6219    1.9247   33.1470 N   0  0  0  0  0  0  0  0  0  0  0  0
  -27.1273    2.6050   32.1805 C   0  0  0  0  0  0  0  0  0  0  0  0
  -25.9621    3.4231   32.3768 C   0  0  0  0  0  0  0  0  0  0  0  0
  -25.8312    5.0250   32.3469 Cl  0  0  0  0  0  0  0  0  0  0  0  0
  -28.7064    0.5823   34.2405 O   0  0  0  0  0  0  0  0  0  0  0  0
  -25.4071   -3.2669   29.8071 O   0  0  0  0  0  0  0  0  0  0  0  0
  1  2  1  0
  1  8  1  0
  5 18  1  0
 18 19  1  0
  3 20  1  0
 13 21  1  0
 21 22  1  0
 22 23  1  0
 23 24  2  3
 24 25  1  0
 21 26  2  0
 20 27  2  0
  2  3  2  0
  3  4  1  0
  4  5  2  0
  5  6  1  0
  7  2  1  0
  8  9  2  0
  9 10  1  0
 10 11  2  0
 11 13  1  0
 13 12  2  0
 12  8  1  0
  6  7  2  0
  7 14  1  0
 14 15  2  0
 15 16  1  0
 16 17  2  0
 17  6  1  0
M  END

$$$$
