No_2480-gen_results/8p0m/2024-11-27-11-27-31/
     RDKit          3D

 35 37  0  0  0  0  0  0  0  0999 V2000
  -28.0162   -0.8135   28.8779 C   0  0  0  0  0  0  0  0  0  0  0  0
  -27.0636   -0.1190   28.6079 C   0  0  0  0  0  0  0  0  0  0  0  0
  -26.8756    1.1325   28.9134 C   0  0  0  0  0  0  0  0  0  0  0  0
  -27.9014    1.8066   29.6436 C   0  0  0  0  0  0  0  0  0  0  0  0
  -29.0458   -0.2316   29.7181 C   0  0  0  0  0  0  0  0  0  0  0  0
  -28.9402    1.0517   30.0597 C   0  0  0  0  0  0  0  0  0  0  0  0
  -30.0593   -1.0632   30.0946 O   0  0  0  0  0  0  0  0  0  0  0  0
  -25.6684    1.9362   28.4484 C   0  0  0  0  0  0  0  0  0  0  0  0
  -24.8947    2.4569   29.0063 C   0  0  0  0  0  0  0  0  0  0  0  0
  -25.5438    1.9966   26.9661 C   0  0  0  0  0  0  0  0  0  0  0  0
  -24.3981    2.6000   26.4303 C   0  0  0  0  0  0  0  0  0  0  0  0
  -24.9575    2.3530   30.5850 C   0  0  0  0  0  0  0  0  0  0  0  0
  -23.4256    3.1294   27.2315 C   0  0  0  0  0  0  0  0  0  0  0  0
  -23.5992    3.0223   28.5803 C   0  0  0  0  0  0  0  0  0  0  0  0
  -24.3377    1.5492   31.1515 O   0  0  0  0  0  0  0  0  0  0  0  0
  -25.4569    3.4159   31.2232 O   0  0  0  0  0  0  0  0  0  0  0  0
  -30.5364   -0.9779   31.3610 C   0  0  0  0  0  0  0  0  0  0  0  0
  -25.8067    3.3150   32.5200 C   0  0  0  0  0  0  0  0  0  0  0  0
  -26.6496    2.2815   32.8818 C   0  0  0  0  0  0  0  0  0  0  0  0
  -27.5816    1.9123   32.6124 C   0  0  0  0  0  0  0  0  0  0  0  0
  -28.3902    0.7893   33.1676 C   0  0  0  0  0  0  0  0  0  0  0  0
  -27.7238    0.1438   34.2053 C   0  0  0  0  0  0  0  0  0  0  0  0
  -26.5226    0.5215   34.7045 C   0  0  0  0  0  0  0  0  0  0  0  0
  -25.9118    1.5993   34.1291 C   0  0  0  0  0  0  0  0  0  0  0  0
  -31.6512   -1.8287   31.6603 C   0  0  0  0  0  0  0  0  0  0  0  0
  -32.0903   -1.8345   32.8104 F   0  0  0  0  0  0  0  0  0  0  0  0
  -32.5293   -1.3840   30.7278 F   0  0  0  0  0  0  0  0  0  0  0  0
  -31.2999   -3.0760   31.2665 F   0  0  0  0  0  0  0  0  0  0  0  0
  -26.0876   -0.7326   27.8567 F   0  0  0  0  0  0  0  0  0  0  0  0
  -26.4781    4.7383   32.7623 C   0  0  0  0  0  0  0  0  0  0  0  0
  -27.5744    4.8728   32.5315 F   0  0  0  0  0  0  0  0  0  0  0  0
  -26.4390    4.9367   34.2490 F   0  0  0  0  0  0  0  0  0  0  0  0
  -25.6642    5.7303   32.4063 F   0  0  0  0  0  0  0  0  0  0  0  0
  -29.4098   -1.3547   32.1911 F   0  0  0  0  0  0  0  0  0  0  0  0
  -30.8194    0.3011   31.7469 F   0  0  0  0  0  0  0  0  0  0  0  0
  5  7  1  0
  3  8  1  0
  9 12  1  0
 12 15  2  0
 12 16  1  0
  7 17  1  0
 16 18  1  0
 18 19  1  0
 17 25  1  0
 25 26  1  0
 25 27  1  0
 25 28  1  0
  2 29  1  0
 18 30  1  0
 30 31  1  0
 30 32  1  0
 30 33  1  0
 17 34  1  0
 17 35  1  0
  1  2  2  0
  2  3  1  0
  3  4  2  0
  4  6  1  0
  6  5  2  0
  5  1  1  0
  8  9  2  0
  9 14  1  0
 14 13  2  0
 13 11  1  0
 11 10  2  0
 10  8  1  0
 19 20  2  0
 20 21  1  0
 21 22  2  0
 22 23  1  0
 23 24  2  0
 24 19  1  0
M  END

$$$$
