No_2202-gen_results/8p0m/2024-11-27-11-27-31/
     RDKit          3D

 14 15  0  0  0  0  0  0  0  0999 V2000
  -28.0162   -0.8135   28.8779 C   0  0  0  0  0  0  0  0  0  0  0  0
  -28.4690   -0.7850   29.8287 C   0  0  0  0  0  0  0  0  0  0  0  0
  -28.1816    0.4277   28.1134 C   0  0  0  0  0  0  0  0  0  0  0  0
  -28.9841    1.4155   28.5154 C   0  0  0  0  0  0  0  0  0  0  0  0
  -28.3375   -2.0481   30.7873 C   0  0  0  0  0  0  0  0  0  0  0  0
  -29.5615    1.2930   29.7416 C   0  0  0  0  0  0  0  0  0  0  0  0
  -29.3196    0.1647   30.4451 C   0  0  0  0  0  0  0  0  0  0  0  0
  -28.8759   -3.1526   30.6032 N   0  0  0  0  0  0  0  0  0  0  0  0
  -28.1940   -4.2266   30.3158 C   0  0  0  0  0  0  0  0  0  0  0  0
  -30.1583   -3.3871   31.0839 C   0  0  0  0  0  0  0  0  0  0  0  0
  -30.7858   -4.4971   30.5820 C   0  0  0  0  0  0  0  0  0  0  0  0
  -28.8056   -5.3882   29.9318 N   0  0  0  0  0  0  0  0  0  0  0  0
  -30.0121   -5.6546   30.3542 C   0  0  0  0  0  0  0  0  0  0  0  0
  -26.4988   -4.1152   29.8604 Cl  0  0  0  0  0  0  0  0  0  0  0  0
  2  5  1  0
  5  8  1  0
  8  9  1  0
  8 10  1  0
  9 12  1  0
 11 13  1  0
 12 13  1  0
  9 14  1  0
 11 10  1  0
  1  2  2  0
  2  7  1  0
  7  6  2  0
  6  4  1  0
  4  3  2  0
  3  1  1  0
M  END

$$$$
