No_2415-gen_results/8p0m/2024-11-27-11-27-31/
     RDKit          3D

 25 27  0  0  0  0  0  0  0  0999 V2000
  -28.0162   -0.8135   28.8779 C   0  0  0  0  0  0  0  0  0  0  0  0
  -27.0636   -0.1190   28.6079 C   0  0  0  0  0  0  0  0  0  0  0  0
  -26.9287    1.1713   29.0083 C   0  0  0  0  0  0  0  0  0  0  0  0
  -27.9560    1.7411   29.7840 C   0  0  0  0  0  0  0  0  0  0  0  0
  -29.0569   -0.3271   29.7466 C   0  0  0  0  0  0  0  0  0  0  0  0
  -28.9828    0.9722   30.1516 C   0  0  0  0  0  0  0  0  0  0  0  0
  -25.8907   -0.6263   27.7857 C   0  0  0  0  0  0  0  0  0  0  0  0
  -24.7183   -1.0610   28.6129 C   0  0  0  0  0  0  0  0  0  0  0  0
  -23.5950   -0.2827   28.8125 C   0  0  0  0  0  0  0  0  0  0  0  0
  -23.4356    1.0607   28.2949 C   0  0  0  0  0  0  0  0  0  0  0  0
  -22.1708    1.6917   28.3753 C   0  0  0  0  0  0  0  0  0  0  0  0
  -21.0787    0.9144   28.6906 C   0  0  0  0  0  0  0  0  0  0  0  0
  -21.1396   -0.4062   29.0915 C   0  0  0  0  0  0  0  0  0  0  0  0
  -22.4251   -1.0078   29.1175 C   0  0  0  0  0  0  0  0  0  0  0  0
  -24.9149   -2.2110   29.4225 C   0  0  0  0  0  0  0  0  0  0  0  0
  -25.5775   -2.2347   30.6039 C   0  0  0  0  0  0  0  0  0  0  0  0
  -24.5087   -3.4302   28.8826 C   0  0  0  0  0  0  0  0  0  0  0  0
  -23.5964   -3.5726   28.0538 F   0  0  0  0  0  0  0  0  0  0  0  0
  -25.3342   -4.5910   29.1444 C   0  0  0  0  0  0  0  0  0  0  0  0
  -26.3800   -4.4881   30.0978 C   0  0  0  0  0  0  0  0  0  0  0  0
  -26.5386   -3.2727   30.7952 C   0  0  0  0  0  0  0  0  0  0  0  0
  -30.2071   -1.1777   30.1486 C   0  0  0  0  0  0  0  0  0  0  0  0
  -30.9963   -1.5415   29.3415 O   0  0  0  0  0  0  0  0  0  0  0  0
  -30.5145   -1.1784   31.4144 O   0  0  0  0  0  0  0  0  0  0  0  0
  -25.6914   -0.2074   26.6346 O   0  0  0  0  0  0  0  0  0  0  0  0
  2  7  1  0
  7  8  1  0
  8 15  1  0
 17 18  1  0
  5 22  1  0
 22 23  1  0
 22 24  2  0
  7 25  2  0
  8  9  1  0
 15 16  2  0
 16 21  1  0
 21 20  2  0
 20 19  1  0
 19 17  2  0
 17 15  1  0
  1  2  2  0
  2  3  1  0
  3  4  2  0
  4  6  1  0
  6  5  2  0
  5  1  1  0
  9 10  2  0
 10 11  1  0
 11 12  2  0
 12 13  1  0
 13 14  2  0
 14  9  1  0
M  END

$$$$
