No_2837-gen_results/8p0m/2024-11-27-11-27-31/
     RDKit          3D

 14 14  0  0  0  0  0  0  0  0999 V2000
  -28.0162   -0.8135   28.8779 C   0  0  0  0  0  0  0  0  0  0  0  0
  -28.4690   -0.7850   29.8287 C   0  0  0  0  0  0  0  0  0  0  0  0
  -26.5455   -0.8762   28.8500 C   0  0  0  0  0  0  0  0  0  0  0  0
  -25.8041   -1.0324   30.0571 C   0  0  0  0  0  0  0  0  0  0  0  0
  -27.9437   -0.9869   31.2075 C   0  0  0  0  0  0  0  0  0  0  0  0
  -26.5825   -1.0386   31.2231 C   0  0  0  0  0  0  0  0  0  0  0  0
  -29.9086   -0.7397   29.8642 F   0  0  0  0  0  0  0  0  0  0  0  0
  -24.3767   -1.0979   30.0689 C   0  0  0  0  0  0  0  0  0  0  0  0
  -23.7792   -1.8594   30.5667 N   0  0  0  0  0  0  0  0  0  0  0  0
  -23.6239   -0.0233   29.3470 C   0  0  0  0  0  0  0  0  0  0  0  0
  -22.3077   -0.2337   29.0715 C   0  0  0  0  0  0  0  0  0  0  0  0
  -21.5255    0.7737   28.4538 C   0  0  0  0  0  0  0  0  0  0  0  0
  -22.1986    1.8281   27.7681 C   0  0  0  0  0  0  0  0  0  0  0  0
  -23.5329    2.0420   28.0516 C   0  0  0  0  0  0  0  0  0  0  0  0
  2  7  1  0
  4  8  1  0
  8  9  1  0
  8 10  1  0
 10 11  2  3
 11 12  1  0
 12 13  2  3
 13 14  1  0
  1  2  2  0
  2  5  1  0
  5  6  2  0
  6  4  1  0
  4  3  2  0
  3  1  1  0
M  END

$$$$
