No_2866-gen_results/8p0m/2024-11-27-11-27-31/
     RDKit          3D

 14 15  0  0  0  0  0  0  0  0999 V2000
  -28.0162   -0.8135   28.8779 C   0  0  0  0  0  0  0  0  0  0  0  0
  -28.4690   -0.7850   29.8287 C   0  0  0  0  0  0  0  0  0  0  0  0
  -27.1356    0.2359   28.5352 C   0  0  0  0  0  0  0  0  0  0  0  0
  -26.8745    1.2825   29.3982 C   0  0  0  0  0  0  0  0  0  0  0  0
  -28.3613    0.1987   30.9244 C   0  0  0  0  0  0  0  0  0  0  0  0
  -27.5277    1.2234   30.6356 C   0  0  0  0  0  0  0  0  0  0  0  0
  -26.4877    0.2566   27.3533 F   0  0  0  0  0  0  0  0  0  0  0  0
  -29.0285    0.0927   32.1420 N   0  0  0  0  0  0  0  0  0  0  0  0
  -30.1060    0.1834   32.4379 C   0  0  0  0  0  0  0  0  0  0  0  0
  -30.5639    0.0099   33.7883 C   0  0  0  0  0  0  0  0  0  0  0  0
  -28.1245   -0.2998   33.3072 C   0  0  0  0  0  0  0  0  0  0  0  0
  -28.4610   -0.4606   34.5713 C   0  0  0  0  0  0  0  0  0  0  0  0
  -29.7919   -0.2644   34.8297 C   0  0  0  0  0  0  0  0  0  0  0  0
  -29.3468   -1.8217   30.5541 N   0  0  0  0  0  0  0  0  0  0  0  0
  3  7  1  0
  5  8  1  0
  8  9  1  0
  8 11  1  0
 10 13  1  0
 12 13  1  0
  2 14  1  0
  9 10  1  0
 12 11  1  0
  1  2  2  0
  2  5  1  0
  5  6  2  0
  6  4  1  0
  4  3  2  0
  3  1  1  0
M  END

$$$$
