No_2274-gen_results/8p0m/2024-11-27-11-27-31/
     RDKit          3D

 26 27  0  0  0  0  0  0  0  0999 V2000
  -28.0162   -0.8135   28.8779 C   0  0  0  0  0  0  0  0  0  0  0  0
  -27.0636   -0.1190   28.6079 C   0  0  0  0  0  0  0  0  0  0  0  0
  -25.7923   -0.4302   29.0761 C   0  0  0  0  0  0  0  0  0  0  0  0
  -25.5756   -1.5654   29.9363 C   0  0  0  0  0  0  0  0  0  0  0  0
  -26.7354   -2.3004   30.2173 C   0  0  0  0  0  0  0  0  0  0  0  0
  -27.9184   -1.9537   29.7629 C   0  0  0  0  0  0  0  0  0  0  0  0
  -27.3243    1.0850   27.8190 C   0  0  0  0  0  0  0  0  0  0  0  0
  -27.7260    1.0711   26.6257 C   0  0  0  0  0  0  0  0  0  0  0  0
  -28.1630   -0.1207   26.0871 C   0  0  0  0  0  0  0  0  0  0  0  0
  -28.6751   -0.0973   24.7008 C   0  0  0  0  0  0  0  0  0  0  0  0
  -28.7138    1.0914   24.0435 C   0  0  0  0  0  0  0  0  0  0  0  0
  -28.3079    2.3118   24.5677 C   0  0  0  0  0  0  0  0  0  0  0  0
  -27.8098    2.3253   25.8623 C   0  0  0  0  0  0  0  0  0  0  0  0
  -26.3524    2.2246   28.2261 C   0  0  0  0  0  0  0  0  0  0  0  0
  -25.1819    2.4416   27.8601 C   0  0  0  0  0  0  0  0  0  0  0  0
  -24.1645    1.6993   27.7950 N   0  0  0  0  0  0  0  0  0  0  0  0
  -23.1202    1.8176   28.8394 C   0  0  0  0  0  0  0  0  0  0  0  0
  -23.9692    0.7672   26.7970 C   0  0  0  0  0  0  0  0  0  0  0  0
  -27.1062    3.0275   29.3004 C   0  0  0  0  0  0  0  0  0  0  0  0
  -27.0725    4.3160   29.1975 C   0  0  0  0  0  0  0  0  0  0  0  0
  -27.6641    5.1402   30.1640 C   0  0  0  0  0  0  0  0  0  0  0  0
  -27.6188    6.4750   30.0233 N   0  0  0  0  0  0  0  0  0  0  0  0
  -24.9240    3.6623   27.3416 O   0  0  0  0  0  0  0  0  0  0  0  0
  -26.9952    7.0186   29.0728 C   0  0  0  0  0  0  0  0  0  0  0  0
  -26.9641    8.3810   29.0029 F   0  0  0  0  0  0  0  0  0  0  0  0
  -26.2679    6.3785   28.0688 C   0  0  0  0  0  0  0  0  0  0  0  0
  2  7  1  0
  7  8  1  0
  7 14  1  0
 14 15  1  0
 15 16  1  0
 16 17  1  0
 16 18  1  0
 14 19  1  0
 19 20  2  3
 20 21  1  0
 21 22  1  0
 15 23  2  0
 22 24  2  3
 24 25  1  0
 24 26  1  0
  1  2  2  0
  2  3  1  0
  3  4  2  0
  4  5  1  0
  5  6  2  0
  6  1  1  0
  8  9  2  0
  9 10  1  0
 10 11  2  0
 11 12  1  0
 12 13  2  0
 13  8  1  0
M  END

$$$$
