No_2196-gen_results/8p0m/2024-11-27-11-27-31/
     RDKit          3D

 18 20  0  0  0  0  0  0  0  0999 V2000
  -28.0162   -0.8135   28.8779 C   0  0  0  0  0  0  0  0  0  0  0  0
  -27.0636   -0.1190   28.6079 C   0  0  0  0  0  0  0  0  0  0  0  0
  -26.9716    0.7139   27.5060 C   0  0  0  0  0  0  0  0  0  0  0  0
  -28.1053    0.7744   26.6421 C   0  0  0  0  0  0  0  0  0  0  0  0
  -29.2008    0.1044   27.0527 C   0  0  0  0  0  0  0  0  0  0  0  0
  -29.2096   -0.6029   28.1853 C   0  0  0  0  0  0  0  0  0  0  0  0
  -30.3749    0.2232   26.1670 C   0  0  0  0  0  0  0  0  0  0  0  0
  -30.2997    0.0795   24.9312 N   0  0  0  0  0  0  0  0  0  0  0  0
  -31.5477    0.2416   26.6915 O   0  0  0  0  0  0  0  0  0  0  0  0
  -25.6993   -0.2193   29.4275 C   0  0  0  0  0  0  0  0  0  0  0  0
  -24.5166   -0.1355   28.8608 C   0  0  0  0  0  0  0  0  0  0  0  0
  -23.2843   -0.1152   29.5934 C   0  0  0  0  0  0  0  0  0  0  0  0
  -22.0434    0.0780   28.9280 C   0  0  0  0  0  0  0  0  0  0  0  0
  -21.9846    0.8788   27.7899 C   0  0  0  0  0  0  0  0  0  0  0  0
  -23.1947    1.2298   27.1201 C   0  0  0  0  0  0  0  0  0  0  0  0
  -24.4577    0.7798   27.6244 C   0  0  0  0  0  0  0  0  0  0  0  0
  -25.7207    1.0701   26.9591 C   0  0  0  0  0  0  0  0  0  0  0  0
  -25.6057    1.7310   25.8339 O   0  0  0  0  0  0  0  0  0  0  0  0
  5  7  1  0
  7  8  1  0
  7  9  2  0
  2 10  1  0
  3 17  1  0
 16 17  1  0
 17 18  2  0
 10 11  1  0
 11 12  2  0
 12 13  1  0
 13 14  2  0
 14 15  1  0
 15 16  2  0
 16 11  1  0
  1  2  2  0
  2  3  1  0
  3  4  2  0
  4  5  1  0
  5  6  2  0
  6  1  1  0
M  END

$$$$
