No_2612-gen_results/8p0m/2024-11-27-11-27-31/
     RDKit          3D

 17 18  0  0  0  0  0  0  0  0999 V2000
  -28.0162   -0.8135   28.8779 C   0  0  0  0  0  0  0  0  0  0  0  0
  -27.0636   -0.1190   28.6079 C   0  0  0  0  0  0  0  0  0  0  0  0
  -25.7923   -0.4302   29.0761 C   0  0  0  0  0  0  0  0  0  0  0  0
  -24.5456    0.3494   28.8225 C   0  0  0  0  0  0  0  0  0  0  0  0
  -24.6586    1.4196   27.8878 C   0  0  0  0  0  0  0  0  0  0  0  0
  -25.9471    1.6811   27.3792 C   0  0  0  0  0  0  0  0  0  0  0  0
  -27.0439    0.9739   27.6871 C   0  0  0  0  0  0  0  0  0  0  0  0
  -28.6703   -0.4455   30.2080 C   0  0  0  0  0  0  0  0  0  0  0  0
  -28.5206    0.4800   30.7047 C   0  0  0  0  0  0  0  0  0  0  0  0
  -29.2446    0.8135   32.0604 C   0  0  0  0  0  0  0  0  0  0  0  0
  -29.0642    2.0436   32.7623 C   0  0  0  0  0  0  0  0  0  0  0  0
  -28.1408    2.9719   32.1559 C   0  0  0  0  0  0  0  0  0  0  0  0
  -27.4049    2.6805   31.0008 C   0  0  0  0  0  0  0  0  0  0  0  0
  -27.5681    1.5216   30.4106 C   0  0  0  0  0  0  0  0  0  0  0  0
  -23.3721    1.7985   27.4187 C   0  0  0  0  0  0  0  0  0  0  0  0
  -23.3098    2.8230   26.5406 N   0  0  0  0  0  0  0  0  0  0  0  0
  -22.2269    1.4551   27.8381 O   0  0  0  0  0  0  0  0  0  0  0  0
  1  2  1  0
  1  8  1  0
  5 15  1  0
 15 16  1  0
 15 17  2  0
  8  9  1  0
  2  3  2  0
  3  4  1  0
  4  5  2  0
  5  6  1  0
  6  7  2  0
  7  2  1  0
  9 10  2  0
 10 11  1  0
 11 12  2  0
 12 13  1  0
 13 14  2  0
 14  9  1  0
M  END

$$$$
