No_2794-gen_results/8p0m/2024-11-27-11-27-31/
     RDKit          3D

 25 27  0  0  0  0  0  0  0  0999 V2000
  -28.0162   -0.8135   28.8779 C   0  0  0  0  0  0  0  0  0  0  0  0
  -27.0636   -0.1189   28.6079 C   0  0  0  0  0  0  0  0  0  0  0  0
  -26.9716    0.7139   27.5060 C   0  0  0  0  0  0  0  0  0  0  0  0
  -28.1053    0.7744   26.6421 C   0  0  0  0  0  0  0  0  0  0  0  0
  -29.2008    0.1044   27.0527 C   0  0  0  0  0  0  0  0  0  0  0  0
  -29.2096   -0.6029   28.1853 C   0  0  0  0  0  0  0  0  0  0  0  0
  -30.3077    0.2215   26.2218 N   0  0  0  0  0  0  0  0  0  0  0  0
  -30.2379    0.2365   24.9221 C   0  0  0  0  0  0  0  0  0  0  0  0
  -29.1586    1.0085   24.4065 C   0  0  0  0  0  0  0  0  0  0  0  0
  -27.8868    1.0003   25.1879 C   0  0  0  0  0  0  0  0  0  0  0  0
  -31.6257   -0.2119   26.7556 C   0  0  0  0  0  0  0  0  0  0  0  0
  -31.8900    0.0136   27.8395 O   0  0  0  0  0  0  0  0  0  0  0  0
  -32.4463   -1.0550   25.8833 C   0  0  0  0  0  0  0  0  0  0  0  0
  -32.2939   -2.3130   25.9307 C   0  0  0  0  0  0  0  0  0  0  0  0
  -33.0988   -3.0934   25.3409 O   0  0  0  0  0  0  0  0  0  0  0  0
  -31.3017   -2.9736   26.4749 O   0  0  0  0  0  0  0  0  0  0  0  0
  -28.1707   -1.6265   30.4527 Cl  0  0  0  0  0  0  0  0  0  0  0  0
  -33.2581   -0.3830   25.1741 O   0  0  0  0  0  0  0  0  0  0  0  0
  -25.6791    1.2689   27.0373 C   0  0  0  0  0  0  0  0  0  0  0  0
  -24.5977    0.4520   27.1121 C   0  0  0  0  0  0  0  0  0  0  0  0
  -23.3183    1.1297   27.0392 C   0  0  0  0  0  0  0  0  0  0  0  0
  -23.3193    2.3347   26.3145 C   0  0  0  0  0  0  0  0  0  0  0  0
  -25.3591    2.5528   26.5861 C   0  0  0  0  0  0  0  0  0  0  0  0
  -24.3067    3.1501   26.2794 C   0  0  0  0  0  0  0  0  0  0  0  0
  -21.8775    0.4616   27.6937 Cl  0  0  0  0  0  0  0  0  0  0  0  0
  5  7  1  0
  7  8  1  0
  8  9  1  0
  4 10  1  0
  9 10  1  0
  7 11  1  0
 11 12  2  0
 11 13  1  0
 13 14  1  0
 14 15  2  0
 14 16  1  0
  1 17  1  0
 13 18  2  0
  3 19  1  0
 21 25  1  0
  1  2  2  0
  2  3  1  0
  3  4  2  0
  4  5  1  0
  5  6  2  0
  6  1  1  0
 19 20  2  0
 20 21  1  0
 21 22  2  0
 22 24  1  0
 24 23  2  0
 23 19  1  0
M  END

$$$$
