No_2003-gen_results/8p0m/2024-11-27-11-27-31/
     RDKit          3D

 15 16  0  0  0  0  0  0  0  0999 V2000
  -28.0162   -0.8135   28.8779 C   0  0  0  0  0  0  0  0  0  0  0  0
  -28.4690   -0.7850   29.8287 C   0  0  0  0  0  0  0  0  0  0  0  0
  -27.0871    0.2903   28.6377 C   0  0  0  0  0  0  0  0  0  0  0  0
  -26.2516    0.4114   27.4223 C   0  0  0  0  0  0  0  0  0  0  0  0
  -28.3141   -0.1267   30.7102 C   0  0  0  0  0  0  0  0  0  0  0  0
  -27.4825    1.0076   30.8097 C   0  0  0  0  0  0  0  0  0  0  0  0
  -26.7770    1.1718   29.6871 C   0  0  0  0  0  0  0  0  0  0  0  0
  -24.9531    0.3511   27.6693 C   0  0  0  0  0  0  0  0  0  0  0  0
  -24.0008    0.5572   26.6925 C   0  0  0  0  0  0  0  0  0  0  0  0
  -22.6380    0.8434   27.0978 C   0  0  0  0  0  0  0  0  0  0  0  0
  -22.2897    0.6139   28.4640 C   0  0  0  0  0  0  0  0  0  0  0  0
  -24.1941    0.3485   28.9554 C   0  0  0  0  0  0  0  0  0  0  0  0
  -26.8444    0.3491   26.1933 C   0  0  0  0  0  0  0  0  0  0  0  0
  -27.8529    0.8901   25.7778 N   0  0  0  0  0  0  0  0  0  0  0  0
  -28.4306    0.6291   24.6288 C   0  0  0  0  0  0  0  0  0  0  0  0
  3  4  1  0
  4  8  1  0
  8  9  2  0
  9 10  1  0
 10 11  2  0
  8 12  1  0
 11 12  1  0
  4 13  1  0
 13 14  1  0
 14 15  1  0
  1  2  2  0
  2  5  1  0
  5  6  2  0
  6  7  1  0
  7  3  2  0
  3  1  1  0
M  END

$$$$
