No_2562-gen_results/8p0m/2024-11-27-11-27-31/
     RDKit          3D

 18 19  0  0  0  0  0  0  0  0999 V2000
  -28.0162   -0.8135   28.8779 C   0  0  0  0  0  0  0  0  0  0  0  0
  -28.4690   -0.7850   29.8287 C   0  0  0  0  0  0  0  0  0  0  0  0
  -27.0871    0.2903   28.6377 C   0  0  0  0  0  0  0  0  0  0  0  0
  -26.7676    1.0274   29.4716 C   0  0  0  0  0  0  0  0  0  0  0  0
  -28.2764    0.0268   31.0145 C   0  0  0  0  0  0  0  0  0  0  0  0
  -27.3287    1.0538   30.7535 C   0  0  0  0  0  0  0  0  0  0  0  0
  -26.3859    0.3011   27.2661 C   0  0  0  0  0  0  0  0  0  0  0  0
  -26.0047    1.5465   26.8605 C   0  0  0  0  0  0  0  0  0  0  0  0
  -25.1668    1.6782   25.8655 C   0  0  0  0  0  0  0  0  0  0  0  0
  -24.8385    0.5090   25.0697 C   0  0  0  0  0  0  0  0  0  0  0  0
  -25.8800   -0.7019   26.5210 C   0  0  0  0  0  0  0  0  0  0  0  0
  -25.1768   -0.6614   25.4696 C   0  0  0  0  0  0  0  0  0  0  0  0
  -29.3910   -1.8565   30.2049 F   0  0  0  0  0  0  0  0  0  0  0  0
  -26.9987    2.0596   31.8097 C   0  0  0  0  0  0  0  0  0  0  0  0
  -26.2090    2.6980   31.7899 O   0  0  0  0  0  0  0  0  0  0  0  0
  -28.0664    2.2162   32.7509 O   0  0  0  0  0  0  0  0  0  0  0  0
  -27.7822    2.9590   33.7606 C   0  0  0  0  0  0  0  0  0  0  0  0
  -27.1761    4.1554   33.5246 C   0  0  0  0  0  0  0  0  0  0  0  0
  3  7  1  0
  2 13  1  0
  6 14  1  0
 14 15  2  0
 14 16  1  0
 16 17  1  0
 17 18  1  0
  7  8  2  0
  8  9  1  0
  9 10  2  0
 10 12  1  0
 12 11  2  0
 11  7  1  0
  1  2  2  0
  2  5  1  0
  5  6  2  0
  6  4  1  0
  4  3  2  0
  3  1  1  0
M  END

$$$$
