No_2551-gen_results/8p0m/2024-11-27-11-27-31/
     RDKit          3D

 24 27  0  0  0  0  0  0  0  0999 V2000
  -28.0162   -0.8135   28.8779 C   0  0  0  0  0  0  0  0  0  0  0  0
  -28.4690   -0.7850   29.8287 C   0  0  0  0  0  0  0  0  0  0  0  0
  -26.5042   -0.7777   28.8766 C   0  0  0  0  0  0  0  0  0  0  0  0
  -25.6540   -0.6597   27.7191 C   0  0  0  0  0  0  0  0  0  0  0  0
  -27.9180   -0.9374   31.1824 C   0  0  0  0  0  0  0  0  0  0  0  0
  -26.5423   -0.9399   31.2606 C   0  0  0  0  0  0  0  0  0  0  0  0
  -25.7832   -0.8935   30.1201 C   0  0  0  0  0  0  0  0  0  0  0  0
  -25.8989    0.3149   26.7473 C   0  0  0  0  0  0  0  0  0  0  0  0
  -25.6389    1.5609   26.9737 C   0  0  0  0  0  0  0  0  0  0  0  0
  -26.5079   -0.0955   25.4840 C   0  0  0  0  0  0  0  0  0  0  0  0
  -24.6306    2.0110   27.9296 C   0  0  0  0  0  0  0  0  0  0  0  0
  -24.6829    3.2546   28.4477 C   0  0  0  0  0  0  0  0  0  0  0  0
  -25.4129    4.2621   27.7467 C   0  0  0  0  0  0  0  0  0  0  0  0
  -26.5150    2.5774   26.4939 C   0  0  0  0  0  0  0  0  0  0  0  0
  -26.3504    3.7103   26.9052 C   0  0  0  0  0  0  0  0  0  0  0  0
  -27.6617    0.3953   24.9419 C   0  0  0  0  0  0  0  0  0  0  0  0
  -28.0712    1.7202   24.9761 C   0  0  0  0  0  0  0  0  0  0  0  0
  -27.5446    2.4357   25.5696 C   0  0  0  0  0  0  0  0  0  0  0  0
  -28.1052    3.7776   25.3593 N   0  0  0  0  0  0  0  0  0  0  0  0
  -27.3332    4.5912   26.2923 C   0  0  0  0  0  0  0  0  0  0  0  0
  -29.1965    1.8738   24.0465 C   0  0  0  0  0  0  0  0  0  0  0  0
  -24.4454   -0.7506   30.1235 C   0  0  0  0  0  0  0  0  0  0  0  0
  -23.8152    0.3212   30.8246 C   0  0  0  0  0  0  0  0  0  0  0  0
  -23.6009   -1.8389   29.6977 C   0  0  0  0  0  0  0  0  0  0  0  0
  3  4  1  0
  4  8  1  0
  8  9  1  0
  8 10  1  0
 10 16  2  0
 16 17  1  0
 14 18  1  0
 17 18  1  0
 18 19  2  0
 15 20  1  0
 19 20  1  0
 17 21  1  0
  7 22  1  0
 22 23  2  0
 22 24  1  0
  9 11  2  0
 11 12  1  0
 12 13  2  0
 13 15  1  0
 15 14  2  0
 14  9  1  0
  1  2  2  0
  2  5  1  0
  5  6  2  0
  6  7  1  0
  7  3  2  0
  3  1  1  0
M  END

$$$$
