No_2452-gen_results/8p0m/2024-11-27-11-27-31/
     RDKit          3D

 22 23  0  0  0  0  0  0  0  0999 V2000
  -28.0162   -0.8135   28.8779 C   0  0  0  0  0  0  0  0  0  0  0  0
  -27.0636   -0.1189   28.6079 C   0  0  0  0  0  0  0  0  0  0  0  0
  -27.0010    0.6913   27.4910 C   0  0  0  0  0  0  0  0  0  0  0  0
  -28.1420    0.8282   26.7994 C   0  0  0  0  0  0  0  0  0  0  0  0
  -27.9310   -1.6069   30.1504 C   0  0  0  0  0  0  0  0  0  0  0  0
  -29.0065   -2.4789   30.5821 C   0  0  0  0  0  0  0  0  0  0  0  0
  -29.2599    0.1863   27.2107 C   0  0  0  0  0  0  0  0  0  0  0  0
  -29.1579   -0.4658   28.3558 C   0  0  0  0  0  0  0  0  0  0  0  0
  -27.2611   -1.0102   31.2542 C   0  0  0  0  0  0  0  0  0  0  0  0
  -30.4844    0.3239   26.4110 C   0  0  0  0  0  0  0  0  0  0  0  0
  -31.5101   -0.1689   26.7845 N   0  0  0  0  0  0  0  0  0  0  0  0
  -30.4914    0.8807   25.2593 O   0  0  0  0  0  0  0  0  0  0  0  0
  -32.7896   -0.2142   26.0355 C   0  0  0  0  0  0  0  0  0  0  0  0
  -28.9296   -3.2114   31.5360 C   0  0  0  0  0  0  0  0  0  0  0  0
  -29.1975   -4.5509   31.3517 C   0  0  0  0  0  0  0  0  0  0  0  0
  -29.6570   -5.2749   32.3163 O   0  0  0  0  0  0  0  0  0  0  0  0
  -28.6081   -5.1972   30.3622 O   0  0  0  0  0  0  0  0  0  0  0  0
  -27.6518   -0.1929   32.1833 C   0  0  0  0  0  0  0  0  0  0  0  0
  -26.8174    0.2557   33.1352 C   0  0  0  0  0  0  0  0  0  0  0  0
  -25.4257    0.0306   33.0575 C   0  0  0  0  0  0  0  0  0  0  0  0
  -25.7192   -0.9331   31.3479 C   0  0  0  0  0  0  0  0  0  0  0  0
  -25.0718   -2.1833   31.7591 C   0  0  0  0  0  0  0  0  0  0  0  0
  1  5  1  0
  5  6  2  3
  5  9  1  0
  7 10  1  0
 10 11  1  0
 10 12  2  0
 11 13  1  0
  6 14  1  0
 14 15  1  0
 15 16  2  0
 15 17  1  0
  9 18  1  0
 18 19  2  0
 19 20  1  0
  9 21  1  0
 20 21  1  0
 21 22  1  0
  1  2  2  0
  2  3  1  0
  3  4  2  0
  4  7  1  0
  7  8  2  0
  8  1  1  0
M  END

$$$$
