No_2319-gen_results/8p0m/2024-11-27-11-27-31/
     RDKit          3D

 12 13  0  0  0  0  0  0  0  0999 V2000
  -28.0162   -0.8135   28.8779 C   0  0  0  0  0  0  0  0  0  0  0  0
  -28.4690   -0.7850   29.8287 C   0  0  0  0  0  0  0  0  0  0  0  0
  -26.5042   -0.7777   28.8766 C   0  0  0  0  0  0  0  0  0  0  0  0
  -25.8103   -0.8531   30.1028 C   0  0  0  0  0  0  0  0  0  0  0  0
  -27.9906   -0.8916   31.2257 C   0  0  0  0  0  0  0  0  0  0  0  0
  -26.6042   -0.8676   31.2652 C   0  0  0  0  0  0  0  0  0  0  0  0
  -29.9538   -0.7893   29.6417 N   0  0  0  0  0  0  0  0  0  0  0  0
  -30.7618   -1.5199   30.2851 C   0  0  0  0  0  0  0  0  0  0  0  0
  -32.1435   -1.4529   29.9223 C   0  0  0  0  0  0  0  0  0  0  0  0
  -30.4647    0.0261   28.6850 C   0  0  0  0  0  0  0  0  0  0  0  0
  -31.7578    0.0718   28.3143 C   0  0  0  0  0  0  0  0  0  0  0  0
  -32.6206   -0.7219   29.0116 C   0  0  0  0  0  0  0  0  0  0  0  0
  2  7  1  0
  7  8  1  0
  7 10  1  0
  9 12  1  0
 11 12  1  0
  8  9  1  0
 11 10  1  0
  1  2  2  0
  2  5  1  0
  5  6  2  0
  6  4  1  0
  4  3  2  0
  3  1  1  0
M  END

$$$$
