No_2703-gen_results/8p0m/2024-11-27-11-27-31/
     RDKit          3D

 18 19  0  0  0  0  0  0  0  0999 V2000
  -28.0162   -0.8135   28.8779 C   0  0  0  0  0  0  0  0  0  0  0  0
  -27.0636   -0.1190   28.6079 C   0  0  0  0  0  0  0  0  0  0  0  0
  -26.8756    1.1325   28.9134 C   0  0  0  0  0  0  0  0  0  0  0  0
  -25.6883    1.9515   28.5672 C   0  0  0  0  0  0  0  0  0  0  0  0
  -24.6394    1.2834   27.8753 C   0  0  0  0  0  0  0  0  0  0  0  0
  -24.8068   -0.0513   27.6040 C   0  0  0  0  0  0  0  0  0  0  0  0
  -25.9019   -0.7670   27.9511 C   0  0  0  0  0  0  0  0  0  0  0  0
  -29.1472   -0.2191   28.9761 N   0  0  0  0  0  0  0  0  0  0  0  0
  -23.4426    1.9742   27.4984 C   0  0  0  0  0  0  0  0  0  0  0  0
  -30.0770   -0.6197   29.8369 C   0  0  0  0  0  0  0  0  0  0  0  0
  -23.3841    2.5177   26.5129 F   0  0  0  0  0  0  0  0  0  0  0  0
  -22.2996    1.0581   27.5702 F   0  0  0  0  0  0  0  0  0  0  0  0
  -23.0323    2.8669   28.5433 F   0  0  0  0  0  0  0  0  0  0  0  0
  -31.3884   -0.1243   29.8364 C   0  0  0  0  0  0  0  0  0  0  0  0
  -29.7038   -0.9892   31.0454 F   0  0  0  0  0  0  0  0  0  0  0  0
  -31.8827    0.2959   28.8719 C   0  0  0  0  0  0  0  0  0  0  0  0
  -31.0156    0.6974   27.7541 C   0  0  0  0  0  0  0  0  0  0  0  0
  -29.6735    0.2768   27.7597 C   0  0  0  0  0  0  0  0  0  0  0  0
  1  8  1  0
  5  9  1  0
  8 10  1  0
  9 11  1  0
  9 12  1  0
  9 13  1  0
 10 15  1  0
 14 16  1  0
  8 18  1  0
 17 18  1  0
  1  2  1  0
 10 14  1  0
 16 17  1  0
  2  3  2  0
  3  4  1  0
  4  5  2  0
  5  6  1  0
  6  7  2  0
  7  2  1  0
M  END

$$$$
