No_2775-gen_results/8p0m/2024-11-27-11-27-31/
     RDKit          3D

 18 19  0  0  0  0  0  0  0  0999 V2000
  -28.0162   -0.8135   28.8779 C   0  0  0  0  0  0  0  0  0  0  0  0
  -27.0636   -0.1190   28.6079 C   0  0  0  0  0  0  0  0  0  0  0  0
  -27.0010    0.6913   27.4910 C   0  0  0  0  0  0  0  0  0  0  0  0
  -25.8548    1.4825   27.0830 C   0  0  0  0  0  0  0  0  0  0  0  0
  -24.6901    1.4526   27.8807 C   0  0  0  0  0  0  0  0  0  0  0  0
  -24.7379    0.6010   29.0416 C   0  0  0  0  0  0  0  0  0  0  0  0
  -25.8234   -0.1688   29.3887 C   0  0  0  0  0  0  0  0  0  0  0  0
  -28.7350   -0.4637   30.1419 C   0  0  0  0  0  0  0  0  0  0  0  0
  -28.7831    0.6118   30.5175 C   0  0  0  0  0  0  0  0  0  0  0  0
  -29.3406    1.2670   31.3691 C   0  0  0  0  0  0  0  0  0  0  0  0
  -29.2656    2.7147   31.7293 C   0  0  0  0  0  0  0  0  0  0  0  0
  -28.3706    3.4273   30.8861 C   0  0  0  0  0  0  0  0  0  0  0  0
  -27.6267    2.8067   29.9537 C   0  0  0  0  0  0  0  0  0  0  0  0
  -27.7490    1.5028   29.7438 C   0  0  0  0  0  0  0  0  0  0  0  0
  -27.1787    1.3374   28.9193 F   0  0  0  0  0  0  0  0  0  0  0  0
  -27.9417    0.6417   26.4971 C   0  0  0  0  0  0  0  0  0  0  0  0
  -29.1312    0.7851   26.7144 O   0  0  0  0  0  0  0  0  0  0  0  0
  -27.5600    0.3023   25.2682 N   0  0  0  0  0  0  0  0  0  0  0  0
  1  2  1  0
  1  8  1  0
 14 15  1  0
  3 16  1  0
 16 17  2  0
 16 18  1  0
  8  9  1  0
  2  3  2  0
  3  4  1  0
  4  5  2  0
  5  6  1  0
  6  7  2  0
  7  2  1  0
  9 10  2  0
 10 11  1  0
 11 12  2  0
 12 13  1  0
 13 14  2  0
 14  9  1  0
M  END

$$$$
