No_251-gen_results/8p0m/2024-11-27-11-27-31/
     RDKit          3D

 35 38  0  0  0  0  0  0  0  0999 V2000
  -28.0162   -0.8135   28.8779 C   0  0  0  0  0  0  0  0  0  0  0  0
  -27.0636   -0.1190   28.6079 C   0  0  0  0  0  0  0  0  0  0  0  0
  -27.0010    0.6913   27.4910 C   0  0  0  0  0  0  0  0  0  0  0  0
  -28.1373    0.7363   26.6350 C   0  0  0  0  0  0  0  0  0  0  0  0
  -29.2360    0.0765   27.0690 C   0  0  0  0  0  0  0  0  0  0  0  0
  -29.2177   -0.6429   28.1747 C   0  0  0  0  0  0  0  0  0  0  0  0
  -30.4152    0.1590   26.1820 C   0  0  0  0  0  0  0  0  0  0  0  0
  -31.2774   -0.5117   26.4083 O   0  0  0  0  0  0  0  0  0  0  0  0
  -30.4220    0.9338   25.1099 O   0  0  0  0  0  0  0  0  0  0  0  0
  -25.7097   -0.2026   29.4247 C   0  0  0  0  0  0  0  0  0  0  0  0
  -25.0788    1.0295   29.7825 C   0  0  0  0  0  0  0  0  0  0  0  0
  -23.6954    0.9468   29.8342 C   0  0  0  0  0  0  0  0  0  0  0  0
  -22.9774   -0.2650   29.9062 C   0  0  0  0  0  0  0  0  0  0  0  0
  -23.6724   -1.4217   29.5599 C   0  0  0  0  0  0  0  0  0  0  0  0
  -25.0225   -1.4170   29.2211 C   0  0  0  0  0  0  0  0  0  0  0  0
  -25.7159    2.2902   29.9209 C   0  0  0  0  0  0  0  0  0  0  0  0
  -26.0307    2.6915   31.2155 C   0  0  0  0  0  0  0  0  0  0  0  0
  -26.7187    3.4192   31.6117 C   0  0  0  0  0  0  0  0  0  0  0  0
  -26.9861    3.7157   33.0479 C   0  0  0  0  0  0  0  0  0  0  0  0
  -26.3473    2.9111   33.9473 C   0  0  0  0  0  0  0  0  0  0  0  0
  -25.5047    1.9334   33.5346 C   0  0  0  0  0  0  0  0  0  0  0  0
  -25.2878    1.7363   32.1817 C   0  0  0  0  0  0  0  0  0  0  0  0
  -24.8772    3.4183   29.2871 C   0  0  0  0  0  0  0  0  0  0  0  0
  -25.5569    3.9327   28.2010 O   0  0  0  0  0  0  0  0  0  0  0  0
  -24.8239    4.5393   27.2134 C   0  0  0  0  0  0  0  0  0  0  0  0
  -28.0766   -1.6851   30.1489 C   0  0  0  0  0  0  0  0  0  0  0  0
  -28.3833   -1.1232   31.2198 O   0  0  0  0  0  0  0  0  0  0  0  0
  -27.4930   -2.8112   30.1679 O   0  0  0  0  0  0  0  0  0  0  0  0
  -27.4112    4.3399   30.8122 O   0  0  0  0  0  0  0  0  0  0  0  0
  -28.6554    3.9769   30.3230 C   0  0  0  0  0  0  0  0  0  0  0  0
  -28.9622    4.5449   29.1055 C   0  0  0  0  0  0  0  0  0  0  0  0
  -30.1036    3.9310   28.4344 C   0  0  0  0  0  0  0  0  0  0  0  0
  -30.8790    2.9702   29.1292 C   0  0  0  0  0  0  0  0  0  0  0  0
  -30.4820    2.4699   30.3561 C   0  0  0  0  0  0  0  0  0  0  0  0
  -29.2745    2.9557   30.9379 C   0  0  0  0  0  0  0  0  0  0  0  0
  5  7  1  0
  7  8  1  0
  7  9  2  0
  2 10  1  0
 11 16  1  0
 16 23  1  0
 23 24  1  0
 24 25  1  0
  1 26  1  0
 26 27  2  0
 26 28  1  0
 18 29  1  0
 29 30  1  0
 16 17  1  0
 17 18  1  0
 18 19  2  0
 19 20  1  0
 20 21  2  0
 21 22  1  0
 22 17  2  0
  1  2  2  0
  2  3  1  0
  3  4  2  0
  4  5  1  0
  5  6  2  0
  6  1  1  0
 30 31  2  0
 31 32  1  0
 32 33  2  0
 33 34  1  0
 34 35  2  0
 35 30  1  0
 10 11  1  0
 11 12  2  0
 12 13  1  0
 13 14  2  0
 14 15  1  0
 15 10  2  0
M  END

$$$$
