No_2492-gen_results/8p0m/2024-11-27-11-27-31/
     RDKit          3D

 35 39  0  0  0  0  0  0  0  0999 V2000
  -28.0162   -0.8135   28.8779 C   0  0  0  0  0  0  0  0  0  0  0  0
  -27.0636   -0.1189   28.6079 C   0  0  0  0  0  0  0  0  0  0  0  0
  -26.9716    0.7139   27.5060 C   0  0  0  0  0  0  0  0  0  0  0  0
  -28.1053    0.7744   26.6421 C   0  0  0  0  0  0  0  0  0  0  0  0
  -29.2008    0.1044   27.0527 C   0  0  0  0  0  0  0  0  0  0  0  0
  -29.2096   -0.6029   28.1853 C   0  0  0  0  0  0  0  0  0  0  0  0
  -30.2808    0.2156   26.2913 F   0  0  0  0  0  0  0  0  0  0  0  0
  -25.7162   -0.2143   29.4079 C   0  0  0  0  0  0  0  0  0  0  0  0
  -25.4115   -1.0242   30.0565 C   0  0  0  0  0  0  0  0  0  0  0  0
  -24.1408   -1.1410   30.8368 C   0  0  0  0  0  0  0  0  0  0  0  0
  -23.1947   -0.1347   30.6608 C   0  0  0  0  0  0  0  0  0  0  0  0
  -23.5357    0.9137   29.7572 C   0  0  0  0  0  0  0  0  0  0  0  0
  -24.8090    0.9435   29.0845 C   0  0  0  0  0  0  0  0  0  0  0  0
  -28.0271    1.6507   25.4694 C   0  0  0  0  0  0  0  0  0  0  0  0
  -28.0938    2.7652   25.5599 C   0  0  0  0  0  0  0  0  0  0  0  0
  -27.9760    0.8948   24.2287 C   0  0  0  0  0  0  0  0  0  0  0  0
  -27.6413    3.6264   26.6858 C   0  0  0  0  0  0  0  0  0  0  0  0
  -28.2743    4.8612   26.9830 C   0  0  0  0  0  0  0  0  0  0  0  0
  -29.1541    5.3382   25.9857 C   0  0  0  0  0  0  0  0  0  0  0  0
  -29.6426    4.5682   24.9884 C   0  0  0  0  0  0  0  0  0  0  0  0
  -29.1594    3.4075   24.8281 C   0  0  0  0  0  0  0  0  0  0  0  0
  -29.6379    2.6815   23.7782 N   0  0  0  0  0  0  0  0  0  0  0  0
  -29.0669    1.4889   23.4226 C   0  0  0  0  0  0  0  0  0  0  0  0
  -30.7630    3.0548   22.9604 C   0  0  0  0  0  0  0  0  0  0  0  0
  -31.9423    3.4983   23.6543 C   0  0  0  0  0  0  0  0  0  0  0  0
  -32.9185    3.9635   22.9965 N   0  0  0  0  0  0  0  0  0  0  0  0
  -33.8392    4.8607   23.4023 C   0  0  0  0  0  0  0  0  0  0  0  0
  -33.8750    5.0393   24.8162 C   0  0  0  0  0  0  0  0  0  0  0  0
  -32.8875    4.4787   25.6266 C   0  0  0  0  0  0  0  0  0  0  0  0
  -31.8829    3.7687   25.0797 C   0  0  0  0  0  0  0  0  0  0  0  0
  -32.2249    2.5019   25.6253 F   0  0  0  0  0  0  0  0  0  0  0  0
  -33.4552    4.0777   26.9807 C   0  0  0  0  0  0  0  0  0  0  0  0
  -32.9647    3.7304   21.4980 C   0  0  0  0  0  0  0  0  0  0  0  0
  -30.7218    2.7385   21.7896 O   0  0  0  0  0  0  0  0  0  0  0  0
  -33.6839    2.6810   21.1110 C   0  0  0  0  0  0  0  0  0  0  0  0
  5  7  1  0
  2  8  1  0
  4 14  1  0
 14 15  1  0
 14 16  1  0
 21 22  1  0
 16 23  1  0
 22 23  1  0
 22 24  1  0
 24 25  1  0
 25 26  1  0
 26 27  1  0
 28 29  1  0
 25 30  1  0
 29 30  1  0
 30 31  1  0
 29 32  1  0
 26 33  1  0
 24 34  2  0
 33 35  1  0
 28 27  1  0
  1  2  2  0
  2  3  1  0
  3  4  2  0
  4  5  1  0
  5  6  2  0
  6  1  1  0
 15 17  2  0
 17 18  1  0
 18 19  2  0
 19 20  1  0
 20 21  2  0
 21 15  1  0
  8  9  2  0
  9 10  1  0
 10 11  2  0
 11 12  1  0
 12 13  2  0
 13  8  1  0
M  END

$$$$
