No_2748-gen_results/8p0m/2024-11-27-11-27-31/
     RDKit          3D

 35 37  0  0  0  0  0  0  0  0999 V2000
  -28.0162   -0.8135   28.8779 C   0  0  0  0  0  0  0  0  0  0  0  0
  -28.4690   -0.7850   29.8287 C   0  0  0  0  0  0  0  0  0  0  0  0
  -26.5042   -0.7777   28.8766 C   0  0  0  0  0  0  0  0  0  0  0  0
  -25.8103   -0.8531   30.1028 C   0  0  0  0  0  0  0  0  0  0  0  0
  -27.9906   -0.8916   31.2257 C   0  0  0  0  0  0  0  0  0  0  0  0
  -26.6042   -0.8676   31.2652 C   0  0  0  0  0  0  0  0  0  0  0  0
  -30.0739   -0.8360   29.8615 C   0  0  0  0  0  0  0  0  0  0  0  0
  -30.6454   -0.1837   28.9598 N   0  0  0  0  0  0  0  0  0  0  0  0
  -31.5454    0.3635   28.8287 C   0  0  0  0  0  0  0  0  0  0  0  0
  -32.3569    0.6416   29.9170 C   0  0  0  0  0  0  0  0  0  0  0  0
  -32.0574    0.9038   27.6996 O   0  0  0  0  0  0  0  0  0  0  0  0
  -32.2828    1.8153   30.5621 C   0  0  0  0  0  0  0  0  0  0  0  0
  -32.9997    2.0360   31.7880 C   0  0  0  0  0  0  0  0  0  0  0  0
  -32.8578    3.2867   32.4924 C   0  0  0  0  0  0  0  0  0  0  0  0
  -32.0107    4.2622   31.8965 C   0  0  0  0  0  0  0  0  0  0  0  0
  -31.3148    4.0343   30.7362 C   0  0  0  0  0  0  0  0  0  0  0  0
  -31.3959    2.7929   30.1015 C   0  0  0  0  0  0  0  0  0  0  0  0
  -30.5984   -1.1589   30.9102 O   0  0  0  0  0  0  0  0  0  0  0  0
  -24.3755   -0.8895   30.1035 C   0  0  0  0  0  0  0  0  0  0  0  0
  -23.7691    0.4457   30.1121 C   0  0  0  0  0  0  0  0  0  0  0  0
  -22.5598    0.6106   29.3719 C   0  0  0  0  0  0  0  0  0  0  0  0
  -21.8117   -0.5288   29.0569 C   0  0  0  0  0  0  0  0  0  0  0  0
  -22.4778   -1.7683   29.0503 C   0  0  0  0  0  0  0  0  0  0  0  0
  -23.7495   -1.9421   29.5173 C   0  0  0  0  0  0  0  0  0  0  0  0
  -24.4839    1.6113   30.6259 C   0  0  0  0  0  0  0  0  0  0  0  0
  -24.4139    1.9311   31.7849 O   0  0  0  0  0  0  0  0  0  0  0  0
  -24.9435    2.5028   29.7420 N   0  0  0  0  0  0  0  0  0  0  0  0
  -25.6694    3.7601   30.1529 C   0  0  0  0  0  0  0  0  0  0  0  0
  -27.0370    3.6200   29.7889 C   0  0  0  0  0  0  0  0  0  0  0  0
  -27.5706    2.9088   29.2772 O   0  0  0  0  0  0  0  0  0  0  0  0
  -27.8267    4.4767   30.5914 O   0  0  0  0  0  0  0  0  0  0  0  0
  -24.9590    2.3167   28.2820 C   0  0  0  0  0  0  0  0  0  0  0  0
  -23.7118    2.5881   27.7385 C   0  0  0  0  0  0  0  0  0  0  0  0
  -23.7624    2.7349   26.2295 C   0  0  0  0  0  0  0  0  0  0  0  0
  -24.2345    1.6633   25.6362 C   0  0  0  0  0  0  0  0  0  0  0  0
  2  7  1  0
  7  8  1  0
  8  9  1  0
  9 10  1  0
  9 11  2  0
  7 18  2  0
  4 19  1  0
 20 25  1  0
 25 26  2  0
 25 27  1  0
 27 28  1  0
 28 29  1  0
 29 30  2  0
 29 31  1  0
 27 32  1  0
 32 33  1  0
 33 34  1  0
 34 35  2  0
 10 12  1  0
 12 13  2  0
 13 14  1  0
 14 15  2  0
 15 16  1  0
 16 17  2  0
 17 12  1  0
  1  2  2  0
  2  5  1  0
  5  6  2  0
  6  4  1  0
  4  3  2  0
  3  1  1  0
 19 20  2  0
 20 21  1  0
 21 22  2  0
 22 23  1  0
 23 24  2  0
 24 19  1  0
M  END

$$$$
