No_2026-gen_results/8p0m/2024-11-27-11-27-31/
     RDKit          3D

 16 17  0  0  0  0  0  0  0  0999 V2000
  -28.0162   -0.8135   28.8779 C   0  0  0  0  0  0  0  0  0  0  0  0
  -28.4690   -0.7850   29.8287 C   0  0  0  0  0  0  0  0  0  0  0  0
  -26.5455   -0.8762   28.8500 C   0  0  0  0  0  0  0  0  0  0  0  0
  -25.8041   -1.0324   30.0571 C   0  0  0  0  0  0  0  0  0  0  0  0
  -24.3697   -1.0998   30.0718 C   0  0  0  0  0  0  0  0  0  0  0  0
  -30.0317   -0.7740   29.8540 C   0  0  0  0  0  0  0  0  0  0  0  0
  -23.7170   -1.1964   31.2383 C   0  0  0  0  0  0  0  0  0  0  0  0
  -27.9062   -1.0098   31.1852 C   0  0  0  0  0  0  0  0  0  0  0  0
  -26.5093   -1.1200   31.2691 C   0  0  0  0  0  0  0  0  0  0  0  0
  -30.7351   -1.5500   30.3382 O   0  0  0  0  0  0  0  0  0  0  0  0
  -30.5342    0.2472   29.2189 O   0  0  0  0  0  0  0  0  0  0  0  0
  -23.5659   -1.1436   28.9040 C   0  0  0  0  0  0  0  0  0  0  0  0
  -22.1726   -1.0156   28.9863 C   0  0  0  0  0  0  0  0  0  0  0  0
  -22.2458   -1.0148   31.3730 C   0  0  0  0  0  0  0  0  0  0  0  0
  -21.5422   -0.9630   30.1717 C   0  0  0  0  0  0  0  0  0  0  0  0
  -25.9224   -0.5913   27.6789 O   0  0  0  0  0  0  0  0  0  0  0  0
  1  3  1  0
  3  4  1  0
  4  5  1  0
  2  6  1  0
  2  8  1  0
  4  9  1  0
  8  9  1  0
  6 10  2  0
  6 11  1  0
  3 16  2  0
  1  2  1  0
  5  7  2  0
  7 14  1  0
 14 15  2  0
 15 13  1  0
 13 12  2  0
 12  5  1  0
M  END

$$$$
