No_2260-gen_results/8p0m/2024-11-27-11-27-31/
     RDKit          3D

 26 27  0  0  0  0  0  0  0  0999 V2000
  -28.0162   -0.8135   28.8779 C   0  0  0  0  0  0  0  0  0  0  0  0
  -27.0636   -0.1189   28.6079 C   0  0  0  0  0  0  0  0  0  0  0  0
  -25.7923   -0.4302   29.0761 C   0  0  0  0  0  0  0  0  0  0  0  0
  -24.5456    0.3494   28.8225 C   0  0  0  0  0  0  0  0  0  0  0  0
  -24.6586    1.4196   27.8878 C   0  0  0  0  0  0  0  0  0  0  0  0
  -25.9471    1.6811   27.3792 C   0  0  0  0  0  0  0  0  0  0  0  0
  -27.0439    0.9739   27.6871 C   0  0  0  0  0  0  0  0  0  0  0  0
  -29.1797   -0.1202   29.1288 N   0  0  0  0  0  0  0  0  0  0  0  0
  -30.2095   -0.7652   29.7428 C   0  0  0  0  0  0  0  0  0  0  0  0
  -23.4456    2.1545   27.6087 C   0  0  0  0  0  0  0  0  0  0  0  0
  -23.4813    3.1347   26.8867 O   0  0  0  0  0  0  0  0  0  0  0  0
  -22.2041    1.5686   27.7523 O   0  0  0  0  0  0  0  0  0  0  0  0
  -31.3523   -0.5315   29.5050 O   0  0  0  0  0  0  0  0  0  0  0  0
  -29.8875   -1.8202   30.8434 C   0  0  0  0  0  0  0  0  0  0  0  0
  -29.1457   -1.5764   31.6391 N   0  0  0  0  0  0  0  0  0  0  0  0
  -29.6415   -3.1627   30.1277 C   0  0  0  0  0  0  0  0  0  0  0  0
  -28.6063   -3.9077   30.8317 C   0  0  0  0  0  0  0  0  0  0  0  0
  -28.4256   -5.2463   30.2936 C   0  0  0  0  0  0  0  0  0  0  0  0
  -30.4774   -3.7328   29.4400 O   0  0  0  0  0  0  0  0  0  0  0  0
  -28.3953   -1.7366   32.4169 C   0  0  0  0  0  0  0  0  0  0  0  0
  -28.1475   -3.6457   31.8180 F   0  0  0  0  0  0  0  0  0  0  0  0
  -28.2600   -1.6051   33.6632 C   0  0  0  0  0  0  0  0  0  0  0  0
  -26.9312   -1.3452   31.9099 C   0  0  0  0  0  0  0  0  0  0  0  0
  -29.7925   -0.0701   32.3531 C   0  0  0  0  0  0  0  0  0  0  0  0
  -29.7810    0.0308   33.6919 C   0  0  0  0  0  0  0  0  0  0  0  0
  -28.8326   -0.6407   34.4148 C   0  0  0  0  0  0  0  0  0  0  0  0
  1  2  1  0
  1  8  1  0
  8  9  1  0
  5 10  1  0
 10 11  2  0
 10 12  1  0
  9 13  2  0
  9 14  1  0
 14 15  1  0
 14 16  1  0
 16 17  1  0
 17 18  1  0
 16 19  2  0
 15 20  1  0
 17 21  1  0
 20 23  1  0
 15 24  1  0
 22 26  1  0
 25 26  1  0
 20 22  1  0
 25 24  1  0
  2  3  2  0
  3  4  1  0
  4  5  2  0
  5  6  1  0
  6  7  2  0
  7  2  1  0
M  END

$$$$
