No_2935-gen_results/8p0m/2024-11-27-11-27-31/
     RDKit          3D

 27 28  0  0  0  0  0  0  0  0999 V2000
  -28.0162   -0.8135   28.8779 C   0  0  0  0  0  0  0  0  0  0  0  0
  -27.0636   -0.1190   28.6079 C   0  0  0  0  0  0  0  0  0  0  0  0
  -25.7647   -0.3897   29.0360 C   0  0  0  0  0  0  0  0  0  0  0  0
  -24.5516    0.4058   28.7646 C   0  0  0  0  0  0  0  0  0  0  0  0
  -24.6957    1.4480   27.7988 C   0  0  0  0  0  0  0  0  0  0  0  0
  -23.5821    2.2165   27.4626 C   0  0  0  0  0  0  0  0  0  0  0  0
  -22.3295    1.8427   27.9661 C   0  0  0  0  0  0  0  0  0  0  0  0
  -22.1809    0.8284   28.8814 C   0  0  0  0  0  0  0  0  0  0  0  0
  -23.3190    0.0774   29.2471 C   0  0  0  0  0  0  0  0  0  0  0  0
  -27.9056   -1.8765   29.8669 C   0  0  0  0  0  0  0  0  0  0  0  0
  -26.6648   -2.3322   30.2886 C   0  0  0  0  0  0  0  0  0  0  0  0
  -25.5477   -1.5609   29.9180 C   0  0  0  0  0  0  0  0  0  0  0  0
  -29.0812   -2.6967   30.2508 C   0  0  0  0  0  0  0  0  0  0  0  0
  -28.9860   -3.9005   30.3094 O   0  0  0  0  0  0  0  0  0  0  0  0
  -30.1496   -2.1271   30.5858 O   0  0  0  0  0  0  0  0  0  0  0  0
  -23.7330    3.4484   26.2803 Cl  0  0  0  0  0  0  0  0  0  0  0  0
  -31.1007   -2.5202   31.1524 C   0  0  0  0  0  0  0  0  0  0  0  0
  -32.2190   -2.9860   30.4598 C   0  0  0  0  0  0  0  0  0  0  0  0
  -32.9353   -3.8980   30.8035 C   0  0  0  0  0  0  0  0  0  0  0  0
  -32.4175   -2.3811   29.1238 C   0  0  0  0  0  0  0  0  0  0  0  0
  -31.7251   -1.3342   28.8245 F   0  0  0  0  0  0  0  0  0  0  0  0
  -32.2676   -3.2394   28.1378 F   0  0  0  0  0  0  0  0  0  0  0  0
  -33.7009   -1.9720   28.9651 F   0  0  0  0  0  0  0  0  0  0  0  0
  -33.7491   -4.5632   30.3457 C   0  0  0  0  0  0  0  0  0  0  0  0
  -34.4716   -5.7034   30.9222 C   0  0  0  0  0  0  0  0  0  0  0  0
  -34.0899   -5.9644   32.1871 C   0  0  0  0  0  0  0  0  0  0  0  0
  -33.1578   -5.3035   32.8781 C   0  0  0  0  0  0  0  0  0  0  0  0
  3  4  1  0
 10 13  1  0
 13 14  2  0
 13 15  1  0
  6 16  1  0
 15 17  1  0
 17 18  1  0
 18 19  2  3
 18 20  1  0
 20 21  1  0
 20 22  1  0
 20 23  1  0
 19 24  1  0
 24 25  1  0
 25 26  2  3
 26 27  1  0
  1  2  2  0
  2  3  1  0
  3 12  2  0
 12 11  1  0
 11 10  2  0
 10  1  1  0
  4  5  2  0
  5  6  1  0
  6  7  2  0
  7  8  1  0
  8  9  2  0
  9  4  1  0
M  END

$$$$
