No_2577-gen_results/8p0m/2024-11-27-11-27-31/
     RDKit          3D

 10 10  0  0  0  0  0  0  0  0999 V2000
  -28.0162   -0.8135   28.8779 C   0  0  0  0  0  0  0  0  0  0  0  0
  -27.0636   -0.1189   28.6079 C   0  0  0  0  0  0  0  0  0  0  0  0
  -25.7647   -0.3897   29.0360 C   0  0  0  0  0  0  0  0  0  0  0  0
  -25.5296   -1.5302   29.9014 C   0  0  0  0  0  0  0  0  0  0  0  0
  -26.6577   -2.2915   30.2035 C   0  0  0  0  0  0  0  0  0  0  0  0
  -27.6860   -1.9196   29.6994 C   0  0  0  0  0  0  0  0  0  0  0  0
  -24.2949    0.6110   28.6874 P   0  0  0  0  0  0  0  0  0  0  0  0
  -24.2446    1.1257   27.4267 O   0  0  0  0  0  0  0  0  0  0  0  0
  -24.3653    1.7836   29.7169 O   0  0  0  0  0  0  0  0  0  0  0  0
  -23.0613   -0.2376   29.0392 O   0  0  0  0  0  0  0  0  0  0  0  0
  3  7  1  0
  7  8  2  0
  7  9  1  0
  7 10  1  0
  1  2  2  0
  2  3  1  0
  3  4  2  0
  4  5  1  0
  5  6  2  0
  6  1  1  0
M  END

$$$$
