No_2708-gen_results/8p0m/2024-11-27-11-27-31/
     RDKit          3D

 17 18  0  0  0  0  0  0  0  0999 V2000
  -28.0162   -0.8135   28.8779 C   0  0  0  0  0  0  0  0  0  0  0  0
  -27.0636   -0.1190   28.6079 C   0  0  0  0  0  0  0  0  0  0  0  0
  -25.7923   -0.4302   29.0761 C   0  0  0  0  0  0  0  0  0  0  0  0
  -25.5756   -1.5654   29.9363 C   0  0  0  0  0  0  0  0  0  0  0  0
  -26.7354   -2.3004   30.2173 C   0  0  0  0  0  0  0  0  0  0  0  0
  -27.9184   -1.9537   29.7629 C   0  0  0  0  0  0  0  0  0  0  0  0
  -26.8881    0.9906   27.7948 O   0  0  0  0  0  0  0  0  0  0  0  0
  -27.7123    1.7368   27.4777 C   0  0  0  0  0  0  0  0  0  0  0  0
  -28.0147    2.6544   27.8528 C   0  0  0  0  0  0  0  0  0  0  0  0
  -28.1459    1.3429   26.0753 C   0  0  0  0  0  0  0  0  0  0  0  0
  -27.6924    0.1730   25.4327 C   0  0  0  0  0  0  0  0  0  0  0  0
  -29.0769    3.5302   27.3426 C   0  0  0  0  0  0  0  0  0  0  0  0
  -29.5254    3.2414   26.0227 C   0  0  0  0  0  0  0  0  0  0  0  0
  -29.0500    2.1428   25.3776 C   0  0  0  0  0  0  0  0  0  0  0  0
  -26.4872   -0.2490   25.5446 O   0  0  0  0  0  0  0  0  0  0  0  0
  -28.5744   -0.6290   24.8260 N   0  0  0  0  0  0  0  0  0  0  0  0
  -29.9084   -0.3286   24.6709 C   0  0  0  0  0  0  0  0  0  0  0  0
  2  7  1  0
  7  8  1  0
 10 11  1  0
 11 15  2  0
 11 16  1  0
 16 17  1  0
  1  2  2  0
  2  3  1  0
  3  4  2  0
  4  5  1  0
  5  6  2  0
  6  1  1  0
  8  9  2  0
  9 12  1  0
 12 13  2  0
 13 14  1  0
 14 10  2  0
 10  8  1  0
M  END

$$$$
