No_2095-gen_results/8p0m/2024-11-27-11-27-31/
     RDKit          3D

 35 38  0  0  0  0  0  0  0  0999 V2000
  -28.0162   -0.8135   28.8779 C   0  0  0  0  0  0  0  0  0  0  0  0
  -27.0636   -0.1189   28.6079 C   0  0  0  0  0  0  0  0  0  0  0  0
  -25.7647   -0.3897   29.0360 C   0  0  0  0  0  0  0  0  0  0  0  0
  -25.5296   -1.5302   29.9014 C   0  0  0  0  0  0  0  0  0  0  0  0
  -26.6888   -2.2893   30.1810 C   0  0  0  0  0  0  0  0  0  0  0  0
  -27.8727   -1.9508   29.7373 C   0  0  0  0  0  0  0  0  0  0  0  0
  -28.9304   -2.7298   30.1154 O   0  0  0  0  0  0  0  0  0  0  0  0
  -24.5394    0.4211   28.7421 C   0  0  0  0  0  0  0  0  0  0  0  0
  -24.5259    1.2743   27.7265 C   0  0  0  0  0  0  0  0  0  0  0  0
  -25.5567    1.6073   26.8963 C   0  0  0  0  0  0  0  0  0  0  0  0
  -23.1685    1.9096   27.4273 C   0  0  0  0  0  0  0  0  0  0  0  0
  -23.0446    2.5227   26.2281 N   0  0  0  0  0  0  0  0  0  0  0  0
  -22.0734    1.6239   28.1146 N   0  0  0  0  0  0  0  0  0  0  0  0
  -25.4315    2.4112   25.7676 C   0  0  0  0  0  0  0  0  0  0  0  0
  -24.1163    2.9273   25.5186 C   0  0  0  0  0  0  0  0  0  0  0  0
  -23.3244    0.1704   29.5159 C   0  0  0  0  0  0  0  0  0  0  0  0
  -22.1126    0.8478   29.1381 C   0  0  0  0  0  0  0  0  0  0  0  0
  -29.3521   -2.6713   31.4302 C   0  0  0  0  0  0  0  0  0  0  0  0
  -29.7717   -3.9476   31.8747 C   0  0  0  0  0  0  0  0  0  0  0  0
  -31.2061   -3.9712   32.5047 Br  0  0  0  0  0  0  0  0  0  0  0  0
  -29.6356   -5.0049   30.8597 N   0  0  0  0  0  0  0  0  0  0  0  0
  -29.3024   -1.5453   32.2057 C   0  0  0  0  0  0  0  0  0  0  0  0
  -30.3755   -0.6855   32.1988 C   0  0  0  0  0  0  0  0  0  0  0  0
  -30.0895    0.4913   32.4876 C   0  0  0  0  0  0  0  0  0  0  0  0
  -28.1404   -1.1414   32.9206 C   0  0  0  0  0  0  0  0  0  0  0  0
  -27.9020    0.0529   33.4716 C   0  0  0  0  0  0  0  0  0  0  0  0
  -29.0049    0.9982   33.3052 C   0  0  0  0  0  0  0  0  0  0  0  0
  -28.8459    2.3623   33.7999 C   0  0  0  0  0  0  0  0  0  0  0  0
  -28.8350    2.5932   34.9305 O   0  0  0  0  0  0  0  0  0  0  0  0
  -28.3558    3.2197   32.9083 O   0  0  0  0  0  0  0  0  0  0  0  0
  -27.1679    0.8977   27.7303 F   0  0  0  0  0  0  0  0  0  0  0  0
  -26.1851    0.6414   26.2478 C   0  0  0  0  0  0  0  0  0  0  0  0
  -25.8622   -0.5418   26.1910 N   0  0  0  0  0  0  0  0  0  0  0  0
  -27.2699    0.8881   25.2270 C   0  0  0  0  0  0  0  0  0  0  0  0
  -25.4048    0.1076   25.3202 C   0  0  0  0  0  0  0  0  0  0  0  0
  6  7  1  0
  3  8  1  0
  7 18  1  0
 18 19  1  0
 19 20  1  0
 19 21  1  0
 18 22  1  0
 27 28  1  0
 28 29  2  0
 28 30  1  0
  2 31  1  0
 10 32  1  0
 32 33  1  0
 32 34  1  0
 33 35  1  0
  8  9  1  0
 11 13  1  0
 13 17  2  0
 17 16  1  0
 16  8  2  0
  1  2  2  0
  2  3  1  0
  3  4  2  0
  4  5  1  0
  5  6  2  0
  6  1  1  0
  9 10  2  0
 10 14  1  0
 14 15  2  0
 15 12  1  0
 12 11  2  0
 11  9  1  0
 22 23  2  0
 23 24  1  0
 24 27  2  0
 27 26  1  0
 26 25  2  0
 25 22  1  0
M  END

$$$$
