No_2724-gen_results/8p0m/2024-11-27-11-27-31/
     RDKit          3D

 23 23  0  0  0  0  0  0  0  0999 V2000
  -28.1229   -1.3353   28.4874 O   0  0  0  0  0  0  0  0  0  0  0  0
  -28.5208   -0.4363   29.0779 C   0  0  0  0  0  0  0  0  0  0  0  0
  -28.5894    0.5916   28.9464 C   0  0  0  0  0  0  0  0  0  0  0  0
  -29.1246   -0.9399   30.4266 N   0  0  0  0  0  0  0  0  0  0  0  0
  -27.6200    1.2738   28.1389 C   0  0  0  0  0  0  0  0  0  0  0  0
  -27.8269    1.5809   26.8229 C   0  0  0  0  0  0  0  0  0  0  0  0
  -26.7252    1.9818   25.9180 C   0  0  0  0  0  0  0  0  0  0  0  0
  -25.4281    2.1174   26.3956 C   0  0  0  0  0  0  0  0  0  0  0  0
  -25.1985    1.8126   27.7790 C   0  0  0  0  0  0  0  0  0  0  0  0
  -26.2081    1.3891   28.5338 C   0  0  0  0  0  0  0  0  0  0  0  0
  -29.1650   -2.3573   30.7907 C   0  0  0  0  0  0  0  0  0  0  0  0
  -23.8054    1.9092   28.2708 C   0  0  0  0  0  0  0  0  0  0  0  0
  -22.7929    1.9958   27.5447 O   0  0  0  0  0  0  0  0  0  0  0  0
  -23.6736    1.8444   29.6003 O   0  0  0  0  0  0  0  0  0  0  0  0
  -29.7125   -0.0753   31.3912 C   0  0  0  0  0  0  0  0  0  0  0  0
  -28.1716   -2.7830   31.4860 C   0  0  0  0  0  0  0  0  0  0  0  0
  -30.2618   -2.9995   30.2990 C   0  0  0  0  0  0  0  0  0  0  0  0
  -28.1552   -4.1304   31.5594 O   0  0  0  0  0  0  0  0  0  0  0  0
  -30.0913   -4.4553   30.4410 C   0  0  0  0  0  0  0  0  0  0  0  0
  -29.0285   -4.9482   31.2011 C   0  0  0  0  0  0  0  0  0  0  0  0
  -28.9256   -6.1760   31.4825 O   0  0  0  0  0  0  0  0  0  0  0  0
  -29.3620   -5.7643   31.8053 C   0  0  0  0  0  0  0  0  0  0  0  0
  -28.1135   -5.2694   30.1208 C   0  0  0  0  0  0  0  0  0  0  0  0
  1  2  2  0
  2  3  1  0
  2  4  1  0
  3  5  1  0
  4 11  1  0
  9 12  1  0
 12 13  2  0
 12 14  1  0
  4 15  1  0
 11 16  2  0
 11 17  1  0
 16 18  2  0
 17 19  1  0
 19 20  2  3
 20 21  1  0
 21 22  1  0
 20 23  1  0
  5  6  2  0
  6  7  1  0
  7  8  2  0
  8  9  1  0
  9 10  2  0
 10  5  1  0
M  END

$$$$
