No_2662-gen_results/8p0m/2024-11-27-11-27-31/
     RDKit          3D

 13 14  0  0  0  0  0  0  0  0999 V2000
  -28.0162   -0.8135   28.8779 C   0  0  0  0  0  0  0  0  0  0  0  0
  -28.4690   -0.7850   29.8287 C   0  0  0  0  0  0  0  0  0  0  0  0
  -28.1960    0.3478   28.0550 C   0  0  0  0  0  0  0  0  0  0  0  0
  -29.0191    1.3501   28.3782 C   0  0  0  0  0  0  0  0  0  0  0  0
  -29.6249    1.2683   29.6012 C   0  0  0  0  0  0  0  0  0  0  0  0
  -29.3821    0.1816   30.4004 C   0  0  0  0  0  0  0  0  0  0  0  0
  -27.3404    0.2453   26.8113 C   0  0  0  0  0  0  0  0  0  0  0  0
  -27.7263    0.6328   25.7083 C   0  0  0  0  0  0  0  0  0  0  0  0
  -26.8806    0.5122   24.5123 C   0  0  0  0  0  0  0  0  0  0  0  0
  -25.5645    0.0555   24.6835 C   0  0  0  0  0  0  0  0  0  0  0  0
  -25.0744   -0.1586   25.9809 C   0  0  0  0  0  0  0  0  0  0  0  0
  -25.9423   -0.1046   27.0177 C   0  0  0  0  0  0  0  0  0  0  0  0
  -29.1728    2.3721   27.5916 O   0  0  0  0  0  0  0  0  0  0  0  0
  1  3  1  0
  3  4  1  0
  4  5  1  0
  2  6  1  0
  3  7  1  0
  4 13  2  0
  1  2  1  0
  6  5  1  0
  7  8  2  0
  8  9  1  0
  9 10  2  0
 10 11  1  0
 11 12  2  0
 12  7  1  0
M  END

$$$$
