No_2764-gen_results/8p0m/2024-11-27-11-27-31/
     RDKit          3D

 14 15  0  0  0  0  0  0  0  0999 V2000
  -28.0544   -1.0498   28.7246 N   0  0  0  0  0  0  0  0  0  0  0  0
  -26.9659   -0.4722   28.7709 C   0  0  0  0  0  0  0  0  0  0  0  0
  -26.8423    0.7388   29.2341 C   0  0  0  0  0  0  0  0  0  0  0  0
  -27.9523    1.4476   29.6919 C   0  0  0  0  0  0  0  0  0  0  0  0
  -29.1187    0.7784   29.6758 C   0  0  0  0  0  0  0  0  0  0  0  0
  -29.1536   -0.5056   29.2263 C   0  0  0  0  0  0  0  0  0  0  0  0
  -25.7770   -1.0990   28.3368 N   0  0  0  0  0  0  0  0  0  0  0  0
  -24.5806   -0.4052   28.1817 C   0  0  0  0  0  0  0  0  0  0  0  0
  -24.4737    0.8559   28.6322 C   0  0  0  0  0  0  0  0  0  0  0  0
  -25.5289    1.4730   29.1356 C   0  0  0  0  0  0  0  0  0  0  0  0
  -23.1111    1.4316   28.5056 C   0  0  0  0  0  0  0  0  0  0  0  0
  -22.9982    2.3007   27.5923 F   0  0  0  0  0  0  0  0  0  0  0  0
  -22.8053    2.1312   29.6903 F   0  0  0  0  0  0  0  0  0  0  0  0
  -22.1143    0.5467   28.4787 F   0  0  0  0  0  0  0  0  0  0  0  0
  9 11  1  0
 11 12  1  0
 11 13  1  0
 11 14  1  0
  1  2  2  0
  3  4  2  0
  4  5  1  0
  5  6  2  0
  6  1  1  0
  2  3  1  0
  3 10  1  0
 10  9  2  0
  9  8  1  0
  8  7  2  0
  7  2  1  0
M  END

$$$$
