No_2923-gen_results/8p0m/2024-11-27-11-27-31/
     RDKit          3D

 12 13  0  0  0  0  0  0  0  0999 V2000
  -28.0162   -0.8135   28.8779 C   0  0  0  0  0  0  0  0  0  0  0  0
  -27.0636   -0.1190   28.6079 C   0  0  0  0  0  0  0  0  0  0  0  0
  -25.7647   -0.3897   29.0360 C   0  0  0  0  0  0  0  0  0  0  0  0
  -24.5516    0.4058   28.7646 C   0  0  0  0  0  0  0  0  0  0  0  0
  -24.6957    1.4480   27.7988 C   0  0  0  0  0  0  0  0  0  0  0  0
  -26.0010    1.6784   27.2965 C   0  0  0  0  0  0  0  0  0  0  0  0
  -27.0736    0.9682   27.6500 C   0  0  0  0  0  0  0  0  0  0  0  0
  -27.9723   -1.6229   30.1490 C   0  0  0  0  0  0  0  0  0  0  0  0
  -26.7164   -2.0728   30.5118 N   0  0  0  0  0  0  0  0  0  0  0  0
  -25.5782   -1.3785   30.1336 C   0  0  0  0  0  0  0  0  0  0  0  0
  -23.4912    2.2185   27.4345 C   0  0  0  0  0  0  0  0  0  0  0  0
  -22.3913    2.0883   28.0990 N   0  0  0  0  0  0  0  0  0  0  0  0
  5 11  1  0
 11 12  2  0
  3  4  1  0
  4  5  2  0
  5  6  1  0
  6  7  2  0
  7  2  1  0
  1  2  2  0
  2  3  1  0
  3 10  2  0
 10  9  1  0
  9  8  2  0
  8  1  1  0
M  END

$$$$
