No_2457-gen_results/8p0m/2024-11-27-11-27-31/
     RDKit          3D

 26 29  0  0  0  0  0  0  0  0999 V2000
  -28.0162   -0.8135   28.8779 C   0  0  0  0  0  0  0  0  0  0  0  0
  -28.4690   -0.7850   29.8287 C   0  0  0  0  0  0  0  0  0  0  0  0
  -27.1356    0.2359   28.5352 C   0  0  0  0  0  0  0  0  0  0  0  0
  -26.8745    1.2825   29.3982 C   0  0  0  0  0  0  0  0  0  0  0  0
  -27.5070    1.2380   30.6295 C   0  0  0  0  0  0  0  0  0  0  0  0
  -28.3293    0.1745   30.9350 C   0  0  0  0  0  0  0  0  0  0  0  0
  -26.4077    0.3070   27.2259 C   0  0  0  0  0  0  0  0  0  0  0  0
  -25.7128    1.4905   26.9212 C   0  0  0  0  0  0  0  0  0  0  0  0
  -25.4301    2.4538   27.8655 C   0  0  0  0  0  0  0  0  0  0  0  0
  -26.0916    2.4163   29.0923 C   0  0  0  0  0  0  0  0  0  0  0  0
  -25.8331    3.5594   30.0163 C   0  0  0  0  0  0  0  0  0  0  0  0
  -25.1409    3.3626   30.9850 O   0  0  0  0  0  0  0  0  0  0  0  0
  -26.6029    4.5799   29.9046 O   0  0  0  0  0  0  0  0  0  0  0  0
  -26.5500    5.5039   30.2967 C   0  0  0  0  0  0  0  0  0  0  0  0
  -26.7517    5.7815   31.6335 C   0  0  0  0  0  0  0  0  0  0  0  0
  -27.6546    5.1348   32.3097 C   0  0  0  0  0  0  0  0  0  0  0  0
  -27.7385    5.2347   33.7628 C   0  0  0  0  0  0  0  0  0  0  0  0
  -25.9693    6.7615   32.3942 C   0  0  0  0  0  0  0  0  0  0  0  0
  -26.0503    6.9303   33.7659 C   0  0  0  0  0  0  0  0  0  0  0  0
  -26.9812    6.1894   34.4757 C   0  0  0  0  0  0  0  0  0  0  0  0
  -26.2210    6.6768   29.5145 N   0  0  0  0  0  0  0  0  0  0  0  0
  -26.1834    7.8830   29.7348 C   0  0  0  0  0  0  0  0  0  0  0  0
  -25.8889    8.8033   29.0653 C   0  0  0  0  0  0  0  0  0  0  0  0
  -25.9107    6.5218   28.1370 C   0  0  0  0  0  0  0  0  0  0  0  0
  -25.4445    7.4540   27.2828 C   0  0  0  0  0  0  0  0  0  0  0  0
  -25.4359    8.7357   27.7815 C   0  0  0  0  0  0  0  0  0  0  0  0
 10 11  1  0
 11 12  2  0
 11 13  1  0
 13 14  1  0
 14 21  1  0
 21 22  1  0
 21 24  1  0
 23 26  1  0
 25 26  1  0
 14 15  1  0
 22 23  1  0
 25 24  1  0
 15 16  2  0
 16 17  1  0
 17 20  2  0
 20 19  1  0
 19 18  2  0
 18 15  1  0
  4 10  2  0
 10  9  1  0
  9  8  2  0
  8  7  1  0
  7  3  2  0
  1  2  2  0
  2  6  1  0
  6  5  2  0
  5  4  1  0
  4  3  1  0
  3  1  1  0
M  END

$$$$
