No_2521-gen_results/8p0m/2024-11-27-11-27-31/
     RDKit          3D

 22 24  0  0  0  0  0  0  0  0999 V2000
  -28.0162   -0.8135   28.8779 C   0  0  0  0  0  0  0  0  0  0  0  0
  -27.0636   -0.1189   28.6079 C   0  0  0  0  0  0  0  0  0  0  0  0
  -25.7647   -0.3897   29.0360 C   0  0  0  0  0  0  0  0  0  0  0  0
  -25.5296   -1.5302   29.9014 C   0  0  0  0  0  0  0  0  0  0  0  0
  -26.6888   -2.2893   30.1810 C   0  0  0  0  0  0  0  0  0  0  0  0
  -27.8727   -1.9508   29.7373 C   0  0  0  0  0  0  0  0  0  0  0  0
  -24.5491    0.4100   28.7341 C   0  0  0  0  0  0  0  0  0  0  0  0
  -24.0931    1.3779   29.5761 C   0  0  0  0  0  0  0  0  0  0  0  0
  -22.9779    2.1400   29.2464 C   0  0  0  0  0  0  0  0  0  0  0  0
  -22.2677    1.9029   28.0361 C   0  0  0  0  0  0  0  0  0  0  0  0
  -22.7430    0.9705   27.1898 C   0  0  0  0  0  0  0  0  0  0  0  0
  -23.8526    0.2276   27.4988 C   0  0  0  0  0  0  0  0  0  0  0  0
  -24.7481    1.6171   30.9103 C   0  0  0  0  0  0  0  0  0  0  0  0
  -24.8815    0.8522   31.7507 O   0  0  0  0  0  0  0  0  0  0  0  0
  -24.8968    2.9873   31.2056 N   0  0  0  0  0  0  0  0  0  0  0  0
  -25.4549    3.4211   32.4668 C   0  0  0  0  0  0  0  0  0  0  0  0
  -25.2687    4.8069   32.5943 C   0  0  0  0  0  0  0  0  0  0  0  0
  -25.7556    5.6740   31.6064 C   0  0  0  0  0  0  0  0  0  0  0  0
  -25.5721    7.0265   31.7844 C   0  0  0  0  0  0  0  0  0  0  0  0
  -24.8382    7.5651   32.8260 C   0  0  0  0  0  0  0  0  0  0  0  0
  -24.3167    6.7013   33.8122 C   0  0  0  0  0  0  0  0  0  0  0  0
  -24.5066    5.3448   33.6735 C   0  0  0  0  0  0  0  0  0  0  0  0
  3  7  1  0
  8 13  1  0
 13 14  2  0
 13 15  1  0
 15 16  1  0
 16 17  1  0
 17 18  2  0
 18 19  1  0
 19 20  2  0
 20 21  1  0
 21 22  2  0
 22 17  1  0
  1  2  2  0
  2  3  1  0
  3  4  2  0
  4  5  1  0
  5  6  2  0
  6  1  1  0
  7  8  1  0
  8  9  2  0
  9 10  1  0
 10 11  2  0
 11 12  1  0
 12  7  2  0
M  END

$$$$
