No_2107-gen_results/8p0m/2024-11-27-11-27-31/
     RDKit          3D

 26 27  0  0  0  0  0  0  0  0999 V2000
  -28.1229   -1.3353   28.4874 O   0  0  0  0  0  0  0  0  0  0  0  0
  -28.5208   -0.4363   29.0779 C   0  0  0  0  0  0  0  0  0  0  0  0
  -27.6655    0.1129   30.0346 C   0  0  0  0  0  0  0  0  0  0  0  0
  -29.5662    0.3302   28.6099 N   0  0  0  0  0  0  0  0  0  0  0  0
  -26.4276    0.0638   30.0544 C   0  0  0  0  0  0  0  0  0  0  0  0
  -30.3150   -0.1868   27.5796 C   0  0  0  0  0  0  0  0  0  0  0  0
  -25.7074   -0.8284   30.1373 C   0  0  0  0  0  0  0  0  0  0  0  0
  -24.2772   -0.9380   29.9387 C   0  0  0  0  0  0  0  0  0  0  0  0
  -23.6057    0.2834   29.8079 C   0  0  0  0  0  0  0  0  0  0  0  0
  -22.2027    0.3974   29.6563 C   0  0  0  0  0  0  0  0  0  0  0  0
  -24.3761    1.5303   29.8409 C   0  0  0  0  0  0  0  0  0  0  0  0
  -25.7312    1.3939   29.9951 C   0  0  0  0  0  0  0  0  0  0  0  0
  -21.7612    1.4425   29.1507 O   0  0  0  0  0  0  0  0  0  0  0  0
  -21.4498   -0.6224   29.8016 O   0  0  0  0  0  0  0  0  0  0  0  0
  -30.1068    1.4614   29.2696 C   0  0  0  0  0  0  0  0  0  0  0  0
  -29.8193    2.6631   28.7294 C   0  0  0  0  0  0  0  0  0  0  0  0
  -29.6473    3.5996   29.4716 C   0  0  0  0  0  0  0  0  0  0  0  0
  -29.1813    4.9800   28.9756 C   0  0  0  0  0  0  0  0  0  0  0  0
  -29.0310    5.0718   27.5785 C   0  0  0  0  0  0  0  0  0  0  0  0
  -29.2401    3.9784   26.7471 C   0  0  0  0  0  0  0  0  0  0  0  0
  -29.5571    2.7480   27.3243 C   0  0  0  0  0  0  0  0  0  0  0  0
  -29.9282   -0.8224   26.7275 O   0  0  0  0  0  0  0  0  0  0  0  0
  -31.6866    0.5198   27.3397 C   0  0  0  0  0  0  0  0  0  0  0  0
  -32.1411    1.2534   28.1400 F   0  0  0  0  0  0  0  0  0  0  0  0
  -31.5282    0.7118   26.2302 F   0  0  0  0  0  0  0  0  0  0  0  0
  -32.5341   -0.6271   27.2926 F   0  0  0  0  0  0  0  0  0  0  0  0
  1  2  2  0
  2  3  1  0
  2  4  1  0
  3  5  1  0
  4  6  1  0
  9 10  1  0
 10 13  1  0
 10 14  2  0
  4 15  1  0
 15 16  1  0
  6 22  2  0
  6 23  1  0
 23 24  1  0
 23 25  1  0
 23 26  1  0
  5  7  2  0
  7  8  1  0
  8  9  2  0
  9 11  1  0
 11 12  2  0
 12  5  1  0
 16 17  2  0
 17 18  1  0
 18 19  2  0
 19 20  1  0
 20 21  2  0
 21 16  1  0
M  END

$$$$
