No_2379-gen_results/8p0m/2024-11-27-11-27-31/
     RDKit          3D

 32 35  0  0  0  0  0  0  0  0999 V2000
  -28.0162   -0.8135   28.8779 C   0  0  0  0  0  0  0  0  0  0  0  0
  -28.4690   -0.7850   29.8287 C   0  0  0  0  0  0  0  0  0  0  0  0
  -26.5455   -0.8762   28.8500 C   0  0  0  0  0  0  0  0  0  0  0  0
  -25.8041   -1.0324   30.0571 C   0  0  0  0  0  0  0  0  0  0  0  0
  -27.9437   -0.9869   31.2075 C   0  0  0  0  0  0  0  0  0  0  0  0
  -26.5825   -1.0386   31.2231 C   0  0  0  0  0  0  0  0  0  0  0  0
  -29.9267   -0.7257   29.8772 O   0  0  0  0  0  0  0  0  0  0  0  0
  -30.5050   -0.0237   28.9624 C   0  0  0  0  0  0  0  0  0  0  0  0
  -31.3773   -0.3992   28.1172 C   0  0  0  0  0  0  0  0  0  0  0  0
  -31.9394    0.3227   27.0412 C   0  0  0  0  0  0  0  0  0  0  0  0
  -31.4912    1.6577   26.9464 C   0  0  0  0  0  0  0  0  0  0  0  0
  -30.0152    1.3636   28.7408 C   0  0  0  0  0  0  0  0  0  0  0  0
  -30.5425    2.1519   27.8151 C   0  0  0  0  0  0  0  0  0  0  0  0
  -24.3782   -1.1203   30.0680 C   0  0  0  0  0  0  0  0  0  0  0  0
  -23.6250   -1.0037   29.0103 C   0  0  0  0  0  0  0  0  0  0  0  0
  -22.1630   -0.8775   29.1062 C   0  0  0  0  0  0  0  0  0  0  0  0
  -21.4616   -0.3448   28.0581 C   0  0  0  0  0  0  0  0  0  0  0  0
  -22.1675    0.6845   27.2726 C   0  0  0  0  0  0  0  0  0  0  0  0
  -23.6014    0.7553   27.3153 C   0  0  0  0  0  0  0  0  0  0  0  0
  -24.1942   -0.8381   27.7370 C   0  0  0  0  0  0  0  0  0  0  0  0
  -24.3686    1.4694   26.3228 C   0  0  0  0  0  0  0  0  0  0  0  0
  -25.5626    1.1592   26.0332 C   0  0  0  0  0  0  0  0  0  0  0  0
  -26.5782    1.5835   25.6266 C   0  0  0  0  0  0  0  0  0  0  0  0
  -27.5811    0.9504   24.8284 C   0  0  0  0  0  0  0  0  0  0  0  0
  -28.8821    1.4013   24.5808 C   0  0  0  0  0  0  0  0  0  0  0  0
  -29.8354    0.6322   23.9821 C   0  0  0  0  0  0  0  0  0  0  0  0
  -29.4740   -0.7269   23.7691 C   0  0  0  0  0  0  0  0  0  0  0  0
  -28.2281   -1.2164   24.0334 C   0  0  0  0  0  0  0  0  0  0  0  0
  -27.2848   -0.4362   24.6231 C   0  0  0  0  0  0  0  0  0  0  0  0
  -32.2612    2.7145   25.7267 P   0  0  0  0  0  0  0  0  0  0  0  0
  -32.7718    1.9240   24.6202 O   0  0  0  0  0  0  0  0  0  0  0  0
  -31.1467    3.6826   25.3285 O   0  0  0  0  0  0  0  0  0  0  0  0
  2  7  1  0
  7  8  1  0
  4 14  1  0
 19 21  1  0
 21 22  2  3
 22 23  1  0
 11 30  1  0
 30 31  2  0
 30 32  2  0
 23 24  1  0
 14 15  1  0
 15 16  2  0
 16 17  1  0
 17 18  2  0
 18 19  1  0
 19 20  2  0
 20 15  1  0
 24 25  2  0
 25 26  1  0
 26 27  2  0
 27 28  1  0
 28 29  2  0
 29 24  1  0
  1  2  2  0
  2  5  1  0
  5  6  2  0
  6  4  1  0
  4  3  2  0
  3  1  1  0
  8  9  2  0
  9 10  1  0
 10 11  2  0
 11 13  1  0
 13 12  2  0
 12  8  1  0
M  END

$$$$
