No_2814-gen_results/8p0m/2024-11-27-11-27-31/
     RDKit          3D

 28 29  0  0  0  0  0  0  0  0999 V2000
  -28.0162   -0.8135   28.8779 C   0  0  0  0  0  0  0  0  0  0  0  0
  -28.4690   -0.7850   29.8287 C   0  0  0  0  0  0  0  0  0  0  0  0
  -28.1960    0.3478   28.0550 C   0  0  0  0  0  0  0  0  0  0  0  0
  -29.0191    1.3501   28.3782 C   0  0  0  0  0  0  0  0  0  0  0  0
  -29.4107    0.1803   30.3782 C   0  0  0  0  0  0  0  0  0  0  0  0
  -29.6059    1.2495   29.6193 C   0  0  0  0  0  0  0  0  0  0  0  0
  -27.4597    0.3802   26.7091 C   0  0  0  0  0  0  0  0  0  0  0  0
  -26.0094    0.3317   26.7236 C   0  0  0  0  0  0  0  0  0  0  0  0
  -25.3055    0.0239   27.8527 C   0  0  0  0  0  0  0  0  0  0  0  0
  -23.8827    0.0654   27.8432 C   0  0  0  0  0  0  0  0  0  0  0  0
  -23.2461    0.9951   28.1218 C   0  0  0  0  0  0  0  0  0  0  0  0
  -22.1005    1.2715   28.1869 C   0  0  0  0  0  0  0  0  0  0  0  0
  -21.0839    1.1040   28.0979 C   0  0  0  0  0  0  0  0  0  0  0  0
  -19.6089    0.4061   28.1766 C   0  0  0  0  0  0  0  0  0  0  0  0
  -27.9944    1.4340   25.8653 C   0  0  0  0  0  0  0  0  0  0  0  0
  -24.0339    2.2565   28.0587 O   0  0  0  0  0  0  0  0  0  0  0  0
  -25.4151    0.1436   25.4478 C   0  0  0  0  0  0  0  0  0  0  0  0
  -30.5043    2.1817   30.0446 F   0  0  0  0  0  0  0  0  0  0  0  0
  -27.7665    2.6169   25.9366 C   0  0  0  0  0  0  0  0  0  0  0  0
  -28.8847    0.8089   24.8726 C   0  0  0  0  0  0  0  0  0  0  0  0
  -29.2428   -0.4555   24.8044 C   0  0  0  0  0  0  0  0  0  0  0  0
  -29.4179    1.7604   23.8568 C   0  0  0  0  0  0  0  0  0  0  0  0
  -30.3687    2.4958   24.1531 C   0  0  0  0  0  0  0  0  0  0  0  0
  -31.6360    2.3142   24.3364 C   0  0  0  0  0  0  0  0  0  0  0  0
  -32.6477    3.3078   24.5512 C   0  0  0  0  0  0  0  0  0  0  0  0
  -32.1683    4.5841   24.8427 C   0  0  0  0  0  0  0  0  0  0  0  0
  -30.8359    4.8710   24.8507 C   0  0  0  0  0  0  0  0  0  0  0  0
  -29.8979    3.9588   24.5880 C   0  0  0  0  0  0  0  0  0  0  0  0
  3  7  1  0
  7  8  1  0
  8  9  2  3
  9 10  1  0
 10 11  2  3
 11 12  1  0
 12 13  3  0
 13 14  1  0
  7 15  1  0
 11 16  1  0
  8 17  1  0
  6 18  1  0
 15 19  2  0
 15 20  1  0
 20 21  1  0
 20 22  1  0
 22 23  1  0
 23 24  2  0
 24 25  1  0
 25 26  2  0
 26 27  1  0
 27 28  2  0
 28 23  1  0
  1  2  2  0
  2  5  1  0
  5  6  2  0
  6  4  1  0
  4  3  2  0
  3  1  1  0
M  END

$$$$
