No_2619-gen_results/8p0m/2024-11-27-11-27-31/
     RDKit          3D

 10 10  0  0  0  0  0  0  0  0999 V2000
  -28.0162   -0.8135   28.8779 C   0  0  0  0  0  0  0  0  0  0  0  0
  -28.4690   -0.7850   29.8287 C   0  0  0  0  0  0  0  0  0  0  0  0
  -27.0871    0.2903   28.6377 C   0  0  0  0  0  0  0  0  0  0  0  0
  -26.0238    0.3644   29.2526 C   0  0  0  0  0  0  0  0  0  0  0  0
  -26.2460    0.4334   30.7986 C   0  0  0  0  0  0  0  0  0  0  0  0
  -27.7081   -0.6876   31.1981 C   0  0  0  0  0  0  0  0  0  0  0  0
  -26.5887    0.2517   27.2039 F   0  0  0  0  0  0  0  0  0  0  0  0
  -27.8650    1.6463   28.5712 C   0  0  0  0  0  0  0  0  0  0  0  0
  -28.0624    2.1978   27.4274 C   0  0  0  0  0  0  0  0  0  0  0  0
  -27.4261    1.8270   26.2611 C   0  0  0  0  0  0  0  0  0  0  0  0
  1  2  1  0
  1  3  1  0
  3  4  1  0
  4  5  1  0
  2  6  1  0
  5  6  1  0
  3  7  1  0
  3  8  1  0
  8  9  1  0
  9 10  2  0
M  END

$$$$
