No_208-gen_results/8p0m/2024-11-27-11-27-31/
     RDKit          3D

 23 25  0  0  0  0  0  0  0  0999 V2000
  -28.0162   -0.8135   28.8779 C   0  0  0  0  0  0  0  0  0  0  0  0
  -27.0636   -0.1189   28.6079 C   0  0  0  0  0  0  0  0  0  0  0  0
  -25.7923   -0.4302   29.0761 C   0  0  0  0  0  0  0  0  0  0  0  0
  -25.5756   -1.5654   29.9363 C   0  0  0  0  0  0  0  0  0  0  0  0
  -26.7354   -2.3004   30.2173 C   0  0  0  0  0  0  0  0  0  0  0  0
  -27.9184   -1.9537   29.7629 C   0  0  0  0  0  0  0  0  0  0  0  0
  -27.1057    1.1023   27.7593 C   0  0  0  0  0  0  0  0  0  0  0  0
  -26.7157    2.2350   27.9945 C   0  0  0  0  0  0  0  0  0  0  0  0
  -26.6929    3.3459   27.0337 C   0  0  0  0  0  0  0  0  0  0  0  0
  -26.1137    4.6521   27.2832 C   0  0  0  0  0  0  0  0  0  0  0  0
  -25.5470    4.8355   28.5363 C   0  0  0  0  0  0  0  0  0  0  0  0
  -25.4931    3.8265   29.4633 C   0  0  0  0  0  0  0  0  0  0  0  0
  -26.0070    2.5721   29.2356 C   0  0  0  0  0  0  0  0  0  0  0  0
  -27.8082    0.8213   26.4618 C   0  0  0  0  0  0  0  0  0  0  0  0
  -27.1343    0.6006   25.3834 C   0  0  0  0  0  0  0  0  0  0  0  0
  -25.7246    0.2556   25.4322 C   0  0  0  0  0  0  0  0  0  0  0  0
  -24.7988    0.3150   26.4843 C   0  0  0  0  0  0  0  0  0  0  0  0
  -23.9042    1.3327   26.8002 C   0  0  0  0  0  0  0  0  0  0  0  0
  -22.8314    1.2025   27.6729 C   0  0  0  0  0  0  0  0  0  0  0  0
  -22.6748   -0.0302   28.3615 C   0  0  0  0  0  0  0  0  0  0  0  0
  -21.6173   -0.1344   29.3361 C   0  0  0  0  0  0  0  0  0  0  0  0
  -24.5631   -0.8430   27.2060 N   0  0  0  0  0  0  0  0  0  0  0  0
  -23.5847   -1.0343   28.0442 C   0  0  0  0  0  0  0  0  0  0  0  0
  2  7  1  0
  7 14  1  0
 14 15  2  3
 15 16  1  0
 20 21  1  0
  7  8  1  0
 16 17  1  0
  1  2  2  0
  2  3  1  0
  3  4  2  0
  4  5  1  0
  5  6  2  0
  6  1  1  0
  8  9  2  0
  9 10  1  0
 10 11  2  0
 11 12  1  0
 12 13  2  0
 13  8  1  0
 17 18  2  0
 18 19  1  0
 19 20  2  0
 20 23  1  0
 23 22  2  0
 22 17  1  0
M  END

$$$$
