No_2172-gen_results/8p0m/2024-11-27-11-27-31/
     RDKit          3D

 27 30  0  0  0  0  0  0  0  0999 V2000
  -28.0162   -0.8135   28.8779 C   0  0  0  0  0  0  0  0  0  0  0  0
  -28.4690   -0.7850   29.8287 C   0  0  0  0  0  0  0  0  0  0  0  0
  -28.1816    0.4277   28.1134 C   0  0  0  0  0  0  0  0  0  0  0  0
  -28.9841    1.4155   28.5154 C   0  0  0  0  0  0  0  0  0  0  0  0
  -29.3802    0.1384   30.4612 C   0  0  0  0  0  0  0  0  0  0  0  0
  -29.5415    1.2736   29.7242 C   0  0  0  0  0  0  0  0  0  0  0  0
  -27.4586    0.4934   26.7701 C   0  0  0  0  0  0  0  0  0  0  0  0
  -27.8805    0.6637   25.7783 N   0  0  0  0  0  0  0  0  0  0  0  0
  -25.5189    0.2681   26.8864 Br  0  0  0  0  0  0  0  0  0  0  0  0
  -29.2384    0.8723   25.6749 C   0  0  0  0  0  0  0  0  0  0  0  0
  -29.9552    0.5467   24.9128 C   0  0  0  0  0  0  0  0  0  0  0  0
  -31.3586    0.8917   24.7433 C   0  0  0  0  0  0  0  0  0  0  0  0
  -31.8444    1.8209   25.6452 C   0  0  0  0  0  0  0  0  0  0  0  0
  -31.0258    2.4233   26.5201 C   0  0  0  0  0  0  0  0  0  0  0  0
  -29.6716    2.0540   26.5721 C   0  0  0  0  0  0  0  0  0  0  0  0
  -29.1208    2.4135   27.6269 N   0  0  0  0  0  0  0  0  0  0  0  0
  -28.6395    3.6959   27.8667 C   0  0  0  0  0  0  0  0  0  0  0  0
  -27.2985    4.0453   27.5655 C   0  0  0  0  0  0  0  0  0  0  0  0
  -29.5198    4.6671   28.4254 C   0  0  0  0  0  0  0  0  0  0  0  0
  -29.2079    5.9753   28.4555 C   0  0  0  0  0  0  0  0  0  0  0  0
  -26.8745    5.3781   27.6890 C   0  0  0  0  0  0  0  0  0  0  0  0
  -27.8123    6.3633   28.1617 C   0  0  0  0  0  0  0  0  0  0  0  0
  -33.2661    2.2551   25.4338 C   0  0  0  0  0  0  0  0  0  0  0  0
  -34.0869    1.7764   24.8579 O   0  0  0  0  0  0  0  0  0  0  0  0
  -33.5806    3.4822   26.1779 N   0  0  0  0  0  0  0  0  0  0  0  0
  -34.8959    4.0491   26.1419 C   0  0  0  0  0  0  0  0  0  0  0  0
  -29.6530   -0.5844   23.8912 C   0  0  0  0  0  0  0  0  0  0  0  0
  3  7  1  0
  7  8  2  0
  7  9  1  0
  8 10  1  0
  4 16  1  0
 15 16  1  0
 16 17  1  0
 13 23  1  0
 23 24  2  0
 23 25  1  0
 25 26  1  0
 11 27  1  0
 17 18  2  0
 18 21  1  0
 21 22  2  0
 22 20  1  0
 20 19  2  0
 19 17  1  0
  1  2  2  0
  2  5  1  0
  5  6  2  0
  6  4  1  0
  4  3  2  0
  3  1  1  0
 10 11  2  0
 11 12  1  0
 12 13  2  0
 13 14  1  0
 14 15  2  0
 15 10  1  0
M  END

$$$$
