No_222-gen_results/8p0m/2024-11-27-11-27-31/
     RDKit          3D

 13 13  0  0  0  0  0  0  0  0999 V2000
  -28.0162   -0.8135   28.8779 C   0  0  0  0  0  0  0  0  0  0  0  0
  -27.0636   -0.1189   28.6079 C   0  0  0  0  0  0  0  0  0  0  0  0
  -26.9716    0.7139   27.5060 C   0  0  0  0  0  0  0  0  0  0  0  0
  -28.1053    0.7744   26.6421 C   0  0  0  0  0  0  0  0  0  0  0  0
  -29.2041    0.1179   27.0477 C   0  0  0  0  0  0  0  0  0  0  0  0
  -30.3488    0.2568   26.2203 C   0  0  0  0  0  0  0  0  0  0  0  0
  -29.1817   -0.6758   28.1173 C   0  0  0  0  0  0  0  0  0  0  0  0
  -31.3387   -0.2347   26.5001 O   0  0  0  0  0  0  0  0  0  0  0  0
  -30.3761    1.1595   25.2713 O   0  0  0  0  0  0  0  0  0  0  0  0
  -25.6602    1.4148   27.1421 C   0  0  0  0  0  0  0  0  0  0  0  0
  -24.5284    1.0318   27.7404 C   0  0  0  0  0  0  0  0  0  0  0  0
  -23.2997    1.7946   27.4178 C   0  0  0  0  0  0  0  0  0  0  0  0
  -22.1473    1.5809   28.0666 N   0  0  0  0  0  0  0  0  0  0  0  0
  5  6  1  0
  6  8  1  0
  6  9  2  0
  3 10  1  0
 10 11  2  3
 11 12  1  0
 12 13  1  0
  1  2  2  0
  2  3  1  0
  3  4  2  0
  4  5  1  0
  5  7  2  0
  7  1  1  0
M  END

$$$$
