No_2506-gen_results/8p0m/2024-11-27-11-27-31/
     RDKit          3D

 28 31  0  0  0  0  0  0  0  0999 V2000
  -28.0162   -0.8135   28.8779 C   0  0  0  0  0  0  0  0  0  0  0  0
  -27.0636   -0.1189   28.6079 C   0  0  0  0  0  0  0  0  0  0  0  0
  -26.9287    1.1713   29.0083 C   0  0  0  0  0  0  0  0  0  0  0  0
  -25.7702    2.0341   28.6884 C   0  0  0  0  0  0  0  0  0  0  0  0
  -24.7141    1.4431   27.9188 C   0  0  0  0  0  0  0  0  0  0  0  0
  -24.8590    0.0783   27.5836 C   0  0  0  0  0  0  0  0  0  0  0  0
  -25.9647   -0.6606   27.9164 C   0  0  0  0  0  0  0  0  0  0  0  0
  -29.1701   -0.2984   28.9471 N   0  0  0  0  0  0  0  0  0  0  0  0
  -30.1841   -0.8920   29.7048 C   0  0  0  0  0  0  0  0  0  0  0  0
  -23.5181    2.1584   27.5785 C   0  0  0  0  0  0  0  0  0  0  0  0
  -22.8741    2.5987   28.3525 O   0  0  0  0  0  0  0  0  0  0  0  0
  -23.2521    2.1508   26.2379 O   0  0  0  0  0  0  0  0  0  0  0  0
  -31.5257   -0.6141   29.4624 C   0  0  0  0  0  0  0  0  0  0  0  0
  -29.8647   -1.8638   30.7463 C   0  0  0  0  0  0  0  0  0  0  0  0
  -28.6250   -2.0052   31.1173 N   0  0  0  0  0  0  0  0  0  0  0  0
  -27.6256   -1.7824   30.0001 C   0  0  0  0  0  0  0  0  0  0  0  0
  -29.6017    0.5603   27.9295 C   0  0  0  0  0  0  0  0  0  0  0  0
  -29.0348    1.0812   27.2189 C   0  0  0  0  0  0  0  0  0  0  0  0
  -29.5842    1.9424   26.1131 C   0  0  0  0  0  0  0  0  0  0  0  0
  -32.4616   -1.1767   30.2993 C   0  0  0  0  0  0  0  0  0  0  0  0
  -31.8568    0.3038   28.4545 C   0  0  0  0  0  0  0  0  0  0  0  0
  -31.0448    0.8522   27.7657 C   0  0  0  0  0  0  0  0  0  0  0  0
  -31.1333    1.7130   26.6525 C   0  0  0  0  0  0  0  0  0  0  0  0
  -29.1923    2.7087   25.1019 C   0  0  0  0  0  0  0  0  0  0  0  0
  -29.2095    3.9800   25.2180 C   0  0  0  0  0  0  0  0  0  0  0  0
  -28.8392    1.9885   23.9313 C   0  0  0  0  0  0  0  0  0  0  0  0
  -32.9230   -2.4105   30.0511 C   0  0  0  0  0  0  0  0  0  0  0  0
  -33.0303   -2.9430   29.0590 O   0  0  0  0  0  0  0  0  0  0  0  0
  1  2  1  0
  1  8  1  0
  8  9  1  0
  5 10  1  0
 10 11  2  0
 10 12  1  0
  9 14  1  0
 14 15  1  0
  1 16  1  0
 15 16  1  0
  8 17  1  0
 17 18  1  0
 18 19  2  0
 13 20  1  0
 13 21  1  0
 17 22  1  0
 21 22  1  0
 19 23  1  0
 22 23  1  0
 19 24  1  0
 24 25  1  0
 24 26  1  0
 20 27  1  0
 27 28  2  0
  9 13  1  0
  2  3  2  0
  3  4  1  0
  4  5  2  0
  5  6  1  0
  6  7  2  0
  7  2  1  0
M  END

$$$$
