No_2268-gen_results/8p0m/2024-11-27-11-27-31/
     RDKit          3D

 20 20  0  0  0  0  0  0  0  0999 V2000
  -28.1229   -1.3353   28.4874 O   0  0  0  0  0  0  0  0  0  0  0  0
  -28.5208   -0.4363   29.0779 C   0  0  0  0  0  0  0  0  0  0  0  0
  -29.6977    0.0507   28.9764 C   0  0  0  0  0  0  0  0  0  0  0  0
  -27.5405    0.1756   30.0054 N   0  0  0  0  0  0  0  0  0  0  0  0
  -26.2376   -0.0526   30.0396 C   0  0  0  0  0  0  0  0  0  0  0  0
  -25.3208    0.9961   30.2769 C   0  0  0  0  0  0  0  0  0  0  0  0
  -24.0308    0.7153   30.3708 C   0  0  0  0  0  0  0  0  0  0  0  0
  -23.6146   -0.1598   29.7629 C   0  0  0  0  0  0  0  0  0  0  0  0
  -24.3896   -1.2831   29.2923 C   0  0  0  0  0  0  0  0  0  0  0  0
  -25.7505   -1.1821   29.4276 C   0  0  0  0  0  0  0  0  0  0  0  0
  -29.9462    1.2644   28.4746 C   0  0  0  0  0  0  0  0  0  0  0  0
  -29.0624    2.1637   28.4878 C   0  0  0  0  0  0  0  0  0  0  0  0
  -28.9420    3.2287   28.1253 C   0  0  0  0  0  0  0  0  0  0  0  0
  -28.4265    4.0042   27.6849 C   0  0  0  0  0  0  0  0  0  0  0  0
  -27.6564    5.0218   27.3844 C   0  0  0  0  0  0  0  0  0  0  0  0
  -26.7500    5.9150   27.5304 C   0  0  0  0  0  0  0  0  0  0  0  0
  -25.5404    6.6062   27.1978 C   0  0  0  0  0  0  0  0  0  0  0  0
  -24.7054    7.1594   27.2211 N   0  0  0  0  0  0  0  0  0  0  0  0
  -30.3857   -0.9158   28.4171 F   0  0  0  0  0  0  0  0  0  0  0  0
  -30.2816   -0.0036   30.4854 C   0  0  0  0  0  0  0  0  0  0  0  0
  1  2  2  0
  2  3  1  0
  2  4  1  0
  4  5  1  0
  3 11  1  0
 11 12  2  3
 12 13  1  0
 13 14  2  3
 14 15  1  0
 15 16  2  3
 16 17  1  0
 17 18  3  0
  3 19  1  0
  3 20  1  0
  5  6  2  0
  6  7  1  0
  7  8  2  0
  8  9  1  0
  9 10  2  0
 10  5  1  0
M  END

$$$$
