No_2639-gen_results/8p0m/2024-11-27-11-27-31/
     RDKit          3D

 23 26  0  0  0  0  0  0  0  0999 V2000
  -28.0162   -0.8135   28.8779 C   0  0  0  0  0  0  0  0  0  0  0  0
  -28.4690   -0.7850   29.8287 C   0  0  0  0  0  0  0  0  0  0  0  0
  -26.5042   -0.7777   28.8766 C   0  0  0  0  0  0  0  0  0  0  0  0
  -25.7622   -0.0022   27.9705 C   0  0  0  0  0  0  0  0  0  0  0  0
  -24.3914    0.1198   28.1381 C   0  0  0  0  0  0  0  0  0  0  0  0
  -23.7115   -0.7200   29.0863 C   0  0  0  0  0  0  0  0  0  0  0  0
  -24.4207   -1.5358   29.9161 C   0  0  0  0  0  0  0  0  0  0  0  0
  -25.8017   -1.5837   29.8123 C   0  0  0  0  0  0  0  0  0  0  0  0
  -29.9399   -0.6147   29.9523 C   0  0  0  0  0  0  0  0  0  0  0  0
  -30.5535   -0.3493   28.7375 C   0  0  0  0  0  0  0  0  0  0  0  0
  -29.8307   -0.1348   27.6333 C   0  0  0  0  0  0  0  0  0  0  0  0
  -28.5010   -0.1617   27.6990 C   0  0  0  0  0  0  0  0  0  0  0  0
  -27.6582    0.1087   26.6387 N   0  0  0  0  0  0  0  0  0  0  0  0
  -26.4092    0.5121   26.8519 C   0  0  0  0  0  0  0  0  0  0  0  0
  -28.2909    0.5938   25.4057 C   0  0  0  0  0  0  0  0  0  0  0  0
  -25.7048    1.1017   26.0061 O   0  0  0  0  0  0  0  0  0  0  0  0
  -28.6584    1.8612   25.2676 C   0  0  0  0  0  0  0  0  0  0  0  0
  -28.5339   -0.4122   24.4856 C   0  0  0  0  0  0  0  0  0  0  0  0
  -29.3061    2.2662   24.1061 C   0  0  0  0  0  0  0  0  0  0  0  0
  -29.6368    1.3429   23.1219 C   0  0  0  0  0  0  0  0  0  0  0  0
  -29.2563    0.0395   23.3956 C   0  0  0  0  0  0  0  0  0  0  0  0
  -22.2409   -0.5777   29.1725 C   0  0  0  0  0  0  0  0  0  0  0  0
  -21.2880    0.1505   29.1823 N   0  0  0  0  0  0  0  0  0  0  0  0
  1  3  1  0
 12 13  1  0
  4 14  1  0
 13 14  1  0
 13 15  1  0
 14 16  2  0
  6 22  1  0
 22 23  3  0
  1  2  2  0
  2  9  1  0
  9 10  2  0
 10 11  1  0
 11 12  2  0
 12  1  1  0
  3  4  2  0
  4  5  1  0
  5  6  2  0
  6  7  1  0
  7  8  2  0
  8  3  1  0
 15 17  2  0
 17 19  1  0
 19 20  2  0
 20 21  1  0
 21 18  2  0
 18 15  1  0
M  END

$$$$
