No_2489-gen_results/8p0m/2024-11-27-11-27-31/
     RDKit          3D

 14 14  0  0  0  0  0  0  0  0999 V2000
  -28.1493   -0.8198   28.9079 Cl  0  0  0  0  0  0  0  0  0  0  0  0
  -27.8339    0.4961   29.0598 C   0  0  0  0  0  0  0  0  0  0  0  0
  -27.6022    1.0128   30.2974 C   0  0  0  0  0  0  0  0  0  0  0  0
  -27.1699    2.3964   30.5338 C   0  0  0  0  0  0  0  0  0  0  0  0
  -26.9133    3.1827   29.3680 C   0  0  0  0  0  0  0  0  0  0  0  0
  -27.0551    2.6221   28.1384 C   0  0  0  0  0  0  0  0  0  0  0  0
  -27.4622    1.3345   27.9669 C   0  0  0  0  0  0  0  0  0  0  0  0
  -26.3799    4.7897   29.6070 Cl  0  0  0  0  0  0  0  0  0  0  0  0
  -27.5557    0.8472   26.5901 C   0  0  0  0  0  0  0  0  0  0  0  0
  -28.5227    0.9357   25.8182 N   0  0  0  0  0  0  0  0  0  0  0  0
  -26.3463    0.1820   26.0301 C   0  0  0  0  0  0  0  0  0  0  0  0
  -29.7192    1.4763   26.1750 C   0  0  0  0  0  0  0  0  0  0  0  0
  -25.1444    0.0523   26.7581 C   0  0  0  0  0  0  0  0  0  0  0  0
  -28.5368    0.3700   24.4891 C   0  0  0  0  0  0  0  0  0  0  0  0
  1  2  1  0
  5  8  1  0
  7  9  1  0
  9 10  1  0
  9 11  1  0
 10 12  1  0
 11 13  1  0
 10 14  1  0
  2  3  2  0
  3  4  1  0
  4  5  2  0
  5  6  1  0
  6  7  2  0
  7  2  1  0
M  END

$$$$
