No_2343-gen_results/8p0m/2024-11-27-11-27-31/
     RDKit          3D

 16 17  0  0  0  0  0  0  0  0999 V2000
  -28.0162   -0.8135   28.8779 C   0  0  0  0  0  0  0  0  0  0  0  0
  -28.4690   -0.7850   29.8287 C   0  0  0  0  0  0  0  0  0  0  0  0
  -27.0871    0.2903   28.6377 C   0  0  0  0  0  0  0  0  0  0  0  0
  -26.9102    0.8486   27.4199 C   0  0  0  0  0  0  0  0  0  0  0  0
  -27.8863   -0.5049   31.0944 C   0  0  0  0  0  0  0  0  0  0  0  0
  -26.9294    0.5930   31.0741 C   0  0  0  0  0  0  0  0  0  0  0  0
  -26.5225    0.9550   29.8008 C   0  0  0  0  0  0  0  0  0  0  0  0
  -27.6923    1.1530   26.5994 C   0  0  0  0  0  0  0  0  0  0  0  0
  -27.3659    1.5015   25.2102 C   0  0  0  0  0  0  0  0  0  0  0  0
  -26.0362    1.6011   24.8457 C   0  0  0  0  0  0  0  0  0  0  0  0
  -25.4085    0.8581   26.9810 C   0  0  0  0  0  0  0  0  0  0  0  0
  -25.0534    1.2547   25.7606 C   0  0  0  0  0  0  0  0  0  0  0  0
  -25.4721    1.9436   29.7153 C   0  0  0  0  0  0  0  0  0  0  0  0
  -24.0975    1.5604   29.9218 C   0  0  0  0  0  0  0  0  0  0  0  0
  -25.7652    3.2864   29.2420 C   0  0  0  0  0  0  0  0  0  0  0  0
  -26.4759    4.0763   29.9849 N   0  0  0  0  0  0  0  0  0  0  0  0
  3  4  1  0
  7 13  1  0
 13 14  1  0
 13 15  1  0
 15 16  2  0
  4  8  2  0
  8  9  1  0
  9 10  2  0
 10 12  1  0
 12 11  2  0
 11  4  1  0
  1  2  2  0
  2  5  1  0
  5  6  2  0
  6  7  1  0
  7  3  2  0
  3  1  1  0
M  END

$$$$
