No_2419-gen_results/8p0m/2024-11-27-11-27-31/
     RDKit          3D

 19 21  0  0  0  0  0  0  0  0999 V2000
  -28.0162   -0.8135   28.8779 C   0  0  0  0  0  0  0  0  0  0  0  0
  -28.4690   -0.7850   29.8287 C   0  0  0  0  0  0  0  0  0  0  0  0
  -26.5042   -0.7777   28.8766 C   0  0  0  0  0  0  0  0  0  0  0  0
  -25.8103   -0.8531   30.1028 C   0  0  0  0  0  0  0  0  0  0  0  0
  -27.9906   -0.8916   31.2257 C   0  0  0  0  0  0  0  0  0  0  0  0
  -26.6042   -0.8676   31.2652 C   0  0  0  0  0  0  0  0  0  0  0  0
  -30.4622   -0.8398   29.8385 Br  0  0  0  0  0  0  0  0  0  0  0  0
  -24.3620   -0.8196   30.1394 C   0  0  0  0  0  0  0  0  0  0  0  0
  -23.6760   -1.2865   30.8006 C   0  0  0  0  0  0  0  0  0  0  0  0
  -22.5086   -0.9085   31.0945 C   0  0  0  0  0  0  0  0  0  0  0  0
  -21.8877   -0.0505   30.1751 C   0  0  0  0  0  0  0  0  0  0  0  0
  -23.6293    0.2657   29.3908 C   0  0  0  0  0  0  0  0  0  0  0  0
  -23.5613    1.0620   28.4305 C   0  0  0  0  0  0  0  0  0  0  0  0
  -22.5020    1.5479   27.7929 C   0  0  0  0  0  0  0  0  0  0  0  0
  -22.7337    2.3965   26.7033 N   0  0  0  0  0  0  0  0  0  0  0  0
  -23.9257    2.3706   26.0996 C   0  0  0  0  0  0  0  0  0  0  0  0
  -24.7086    1.3725   27.4987 C   0  0  0  0  0  0  0  0  0  0  0  0
  -25.0667    1.8981   26.3900 C   0  0  0  0  0  0  0  0  0  0  0  0
  -26.2086    2.1044   25.7943 C   0  0  0  0  0  0  0  0  0  0  0  0
  2  7  1  0
  4  8  1  0
  8  9  2  0
  9 10  1  0
 10 11  2  0
  8 12  1  0
 11 12  1  0
 12 13  1  0
 13 14  2  0
 14 15  1  0
 15 16  2  0
 13 17  1  0
 16 17  1  0
 16 18  1  0
 18 19  1  0
  1  2  2  0
  2  5  1  0
  5  6  2  0
  6  4  1  0
  4  3  2  0
  3  1  1  0
M  END

$$$$
