No_2543-gen_results/8p0m/2024-11-27-11-27-31/
     RDKit          3D

  9  9  0  0  0  0  0  0  0  0999 V2000
  -28.0162   -0.8135   28.8779 C   0  0  0  0  0  0  0  0  0  0  0  0
  -28.4690   -0.7850   29.8287 C   0  0  0  0  0  0  0  0  0  0  0  0
  -27.0871    0.2903   28.6377 C   0  0  0  0  0  0  0  0  0  0  0  0
  -26.0238    0.3644   29.2526 C   0  0  0  0  0  0  0  0  0  0  0  0
  -24.9536    1.2658   28.9526 C   0  0  0  0  0  0  0  0  0  0  0  0
  -27.5327   -0.7046   31.0831 C   0  0  0  0  0  0  0  0  0  0  0  0
  -26.3981    0.1684   30.7584 C   0  0  0  0  0  0  0  0  0  0  0  0
  -25.0132    2.4362   28.5738 C   0  0  0  0  0  0  0  0  0  0  0  0
  -23.8674    2.9695   27.9627 N   0  0  0  0  0  0  0  0  0  0  0  0
  5  8  1  0
  8  9  2  0
  5  4  1  0
  1  2  2  0
  2  6  1  0
  6  7  2  0
  7  4  1  0
  4  3  2  0
  3  1  1  0
M  END

$$$$
