No_2942-gen_results/8p0m/2024-11-27-11-27-31/
     RDKit          3D

 12 12  0  0  0  0  0  0  0  0999 V2000
  -28.1229   -1.3353   28.4874 O   0  0  0  0  0  0  0  0  0  0  0  0
  -27.4806   -0.4044   28.7094 C   0  0  0  0  0  0  0  0  0  0  0  0
  -27.1904    0.2460   29.5268 C   0  0  0  0  0  0  0  0  0  0  0  0
  -26.8157    0.1371   27.4262 N   0  0  0  0  0  0  0  0  0  0  0  0
  -26.4224    1.3709   29.7047 N   0  0  0  0  0  0  0  0  0  0  0  0
  -26.0181    1.2275   27.3971 C   0  0  0  0  0  0  0  0  0  0  0  0
  -25.8034    1.8829   28.6036 C   0  0  0  0  0  0  0  0  0  0  0  0
  -27.7308   -0.1916   30.9974 C   0  0  0  0  0  0  0  0  0  0  0  0
  -26.7953   -0.5295   32.1999 Cl  0  0  0  0  0  0  0  0  0  0  0  0
  -25.4781    1.6503   26.3209 F   0  0  0  0  0  0  0  0  0  0  0  0
  -28.4160   -1.4122   30.7217 F   0  0  0  0  0  0  0  0  0  0  0  0
  -28.7020    0.7112   31.3837 F   0  0  0  0  0  0  0  0  0  0  0  0
  1  2  2  0
  2  3  1  0
  2  4  1  0
  4  6  1  0
  5  7  1  0
  6  7  1  0
  3  8  1  0
  8  9  1  0
  6 10  1  0
  8 11  1  0
  8 12  1  0
  3  5  1  0
M  END

$$$$
