No_2972-gen_results/8p0m/2024-11-27-11-27-31/
     RDKit          3D

 13 13  0  0  0  0  0  0  0  0999 V2000
  -28.0162   -0.8135   28.8779 C   0  0  0  0  0  0  0  0  0  0  0  0
  -28.4690   -0.7850   29.8287 C   0  0  0  0  0  0  0  0  0  0  0  0
  -26.6082   -0.9454   28.8569 N   0  0  0  0  0  0  0  0  0  0  0  0
  -25.7271   -0.3585   27.9991 C   0  0  0  0  0  0  0  0  0  0  0  0
  -24.3406   -0.4775   28.2916 C   0  0  0  0  0  0  0  0  0  0  0  0
  -23.3522    0.4389   27.8953 C   0  0  0  0  0  0  0  0  0  0  0  0
  -23.7077    1.4194   26.9172 C   0  0  0  0  0  0  0  0  0  0  0  0
  -25.1123    1.5049   26.5650 C   0  0  0  0  0  0  0  0  0  0  0  0
  -26.0550    0.7281   27.1879 C   0  0  0  0  0  0  0  0  0  0  0  0
  -26.1255   -2.0751   29.6015 C   0  0  0  0  0  0  0  0  0  0  0  0
  -29.6767   -0.1221   30.1358 C   0  0  0  0  0  0  0  0  0  0  0  0
  -27.9456   -1.4906   31.0920 C   0  0  0  0  0  0  0  0  0  0  0  0
  -24.9090   -2.5682   29.5254 N   0  0  0  0  0  0  0  0  0  0  0  0
  1  2  1  0
  1  3  1  0
  3  4  1  0
  3 10  1  0
  2 11  2  0
  2 12  1  0
 10 13  1  0
  4  5  2  0
  5  6  1  0
  6  7  2  0
  7  8  1  0
  8  9  2  0
  9  4  1  0
M  END

$$$$
