No_2034-gen_results/8p0m/2024-11-27-11-27-31/
     RDKit          3D

 15 16  0  0  0  0  0  0  0  0999 V2000
  -28.0162   -0.8135   28.8779 C   0  0  0  0  0  0  0  0  0  0  0  0
  -27.0636   -0.1189   28.6079 C   0  0  0  0  0  0  0  0  0  0  0  0
  -27.0010    0.6913   27.4910 C   0  0  0  0  0  0  0  0  0  0  0  0
  -25.7770    1.0214   26.9135 C   0  0  0  0  0  0  0  0  0  0  0  0
  -24.5088    0.7364   27.5686 C   0  0  0  0  0  0  0  0  0  0  0  0
  -24.5930   -0.0361   28.7390 C   0  0  0  0  0  0  0  0  0  0  0  0
  -25.8114   -0.4771   29.1584 C   0  0  0  0  0  0  0  0  0  0  0  0
  -28.6756   -0.6367   30.1275 Cl  0  0  0  0  0  0  0  0  0  0  0  0
  -23.0513    1.3578   26.9931 Cl  0  0  0  0  0  0  0  0  0  0  0  0
  -28.1451    0.9806   26.6605 C   0  0  0  0  0  0  0  0  0  0  0  0
  -29.1333    1.5616   27.1133 C   0  0  0  0  0  0  0  0  0  0  0  0
  -28.3080    0.1946   25.4238 C   0  0  0  0  0  0  0  0  0  0  0  0
  -29.4736    0.1589   24.7115 C   0  0  0  0  0  0  0  0  0  0  0  0
  -30.3714    1.7113   26.4088 C   0  0  0  0  0  0  0  0  0  0  0  0
  -30.4833    1.0146   25.1954 C   0  0  0  0  0  0  0  0  0  0  0  0
  1  2  1  0
  1  8  1  0
  5  9  1  0
  3 10  1  0
  2  3  2  0
  3  4  1  0
  4  5  2  0
  5  6  1  0
  6  7  2  0
  7  2  1  0
 10 11  2  0
 11 14  1  0
 14 15  2  0
 15 13  1  0
 13 12  2  0
 12 10  1  0
M  END

$$$$
