No_2191-gen_results/8p0m/2024-11-27-11-27-31/
     RDKit          3D

 28 30  0  0  0  0  0  0  0  0999 V2000
  -28.0162   -0.8135   28.8779 C   0  0  0  0  0  0  0  0  0  0  0  0
  -28.4690   -0.7850   29.8287 C   0  0  0  0  0  0  0  0  0  0  0  0
  -27.0871    0.2903   28.6377 C   0  0  0  0  0  0  0  0  0  0  0  0
  -26.7676    1.0274   29.4716 C   0  0  0  0  0  0  0  0  0  0  0  0
  -29.4593   -1.9217   30.2024 C   0  0  0  0  0  0  0  0  0  0  0  0
  -25.7657    2.1951   29.2744 C   0  0  0  0  0  0  0  0  0  0  0  0
  -25.1045    2.2407   28.0949 C   0  0  0  0  0  0  0  0  0  0  0  0
  -25.3978    1.3082   27.0718 C   0  0  0  0  0  0  0  0  0  0  0  0
  -26.3253    0.2904   27.3360 C   0  0  0  0  0  0  0  0  0  0  0  0
  -27.3624    1.2146   28.3636 Cl  0  0  0  0  0  0  0  0  0  0  0  0
  -26.1965   -0.6063   26.4851 F   0  0  0  0  0  0  0  0  0  0  0  0
  -25.6345   -0.4621   27.2304 F   0  0  0  0  0  0  0  0  0  0  0  0
  -29.7406   -2.3169   31.2113 C   0  0  0  0  0  0  0  0  0  0  0  0
  -30.6355   -3.5071   31.4402 C   0  0  0  0  0  0  0  0  0  0  0  0
  -31.0797   -4.1536   30.2957 C   0  0  0  0  0  0  0  0  0  0  0  0
  -30.7575   -3.6714   29.1259 C   0  0  0  0  0  0  0  0  0  0  0  0
  -29.9422   -2.5954   29.0137 C   0  0  0  0  0  0  0  0  0  0  0  0
  -28.4739    0.0872   31.1272 C   0  0  0  0  0  0  0  0  0  0  0  0
  -29.3109    0.7380   31.4730 C   0  0  0  0  0  0  0  0  0  0  0  0
  -29.1830    1.6221   32.6191 C   0  0  0  0  0  0  0  0  0  0  0  0
  -27.9710    1.6224   33.2249 C   0  0  0  0  0  0  0  0  0  0  0  0
  -27.2226    0.2411   31.8823 C   0  0  0  0  0  0  0  0  0  0  0  0
  -27.0098    0.9075   32.9501 C   0  0  0  0  0  0  0  0  0  0  0  0
  -26.4548    0.8217   30.9143 C   0  0  0  0  0  0  0  0  0  0  0  0
  -25.0793    1.1607   31.5464 C   0  0  0  0  0  0  0  0  0  0  0  0
  -26.5078    0.0362   34.2256 C   0  0  0  0  0  0  0  0  0  0  0  0
  -26.5701    0.5674   35.2600 O   0  0  0  0  0  0  0  0  0  0  0  0
  -26.1031   -1.1556   33.9767 O   0  0  0  0  0  0  0  0  0  0  0  0
  1  2  1  0
  1  3  2  0
  3  4  1  0
  2  5  1  0
  4  6  1  0
  6  7  2  3
  7  8  1  0
  8  9  2  3
  3 10  1  0
  9 11  1  0
  9 12  1  0
  2 18  1  0
  4 24  1  0
 22 24  1  0
 24 25  1  0
 23 26  1  0
 26 27  2  0
 26 28  1  0
  5 13  2  0
 13 14  1  0
 14 15  2  0
 15 16  1  0
 16 17  2  0
 17  5  1  0
 18 19  2  0
 19 20  1  0
 20 21  2  0
 21 23  1  0
 23 22  2  0
 22 18  1  0
M  END

$$$$
