No_2985-gen_results/8p0m/2024-11-27-11-27-31/
     RDKit          3D

 11 10  0  0  0  0  0  0  0  0999 V2000
  -28.0162   -0.8135   28.8779 C   0  0  0  0  0  0  0  0  0  0  0  0
  -28.4690   -0.7850   29.8287 C   0  0  0  0  0  0  0  0  0  0  0  0
  -26.5455   -0.8762   28.8500 C   0  0  0  0  0  0  0  0  0  0  0  0
  -25.8974   -0.8267   29.8894 C   0  0  0  0  0  0  0  0  0  0  0  0
  -27.9129   -0.8385   31.1942 C   0  0  0  0  0  0  0  0  0  0  0  0
  -26.5519   -0.8324   31.1775 C   0  0  0  0  0  0  0  0  0  0  0  0
  -25.8137   -0.8135   32.3064 O   0  0  0  0  0  0  0  0  0  0  0  0
  -26.0525   -1.5513   30.5989 Cl  0  0  0  0  0  0  0  0  0  0  0  0
  -24.3411   -0.6009   29.5846 C   0  0  0  0  0  0  0  0  0  0  0  0
  -25.4214    0.4205   29.4994 O   0  0  0  0  0  0  0  0  0  0  0  0
  -23.3064   -0.0100   30.2787 C   0  0  0  0  0  0  0  0  0  0  0  0
  1  2  2  3
  1  3  1  0
  3  4  2  3
  2  5  1  0
  5  6  2  3
  6  7  1  0
  6  8  1  0
  4  9  1  0
  4 10  1  0
  9 11  2  0
M  END

$$$$
