No_2477-gen_results/8p0m/2024-11-27-11-27-31/
     RDKit          3D

 13 13  0  0  0  0  0  0  0  0999 V2000
  -28.0162   -0.8135   28.8779 C   0  0  0  0  0  0  0  0  0  0  0  0
  -27.0636   -0.1190   28.6079 C   0  0  0  0  0  0  0  0  0  0  0  0
  -26.9716    0.7139   27.5060 C   0  0  0  0  0  0  0  0  0  0  0  0
  -25.8205    1.4909   27.1160 C   0  0  0  0  0  0  0  0  0  0  0  0
  -24.6562    1.4242   27.9180 C   0  0  0  0  0  0  0  0  0  0  0  0
  -24.6847    0.5901   29.0659 C   0  0  0  0  0  0  0  0  0  0  0  0
  -23.4723    0.4701   29.8435 C   0  0  0  0  0  0  0  0  0  0  0  0
  -25.7941   -0.1679   29.3440 C   0  0  0  0  0  0  0  0  0  0  0  0
  -29.1932   -0.0923   29.1332 N   0  0  0  0  0  0  0  0  0  0  0  0
  -30.2271   -0.6688   29.7602 C   0  0  0  0  0  0  0  0  0  0  0  0
  -22.3971    0.5837   29.4360 O   0  0  0  0  0  0  0  0  0  0  0  0
  -23.6692   -0.0259   31.1416 O   0  0  0  0  0  0  0  0  0  0  0  0
  -31.5345   -0.3883   29.2344 C   0  0  0  0  0  0  0  0  0  0  0  0
  1  2  2  3
  2  3  1  0
  3  4  1  0
  4  5  1  0
  5  6  1  0
  6  7  1  0
  2  8  1  0
  6  8  1  0
  1  9  1  0
  9 10  1  0
  7 11  2  0
  7 12  1  0
 10 13  3  0
M  END

$$$$
