No_237-gen_results/8p0m/2024-11-27-11-27-31/
     RDKit          3D

 28 29  0  0  0  0  0  0  0  0999 V2000
  -28.0162   -0.8135   28.8779 C   0  0  0  0  0  0  0  0  0  0  0  0
  -27.0636   -0.1190   28.6079 C   0  0  0  0  0  0  0  0  0  0  0  0
  -26.9716    0.7139   27.5060 C   0  0  0  0  0  0  0  0  0  0  0  0
  -28.1053    0.7744   26.6421 C   0  0  0  0  0  0  0  0  0  0  0  0
  -29.2008    0.1044   27.0527 C   0  0  0  0  0  0  0  0  0  0  0  0
  -29.2096   -0.6029   28.1853 C   0  0  0  0  0  0  0  0  0  0  0  0
  -30.2828    0.2138   26.2960 F   0  0  0  0  0  0  0  0  0  0  0  0
  -25.7134   -0.2153   29.4104 C   0  0  0  0  0  0  0  0  0  0  0  0
  -24.5990   -0.5875   28.8212 C   0  0  0  0  0  0  0  0  0  0  0  0
  -23.4462   -0.6050   29.3499 C   0  0  0  0  0  0  0  0  0  0  0  0
  -23.2516   -0.2567   30.6922 C   0  0  0  0  0  0  0  0  0  0  0  0
  -24.4288    0.0625   31.4230 C   0  0  0  0  0  0  0  0  0  0  0  0
  -25.6920    0.1074   30.7433 C   0  0  0  0  0  0  0  0  0  0  0  0
  -28.0882   -1.7150   30.1053 C   0  0  0  0  0  0  0  0  0  0  0  0
  -29.2067   -1.9973   30.5007 O   0  0  0  0  0  0  0  0  0  0  0  0
  -27.0484   -2.2584   30.5523 O   0  0  0  0  0  0  0  0  0  0  0  0
  -28.0876    1.5836   25.5825 O   0  0  0  0  0  0  0  0  0  0  0  0
  -27.9361    2.7598   25.5299 C   0  0  0  0  0  0  0  0  0  0  0  0
  -29.4484   -3.1751   31.2523 C   0  0  0  0  0  0  0  0  0  0  0  0
  -30.1489   -4.0805   30.4659 C   0  0  0  0  0  0  0  0  0  0  0  0
  -29.9151   -5.2720   30.8353 O   0  0  0  0  0  0  0  0  0  0  0  0
  -30.8780   -3.8706   29.5276 O   0  0  0  0  0  0  0  0  0  0  0  0
  -28.5131    3.6613   26.3747 C   0  0  0  0  0  0  0  0  0  0  0  0
  -28.2485    3.8179   27.4963 C   0  0  0  0  0  0  0  0  0  0  0  0
  -26.9577    3.7681   28.1042 C   0  0  0  0  0  0  0  0  0  0  0  0
  -26.5787    4.3565   29.1255 C   0  0  0  0  0  0  0  0  0  0  0  0
  -27.4731    4.6683   30.1991 C   0  0  0  0  0  0  0  0  0  0  0  0
  -28.8530    4.6882   29.7443 C   0  0  0  0  0  0  0  0  0  0  0  0
  5  7  1  0
  2  8  1  0
  1 14  1  0
 14 15  1  0
 14 16  2  0
  4 17  1  0
 17 18  1  0
 15 19  1  0
 19 20  1  0
 20 21  2  0
 20 22  1  0
 18 23  2  3
 23 24  1  0
 24 25  2  3
 25 26  1  0
 26 27  2  3
 27 28  1  0
  1  2  2  0
  2  3  1  0
  3  4  2  0
  4  5  1  0
  5  6  2  0
  6  1  1  0
  8  9  2  0
  9 10  1  0
 10 11  2  0
 11 12  1  0
 12 13  2  0
 13  8  1  0
M  END

$$$$
