No_2731-gen_results/8p0m/2024-11-27-11-27-31/
     RDKit          3D

 27 29  0  0  0  0  0  0  0  0999 V2000
  -28.0162   -0.8135   28.8779 C   0  0  0  0  0  0  0  0  0  0  0  0
  -27.0636   -0.1189   28.6079 C   0  0  0  0  0  0  0  0  0  0  0  0
  -25.7647   -0.3897   29.0360 C   0  0  0  0  0  0  0  0  0  0  0  0
  -25.5296   -1.5302   29.9014 C   0  0  0  0  0  0  0  0  0  0  0  0
  -26.6888   -2.2893   30.1810 C   0  0  0  0  0  0  0  0  0  0  0  0
  -27.8727   -1.9508   29.7373 C   0  0  0  0  0  0  0  0  0  0  0  0
  -24.5491    0.4100   28.7341 C   0  0  0  0  0  0  0  0  0  0  0  0
  -24.0931    1.3779   29.5761 C   0  0  0  0  0  0  0  0  0  0  0  0
  -22.9754    2.1437   29.2395 C   0  0  0  0  0  0  0  0  0  0  0  0
  -22.2571    1.9096   28.0218 C   0  0  0  0  0  0  0  0  0  0  0  0
  -23.7980    0.2733   27.5521 C   0  0  0  0  0  0  0  0  0  0  0  0
  -22.7107    1.0013   27.2291 C   0  0  0  0  0  0  0  0  0  0  0  0
  -28.9242   -2.7106   30.0688 F   0  0  0  0  0  0  0  0  0  0  0  0
  -24.7406    1.6280   30.9090 C   0  0  0  0  0  0  0  0  0  0  0  0
  -24.8517    0.8554   31.7577 O   0  0  0  0  0  0  0  0  0  0  0  0
  -24.8548    2.9650   31.1740 O   0  0  0  0  0  0  0  0  0  0  0  0
  -25.7361    3.2697   32.2072 C   0  0  0  0  0  0  0  0  0  0  0  0
  -25.6904    4.6458   32.5004 C   0  0  0  0  0  0  0  0  0  0  0  0
  -26.7477    5.3372   32.0516 C   0  0  0  0  0  0  0  0  0  0  0  0
  -27.6206    4.8700   31.2951 C   0  0  0  0  0  0  0  0  0  0  0  0
  -28.5006    5.5976   30.5270 C   0  0  0  0  0  0  0  0  0  0  0  0
  -28.6106    6.9541   30.7900 C   0  0  0  0  0  0  0  0  0  0  0  0
  -27.7464    7.5765   31.6503 C   0  0  0  0  0  0  0  0  0  0  0  0
  -26.7303    6.8418   32.2640 C   0  0  0  0  0  0  0  0  0  0  0  0
  -29.4288    4.9434   29.7228 N   0  0  0  0  0  0  0  0  0  0  0  0
  -29.3890    3.7188   29.3800 C   0  0  0  0  0  0  0  0  0  0  0  0
  -30.3074    3.1718   28.5182 C   0  0  0  0  0  0  0  0  0  0  0  0
  3  7  1  0
  6 13  1  0
  8 14  1  0
 14 15  2  0
 14 16  1  0
 16 17  1  0
 17 18  1  0
 21 25  1  0
 25 26  2  3
 26 27  1  0
 18 19  1  0
  7  8  1  0
  8  9  2  0
  9 10  1  0
 10 12  2  0
 12 11  1  0
 11  7  2  0
  1  2  2  0
  2  3  1  0
  3  4  2  0
  4  5  1  0
  5  6  2  0
  6  1  1  0
 19 20  2  0
 20 21  1  0
 21 22  2  0
 22 23  1  0
 23 24  2  0
 24 19  1  0
M  END

$$$$
