No_2696-gen_results/8p0m/2024-11-27-11-27-31/
     RDKit          3D

 19 20  0  0  0  0  0  0  0  0999 V2000
  -28.0162   -0.8135   28.8779 C   0  0  0  0  0  0  0  0  0  0  0  0
  -27.0636   -0.1189   28.6079 C   0  0  0  0  0  0  0  0  0  0  0  0
  -26.8756    1.1325   28.9134 C   0  0  0  0  0  0  0  0  0  0  0  0
  -25.6883    1.9515   28.5672 C   0  0  0  0  0  0  0  0  0  0  0  0
  -24.6394    1.2834   27.8753 C   0  0  0  0  0  0  0  0  0  0  0  0
  -23.4556    1.9996   27.5653 C   0  0  0  0  0  0  0  0  0  0  0  0
  -29.0919   -0.2290   29.6907 C   0  0  0  0  0  0  0  0  0  0  0  0
  -29.0369    1.0636   30.0407 C   0  0  0  0  0  0  0  0  0  0  0  0
  -27.9034    1.8034   29.6856 C   0  0  0  0  0  0  0  0  0  0  0  0
  -24.9137    2.6389   29.5999 C   0  0  0  0  0  0  0  0  0  0  0  0
  -25.7537    3.4478   30.5067 N   0  0  0  0  0  0  0  0  0  0  0  0
  -22.3353    1.2681   27.2884 C   0  0  0  0  0  0  0  0  0  0  0  0
  -25.1410    3.8501   31.6737 C   0  0  0  0  0  0  0  0  0  0  0  0
  -26.1958    3.1137   27.5444 C   0  0  0  0  0  0  0  0  0  0  0  0
  -24.0104    3.7831   32.1766 Cl  0  0  0  0  0  0  0  0  0  0  0  0
  -26.2066    4.1383   32.5981 O   0  0  0  0  0  0  0  0  0  0  0  0
  -22.1192    0.0760   28.0917 C   0  0  0  0  0  0  0  0  0  0  0  0
  -23.2232   -0.6451   28.5501 C   0  0  0  0  0  0  0  0  0  0  0  0
  -24.2371    0.0943   28.9151 C   0  0  0  0  0  0  0  0  0  0  0  0
  3  4  1  0
  4  5  1  0
  4 10  1  0
 10 11  1  0
 11 13  1  0
  4 14  1  0
 13 15  1  0
 13 16  2  0
  1  2  2  0
  2  3  1  0
  3  9  2  0
  9  8  1  0
  8  7  2  0
  7  1  1  0
  5  6  2  0
  6 12  1  0
 12 17  2  0
 17 18  1  0
 18 19  2  0
 19  5  1  0
M  END

$$$$
