No_2134-gen_results/8p0m/2024-11-27-11-27-31/
     RDKit          3D

 11 11  0  0  0  0  0  0  0  0999 V2000
  -28.0162   -0.8135   28.8779 C   0  0  0  0  0  0  0  0  0  0  0  0
  -27.0636   -0.1189   28.6079 C   0  0  0  0  0  0  0  0  0  0  0  0
  -26.8756    1.1325   28.9134 C   0  0  0  0  0  0  0  0  0  0  0  0
  -25.6883    1.9515   28.5672 C   0  0  0  0  0  0  0  0  0  0  0  0
  -24.6394    1.2834   27.8753 C   0  0  0  0  0  0  0  0  0  0  0  0
  -23.4556    1.9996   27.5653 C   0  0  0  0  0  0  0  0  0  0  0  0
  -25.8977   -0.6073   27.7415 C   0  0  0  0  0  0  0  0  0  0  0  0
  -24.7476   -0.0106   27.4694 C   0  0  0  0  0  0  0  0  0  0  0  0
  -22.2692    1.5544   27.5215 N   0  0  0  0  0  0  0  0  0  0  0  0
  -23.6218    3.2203   27.0333 O   0  0  0  0  0  0  0  0  0  0  0  0
  -29.2134   -0.3005   28.9653 O   0  0  0  0  0  0  0  0  0  0  0  0
  5  6  1  0
  6  9  1  0
  6 10  2  0
  1 11  2  0
  1  2  1  0
  2  3  2  0
  3  4  1  0
  4  5  2  0
  5  8  1  0
  8  7  2  0
  7  2  1  0
M  END

$$$$
