No_2602-gen_results/8p0m/2024-11-27-11-27-31/
     RDKit          3D

 34 37  0  0  0  0  0  0  0  0999 V2000
  -28.0162   -0.8135   28.8779 C   0  0  0  0  0  0  0  0  0  0  0  0
  -27.0636   -0.1189   28.6079 C   0  0  0  0  0  0  0  0  0  0  0  0
  -25.7923   -0.4302   29.0761 C   0  0  0  0  0  0  0  0  0  0  0  0
  -24.5456    0.3494   28.8225 C   0  0  0  0  0  0  0  0  0  0  0  0
  -24.6586    1.4196   27.8878 C   0  0  0  0  0  0  0  0  0  0  0  0
  -23.5403    2.1791   27.5500 C   0  0  0  0  0  0  0  0  0  0  0  0
  -22.2925    1.7429   28.0473 C   0  0  0  0  0  0  0  0  0  0  0  0
  -22.1712    0.7080   28.9284 C   0  0  0  0  0  0  0  0  0  0  0  0
  -23.3345   -0.0624   29.3081 C   0  0  0  0  0  0  0  0  0  0  0  0
  -27.9466   -1.8823   29.8708 C   0  0  0  0  0  0  0  0  0  0  0  0
  -26.7159   -2.3287   30.3060 C   0  0  0  0  0  0  0  0  0  0  0  0
  -25.5921   -1.5643   29.9672 C   0  0  0  0  0  0  0  0  0  0  0  0
  -29.3191   -2.8038   30.2874 Cl  0  0  0  0  0  0  0  0  0  0  0  0
  -23.6463    3.1752   26.6980 O   0  0  0  0  0  0  0  0  0  0  0  0
  -24.9878    3.7656   26.6102 C   0  0  0  0  0  0  0  0  0  0  0  0
  -25.2700    4.7578   27.5132 C   0  0  0  0  0  0  0  0  0  0  0  0
  -26.1456    4.7034   28.2974 C   0  0  0  0  0  0  0  0  0  0  0  0
  -26.2993    5.6544   29.3682 C   0  0  0  0  0  0  0  0  0  0  0  0
  -25.5496    6.8289   29.3198 C   0  0  0  0  0  0  0  0  0  0  0  0
  -24.6236    7.0097   28.2706 C   0  0  0  0  0  0  0  0  0  0  0  0
  -24.4358    5.9913   27.3710 C   0  0  0  0  0  0  0  0  0  0  0  0
  -23.8663    8.2740   28.1161 C   0  0  0  0  0  0  0  0  0  0  0  0
  -22.7280    8.1298   27.9932 F   0  0  0  0  0  0  0  0  0  0  0  0
  -24.1066    9.0224   29.3010 F   0  0  0  0  0  0  0  0  0  0  0  0
  -24.5003    8.9405   27.1012 F   0  0  0  0  0  0  0  0  0  0  0  0
  -27.2793    5.5058   30.4752 C   0  0  0  0  0  0  0  0  0  0  0  0
  -28.1548    4.8791   30.4795 O   0  0  0  0  0  0  0  0  0  0  0  0
  -27.1267    6.4887   31.4957 O   0  0  0  0  0  0  0  0  0  0  0  0
  -27.7012    6.2719   32.6375 C   0  0  0  0  0  0  0  0  0  0  0  0
  -28.6724    6.8381   33.0898 C   0  0  0  0  0  0  0  0  0  0  0  0
  -29.3315    6.4975   34.2283 C   0  0  0  0  0  0  0  0  0  0  0  0
  -28.7832    5.4467   35.0454 C   0  0  0  0  0  0  0  0  0  0  0  0
  -27.6497    4.7660   34.5767 C   0  0  0  0  0  0  0  0  0  0  0  0
  -27.0244    5.1560   33.3606 C   0  0  0  0  0  0  0  0  0  0  0  0
  3  4  1  0
 10 13  1  0
  6 14  1  0
 14 15  1  0
 15 16  1  0
 20 22  1  0
 22 23  1  0
 22 24  1  0
 22 25  1  0
 18 26  1  0
 26 27  2  0
 26 28  1  0
 28 29  1  0
 29 30  2  0
 30 31  1  0
 31 32  2  0
 32 33  1  0
 33 34  2  0
 34 29  1  0
 16 17  2  0
 17 18  1  0
 18 19  2  0
 19 20  1  0
 20 21  2  0
 21 16  1  0
  1  2  2  0
  2  3  1  0
  3 12  2  0
 12 11  1  0
 11 10  2  0
 10  1  1  0
  4  5  2  0
  5  6  1  0
  6  7  2  0
  7  8  1  0
  8  9  2  0
  9  4  1  0
M  END

$$$$
