No_299-gen_results/8p0m/2024-11-27-11-27-31/
     RDKit          3D

 22 23  0  0  0  0  0  0  0  0999 V2000
  -28.0162   -0.8135   28.8779 C   0  0  0  0  0  0  0  0  0  0  0  0
  -28.4690   -0.7850   29.8287 C   0  0  0  0  0  0  0  0  0  0  0  0
  -28.1960    0.3478   28.0550 C   0  0  0  0  0  0  0  0  0  0  0  0
  -29.0191    1.3501   28.3782 C   0  0  0  0  0  0  0  0  0  0  0  0
  -29.4107    0.1803   30.3782 C   0  0  0  0  0  0  0  0  0  0  0  0
  -29.6059    1.2495   29.6193 C   0  0  0  0  0  0  0  0  0  0  0  0
  -27.3362    0.3775   26.5214 Cl  0  0  0  0  0  0  0  0  0  0  0  0
  -30.1216   -0.0435   31.9608 Cl  0  0  0  0  0  0  0  0  0  0  0  0
  -30.4600    2.1929   30.0038 F   0  0  0  0  0  0  0  0  0  0  0  0
  -29.1546    2.3667   27.5333 O   0  0  0  0  0  0  0  0  0  0  0  0
  -28.2421   -2.1198   30.8498 C   0  0  0  0  0  0  0  0  0  0  0  0
  -28.9481   -2.6004   31.5221 O   0  0  0  0  0  0  0  0  0  0  0  0
  -26.8785   -2.2420   31.0931 O   0  0  0  0  0  0  0  0  0  0  0  0
  -26.2611   -2.9030   30.0230 C   0  0  0  0  0  0  0  0  0  0  0  0
  -24.8506   -2.4555   29.7371 C   0  0  0  0  0  0  0  0  0  0  0  0
  -24.1499   -2.8532   28.6923 C   0  0  0  0  0  0  0  0  0  0  0  0
  -24.3342   -1.3689   30.5856 C   0  0  0  0  0  0  0  0  0  0  0  0
  -23.0301   -0.9475   30.3429 C   0  0  0  0  0  0  0  0  0  0  0  0
  -22.3341   -1.2804   29.1867 C   0  0  0  0  0  0  0  0  0  0  0  0
  -22.8803   -2.2674   28.3811 C   0  0  0  0  0  0  0  0  0  0  0  0
  -20.8486   -0.6052   28.8504 Cl  0  0  0  0  0  0  0  0  0  0  0  0
  -26.6285   -3.9467   29.5652 O   0  0  0  0  0  0  0  0  0  0  0  0
  3  7  1  0
  5  8  1  0
  6  9  1  0
  4 10  1  0
  2 11  1  0
 11 12  2  0
 11 13  1  0
 13 14  1  0
 14 15  1  0
 19 21  1  0
 14 22  2  0
  1  2  2  0
  2  5  1  0
  5  6  2  0
  6  4  1  0
  4  3  2  0
  3  1  1  0
 15 16  2  0
 16 20  1  0
 20 19  2  0
 19 18  1  0
 18 17  2  0
 17 15  1  0
M  END

$$$$
