No_2677-gen_results/8p0m/2024-11-27-11-27-31/
     RDKit          3D

 23 24  0  0  0  0  0  0  0  0999 V2000
  -28.0162   -0.8135   28.8779 C   0  0  0  0  0  0  0  0  0  0  0  0
  -27.0636   -0.1189   28.6079 C   0  0  0  0  0  0  0  0  0  0  0  0
  -26.9287    1.1713   29.0083 C   0  0  0  0  0  0  0  0  0  0  0  0
  -27.9560    1.7411   29.7840 C   0  0  0  0  0  0  0  0  0  0  0  0
  -29.0569   -0.3271   29.7466 C   0  0  0  0  0  0  0  0  0  0  0  0
  -28.9828    0.9722   30.1516 C   0  0  0  0  0  0  0  0  0  0  0  0
  -25.8907   -0.6263   27.7857 C   0  0  0  0  0  0  0  0  0  0  0  0
  -25.4633    0.1123   26.6815 C   0  0  0  0  0  0  0  0  0  0  0  0
  -25.0310   -1.6701   28.2406 C   0  0  0  0  0  0  0  0  0  0  0  0
  -24.3963   -1.7192   29.4773 C   0  0  0  0  0  0  0  0  0  0  0  0
  -23.7183   -0.9814   30.0604 C   0  0  0  0  0  0  0  0  0  0  0  0
  -23.1588    0.2483   29.3850 C   0  0  0  0  0  0  0  0  0  0  0  0
  -22.5908    0.7998   28.7187 C   0  0  0  0  0  0  0  0  0  0  0  0
  -22.0567    1.8340   27.8990 C   0  0  0  0  0  0  0  0  0  0  0  0
  -26.1482   -0.0711   25.4096 C   0  0  0  0  0  0  0  0  0  0  0  0
  -27.4069    0.5609   25.1952 C   0  0  0  0  0  0  0  0  0  0  0  0
  -28.3595    0.1003   24.2764 C   0  0  0  0  0  0  0  0  0  0  0  0
  -29.5061   -0.2482   24.5087 C   0  0  0  0  0  0  0  0  0  0  0  0
  -30.1866    0.1830   25.7241 C   0  0  0  0  0  0  0  0  0  0  0  0
  -31.5252   -0.1050   26.0253 C   0  0  0  0  0  0  0  0  0  0  0  0
  -32.1254   -0.9965   25.1860 C   0  0  0  0  0  0  0  0  0  0  0  0
  -31.5780   -1.5176   24.0094 C   0  0  0  0  0  0  0  0  0  0  0  0
  -30.3209   -1.1170   23.7297 C   0  0  0  0  0  0  0  0  0  0  0  0
  2  7  1  0
  7  8  1  0
  7  9  1  0
  9 10  1  0
 10 11  2  3
 11 12  1  0
 12 13  3  0
 13 14  1  0
  8 15  1  0
 15 16  1  0
 16 17  2  3
 17 18  1  0
 18 19  2  0
 19 20  1  0
 20 21  2  0
 21 22  1  0
 22 23  2  0
 23 18  1  0
  1  2  2  0
  2  3  1  0
  3  4  2  0
  4  6  1  0
  6  5  2  0
  5  1  1  0
M  END

$$$$
