No_2459-gen_results/8p0m/2024-11-27-11-27-31/
     RDKit          3D

  7  6  0  0  0  0  0  0  0  0999 V2000
  -28.1493   -0.8198   28.9079 Cl  0  0  0  0  0  0  0  0  0  0  0  0
  -28.5324   -0.0471   29.7727 C   0  0  0  0  0  0  0  0  0  0  0  0
  -27.6515    0.7172   30.3086 F   0  0  0  0  0  0  0  0  0  0  0  0
  -29.8669    0.1151   30.2289 C   0  0  0  0  0  0  0  0  0  0  0  0
  -30.9499   -0.2909   30.1012 Br  0  0  0  0  0  0  0  0  0  0  0  0
  -29.7619    1.2767   31.3573 C   0  0  0  0  0  0  0  0  0  0  0  0
  -28.9083    1.8446   31.6788 C   0  0  0  0  0  0  0  0  0  0  0  0
  1  2  1  0
  2  3  1  0
  2  4  1  0
  4  5  1  0
  4  6  1  0
  6  7  2  0
M  END

$$$$
