No_2900-gen_results/8p0m/2024-11-27-11-27-31/
     RDKit          3D

 27 28  0  0  0  0  0  0  0  0999 V2000
  -28.0162   -0.8135   28.8779 C   0  0  0  0  0  0  0  0  0  0  0  0
  -28.4690   -0.7850   29.8287 C   0  0  0  0  0  0  0  0  0  0  0  0
  -28.1960    0.3478   28.0550 C   0  0  0  0  0  0  0  0  0  0  0  0
  -29.0191    1.3501   28.3782 C   0  0  0  0  0  0  0  0  0  0  0  0
  -29.4107    0.1803   30.3782 C   0  0  0  0  0  0  0  0  0  0  0  0
  -29.6059    1.2495   29.6193 C   0  0  0  0  0  0  0  0  0  0  0  0
  -27.4478    0.3799   26.7122 C   0  0  0  0  0  0  0  0  0  0  0  0
  -28.0583    0.1371   25.7461 F   0  0  0  0  0  0  0  0  0  0  0  0
  -26.3526   -0.4665   26.8003 F   0  0  0  0  0  0  0  0  0  0  0  0
  -26.8589    1.6428   26.4930 F   0  0  0  0  0  0  0  0  0  0  0  0
  -30.5481    2.3257   30.0519 C   0  0  0  0  0  0  0  0  0  0  0  0
  -30.1729    3.2292   30.7420 O   0  0  0  0  0  0  0  0  0  0  0  0
  -31.7997    2.0632   29.8503 O   0  0  0  0  0  0  0  0  0  0  0  0
  -28.2681   -2.0704   30.8237 C   0  0  0  0  0  0  0  0  0  0  0  0
  -28.0249   -2.0305   31.8844 O   0  0  0  0  0  0  0  0  0  0  0  0
  -28.3227   -3.2891   30.1302 O   0  0  0  0  0  0  0  0  0  0  0  0
  -28.3005   -4.4058   30.8699 C   0  0  0  0  0  0  0  0  0  0  0  0
  -29.0296   -5.4816   29.8796 C   0  0  0  0  0  0  0  0  0  0  0  0
  -30.3315   -5.7571   30.5686 C   0  0  0  0  0  0  0  0  0  0  0  0
  -30.5412   -5.8912   31.6530 C   0  0  0  0  0  0  0  0  0  0  0  0
  -31.7862   -6.2856   32.2578 C   0  0  0  0  0  0  0  0  0  0  0  0
  -32.8215   -6.5926   31.3282 C   0  0  0  0  0  0  0  0  0  0  0  0
  -31.4352   -6.1469   29.6172 C   0  0  0  0  0  0  0  0  0  0  0  0
  -32.6123   -6.5086   30.0356 C   0  0  0  0  0  0  0  0  0  0  0  0
  -31.1981   -6.0637   28.1073 C   0  0  0  0  0  0  0  0  0  0  0  0
  -31.3569   -7.0482   27.3661 N   0  0  0  0  0  0  0  0  0  0  0  0
  -31.3667   -6.9741   26.1057 C   0  0  0  0  0  0  0  0  0  0  0  0
  3  7  1  0
  7  8  1  0
  7  9  1  0
  7 10  1  0
  6 11  1  0
 11 12  2  0
 11 13  1  0
  2 14  1  0
 14 15  2  0
 14 16  1  0
 16 17  1  0
 17 18  1  0
 18 19  1  0
 23 25  1  0
 25 26  2  3
 26 27  1  0
  1  2  2  0
  2  5  1  0
  5  6  2  0
  6  4  1  0
  4  3  2  0
  3  1  1  0
 19 20  2  0
 20 21  1  0
 21 22  2  0
 22 24  1  0
 24 23  2  0
 23 19  1  0
M  END

$$$$
