No_2910-gen_results/8p0m/2024-11-27-11-27-31/
     RDKit          3D

 24 26  0  0  0  0  0  0  0  0999 V2000
  -28.0162   -0.8135   28.8779 C   0  0  0  0  0  0  0  0  0  0  0  0
  -28.4690   -0.7850   29.8287 C   0  0  0  0  0  0  0  0  0  0  0  0
  -28.1960    0.3478   28.0550 C   0  0  0  0  0  0  0  0  0  0  0  0
  -29.0191    1.3501   28.3782 C   0  0  0  0  0  0  0  0  0  0  0  0
  -29.4107    0.1803   30.3782 C   0  0  0  0  0  0  0  0  0  0  0  0
  -29.6059    1.2495   29.6193 C   0  0  0  0  0  0  0  0  0  0  0  0
  -27.4597    0.3802   26.7091 C   0  0  0  0  0  0  0  0  0  0  0  0
  -27.9298    0.5836   25.6804 C   0  0  0  0  0  0  0  0  0  0  0  0
  -25.9950    0.1465   26.7943 C   0  0  0  0  0  0  0  0  0  0  0  0
  -29.3557    0.8210   25.4788 C   0  0  0  0  0  0  0  0  0  0  0  0
  -25.1408    1.0902   27.4224 C   0  0  0  0  0  0  0  0  0  0  0  0
  -23.8001    0.7995   27.7403 C   0  0  0  0  0  0  0  0  0  0  0  0
  -23.4749   -0.2767   28.5743 C   0  0  0  0  0  0  0  0  0  0  0  0
  -22.1080   -0.4442   28.9716 C   0  0  0  0  0  0  0  0  0  0  0  0
  -21.1506    0.4409   28.5177 C   0  0  0  0  0  0  0  0  0  0  0  0
  -21.4691    1.5810   27.7764 C   0  0  0  0  0  0  0  0  0  0  0  0
  -22.8147    1.7845   27.4369 C   0  0  0  0  0  0  0  0  0  0  0  0
  -25.6398    2.4402   27.6437 C   0  0  0  0  0  0  0  0  0  0  0  0
  -27.2200    0.6125   24.3808 C   0  0  0  0  0  0  0  0  0  0  0  0
  -30.0308    0.5264   24.2931 C   0  0  0  0  0  0  0  0  0  0  0  0
  -27.9200    0.5783   23.2126 C   0  0  0  0  0  0  0  0  0  0  0  0
  -29.2157    0.5925   23.1794 C   0  0  0  0  0  0  0  0  0  0  0  0
  -25.6354    3.4189   26.6249 C   0  0  0  0  0  0  0  0  0  0  0  0
  -26.0368    4.7271   26.9175 C   0  0  0  0  0  0  0  0  0  0  0  0
  3  7  1  0
  7  8  1  0
  7  9  1  0
  9 11  2  3
 11 12  1  0
 11 18  1  0
 18 23  2  3
 23 24  1  0
 12 13  2  0
 13 14  1  0
 14 15  2  0
 15 16  1  0
 16 17  2  0
 17 12  1  0
  1  2  2  0
  2  5  1  0
  5  6  2  0
  6  4  1  0
  4  3  2  0
  3  1  1  0
  8 10  2  0
 10 20  1  0
 20 22  2  0
 22 21  1  0
 21 19  2  0
 19  8  1  0
M  END

$$$$
