No_2809-gen_results/8p0m/2024-11-27-11-27-31/
     RDKit          3D

 12 13  0  0  0  0  0  0  0  0999 V2000
  -28.0162   -0.8135   28.8779 C   0  0  0  0  0  0  0  0  0  0  0  0
  -27.0636   -0.1189   28.6079 C   0  0  0  0  0  0  0  0  0  0  0  0
  -25.7647   -0.3897   29.0360 C   0  0  0  0  0  0  0  0  0  0  0  0
  -25.5296   -1.5302   29.9014 C   0  0  0  0  0  0  0  0  0  0  0  0
  -26.6577   -2.2915   30.2035 C   0  0  0  0  0  0  0  0  0  0  0  0
  -27.8432   -1.9747   29.7510 C   0  0  0  0  0  0  0  0  0  0  0  0
  -24.5451    0.4095   28.7439 C   0  0  0  0  0  0  0  0  0  0  0  0
  -23.3284    0.0509   29.0520 C   0  0  0  0  0  0  0  0  0  0  0  0
  -22.2108    0.8513   28.7249 C   0  0  0  0  0  0  0  0  0  0  0  0
  -22.3825    1.8708   27.7184 C   0  0  0  0  0  0  0  0  0  0  0  0
  -24.6139    1.5196   27.8215 C   0  0  0  0  0  0  0  0  0  0  0  0
  -23.5765    2.2010   27.3684 C   0  0  0  0  0  0  0  0  0  0  0  0
  3  7  1  0
  7  8  2  0
  8  9  1  0
  9 10  2  0
 10 12  1  0
 12 11  2  0
 11  7  1  0
  1  2  2  0
  2  3  1  0
  3  4  2  0
  4  5  1  0
  5  6  2  0
  6  1  1  0
M  END

$$$$
