No_2235-gen_results/8p0m/2024-11-27-11-27-31/
     RDKit          3D

 15 16  0  0  0  0  0  0  0  0999 V2000
  -28.0162   -0.8135   28.8779 C   0  0  0  0  0  0  0  0  0  0  0  0
  -27.0636   -0.1190   28.6079 C   0  0  0  0  0  0  0  0  0  0  0  0
  -26.9716    0.7139   27.5060 C   0  0  0  0  0  0  0  0  0  0  0  0
  -28.1053    0.7744   26.6421 C   0  0  0  0  0  0  0  0  0  0  0  0
  -29.2041    0.1179   27.0477 C   0  0  0  0  0  0  0  0  0  0  0  0
  -30.3488    0.2568   26.2203 C   0  0  0  0  0  0  0  0  0  0  0  0
  -29.1817   -0.6758   28.1173 C   0  0  0  0  0  0  0  0  0  0  0  0
  -31.3387   -0.2347   26.5001 O   0  0  0  0  0  0  0  0  0  0  0  0
  -30.3761    1.1595   25.2713 O   0  0  0  0  0  0  0  0  0  0  0  0
  -25.6602    1.4148   27.1421 C   0  0  0  0  0  0  0  0  0  0  0  0
  -25.1540    2.3471   28.1428 C   0  0  0  0  0  0  0  0  0  0  0  0
  -23.9006    2.9158   27.8096 C   0  0  0  0  0  0  0  0  0  0  0  0
  -23.1688    2.4581   26.6774 C   0  0  0  0  0  0  0  0  0  0  0  0
  -24.3432    1.0448   26.5690 C   0  0  0  0  0  0  0  0  0  0  0  0
  -26.1402    3.5803   28.3485 C   0  0  0  0  0  0  0  0  0  0  0  0
  5  6  1  0
  6  8  1  0
  6  9  2  0
  3 10  1  0
 10 11  1  0
 11 12  2  0
 12 13  1  0
 10 14  1  0
 13 14  1  0
 11 15  1  0
  1  2  2  0
  2  3  1  0
  3  4  2  0
  4  5  1  0
  5  7  2  0
  7  1  1  0
M  END

$$$$
