No_2409-gen_results/8p0m/2024-11-27-11-27-31/
     RDKit          3D

 20 21  0  0  0  0  0  0  0  0999 V2000
  -28.1229   -1.3353   28.4874 O   0  0  0  0  0  0  0  0  0  0  0  0
  -27.4806   -0.4044   28.7094 C   0  0  0  0  0  0  0  0  0  0  0  0
  -27.1904    0.2460   29.5268 C   0  0  0  0  0  0  0  0  0  0  0  0
  -26.6021   -0.1576   27.5515 N   0  0  0  0  0  0  0  0  0  0  0  0
  -25.6421    0.9030   27.5822 C   0  0  0  0  0  0  0  0  0  0  0  0
  -25.5003    1.6142   28.7368 C   0  0  0  0  0  0  0  0  0  0  0  0
  -26.2553    1.3158   29.8133 C   0  0  0  0  0  0  0  0  0  0  0  0
  -24.8955    1.1458   26.4882 N   0  0  0  0  0  0  0  0  0  0  0  0
  -23.8814    2.1226   26.6390 C   0  0  0  0  0  0  0  0  0  0  0  0
  -23.6676    2.7846   27.7038 N   0  0  0  0  0  0  0  0  0  0  0  0
  -24.4014    2.5992   28.7431 C   0  0  0  0  0  0  0  0  0  0  0  0
  -23.0991    2.3829   25.5431 N   0  0  0  0  0  0  0  0  0  0  0  0
  -28.0536   -0.0399   30.8810 C   0  0  0  0  0  0  0  0  0  0  0  0
  -29.1682    0.7971   30.9806 C   0  0  0  0  0  0  0  0  0  0  0  0
  -29.2003    1.9357   30.7240 C   0  0  0  0  0  0  0  0  0  0  0  0
  -28.2990    2.7953   31.1082 C   0  0  0  0  0  0  0  0  0  0  0  0
  -28.2269    3.8181   31.4513 C   0  0  0  0  0  0  0  0  0  0  0  0
  -27.0923    4.7667   31.7478 C   0  0  0  0  0  0  0  0  0  0  0  0
  -25.8384    4.1267   31.6412 C   0  0  0  0  0  0  0  0  0  0  0  0
  -25.7490    2.8195   31.4530 C   0  0  0  0  0  0  0  0  0  0  0  0
  1  2  2  0
  2  3  1  0
  2  4  1  0
  4  5  1  0
  6  7  1  0
  9 12  1  0
  3 13  1  0
 13 14  1  0
 14 15  1  0
 15 16  2  3
 16 17  1  0
 17 18  2  3
 18 19  1  0
 19 20  2  0
  3  7  1  0
  5  6  2  0
  6 11  1  0
 11 10  2  0
 10  9  1  0
  9  8  2  0
  8  5  1  0
M  END

$$$$
