No_2777-gen_results/8p0m/2024-11-27-11-27-31/
     RDKit          3D

 12 13  0  0  0  0  0  0  0  0999 V2000
  -28.0162   -0.8135   28.8779 C   0  0  0  0  0  0  0  0  0  0  0  0
  -28.4690   -0.7850   29.8287 C   0  0  0  0  0  0  0  0  0  0  0  0
  -27.2166   -0.0832   27.9639 C   0  0  0  0  0  0  0  0  0  0  0  0
  -27.0905    1.2695   28.4177 C   0  0  0  0  0  0  0  0  0  0  0  0
  -26.2935    2.2416   27.7321 C   0  0  0  0  0  0  0  0  0  0  0  0
  -28.3698    0.6459   30.4427 C   0  0  0  0  0  0  0  0  0  0  0  0
  -27.6449    1.6093   29.7015 C   0  0  0  0  0  0  0  0  0  0  0  0
  -25.9230    2.1871   26.5853 C   0  0  0  0  0  0  0  0  0  0  0  0
  -24.9703    3.1921   25.9930 C   0  0  0  0  0  0  0  0  0  0  0  0
  -24.6181    4.2915   26.7841 C   0  0  0  0  0  0  0  0  0  0  0  0
  -25.7682    3.4204   28.4878 C   0  0  0  0  0  0  0  0  0  0  0  0
  -25.0003    4.3955   27.9809 C   0  0  0  0  0  0  0  0  0  0  0  0
  4  5  1  0
  1  2  2  0
  2  6  1  0
  6  7  2  0
  7  4  1  0
  4  3  2  0
  3  1  1  0
  5  8  2  0
  8  9  1  0
  9 10  2  0
 10 12  1  0
 12 11  2  0
 11  5  1  0
M  END

$$$$
