No_2601-gen_results/8p0m/2024-11-27-11-27-31/
     RDKit          3D

 25 27  0  0  0  0  0  0  0  0999 V2000
  -28.1229   -1.3353   28.4874 O   0  0  0  0  0  0  0  0  0  0  0  0
  -27.0637   -0.8242   28.8687 C   0  0  0  0  0  0  0  0  0  0  0  0
  -26.9592    0.0926   29.7582 C   0  0  0  0  0  0  0  0  0  0  0  0
  -25.8472   -1.5491   28.6589 N   0  0  0  0  0  0  0  0  0  0  0  0
  -25.7222    0.7178   30.1925 C   0  0  0  0  0  0  0  0  0  0  0  0
  -24.5852   -1.0823   29.0632 C   0  0  0  0  0  0  0  0  0  0  0  0
  -24.5116    0.0345   29.8223 C   0  0  0  0  0  0  0  0  0  0  0  0
  -23.3725    0.8028   29.9955 C   0  0  0  0  0  0  0  0  0  0  0  0
  -23.2992    1.8730   30.4545 O   0  0  0  0  0  0  0  0  0  0  0  0
  -22.1603    0.1418   29.7999 O   0  0  0  0  0  0  0  0  0  0  0  0
  -28.2201    0.8092   30.1358 C   0  0  0  0  0  0  0  0  0  0  0  0
  -28.9867    0.1741   30.9707 C   0  0  0  0  0  0  0  0  0  0  0  0
  -30.2378    0.7917   31.4441 C   0  0  0  0  0  0  0  0  0  0  0  0
  -30.5056    2.0760   30.9456 C   0  0  0  0  0  0  0  0  0  0  0  0
  -29.6239    2.6906   30.0912 C   0  0  0  0  0  0  0  0  0  0  0  0
  -28.4337    2.1147   29.7157 C   0  0  0  0  0  0  0  0  0  0  0  0
  -32.0849    2.9239   31.5524 Br  0  0  0  0  0  0  0  0  0  0  0  0
  -27.4314    2.9339   28.6598 Cl  0  0  0  0  0  0  0  0  0  0  0  0
  -31.0660    0.1495   32.2863 O   0  0  0  0  0  0  0  0  0  0  0  0
  -31.0882   -1.0282   32.4383 C   0  0  0  0  0  0  0  0  0  0  0  0
  -32.3132   -1.7971   32.5347 C   0  0  0  0  0  0  0  0  0  0  0  0
  -32.2995   -3.1139   32.4740 C   0  0  0  0  0  0  0  0  0  0  0  0
  -31.0761   -3.8892   32.4837 C   0  0  0  0  0  0  0  0  0  0  0  0
  -29.8611   -3.2382   32.3770 C   0  0  0  0  0  0  0  0  0  0  0  0
  -29.8589   -1.8788   32.3435 C   0  0  0  0  0  0  0  0  0  0  0  0
  1  2  2  0
  2  3  1  0
  2  4  1  0
  4  6  1  0
  5  7  1  0
  6  7  1  0
  7  8  1  0
  8  9  1  0
  8 10  2  0
  3 11  1  0
 14 17  1  0
 16 18  1  0
 13 19  1  0
 19 20  1  0
  3  5  1  0
 11 12  2  0
 12 13  1  0
 13 14  2  0
 14 15  1  0
 15 16  2  0
 16 11  1  0
 20 21  2  0
 21 22  1  0
 22 23  2  0
 23 24  1  0
 24 25  2  0
 25 20  1  0
M  END

$$$$
