No_2589-gen_results/8p0m/2024-11-27-11-27-31/
     RDKit          3D

 13 14  0  0  0  0  0  0  0  0999 V2000
  -28.0162   -0.8135   28.8779 C   0  0  0  0  0  0  0  0  0  0  0  0
  -27.0636   -0.1189   28.6079 C   0  0  0  0  0  0  0  0  0  0  0  0
  -25.7647   -0.3897   29.0360 C   0  0  0  0  0  0  0  0  0  0  0  0
  -24.5517    0.4058   28.7646 C   0  0  0  0  0  0  0  0  0  0  0  0
  -24.6957    1.4480   27.7988 C   0  0  0  0  0  0  0  0  0  0  0  0
  -25.9755    1.7250   27.3077 C   0  0  0  0  0  0  0  0  0  0  0  0
  -27.0718    1.0134   27.6535 C   0  0  0  0  0  0  0  0  0  0  0  0
  -27.8896   -1.7391   29.9357 N   0  0  0  0  0  0  0  0  0  0  0  0
  -23.5057    2.1783   27.4720 C   0  0  0  0  0  0  0  0  0  0  0  0
  -22.5295    2.0551   27.1661 N   0  0  0  0  0  0  0  0  0  0  0  0
  -23.8723    3.5391   27.0896 O   0  0  0  0  0  0  0  0  0  0  0  0
  -25.5360   -1.4174   29.9816 C   0  0  0  0  0  0  0  0  0  0  0  0
  -26.6577   -2.1492   30.3983 C   0  0  0  0  0  0  0  0  0  0  0  0
  5  9  1  0
  9 10  1  0
  9 11  2  0
  1  2  2  0
  3 12  2  0
 12 13  1  0
 13  8  2  0
  8  1  1  0
  2  3  1  0
  3  4  1  0
  4  5  2  0
  5  6  1  0
  6  7  2  0
  7  2  1  0
M  END

$$$$
