No_2313-gen_results/8p0m/2024-11-27-11-27-31/
     RDKit          3D

  7  6  0  0  0  0  0  0  0  0999 V2000
  -28.1229   -1.3353   28.4874 O   0  0  0  0  0  0  0  0  0  0  0  0
  -27.0637   -0.8242   28.8687 C   0  0  0  0  0  0  0  0  0  0  0  0
  -27.0246    0.1877   29.7358 C   0  0  0  0  0  0  0  0  0  0  0  0
  -26.0012    0.7006   29.9803 O   0  0  0  0  0  0  0  0  0  0  0  0
  -25.7225   -1.3319   28.4550 C   0  0  0  0  0  0  0  0  0  0  0  0
  -28.0838    0.3607   30.4612 O   0  0  0  0  0  0  0  0  0  0  0  0
  -24.7624   -0.4355   28.0583 C   0  0  0  0  0  0  0  0  0  0  0  0
  1  2  1  0
  2  3  1  0
  3  4  2  0
  2  5  1  0
  3  6  1  0
  5  7  1  0
M  END

$$$$
