No_2930-gen_results/8p0m/2024-11-27-11-27-31/
     RDKit          3D

 16 16  0  0  0  0  0  0  0  0999 V2000
  -28.0162   -0.8135   28.8779 C   0  0  0  0  0  0  0  0  0  0  0  0
  -27.0636   -0.1190   28.6079 C   0  0  0  0  0  0  0  0  0  0  0  0
  -26.9716    0.7139   27.5060 C   0  0  0  0  0  0  0  0  0  0  0  0
  -25.8205    1.4909   27.1160 C   0  0  0  0  0  0  0  0  0  0  0  0
  -24.6562    1.4242   27.9180 C   0  0  0  0  0  0  0  0  0  0  0  0
  -24.6847    0.5901   29.0659 C   0  0  0  0  0  0  0  0  0  0  0  0
  -25.8099   -0.1266   29.3338 C   0  0  0  0  0  0  0  0  0  0  0  0
  -28.7093   -0.4588   30.1754 C   0  0  0  0  0  0  0  0  0  0  0  0
  -29.4822   -1.3354   30.7529 N   0  0  0  0  0  0  0  0  0  0  0  0
  -23.4664    2.2026   27.6013 C   0  0  0  0  0  0  0  0  0  0  0  0
  -23.2782    2.7263   26.5113 O   0  0  0  0  0  0  0  0  0  0  0  0
  -22.3497    1.9778   28.3369 O   0  0  0  0  0  0  0  0  0  0  0  0
  -29.8147   -2.3674   30.2368 C   0  0  0  0  0  0  0  0  0  0  0  0
  -29.9152   -3.5080   31.1288 C   0  0  0  0  0  0  0  0  0  0  0  0
  -29.4866   -3.4365   32.1256 F   0  0  0  0  0  0  0  0  0  0  0  0
  -29.3562   -4.7209   30.4698 F   0  0  0  0  0  0  0  0  0  0  0  0
  1  2  2  3
  2  3  1  0
  3  4  1  0
  4  5  1  0
  5  6  1  0
  2  7  1  0
  6  7  1  0
  1  8  1  0
  8  9  1  0
  5 10  1  0
 10 11  2  0
 10 12  1  0
  9 13  1  0
 13 14  2  3
 14 15  1  0
 14 16  1  0
M  END

$$$$
