No_2621-gen_results/8p0m/2024-11-27-11-27-31/
     RDKit          3D

  7  7  0  0  0  0  0  0  0  0999 V2000
  -28.0162   -0.8135   28.8779 C   0  0  0  0  0  0  0  0  0  0  0  0
  -27.0636   -0.1190   28.6079 C   0  0  0  0  0  0  0  0  0  0  0  0
  -26.9019    0.6131   27.2384 Cl  0  0  0  0  0  0  0  0  0  0  0  0
  -27.9860   -1.5290   30.1490 C   0  0  0  0  0  0  0  0  0  0  0  0
  -26.8343   -1.4949   30.9804 C   0  0  0  0  0  0  0  0  0  0  0  0
  -25.7174   -0.7925   30.5851 C   0  0  0  0  0  0  0  0  0  0  0  0
  -25.7991   -0.0995   29.3645 C   0  0  0  0  0  0  0  0  0  0  0  0
  2  3  1  0
  1  2  2  0
  2  7  1  0
  7  6  2  0
  6  5  1  0
  5  4  2  0
  4  1  1  0
M  END

$$$$
