No_241-gen_results/8p0m/2024-11-27-11-27-31/
     RDKit          3D

 19 20  0  0  0  0  0  0  0  0999 V2000
  -28.0162   -0.8135   28.8779 C   0  0  0  0  0  0  0  0  0  0  0  0
  -27.0636   -0.1189   28.6079 C   0  0  0  0  0  0  0  0  0  0  0  0
  -26.8756    1.1325   28.9134 C   0  0  0  0  0  0  0  0  0  0  0  0
  -25.6883    1.9515   28.5672 C   0  0  0  0  0  0  0  0  0  0  0  0
  -24.6394    1.2834   27.8753 C   0  0  0  0  0  0  0  0  0  0  0  0
  -24.8068   -0.0513   27.6040 C   0  0  0  0  0  0  0  0  0  0  0  0
  -25.8937   -0.6514   27.9256 C   0  0  0  0  0  0  0  0  0  0  0  0
  -28.0232   -1.4425   30.2833 C   0  0  0  0  0  0  0  0  0  0  0  0
  -28.9832   -2.3792   30.6037 N   0  0  0  0  0  0  0  0  0  0  0  0
  -23.4284    1.9923   27.4791 C   0  0  0  0  0  0  0  0  0  0  0  0
  -22.3647    1.6253   27.5379 O   0  0  0  0  0  0  0  0  0  0  0  0
  -23.6575    3.2628   27.0657 O   0  0  0  0  0  0  0  0  0  0  0  0
  -29.7361   -2.1115   31.5667 C   0  0  0  0  0  0  0  0  0  0  0  0
  -30.8400   -2.9690   31.8095 C   0  0  0  0  0  0  0  0  0  0  0  0
  -29.5850   -1.0104   32.5032 C   0  0  0  0  0  0  0  0  0  0  0  0
  -30.4329   -0.7194   33.4422 N   0  0  0  0  0  0  0  0  0  0  0  0
  -31.7715   -2.6391   32.8890 C   0  0  0  0  0  0  0  0  0  0  0  0
  -31.4895   -1.5435   33.6888 C   0  0  0  0  0  0  0  0  0  0  0  0
  -28.1077   -3.6160   30.7518 C   0  0  0  0  0  0  0  0  0  0  0  0
  1  2  2  3
  2  3  1  0
  3  4  1  0
  4  5  1  0
  5  6  1  0
  2  7  1  0
  6  7  1  0
  1  8  1  0
  8  9  1  0
  5 10  1  0
 10 11  2  0
 10 12  1  0
  9 13  1  0
  9 19  1  0
 13 14  2  0
 14 17  1  0
 17 18  2  0
 18 16  1  0
 16 15  2  0
 15 13  1  0
M  END

$$$$
