No_2197-gen_results/8p0m/2024-11-27-11-27-31/
     RDKit          3D

 22 24  0  0  0  0  0  0  0  0999 V2000
  -28.0162   -0.8135   28.8779 C   0  0  0  0  0  0  0  0  0  0  0  0
  -27.0636   -0.1190   28.6079 C   0  0  0  0  0  0  0  0  0  0  0  0
  -25.7647   -0.3897   29.0360 C   0  0  0  0  0  0  0  0  0  0  0  0
  -25.5296   -1.5302   29.9014 C   0  0  0  0  0  0  0  0  0  0  0  0
  -26.6888   -2.2893   30.1810 C   0  0  0  0  0  0  0  0  0  0  0  0
  -27.8727   -1.9508   29.7373 C   0  0  0  0  0  0  0  0  0  0  0  0
  -24.5491    0.4100   28.7341 C   0  0  0  0  0  0  0  0  0  0  0  0
  -23.3309    0.0437   29.0569 C   0  0  0  0  0  0  0  0  0  0  0  0
  -23.2108   -1.2231   29.7977 C   0  0  0  0  0  0  0  0  0  0  0  0
  -24.2359   -1.9570   30.2201 C   0  0  0  0  0  0  0  0  0  0  0  0
  -22.1970    0.7204   28.7514 N   0  0  0  0  0  0  0  0  0  0  0  0
  -22.2024    1.7097   27.8247 C   0  0  0  0  0  0  0  0  0  0  0  0
  -23.4435    2.2932   27.4124 C   0  0  0  0  0  0  0  0  0  0  0  0
  -24.5986    1.5842   27.8465 C   0  0  0  0  0  0  0  0  0  0  0  0
  -29.2950   -2.8377   30.1846 Cl  0  0  0  0  0  0  0  0  0  0  0  0
  -29.3422   -0.6055   28.6118 O   0  0  0  0  0  0  0  0  0  0  0  0
  -29.8243    0.6781   28.7967 C   0  0  0  0  0  0  0  0  0  0  0  0
  -30.9856    0.7594   28.8832 O   0  0  0  0  0  0  0  0  0  0  0  0
  -29.0467    1.8121   28.7761 N   0  0  0  0  0  0  0  0  0  0  0  0
  -29.5845    3.1268   28.9380 C   0  0  0  0  0  0  0  0  0  0  0  0
  -29.3610    3.7068   29.8082 C   0  0  0  0  0  0  0  0  0  0  0  0
  -30.0302    4.9819   30.2015 C   0  0  0  0  0  0  0  0  0  0  0  0
  6 15  1  0
  1 16  1  0
 16 17  1  0
 17 18  2  0
 17 19  1  0
 19 20  1  0
 20 21  2  3
 21 22  1  0
  1  2  2  0
  2  3  1  0
  4  5  1  0
  5  6  2  0
  6  1  1  0
  8 11  2  0
 11 12  1  0
 12 13  2  0
 13 14  1  0
 14  7  2  0
  3  4  2  0
  4 10  1  0
 10  9  2  0
  9  8  1  0
  8  7  1  0
  7  3  1  0
M  END

$$$$
