No_2231-gen_results/8p0m/2024-11-27-11-27-31/
     RDKit          3D

 13 14  0  0  0  0  0  0  0  0999 V2000
  -28.0162   -0.8135   28.8779 C   0  0  0  0  0  0  0  0  0  0  0  0
  -27.0636   -0.1189   28.6079 C   0  0  0  0  0  0  0  0  0  0  0  0
  -26.9716    0.7139   27.5060 C   0  0  0  0  0  0  0  0  0  0  0  0
  -28.1053    0.7744   26.6421 C   0  0  0  0  0  0  0  0  0  0  0  0
  -29.2041    0.1179   27.0477 C   0  0  0  0  0  0  0  0  0  0  0  0
  -29.2127   -0.6088   28.1281 C   0  0  0  0  0  0  0  0  0  0  0  0
  -30.2936    0.2344   26.2281 O   0  0  0  0  0  0  0  0  0  0  0  0
  -25.6944    1.4446   27.1335 C   0  0  0  0  0  0  0  0  0  0  0  0
  -24.8941    1.8840   28.2733 C   0  0  0  0  0  0  0  0  0  0  0  0
  -23.5201    2.1152   27.9762 C   0  0  0  0  0  0  0  0  0  0  0  0
  -23.0713    2.2220   26.6705 C   0  0  0  0  0  0  0  0  0  0  0  0
  -24.6162    0.8105   26.2399 C   0  0  0  0  0  0  0  0  0  0  0  0
  -23.5713    1.2167   25.8456 C   0  0  0  0  0  0  0  0  0  0  0  0
  5  7  1  0
  3  8  1  0
  1  2  2  0
  2  3  1  0
  3  4  2  0
  4  5  1  0
  5  6  2  0
  6  1  1  0
  8  9  2  0
  9 10  1  0
 10 11  2  0
 11 13  1  0
 13 12  2  0
 12  8  1  0
M  END

$$$$
