No_2138-gen_results/8p0m/2024-11-27-11-27-31/
     RDKit          3D

 30 31  0  0  0  0  0  0  0  0999 V2000
  -28.0162   -0.8135   28.8779 C   0  0  0  0  0  0  0  0  0  0  0  0
  -27.0636   -0.1190   28.6079 C   0  0  0  0  0  0  0  0  0  0  0  0
  -26.9287    1.1713   29.0083 C   0  0  0  0  0  0  0  0  0  0  0  0
  -25.7702    2.0341   28.6884 C   0  0  0  0  0  0  0  0  0  0  0  0
  -24.7141    1.4431   27.9188 C   0  0  0  0  0  0  0  0  0  0  0  0
  -24.8590    0.0783   27.5836 C   0  0  0  0  0  0  0  0  0  0  0  0
  -25.9647   -0.6606   27.9164 C   0  0  0  0  0  0  0  0  0  0  0  0
  -27.9821   -1.6367   30.0748 N   0  0  0  0  0  0  0  0  0  0  0  0
  -29.0318   -0.7819   28.3705 O   0  0  0  0  0  0  0  0  0  0  0  0
  -29.0339   -2.5382   30.5034 C   0  0  0  0  0  0  0  0  0  0  0  0
  -26.7209   -1.7414   30.8926 C   0  0  0  0  0  0  0  0  0  0  0  0
  -23.5122    2.1530   27.5436 C   0  0  0  0  0  0  0  0  0  0  0  0
  -22.3533    2.2536   27.8163 N   0  0  0  0  0  0  0  0  0  0  0  0
  -23.8415    2.9967   26.2752 C   0  0  0  0  0  0  0  0  0  0  0  0
  -28.7765   -3.8321   30.2479 C   0  0  0  0  0  0  0  0  0  0  0  0
  -29.2994   -4.6647   31.2937 C   0  0  0  0  0  0  0  0  0  0  0  0
  -30.5451   -4.7320   31.3305 O   0  0  0  0  0  0  0  0  0  0  0  0
  -28.6040   -5.5867   31.8655 O   0  0  0  0  0  0  0  0  0  0  0  0
  -21.9101    1.3038   28.7687 C   0  0  0  0  0  0  0  0  0  0  0  0
  -21.5913   -0.0617   28.3104 C   0  0  0  0  0  0  0  0  0  0  0  0
  -25.7017    3.4283   29.0887 C   0  0  0  0  0  0  0  0  0  0  0  0
  -25.3634    3.7554   30.1735 O   0  0  0  0  0  0  0  0  0  0  0  0
  -26.1652    4.3396   28.1590 N   0  0  0  0  0  0  0  0  0  0  0  0
  -26.0951    5.8210   28.4800 C   0  0  0  0  0  0  0  0  0  0  0  0
  -26.6994    4.0798   26.8403 C   0  0  0  0  0  0  0  0  0  0  0  0
  -26.2164    6.6388   27.7328 C   0  0  0  0  0  0  0  0  0  0  0  0
  -25.6588    7.9729   27.9103 C   0  0  0  0  0  0  0  0  0  0  0  0
  -25.1161    8.2967   29.1871 C   0  0  0  0  0  0  0  0  0  0  0  0
  -25.0260    7.2542   30.1184 C   0  0  0  0  0  0  0  0  0  0  0  0
  -25.3782    5.9753   29.7644 C   0  0  0  0  0  0  0  0  0  0  0  0
  1  2  1  0
  1  8  1  0
  1  9  2  0
  8 10  1  0
  8 11  1  0
  5 12  1  0
 12 13  1  0
 12 14  1  0
 10 15  1  0
 15 16  1  0
 16 17  2  0
 16 18  1  0
 13 19  1  0
 19 20  1  0
  4 21  1  0
 21 22  2  0
 21 23  1  0
 23 24  1  0
 23 25  1  0
  2  3  2  0
  3  4  1  0
  4  5  2  0
  5  6  1  0
  6  7  2  0
  7  2  1  0
 24 26  2  0
 26 27  1  0
 27 28  2  0
 28 29  1  0
 29 30  2  0
 30 24  1  0
M  END

$$$$
