No_2252-gen_results/8p0m/2024-11-27-11-27-31/
     RDKit          3D

 20 21  0  0  0  0  0  0  0  0999 V2000
  -28.0162   -0.8135   28.8779 C   0  0  0  0  0  0  0  0  0  0  0  0
  -28.4690   -0.7850   29.8287 C   0  0  0  0  0  0  0  0  0  0  0  0
  -27.0871    0.2903   28.6377 C   0  0  0  0  0  0  0  0  0  0  0  0
  -26.8317    1.2487   29.5869 C   0  0  0  0  0  0  0  0  0  0  0  0
  -28.3914    0.0801   31.0065 C   0  0  0  0  0  0  0  0  0  0  0  0
  -27.4940    1.1521   30.7841 C   0  0  0  0  0  0  0  0  0  0  0  0
  -26.3844    0.1867   27.3577 C   0  0  0  0  0  0  0  0  0  0  0  0
  -24.9900    0.1012   27.4454 C   0  0  0  0  0  0  0  0  0  0  0  0
  -26.9501    0.4170   26.1183 C   0  0  0  0  0  0  0  0  0  0  0  0
  -28.2970    0.6147   25.9745 C   0  0  0  0  0  0  0  0  0  0  0  0
  -28.8166    0.6417   24.6863 C   0  0  0  0  0  0  0  0  0  0  0  0
  -30.2065    0.7903   24.5161 C   0  0  0  0  0  0  0  0  0  0  0  0
  -31.0303    0.9765   25.5874 C   0  0  0  0  0  0  0  0  0  0  0  0
  -30.5182    0.9229   26.8804 C   0  0  0  0  0  0  0  0  0  0  0  0
  -29.2052    0.7835   27.0903 C   0  0  0  0  0  0  0  0  0  0  0  0
  -26.0916    0.4454   24.9919 C   0  0  0  0  0  0  0  0  0  0  0  0
  -31.6606    1.1805   28.1891 Cl  0  0  0  0  0  0  0  0  0  0  0  0
  -24.1159    1.1177   27.1863 C   0  0  0  0  0  0  0  0  0  0  0  0
  -22.8240    1.2179   27.8760 C   0  0  0  0  0  0  0  0  0  0  0  0
  -21.9573    2.3230   27.5346 C   0  0  0  0  0  0  0  0  0  0  0  0
  3  7  1  0
  7  8  1  0
  7  9  1  0
  9 10  1  0
  9 16  1  0
 14 17  1  0
  8 18  1  0
 18 19  2  3
 19 20  1  0
  1  2  2  0
  2  5  1  0
  5  6  2  0
  6  4  1  0
  4  3  2  0
  3  1  1  0
 10 11  2  0
 11 12  1  0
 12 13  2  0
 13 14  1  0
 14 15  2  0
 15 10  1  0
M  END

$$$$
