No_2189-gen_results/8p0m/2024-11-27-11-27-31/
     RDKit          3D

 17 18  0  0  0  0  0  0  0  0999 V2000
  -28.0162   -0.8135   28.8779 C   0  0  0  0  0  0  0  0  0  0  0  0
  -27.0636   -0.1189   28.6079 C   0  0  0  0  0  0  0  0  0  0  0  0
  -26.8756    1.1325   28.9134 C   0  0  0  0  0  0  0  0  0  0  0  0
  -27.9014    1.8066   29.6436 C   0  0  0  0  0  0  0  0  0  0  0  0
  -29.0458   -0.2316   29.7181 C   0  0  0  0  0  0  0  0  0  0  0  0
  -28.9402    1.0517   30.0597 C   0  0  0  0  0  0  0  0  0  0  0  0
  -25.8732   -0.7125   27.8045 C   0  0  0  0  0  0  0  0  0  0  0  0
  -24.7599   -1.1987   28.6570 C   0  0  0  0  0  0  0  0  0  0  0  0
  -23.6191   -0.4133   28.9109 C   0  0  0  0  0  0  0  0  0  0  0  0
  -23.3198    0.8126   28.3592 C   0  0  0  0  0  0  0  0  0  0  0  0
  -22.0309    1.3728   28.5040 C   0  0  0  0  0  0  0  0  0  0  0  0
  -21.0865    0.5749   28.9531 N   0  0  0  0  0  0  0  0  0  0  0  0
  -21.2251   -0.6922   29.3149 C   0  0  0  0  0  0  0  0  0  0  0  0
  -22.5115   -1.2197   29.3075 C   0  0  0  0  0  0  0  0  0  0  0  0
  -25.0396   -2.4043   29.3846 C   0  0  0  0  0  0  0  0  0  0  0  0
  -24.7119   -3.5133   28.8536 N   0  0  0  0  0  0  0  0  0  0  0  0
  -25.1331   -4.7228   29.4320 C   0  0  0  0  0  0  0  0  0  0  0  0
  2  7  1  0
  7  8  1  0
  8  9  1  0
  8 15  1  0
 15 16  2  3
 16 17  1  0
  1  2  2  0
  2  3  1  0
  3  4  2  0
  4  6  1  0
  6  5  2  0
  5  1  1  0
  9 10  2  0
 10 11  1  0
 11 12  2  0
 12 13  1  0
 13 14  2  0
 14  9  1  0
M  END

$$$$
