No_2060-gen_results/8p0m/2024-11-27-11-27-31/
     RDKit          3D

 31 35  0  0  0  0  0  0  0  0999 V2000
  -28.0162   -0.8135   28.8779 C   0  0  0  0  0  0  0  0  0  0  0  0
  -28.4690   -0.7850   29.8287 C   0  0  0  0  0  0  0  0  0  0  0  0
  -26.5042   -0.7777   28.8766 C   0  0  0  0  0  0  0  0  0  0  0  0
  -25.8103   -0.8531   30.1028 C   0  0  0  0  0  0  0  0  0  0  0  0
  -27.9906   -0.8916   31.2257 C   0  0  0  0  0  0  0  0  0  0  0  0
  -26.6042   -0.8676   31.2652 C   0  0  0  0  0  0  0  0  0  0  0  0
  -30.0739   -0.8360   29.8615 C   0  0  0  0  0  0  0  0  0  0  0  0
  -30.6891   -1.6554   30.2229 O   0  0  0  0  0  0  0  0  0  0  0  0
  -30.6022    0.4333   29.5984 N   0  0  0  0  0  0  0  0  0  0  0  0
  -31.6257    0.7206   29.2957 C   0  0  0  0  0  0  0  0  0  0  0  0
  -32.6426    0.5426   29.1582 C   0  0  0  0  0  0  0  0  0  0  0  0
  -33.7997    1.3116   28.7142 C   0  0  0  0  0  0  0  0  0  0  0  0
  -33.4874    2.6368   28.4089 C   0  0  0  0  0  0  0  0  0  0  0  0
  -32.2404    3.1126   28.4621 C   0  0  0  0  0  0  0  0  0  0  0  0
  -31.2275    2.3657   28.8907 C   0  0  0  0  0  0  0  0  0  0  0  0
  -29.4912    1.6120   29.4553 C   0  0  0  0  0  0  0  0  0  0  0  0
  -29.9699    2.7542   29.1219 C   0  0  0  0  0  0  0  0  0  0  0  0
  -25.6729   -0.6834   27.6551 C   0  0  0  0  0  0  0  0  0  0  0  0
  -25.2765    0.6847   27.3047 C   0  0  0  0  0  0  0  0  0  0  0  0
  -25.4467    1.1248   26.0415 C   0  0  0  0  0  0  0  0  0  0  0  0
  -24.9336    2.4027   25.6422 C   0  0  0  0  0  0  0  0  0  0  0  0
  -24.2703    3.1679   26.6792 C   0  0  0  0  0  0  0  0  0  0  0  0
  -24.5385    1.5613   28.1352 C   0  0  0  0  0  0  0  0  0  0  0  0
  -24.0160    2.7147   27.8179 C   0  0  0  0  0  0  0  0  0  0  0  0
  -26.0930    0.4129   25.0018 C   0  0  0  0  0  0  0  0  0  0  0  0
  -27.4396    0.7248   24.6922 C   0  0  0  0  0  0  0  0  0  0  0  0
  -27.9666    1.8631   25.3060 C   0  0  0  0  0  0  0  0  0  0  0  0
  -29.3455    2.2488   25.0896 C   0  0  0  0  0  0  0  0  0  0  0  0
  -30.1219    1.3861   24.3887 C   0  0  0  0  0  0  0  0  0  0  0  0
  -29.6466    0.1888   23.9242 C   0  0  0  0  0  0  0  0  0  0  0  0
  -28.3094   -0.1639   24.1132 C   0  0  0  0  0  0  0  0  0  0  0  0
  2  7  1  0
  7  8  2  0
  7  9  1  0
  9 10  1  0
  9 16  1  0
 15 17  1  0
 16 17  2  0
  3 18  1  0
 18 19  1  0
 20 25  1  0
 25 26  1  0
 26 27  2  0
 27 28  1  0
 28 29  2  0
 29 30  1  0
 30 31  2  0
 31 26  1  0
  1  2  2  0
  2  5  1  0
  5  6  2  0
  6  4  1  0
  4  3  2  0
  3  1  1  0
 10 11  2  0
 11 12  1  0
 12 13  2  0
 13 14  1  0
 14 15  2  0
 15 10  1  0
 19 20  1  0
 20 21  2  0
 21 22  1  0
 22 24  2  0
 24 23  1  0
 23 19  2  0
M  END

$$$$
