No_2165-gen_results/8p0m/2024-11-27-11-27-31/
     RDKit          3D

 15 16  0  0  0  0  0  0  0  0999 V2000
  -28.1229   -1.3353   28.4874 O   0  0  0  0  0  0  0  0  0  0  0  0
  -27.0637   -0.8242   28.8687 C   0  0  0  0  0  0  0  0  0  0  0  0
  -26.4017   -0.0623   28.6224 C   0  0  0  0  0  0  0  0  0  0  0  0
  -26.7496   -1.3992   30.2054 F   0  0  0  0  0  0  0  0  0  0  0  0
  -26.6896    0.9837   27.6942 C   0  0  0  0  0  0  0  0  0  0  0  0
  -25.7184    1.7229   26.9583 C   0  0  0  0  0  0  0  0  0  0  0  0
  -24.3607    1.7234   27.4473 C   0  0  0  0  0  0  0  0  0  0  0  0
  -24.0147    0.8359   28.4486 C   0  0  0  0  0  0  0  0  0  0  0  0
  -24.9382    0.0017   28.9697 C   0  0  0  0  0  0  0  0  0  0  0  0
  -22.5737    0.8141   28.8540 C   0  0  0  0  0  0  0  0  0  0  0  0
  -21.6994    1.3831   28.0934 N   0  0  0  0  0  0  0  0  0  0  0  0
  -22.2325   -0.0232   29.8760 N   0  0  0  0  0  0  0  0  0  0  0  0
  -23.0968   -0.6295   30.6860 C   0  0  0  0  0  0  0  0  0  0  0  0
  -24.4730   -0.7306   30.2221 C   0  0  0  0  0  0  0  0  0  0  0  0
  -25.1953   -1.5911   30.8002 F   0  0  0  0  0  0  0  0  0  0  0  0
  1  2  2  0
  2  3  1  0
  2  4  1  0
 14 15  1  0
 11 10  1  0
  3  5  2  0
  5  6  1  0
  6  7  2  0
  7  8  1  0
  9  3  1  0
  8  9  2  0
  9 14  1  0
 14 13  2  0
 13 12  1  0
 12 10  2  0
 10  8  1  0
M  END

$$$$
