No_2359-gen_results/8p0m/2024-11-27-11-27-31/
     RDKit          3D

 33 37  0  0  0  0  0  0  0  0999 V2000
  -28.0162   -0.8135   28.8779 C   0  0  0  0  0  0  0  0  0  0  0  0
  -27.0636   -0.1190   28.6079 C   0  0  0  0  0  0  0  0  0  0  0  0
  -25.7647   -0.3897   29.0360 C   0  0  0  0  0  0  0  0  0  0  0  0
  -24.5516    0.4058   28.7646 C   0  0  0  0  0  0  0  0  0  0  0  0
  -23.2300    0.1178   29.2575 C   0  0  0  0  0  0  0  0  0  0  0  0
  -23.0942   -1.1309   29.8730 C   0  0  0  0  0  0  0  0  0  0  0  0
  -27.7980   -1.9341   29.8560 C   0  0  0  0  0  0  0  0  0  0  0  0
  -26.5420   -2.3269   30.2580 C   0  0  0  0  0  0  0  0  0  0  0  0
  -25.4514   -1.5516   29.9079 C   0  0  0  0  0  0  0  0  0  0  0  0
  -24.1562   -1.9097   30.2809 C   0  0  0  0  0  0  0  0  0  0  0  0
  -24.6450    1.6582   27.9464 C   0  0  0  0  0  0  0  0  0  0  0  0
  -24.8958    2.7559   28.5615 C   0  0  0  0  0  0  0  0  0  0  0  0
  -25.1728    3.9344   27.8439 C   0  0  0  0  0  0  0  0  0  0  0  0
  -24.4838    1.5571   26.5889 C   0  0  0  0  0  0  0  0  0  0  0  0
  -24.6321    2.6939   25.7850 C   0  0  0  0  0  0  0  0  0  0  0  0
  -24.8902    3.9231   26.4317 C   0  0  0  0  0  0  0  0  0  0  0  0
  -25.0758    2.9107   29.9068 O   0  0  0  0  0  0  0  0  0  0  0  0
  -25.9144    3.7559   30.5334 C   0  0  0  0  0  0  0  0  0  0  0  0
  -26.7001    3.1529   31.5348 C   0  0  0  0  0  0  0  0  0  0  0  0
  -26.2763    2.2413   32.0880 O   0  0  0  0  0  0  0  0  0  0  0  0
  -28.1304    2.8300   30.9558 C   0  0  0  0  0  0  0  0  0  0  0  0
  -28.7703    1.9666   31.7768 C   0  0  0  0  0  0  0  0  0  0  0  0
  -28.6497    2.2496   33.0462 C   0  0  0  0  0  0  0  0  0  0  0  0
  -29.3811    1.7540   34.0470 C   0  0  0  0  0  0  0  0  0  0  0  0
  -29.1993    2.0354   35.4535 C   0  0  0  0  0  0  0  0  0  0  0  0
  -28.1031    2.8354   35.7935 C   0  0  0  0  0  0  0  0  0  0  0  0
  -27.2573    3.3225   34.8136 C   0  0  0  0  0  0  0  0  0  0  0  0
  -27.5166    2.9788   33.4743 C   0  0  0  0  0  0  0  0  0  0  0  0
  -26.6583    3.6532   32.6037 C   0  0  0  0  0  0  0  0  0  0  0  0
  -25.6455    1.3254   32.5164 C   0  0  0  0  0  0  0  0  0  0  0  0
  -28.5692    3.4328   29.7557 C   0  0  0  0  0  0  0  0  0  0  0  0
  -28.6814    4.7132   29.4786 C   0  0  0  0  0  0  0  0  0  0  0  0
  -29.1502    5.1428   28.2396 C   0  0  0  0  0  0  0  0  0  0  0  0
  4 11  1  0
 12 17  1  0
 17 18  1  0
 18 19  1  0
 19 20  1  0
 19 21  1  0
 21 22  1  0
 22 23  1  0
 19 29  1  0
 28 29  1  0
 20 30  1  0
 21 31  1  0
 31 32  2  3
 32 33  1  0
 23 24  2  0
 24 25  1  0
 25 26  2  0
 26 27  1  0
 27 28  2  0
 28 23  1  0
  1  2  2  0
  2  3  1  0
  9  8  1  0
  8  7  2  0
  7  1  1  0
  3  4  2  0
  4  5  1  0
  5  6  2  0
  6 10  1  0
 10  9  2  0
  9  3  1  0
 11 12  1  0
 12 13  2  0
 13 16  1  0
 16 15  2  0
 15 14  1  0
 14 11  2  0
M  END

$$$$
