No_2953-gen_results/8p0m/2024-11-27-11-27-31/
     RDKit          3D

 27 27  0  0  0  0  0  0  0  0999 V2000
  -28.0162   -0.8135   28.8779 C   0  0  0  0  0  0  0  0  0  0  0  0
  -27.0636   -0.1190   28.6079 C   0  0  0  0  0  0  0  0  0  0  0  0
  -26.9716    0.7139   27.5060 C   0  0  0  0  0  0  0  0  0  0  0  0
  -25.8205    1.4909   27.1160 C   0  0  0  0  0  0  0  0  0  0  0  0
  -24.6562    1.4242   27.9180 C   0  0  0  0  0  0  0  0  0  0  0  0
  -24.6847    0.5901   29.0659 C   0  0  0  0  0  0  0  0  0  0  0  0
  -25.8099   -0.1265   29.3338 C   0  0  0  0  0  0  0  0  0  0  0  0
  -28.0540   -1.5468   30.1892 C   0  0  0  0  0  0  0  0  0  0  0  0
  -29.3575   -2.4234   30.7009 P   0  0  0  0  0  0  0  0  0  0  0  0
  -29.0091   -3.5890   31.2447 O   0  0  0  0  0  0  0  0  0  0  0  0
  -30.1589   -2.5730   29.3920 O   0  0  0  0  0  0  0  0  0  0  0  0
  -30.1447   -1.4687   31.6269 O   0  0  0  0  0  0  0  0  0  0  0  0
  -23.4571    2.2045   27.6100 C   0  0  0  0  0  0  0  0  0  0  0  0
  -23.4408    2.7814   26.6896 F   0  0  0  0  0  0  0  0  0  0  0  0
  -23.1233    3.0365   28.6735 F   0  0  0  0  0  0  0  0  0  0  0  0
  -22.2986    1.3622   27.6560 F   0  0  0  0  0  0  0  0  0  0  0  0
  -24.2258    0.6934   27.3675 F   0  0  0  0  0  0  0  0  0  0  0  0
  -23.4015   -0.2390   29.4000 N   0  0  0  0  0  0  0  0  0  0  0  0
  -26.1757    2.8431   27.4527 O   0  0  0  0  0  0  0  0  0  0  0  0
  -23.1686   -0.5002   30.6911 C   0  0  0  0  0  0  0  0  0  0  0  0
  -25.7113    1.3463   25.6295 C   0  0  0  0  0  0  0  0  0  0  0  0
  -28.1208    0.8935   26.6709 C   0  0  0  0  0  0  0  0  0  0  0  0
  -29.3157    1.3568   27.2202 C   0  0  0  0  0  0  0  0  0  0  0  0
  -30.4400    1.4798   26.4231 C   0  0  0  0  0  0  0  0  0  0  0  0
  -31.6448    1.8893   27.0658 C   0  0  0  0  0  0  0  0  0  0  0  0
  -31.6643    2.0947   28.4631 C   0  0  0  0  0  0  0  0  0  0  0  0
  -30.5406    1.9300   29.2417 C   0  0  0  0  0  0  0  0  0  0  0  0
  1  2  2  3
  2  3  1  0
  3  4  1  0
  4  5  1  0
  5  6  1  0
  2  7  1  0
  6  7  1  0
  1  8  1  0
  8  9  1  0
  9 10  1  0
  9 11  2  0
  9 12  1  0
  5 13  1  0
 13 14  1  0
 13 15  1  0
 13 16  1  0
  5 17  1  0
  6 18  1  0
  4 19  1  0
 18 20  1  0
  4 21  1  0
  3 22  1  0
 22 23  2  3
 23 24  1  0
 24 25  2  3
 25 26  1  0
 26 27  2  0
M  END

$$$$
