No_2635-gen_results/8p0m/2024-11-27-11-27-31/
     RDKit          3D

 25 26  0  0  0  0  0  0  0  0999 V2000
  -28.0162   -0.8135   28.8779 C   0  0  0  0  0  0  0  0  0  0  0  0
  -27.0636   -0.1189   28.6079 C   0  0  0  0  0  0  0  0  0  0  0  0
  -27.0010    0.6913   27.4910 C   0  0  0  0  0  0  0  0  0  0  0  0
  -25.8548    1.4825   27.0830 C   0  0  0  0  0  0  0  0  0  0  0  0
  -24.6901    1.4526   27.8807 C   0  0  0  0  0  0  0  0  0  0  0  0
  -24.7379    0.6010   29.0416 C   0  0  0  0  0  0  0  0  0  0  0  0
  -25.8234   -0.1688   29.3887 C   0  0  0  0  0  0  0  0  0  0  0  0
  -27.9613   -1.6072   30.0877 N   0  0  0  0  0  0  0  0  0  0  0  0
  -23.5206    2.2106   27.5733 C   0  0  0  0  0  0  0  0  0  0  0  0
  -22.7113    2.4004   28.4702 O   0  0  0  0  0  0  0  0  0  0  0  0
  -23.4526    2.7917   26.4466 O   0  0  0  0  0  0  0  0  0  0  0  0
  -29.0448   -2.2520   30.6011 C   0  0  0  0  0  0  0  0  0  0  0  0
  -26.7887   -1.9099   30.7538 C   0  0  0  0  0  0  0  0  0  0  0  0
  -25.7582   -1.0697   30.4559 C   0  0  0  0  0  0  0  0  0  0  0  0
  -30.0779   -1.8892   30.5436 O   0  0  0  0  0  0  0  0  0  0  0  0
  -28.8675   -4.1141   30.8197 Cl  0  0  0  0  0  0  0  0  0  0  0  0
  -28.1677    0.8562   26.6099 C   0  0  0  0  0  0  0  0  0  0  0  0
  -28.2008    0.6322   25.4266 N   0  0  0  0  0  0  0  0  0  0  0  0
  -29.2161    0.1752   24.6996 C   0  0  0  0  0  0  0  0  0  0  0  0
  -29.2752    1.1351   27.1997 O   0  0  0  0  0  0  0  0  0  0  0  0
  -30.1108    0.9760   24.4508 C   0  0  0  0  0  0  0  0  0  0  0  0
  -30.0301    2.2502   24.4523 C   0  0  0  0  0  0  0  0  0  0  0  0
  -31.1440    3.2272   24.1229 C   0  0  0  0  0  0  0  0  0  0  0  0
  -32.3203    2.6718   23.6558 C   0  0  0  0  0  0  0  0  0  0  0  0
  -32.4537    1.2767   23.6426 C   0  0  0  0  0  0  0  0  0  0  0  0
  1  2  1  0
  1  8  1  0
  5  9  1  0
  9 10  1  0
  9 11  2  0
  8 12  1  0
  8 13  1  0
  7 14  1  0
 13 14  1  0
 12 15  2  0
 12 16  1  0
  3 17  1  0
 17 18  1  0
 18 19  2  3
 17 20  2  0
 19 21  1  0
 21 22  2  3
 22 23  1  0
 23 24  2  3
 24 25  1  0
  2  3  2  0
  3  4  1  0
  4  5  2  0
  5  6  1  0
  6  7  2  0
  7  2  1  0
M  END

$$$$
