No_2656-gen_results/8p0m/2024-11-27-11-27-31/
     RDKit          3D

 26 27  0  0  0  0  0  0  0  0999 V2000
  -28.1229   -1.3353   28.4874 O   0  0  0  0  0  0  0  0  0  0  0  0
  -27.4806   -0.4044   28.7094 C   0  0  0  0  0  0  0  0  0  0  0  0
  -27.1904    0.2460   29.5268 C   0  0  0  0  0  0  0  0  0  0  0  0
  -26.8157    0.1371   27.4262 N   0  0  0  0  0  0  0  0  0  0  0  0
  -26.3550    1.4196   29.7643 C   0  0  0  0  0  0  0  0  0  0  0  0
  -27.0032   -0.3835   26.2012 C   0  0  0  0  0  0  0  0  0  0  0  0
  -25.8006    1.8629   28.4858 C   0  0  0  0  0  0  0  0  0  0  0  0
  -25.9935    1.2451   27.3785 C   0  0  0  0  0  0  0  0  0  0  0  0
  -25.4980    1.6879   26.3509 F   0  0  0  0  0  0  0  0  0  0  0  0
  -27.7150   -0.2876   30.9879 C   0  0  0  0  0  0  0  0  0  0  0  0
  -24.8598    3.0881   28.5914 C   0  0  0  0  0  0  0  0  0  0  0  0
  -24.9784    3.8875   29.4653 O   0  0  0  0  0  0  0  0  0  0  0  0
  -23.7454    3.0363   27.8883 O   0  0  0  0  0  0  0  0  0  0  0  0
  -26.3575    2.9307   28.3615 O   0  0  0  0  0  0  0  0  0  0  0  0
  -26.6584    3.6336   27.3117 C   0  0  0  0  0  0  0  0  0  0  0  0
  -24.9303    0.3783   27.4905 O   0  0  0  0  0  0  0  0  0  0  0  0
  -28.1478    3.6130   26.9426 C   0  0  0  0  0  0  0  0  0  0  0  0
  -28.8568    4.6963   27.1816 C   0  0  0  0  0  0  0  0  0  0  0  0
  -30.1538    4.6355   26.7072 C   0  0  0  0  0  0  0  0  0  0  0  0
  -30.6149    3.5570   25.9816 C   0  0  0  0  0  0  0  0  0  0  0  0
  -29.8040    2.5133   25.6702 C   0  0  0  0  0  0  0  0  0  0  0  0
  -28.4902    2.5795   26.1860 C   0  0  0  0  0  0  0  0  0  0  0  0
  -30.2974    1.3823   24.9417 C   0  0  0  0  0  0  0  0  0  0  0  0
  -30.7093    1.4878   23.9426 F   0  0  0  0  0  0  0  0  0  0  0  0
  -31.1945    0.6284   25.7362 F   0  0  0  0  0  0  0  0  0  0  0  0
  -29.2314    0.4810   24.8219 F   0  0  0  0  0  0  0  0  0  0  0  0
  1  2  2  0
  2  3  1  0
  2  4  1  0
  3  5  1  0
  4  6  1  0
  5  7  1  0
  4  8  1  0
  7  8  1  0
  8  9  1  0
  3 10  1  0
  7 11  1  0
 11 12  1  0
 11 13  2  0
  7 14  1  0
 14 15  1  0
  8 16  1  0
 15 17  1  0
 21 23  1  0
 23 24  1  0
 23 25  1  0
 23 26  1  0
 17 18  2  0
 18 19  1  0
 19 20  2  0
 20 21  1  0
 21 22  2  0
 22 17  1  0
M  END

$$$$
