No_245-gen_results/8p0m/2024-11-27-11-27-31/
     RDKit          3D

 15 16  0  0  0  0  0  0  0  0999 V2000
  -28.0162   -0.8135   28.8779 C   0  0  0  0  0  0  0  0  0  0  0  0
  -28.4690   -0.7850   29.8287 C   0  0  0  0  0  0  0  0  0  0  0  0
  -26.5042   -0.7777   28.8766 C   0  0  0  0  0  0  0  0  0  0  0  0
  -25.7622   -0.0022   27.9705 C   0  0  0  0  0  0  0  0  0  0  0  0
  -27.9832   -1.4903   31.0818 C   0  0  0  0  0  0  0  0  0  0  0  0
  -26.6062   -1.5983   31.1298 C   0  0  0  0  0  0  0  0  0  0  0  0
  -25.8085   -1.2512   30.0553 C   0  0  0  0  0  0  0  0  0  0  0  0
  -25.2496    1.2841   28.2369 C   0  0  0  0  0  0  0  0  0  0  0  0
  -24.8265    1.6106   29.3285 C   0  0  0  0  0  0  0  0  0  0  0  0
  -25.9451    2.2751   27.5916 C   0  0  0  0  0  0  0  0  0  0  0  0
  -23.8072    1.2136   27.3515 C   0  0  0  0  0  0  0  0  0  0  0  0
  -23.6118    1.9965   26.3489 C   0  0  0  0  0  0  0  0  0  0  0  0
  -27.2988    2.4361   28.1229 C   0  0  0  0  0  0  0  0  0  0  0  0
  -25.4282    3.2819   26.7281 C   0  0  0  0  0  0  0  0  0  0  0  0
  -24.2946    3.1115   25.9909 C   0  0  0  0  0  0  0  0  0  0  0  0
  1  2  1  0
  1  3  1  0
  3  4  2  3
  2  5  1  0
  5  6  1  0
  3  7  1  0
  6  7  1  0
  4  8  1  0
  8  9  1  0
  8 10  1  0
  8 11  1  0
 11 12  1  0
 10 13  1  0
 10 14  1  0
 14 15  1  0
 15 12  1  0
M  END

$$$$
