No_2532-gen_results/8p0m/2024-11-27-11-27-31/
     RDKit          3D

 29 33  0  0  0  0  0  0  0  0999 V2000
  -28.1493   -0.8198   28.9079 Cl  0  0  0  0  0  0  0  0  0  0  0  0
  -26.9116   -0.0797   28.9452 C   0  0  0  0  0  0  0  0  0  0  0  0
  -25.9665   -0.2123   29.6235 C   0  0  0  0  0  0  0  0  0  0  0  0
  -24.7040    0.5534   29.6218 C   0  0  0  0  0  0  0  0  0  0  0  0
  -24.6011    1.5437   28.6212 C   0  0  0  0  0  0  0  0  0  0  0  0
  -25.6671    1.7162   27.8026 C   0  0  0  0  0  0  0  0  0  0  0  0
  -26.7607    0.9618   27.8836 C   0  0  0  0  0  0  0  0  0  0  0  0
  -23.3668    2.3130   28.5678 C   0  0  0  0  0  0  0  0  0  0  0  0
  -22.2300    1.7157   27.5004 Cl  0  0  0  0  0  0  0  0  0  0  0  0
  -27.8803    1.1921   26.9182 C   0  0  0  0  0  0  0  0  0  0  0  0
  -29.0362    1.3636   27.2688 C   0  0  0  0  0  0  0  0  0  0  0  0
  -29.3692    1.7183   28.5258 C   0  0  0  0  0  0  0  0  0  0  0  0
  -30.3428    0.9001   29.1859 C   0  0  0  0  0  0  0  0  0  0  0  0
  -27.3726    1.0903   25.5053 C   0  0  0  0  0  0  0  0  0  0  0  0
  -26.1685    0.8095   25.1732 C   0  0  0  0  0  0  0  0  0  0  0  0
  -28.3942    1.1353   24.5343 C   0  0  0  0  0  0  0  0  0  0  0  0
  -24.9943    0.6246   25.9981 C   0  0  0  0  0  0  0  0  0  0  0  0
  -29.9684    1.7454   26.3245 C   0  0  0  0  0  0  0  0  0  0  0  0
  -29.6967    1.4778   24.9527 C   0  0  0  0  0  0  0  0  0  0  0  0
  -24.6719    1.6398   26.8278 C   0  0  0  0  0  0  0  0  0  0  0  0
  -30.7696    1.1708   30.5126 C   0  0  0  0  0  0  0  0  0  0  0  0
  -30.1730    2.2606   31.2012 C   0  0  0  0  0  0  0  0  0  0  0  0
  -30.5358    2.5531   32.5530 C   0  0  0  0  0  0  0  0  0  0  0  0
  -29.1838    3.0657   30.6056 C   0  0  0  0  0  0  0  0  0  0  0  0
  -28.8441    2.8040   29.3704 C   0  0  0  0  0  0  0  0  0  0  0  0
  -30.0812    3.4921   33.1664 C   0  0  0  0  0  0  0  0  0  0  0  0
  -29.0365    4.3435   32.5586 C   0  0  0  0  0  0  0  0  0  0  0  0
  -28.6164    4.1585   31.3346 C   0  0  0  0  0  0  0  0  0  0  0  0
  -24.0068    2.7252   26.1201 C   0  0  0  0  0  0  0  0  0  0  0  0
  1  2  1  0
  5  8  1  0
  8  9  1  0
  7 10  1  0
 11 12  1  0
 15 17  1  0
  6 20  1  0
 17 20  2  0
 20 29  1  0
 15 14  1  0
 12 13  2  0
 13 21  1  0
 21 22  2  0
 24 25  2  0
 25 12  1  0
  2  3  2  0
  3  4  1  0
  4  5  2  0
  5  6  1  0
  6  7  2  0
  7  2  1  0
 10 11  2  0
 11 18  1  0
 18 19  2  0
 19 16  1  0
 16 14  2  0
 14 10  1  0
 22 23  1  0
 23 26  2  0
 26 27  1  0
 27 28  2  0
 28 24  1  0
 24 22  1  0
M  END

$$$$
