No_296-gen_results/8p0m/2024-11-27-11-27-31/
     RDKit          3D

  6  6  0  0  0  0  0  0  0  0999 V2000
  -28.0162   -0.8135   28.8779 C   0  0  0  0  0  0  0  0  0  0  0  0
  -28.4690   -0.7850   29.8287 C   0  0  0  0  0  0  0  0  0  0  0  0
  -27.0871    0.2903   28.6377 C   0  0  0  0  0  0  0  0  0  0  0  0
  -26.8317    1.2487   29.5869 C   0  0  0  0  0  0  0  0  0  0  0  0
  -28.3292   -0.0396   30.8362 C   0  0  0  0  0  0  0  0  0  0  0  0
  -27.4945    1.0625   30.7933 C   0  0  0  0  0  0  0  0  0  0  0  0
  1  2  2  0
  2  5  1  0
  5  6  2  0
  6  4  1  0
  4  3  2  0
  3  1  1  0
M  END

$$$$
