No_2586-gen_results/8p0m/2024-11-27-11-27-31/
     RDKit          3D

 24 25  0  0  0  0  0  0  0  0999 V2000
  -28.1229   -1.3353   28.4874 O   0  0  0  0  0  0  0  0  0  0  0  0
  -28.5208   -0.4363   29.0779 C   0  0  0  0  0  0  0  0  0  0  0  0
  -27.6343    0.1354   29.9832 C   0  0  0  0  0  0  0  0  0  0  0  0
  -27.7602    1.2620   30.7017 C   0  0  0  0  0  0  0  0  0  0  0  0
  -29.6156    0.2640   28.6867 N   0  0  0  0  0  0  0  0  0  0  0  0
  -30.4426   -0.1334   27.7794 C   0  0  0  0  0  0  0  0  0  0  0  0
  -26.6572   -0.7954   30.6034 C   0  0  0  0  0  0  0  0  0  0  0  0
  -28.4679    2.1750   30.3749 C   0  0  0  0  0  0  0  0  0  0  0  0
  -29.6201    2.3351   29.5811 C   0  0  0  0  0  0  0  0  0  0  0  0
  -29.9580    1.4431   28.7519 C   0  0  0  0  0  0  0  0  0  0  0  0
  -31.1117    1.6997   28.1137 F   0  0  0  0  0  0  0  0  0  0  0  0
  -31.4517    0.3542   27.0650 C   0  0  0  0  0  0  0  0  0  0  0  0
  -32.6826    0.0086   27.4569 O   0  0  0  0  0  0  0  0  0  0  0  0
  -31.3235    0.9220   25.9615 F   0  0  0  0  0  0  0  0  0  0  0  0
  -31.3919   -0.4784   26.1313 O   0  0  0  0  0  0  0  0  0  0  0  0
  -32.0849   -1.0114   25.1787 C   0  0  0  0  0  0  0  0  0  0  0  0
  -30.3367   -1.3765   27.8547 O   0  0  0  0  0  0  0  0  0  0  0  0
  -25.4287   -0.8160   29.9192 C   0  0  0  0  0  0  0  0  0  0  0  0
  -31.7889   -2.4462   25.0113 C   0  0  0  0  0  0  0  0  0  0  0  0
  -24.8580   -2.0148   29.5779 C   0  0  0  0  0  0  0  0  0  0  0  0
  -23.5588   -1.9994   28.9260 C   0  0  0  0  0  0  0  0  0  0  0  0
  -22.8888   -0.7902   28.8186 C   0  0  0  0  0  0  0  0  0  0  0  0
  -23.4921    0.4071   29.2296 C   0  0  0  0  0  0  0  0  0  0  0  0
  -24.7372    0.3896   29.8075 C   0  0  0  0  0  0  0  0  0  0  0  0
  1  2  1  0
  2  3  1  0
  3  4  2  0
  2  5  1  0
  5  6  1  0
  3  7  1  0
  4  8  1  0
  8  9  2  0
  5 10  1  0
  9 10  1  0
 10 11  1  0
  6 12  1  0
 12 13  1  0
 12 14  1  0
 12 15  1  0
 15 16  1  0
  6 17  2  0
  7 18  1  0
 16 19  1  0
 18 20  2  0
 20 21  1  0
 21 22  2  0
 22 23  1  0
 23 24  2  0
 24 18  1  0
M  END

$$$$
