No_2818-gen_results/8p0m/2024-11-27-11-27-31/
     RDKit          3D

 30 33  0  0  0  0  0  0  0  0999 V2000
  -28.0162   -0.8135   28.8779 C   0  0  0  0  0  0  0  0  0  0  0  0
  -28.4690   -0.7850   29.8287 C   0  0  0  0  0  0  0  0  0  0  0  0
  -26.5455   -0.8762   28.8500 C   0  0  0  0  0  0  0  0  0  0  0  0
  -25.8041   -1.0324   30.0571 C   0  0  0  0  0  0  0  0  0  0  0  0
  -24.3697   -1.0998   30.0718 C   0  0  0  0  0  0  0  0  0  0  0  0
  -27.9902   -1.0051   31.2092 C   0  0  0  0  0  0  0  0  0  0  0  0
  -26.5616   -1.1368   31.2600 C   0  0  0  0  0  0  0  0  0  0  0  0
  -23.7274    0.1712   30.0259 C   0  0  0  0  0  0  0  0  0  0  0  0
  -23.2449    0.7308   28.8689 C   0  0  0  0  0  0  0  0  0  0  0  0
  -23.9221    1.1477   27.8455 C   0  0  0  0  0  0  0  0  0  0  0  0
  -23.2720    1.6510   26.6819 C   0  0  0  0  0  0  0  0  0  0  0  0
  -21.8625    1.7858   26.7336 C   0  0  0  0  0  0  0  0  0  0  0  0
  -21.7807    0.9582   28.6861 C   0  0  0  0  0  0  0  0  0  0  0  0
  -21.1375    1.4712   27.7585 C   0  0  0  0  0  0  0  0  0  0  0  0
  -23.7550    1.0376   31.2554 C   0  0  0  0  0  0  0  0  0  0  0  0
  -30.0881   -0.6717   29.8776 C   0  0  0  0  0  0  0  0  0  0  0  0
  -30.5697    0.3676   30.4244 O   0  0  0  0  0  0  0  0  0  0  0  0
  -30.7386   -1.5264   29.3142 O   0  0  0  0  0  0  0  0  0  0  0  0
  -24.1853    2.1678   25.3489 Cl  0  0  0  0  0  0  0  0  0  0  0  0
  -24.6651    1.8783   31.6703 N   0  0  0  0  0  0  0  0  0  0  0  0
  -24.7337    3.1980   31.6912 C   0  0  0  0  0  0  0  0  0  0  0  0
  -25.7557    3.8694   32.4670 C   0  0  0  0  0  0  0  0  0  0  0  0
  -26.5719    2.8895   33.0099 C   0  0  0  0  0  0  0  0  0  0  0  0
  -25.7595    1.5587   32.6211 C   0  0  0  0  0  0  0  0  0  0  0  0
  -27.6190    2.8860   33.7353 N   0  0  0  0  0  0  0  0  0  0  0  0
  -27.6631    3.2329   34.9438 C   0  0  0  0  0  0  0  0  0  0  0  0
  -28.8149    2.4940   33.0590 C   0  0  0  0  0  0  0  0  0  0  0  0
  -29.9149    2.9985   33.4983 C   0  0  0  0  0  0  0  0  0  0  0  0
  -28.8484    3.6652   35.5961 C   0  0  0  0  0  0  0  0  0  0  0  0
  -30.0820    3.3058   34.9302 C   0  0  0  0  0  0  0  0  0  0  0  0
  4  5  1  0
  5  8  1  0
  8  9  1  0
  8 15  1  0
  2 16  1  0
 16 17  1  0
 16 18  2  0
 11 19  1  0
 15 20  1  0
 20 21  1  0
 21 22  2  0
 22 23  1  0
 20 24  1  0
 23 24  1  0
 23 25  1  0
 25 26  1  0
 25 27  1  0
 28 30  1  0
 29 30  1  0
 26 29  1  0
 28 27  1  0
  1  2  2  0
  2  6  1  0
  6  7  2  0
  7  4  1  0
  4  3  2  0
  3  1  1  0
  9 10  2  0
 10 11  1  0
 11 12  2  0
 12 14  1  0
 14 13  2  0
 13  9  1  0
M  END

$$$$
