No_2885-gen_results/8p0m/2024-11-27-11-27-31/
     RDKit          3D

 13 14  0  0  0  0  0  0  0  0999 V2000
  -28.0162   -0.8135   28.8779 C   0  0  0  0  0  0  0  0  0  0  0  0
  -27.0636   -0.1190   28.6079 C   0  0  0  0  0  0  0  0  0  0  0  0
  -25.7647   -0.3897   29.0360 C   0  0  0  0  0  0  0  0  0  0  0  0
  -24.5516    0.4058   28.7646 C   0  0  0  0  0  0  0  0  0  0  0  0
  -23.2300    0.1178   29.2575 C   0  0  0  0  0  0  0  0  0  0  0  0
  -22.1393    0.9427   28.9224 C   0  0  0  0  0  0  0  0  0  0  0  0
  -29.3532   -0.3722   28.7487 C   0  0  0  0  0  0  0  0  0  0  0  0
  -29.5437    0.7689   27.9641 C   0  0  0  0  0  0  0  0  0  0  0  0
  -28.4686    1.4912   27.5169 C   0  0  0  0  0  0  0  0  0  0  0  0
  -27.1339    1.1511   27.8983 C   0  0  0  0  0  0  0  0  0  0  0  0
  -22.2782    1.9611   27.9367 C   0  0  0  0  0  0  0  0  0  0  0  0
  -23.5577    2.2272   27.4246 C   0  0  0  0  0  0  0  0  0  0  0  0
  -24.6453    1.4496   27.7654 C   0  0  0  0  0  0  0  0  0  0  0  0
  2  3  1  0
  3  4  1  0
  1  2  2  0
  2 10  1  0
 10  9  2  0
  9  8  1  0
  8  7  2  0
  7  1  1  0
  4  5  2  0
  5  6  1  0
  6 11  2  0
 11 12  1  0
 12 13  2  0
 13  4  1  0
M  END

$$$$
