No_2405-gen_results/8p0m/2024-11-27-11-27-31/
     RDKit          3D

 19 20  0  0  0  0  0  0  0  0999 V2000
  -28.0162   -0.8135   28.8779 C   0  0  0  0  0  0  0  0  0  0  0  0
  -27.0636   -0.1189   28.6079 C   0  0  0  0  0  0  0  0  0  0  0  0
  -26.8756    1.1325   28.9134 C   0  0  0  0  0  0  0  0  0  0  0  0
  -27.9014    1.8066   29.6436 C   0  0  0  0  0  0  0  0  0  0  0  0
  -29.0458   -0.2316   29.7181 C   0  0  0  0  0  0  0  0  0  0  0  0
  -28.9402    1.0517   30.0597 C   0  0  0  0  0  0  0  0  0  0  0  0
  -25.9795   -0.6907   27.8753 O   0  0  0  0  0  0  0  0  0  0  0  0
  -24.9341   -1.2498   28.6642 C   0  0  0  0  0  0  0  0  0  0  0  0
  -23.7622   -0.5358   28.7721 C   0  0  0  0  0  0  0  0  0  0  0  0
  -22.7256   -1.0556   29.5841 C   0  0  0  0  0  0  0  0  0  0  0  0
  -25.2331   -2.2905   29.5368 C   0  0  0  0  0  0  0  0  0  0  0  0
  -24.1509   -2.8026   30.2818 C   0  0  0  0  0  0  0  0  0  0  0  0
  -22.9562   -2.1368   30.3734 C   0  0  0  0  0  0  0  0  0  0  0  0
  -30.1936   -1.0993   30.1255 C   0  0  0  0  0  0  0  0  0  0  0  0
  -30.0798   -2.0731   30.6150 O   0  0  0  0  0  0  0  0  0  0  0  0
  -31.3807   -0.6117   29.9354 O   0  0  0  0  0  0  0  0  0  0  0  0
  -23.4721    0.6711   27.9287 C   0  0  0  0  0  0  0  0  0  0  0  0
  -23.9985    0.9833   26.7429 C   0  0  0  0  0  0  0  0  0  0  0  0
  -23.6471    2.1683   26.0855 C   0  0  0  0  0  0  0  0  0  0  0  0
  2  7  1  0
  7  8  1  0
  5 14  1  0
 14 15  1  0
 14 16  2  0
  9 17  1  0
 17 18  2  3
 18 19  1  0
  8  9  2  0
  9 10  1  0
 10 13  2  0
 13 12  1  0
 12 11  2  0
 11  8  1  0
  1  2  2  0
  2  3  1  0
  3  4  2  0
  4  6  1  0
  6  5  2  0
  5  1  1  0
M  END

$$$$
