No_2913-gen_results/8p0m/2024-11-27-11-27-31/
     RDKit          3D

 21 23  0  0  0  0  0  0  0  0999 V2000
  -28.0162   -0.8135   28.8779 C   0  0  0  0  0  0  0  0  0  0  0  0
  -28.4690   -0.7850   29.8287 C   0  0  0  0  0  0  0  0  0  0  0  0
  -26.5042   -0.7777   28.8766 C   0  0  0  0  0  0  0  0  0  0  0  0
  -25.8305   -1.6807   29.6849 C   0  0  0  0  0  0  0  0  0  0  0  0
  -28.1490   -1.8854   30.9031 C   0  0  0  0  0  0  0  0  0  0  0  0
  -26.6460   -1.9561   31.0330 C   0  0  0  0  0  0  0  0  0  0  0  0
  -28.6859   -1.7556   32.2030 N   0  0  0  0  0  0  0  0  0  0  0  0
  -28.7026   -0.7372   32.8995 C   0  0  0  0  0  0  0  0  0  0  0  0
  -29.2113   -0.8001   34.1949 C   0  0  0  0  0  0  0  0  0  0  0  0
  -29.5827   -2.9222   32.6162 C   0  0  0  0  0  0  0  0  0  0  0  0
  -30.0532   -2.9487   33.9203 C   0  0  0  0  0  0  0  0  0  0  0  0
  -29.9731   -1.8201   34.6979 C   0  0  0  0  0  0  0  0  0  0  0  0
  -24.4246   -1.3244   29.9909 C   0  0  0  0  0  0  0  0  0  0  0  0
  -24.0951   -0.5957   31.0691 C   0  0  0  0  0  0  0  0  0  0  0  0
  -23.3096    0.5540   30.8578 C   0  0  0  0  0  0  0  0  0  0  0  0
  -24.0094    1.7904   30.8030 C   0  0  0  0  0  0  0  0  0  0  0  0
  -24.5051    2.2530   31.8952 O   0  0  0  0  0  0  0  0  0  0  0  0
  -25.7639    2.9027   31.9223 C   0  0  0  0  0  0  0  0  0  0  0  0
  -26.3727    2.9605   30.8745 C   0  0  0  0  0  0  0  0  0  0  0  0
  -25.7943    2.6241   29.6402 C   0  0  0  0  0  0  0  0  0  0  0  0
  -24.4608    2.2465   29.5789 C   0  0  0  0  0  0  0  0  0  0  0  0
  1  2  1  0
  1  3  1  0
  3  4  1  0
  2  5  1  0
  4  6  1  0
  5  6  1  0
  5  7  1  0
  7  8  1  0
  7 10  1  0
  9 12  1  0
 11 12  1  0
  4 13  1  0
 13 14  1  0
 14 15  1  0
 15 16  1  0
 16 17  1  0
 17 18  1  0
 18 19  1  0
 19 20  2  0
 16 21  1  0
 20 21  1  0
  8  9  1  0
 11 10  1  0
M  END

$$$$
