No_239-gen_results/8p0m/2024-11-27-11-27-31/
     RDKit          3D

 24 25  0  0  0  0  0  0  0  0999 V2000
  -28.0162   -0.8135   28.8779 C   0  0  0  0  0  0  0  0  0  0  0  0
  -27.0636   -0.1190   28.6079 C   0  0  0  0  0  0  0  0  0  0  0  0
  -26.9716    0.7139   27.5060 C   0  0  0  0  0  0  0  0  0  0  0  0
  -25.8205    1.4909   27.1160 C   0  0  0  0  0  0  0  0  0  0  0  0
  -24.6562    1.4242   27.9180 C   0  0  0  0  0  0  0  0  0  0  0  0
  -24.6847    0.5901   29.0659 C   0  0  0  0  0  0  0  0  0  0  0  0
  -25.8099   -0.1266   29.3338 C   0  0  0  0  0  0  0  0  0  0  0  0
  -28.6943   -0.4734   30.1587 C   0  0  0  0  0  0  0  0  0  0  0  0
  -28.7482    0.5642   30.5743 F   0  0  0  0  0  0  0  0  0  0  0  0
  -28.0891   -1.2850   31.1672 F   0  0  0  0  0  0  0  0  0  0  0  0
  -29.9909   -1.0447   30.1026 F   0  0  0  0  0  0  0  0  0  0  0  0
  -23.4810    2.2413   27.6295 C   0  0  0  0  0  0  0  0  0  0  0  0
  -22.5635    2.0203   28.3264 F   0  0  0  0  0  0  0  0  0  0  0  0
  -23.0809    2.1315   26.3045 F   0  0  0  0  0  0  0  0  0  0  0  0
  -23.8716    3.5495   27.7195 F   0  0  0  0  0  0  0  0  0  0  0  0
  -28.1331    0.8557   26.6237 C   0  0  0  0  0  0  0  0  0  0  0  0
  -28.9804    2.0108   26.8811 C   0  0  0  0  0  0  0  0  0  0  0  0
  -30.1629    2.1354   26.1644 C   0  0  0  0  0  0  0  0  0  0  0  0
  -30.4508    1.2232   25.2182 C   0  0  0  0  0  0  0  0  0  0  0  0
  -28.4971   -0.0069   25.6449 C   0  0  0  0  0  0  0  0  0  0  0  0
  -29.6295    0.1508   24.9605 C   0  0  0  0  0  0  0  0  0  0  0  0
  -25.8327    2.4783   25.7579 Cl  0  0  0  0  0  0  0  0  0  0  0  0
  -31.5839    1.3228   24.4450 O   0  0  0  0  0  0  0  0  0  0  0  0
  -32.1013    2.4979   24.2827 C   0  0  0  0  0  0  0  0  0  0  0  0
  1  8  1  0
  8  9  1  0
  8 10  1  0
  8 11  1  0
  5 12  1  0
 12 13  1  0
 12 14  1  0
 12 15  1  0
  3 16  1  0
  4 22  1  0
 19 23  1  0
 23 24  1  0
  1  2  1  0
  2  3  2  0
  3  4  1  0
  4  5  2  0
  5  6  1  0
  6  7  2  0
  7  2  1  0
 16 17  2  0
 17 18  1  0
 18 19  2  0
 19 21  1  0
 21 20  2  0
 20 16  1  0
M  END

$$$$
