No_2110-gen_results/8p0m/2024-11-27-11-27-31/
     RDKit          3D

 11 11  0  0  0  0  0  0  0  0999 V2000
  -28.0162   -0.8135   28.8779 C   0  0  0  0  0  0  0  0  0  0  0  0
  -27.0636   -0.1190   28.6079 C   0  0  0  0  0  0  0  0  0  0  0  0
  -27.0010    0.6913   27.4910 C   0  0  0  0  0  0  0  0  0  0  0  0
  -28.1373    0.7363   26.6350 C   0  0  0  0  0  0  0  0  0  0  0  0
  -29.2360    0.0765   27.0690 C   0  0  0  0  0  0  0  0  0  0  0  0
  -30.3815    0.2048   26.2662 C   0  0  0  0  0  0  0  0  0  0  0  0
  -28.0369   -1.5977   30.0867 C   0  0  0  0  0  0  0  0  0  0  0  0
  -29.1650   -0.7224   28.1627 C   0  0  0  0  0  0  0  0  0  0  0  0
  -27.2849   -2.6383   30.1378 O   0  0  0  0  0  0  0  0  0  0  0  0
  -30.3292    0.7330   24.9901 C   0  0  0  0  0  0  0  0  0  0  0  0
  -29.1466    1.5145   24.6125 C   0  0  0  0  0  0  0  0  0  0  0  0
  5  6  1  0
  1  7  1  0
  7  9  2  0
  6 10  2  3
 10 11  1  0
  1  2  2  0
  2  3  1  0
  3  4  2  0
  4  5  1  0
  5  8  2  0
  8  1  1  0
M  END

$$$$
