No_2266-gen_results/8p0m/2024-11-27-11-27-31/
     RDKit          3D

 35 39  0  0  0  0  0  0  0  0999 V2000
  -28.1493   -0.8198   28.9079 Cl  0  0  0  0  0  0  0  0  0  0  0  0
  -27.8339    0.4961   29.0598 C   0  0  0  0  0  0  0  0  0  0  0  0
  -27.6022    1.0128   30.2974 C   0  0  0  0  0  0  0  0  0  0  0  0
  -27.1699    2.3964   30.5338 C   0  0  0  0  0  0  0  0  0  0  0  0
  -26.9133    3.1827   29.3680 C   0  0  0  0  0  0  0  0  0  0  0  0
  -27.0551    2.6221   28.1384 C   0  0  0  0  0  0  0  0  0  0  0  0
  -27.4622    1.3345   27.9669 C   0  0  0  0  0  0  0  0  0  0  0  0
  -27.6027    0.8776   26.7626 F   0  0  0  0  0  0  0  0  0  0  0  0
  -26.4260    4.5705   29.5775 C   0  0  0  0  0  0  0  0  0  0  0  0
  -25.7663    5.1165   28.7637 O   0  0  0  0  0  0  0  0  0  0  0  0
  -26.6677    5.2159   30.7687 N   0  0  0  0  0  0  0  0  0  0  0  0
  -26.3517    6.4969   30.9893 C   0  0  0  0  0  0  0  0  0  0  0  0
  -25.2304    6.6850   31.6977 C   0  0  0  0  0  0  0  0  0  0  0  0
  -24.3119    7.7820   31.4799 C   0  0  0  0  0  0  0  0  0  0  0  0
  -23.1139    7.9390   32.1929 C   0  0  0  0  0  0  0  0  0  0  0  0
  -22.7743    6.9523   33.1894 C   0  0  0  0  0  0  0  0  0  0  0  0
  -23.6098    5.8694   33.3817 C   0  0  0  0  0  0  0  0  0  0  0  0
  -24.7530    5.7591   32.6659 C   0  0  0  0  0  0  0  0  0  0  0  0
  -21.6562    7.0400   33.9099 O   0  0  0  0  0  0  0  0  0  0  0  0
  -27.4827    7.2555   31.6246 C   0  0  0  0  0  0  0  0  0  0  0  0
  -27.6421    8.5304   31.2535 C   0  0  0  0  0  0  0  0  0  0  0  0
  -28.7313    9.3095   31.7527 C   0  0  0  0  0  0  0  0  0  0  0  0
  -29.6978    8.6483   32.5226 C   0  0  0  0  0  0  0  0  0  0  0  0
  -29.5695    7.3180   32.8190 C   0  0  0  0  0  0  0  0  0  0  0  0
  -28.4616    6.5786   32.3936 C   0  0  0  0  0  0  0  0  0  0  0  0
  -20.8463    8.1809   33.6264 C   0  0  0  0  0  0  0  0  0  0  0  0
  -19.6356    8.1982   34.2819 C   0  0  0  0  0  0  0  0  0  0  0  0
  -19.6554    8.0603   35.5786 C   0  0  0  0  0  0  0  0  0  0  0  0
  -18.4169    8.0866   36.3740 C   0  0  0  0  0  0  0  0  0  0  0  0
  -17.2233    8.3635   35.6644 C   0  0  0  0  0  0  0  0  0  0  0  0
  -17.2930    8.6907   34.3277 C   0  0  0  0  0  0  0  0  0  0  0  0
  -18.5018    8.6307   33.6622 C   0  0  0  0  0  0  0  0  0  0  0  0
  -21.0962    9.0210   32.6923 N   0  0  0  0  0  0  0  0  0  0  0  0
  -22.2156    9.0101   31.9994 C   0  0  0  0  0  0  0  0  0  0  0  0
  -22.4364    9.8744   31.1374 O   0  0  0  0  0  0  0  0  0  0  0  0
  1  2  1  0
  7  8  1  0
  5  9  1  0
  9 10  2  0
  9 11  1  0
 11 12  1  0
 12 13  1  0
 16 19  1  0
 12 20  1  0
 19 26  1  0
 26 27  1  0
 26 33  2  0
 15 34  1  0
 33 34  1  0
 34 35  2  0
  2  3  2  0
  3  4  1  0
  4  5  2  0
  5  6  1  0
  6  7  2  0
  7  2  1  0
 13 14  2  0
 14 15  1  0
 15 16  2  0
 16 17  1  0
 17 18  2  0
 18 13  1  0
 20 21  2  0
 21 22  1  0
 22 23  2  0
 23 24  1  0
 24 25  2  0
 25 20  1  0
 27 28  2  0
 28 29  1  0
 29 30  2  0
 30 31  1  0
 31 32  2  0
 32 27  1  0
M  END

$$$$
