No_2563-gen_results/8p0m/2024-11-27-11-27-31/
     RDKit          3D

 19 20  0  0  0  0  0  0  0  0999 V2000
  -28.0162   -0.8135   28.8779 C   0  0  0  0  0  0  0  0  0  0  0  0
  -28.4690   -0.7850   29.8287 C   0  0  0  0  0  0  0  0  0  0  0  0
  -28.1960    0.3478   28.0550 C   0  0  0  0  0  0  0  0  0  0  0  0
  -29.0191    1.3501   28.3782 C   0  0  0  0  0  0  0  0  0  0  0  0
  -29.4107    0.1803   30.3782 C   0  0  0  0  0  0  0  0  0  0  0  0
  -29.6059    1.2495   29.6193 C   0  0  0  0  0  0  0  0  0  0  0  0
  -27.4597    0.3802   26.7091 C   0  0  0  0  0  0  0  0  0  0  0  0
  -26.0094    0.3317   26.7236 C   0  0  0  0  0  0  0  0  0  0  0  0
  -25.3055    0.0239   27.8527 C   0  0  0  0  0  0  0  0  0  0  0  0
  -25.4404   -0.1985   28.8241 C   0  0  0  0  0  0  0  0  0  0  0  0
  -26.6752   -1.0520   29.2433 C   0  0  0  0  0  0  0  0  0  0  0  0
  -26.3982   -2.3522   29.9720 C   0  0  0  0  0  0  0  0  0  0  0  0
  -27.1605   -2.6709   30.8437 F   0  0  0  0  0  0  0  0  0  0  0  0
  -25.5624   -3.0853   29.4321 F   0  0  0  0  0  0  0  0  0  0  0  0
  -29.0089   -2.0579   30.5804 C   0  0  0  0  0  0  0  0  0  0  0  0
  -29.5613   -3.0437   29.8896 N   0  0  0  0  0  0  0  0  0  0  0  0
  -29.2843   -1.9723   32.0114 C   0  0  0  0  0  0  0  0  0  0  0  0
  -29.8659   -2.5277   31.1126 Cl  0  0  0  0  0  0  0  0  0  0  0  0
  -30.1405   -4.0672   29.2735 C   0  0  0  0  0  0  0  0  0  0  0  0
  3  7  1  0
  7  8  1  0
  8  9  1  0
  9 10  2  0
  1 11  1  0
 10 11  1  0
 11 12  1  0
 12 13  1  0
 12 14  1  0
  2 15  1  0
 15 16  1  0
 15 17  1  0
 17 18  1  0
 16 19  1  0
  1  2  2  0
  2  5  1  0
  5  6  2  0
  6  4  1  0
  4  3  2  0
  3  1  1  0
M  END

$$$$
