No_2336-gen_results/8p0m/2024-11-27-11-27-31/
     RDKit          3D

 21 23  0  0  0  0  0  0  0  0999 V2000
  -28.0162   -0.8135   28.8779 C   0  0  0  0  0  0  0  0  0  0  0  0
  -28.4690   -0.7850   29.8287 C   0  0  0  0  0  0  0  0  0  0  0  0
  -27.1356    0.2359   28.5352 C   0  0  0  0  0  0  0  0  0  0  0  0
  -26.8745    1.2825   29.3982 C   0  0  0  0  0  0  0  0  0  0  0  0
  -28.3613    0.1987   30.9244 C   0  0  0  0  0  0  0  0  0  0  0  0
  -27.5277    1.2234   30.6356 C   0  0  0  0  0  0  0  0  0  0  0  0
  -26.3987    0.2949   27.2279 C   0  0  0  0  0  0  0  0  0  0  0  0
  -25.0392    0.2356   27.3538 C   0  0  0  0  0  0  0  0  0  0  0  0
  -27.0287    0.3958   26.0087 C   0  0  0  0  0  0  0  0  0  0  0  0
  -26.2725    0.3047   24.8644 C   0  0  0  0  0  0  0  0  0  0  0  0
  -24.3337    0.0777   28.6100 C   0  0  0  0  0  0  0  0  0  0  0  0
  -22.9736    0.3726   28.5993 C   0  0  0  0  0  0  0  0  0  0  0  0
  -24.8599    0.2814   24.9322 C   0  0  0  0  0  0  0  0  0  0  0  0
  -24.2220    0.2692   26.1281 C   0  0  0  0  0  0  0  0  0  0  0  0
  -22.1042   -0.3966   29.4182 C   0  0  0  0  0  0  0  0  0  0  0  0
  -24.2415   -1.3875   29.1734 C   0  0  0  0  0  0  0  0  0  0  0  0
  -23.0402   -1.4736   29.8552 C   0  0  0  0  0  0  0  0  0  0  0  0
  -28.3238    0.3708   25.9262 F   0  0  0  0  0  0  0  0  0  0  0  0
  -22.3631    1.6177   28.0729 C   0  0  0  0  0  0  0  0  0  0  0  0
  -23.0390    2.6621   27.8707 O   0  0  0  0  0  0  0  0  0  0  0  0
  -21.1283    1.6122   27.6749 O   0  0  0  0  0  0  0  0  0  0  0  0
  3  7  1  0
  7  8  1  0
  7  9  1  0
  9 10  1  0
  8 11  1  0
 11 12  2  0
 10 13  1  0
  8 14  1  0
 13 14  1  0
 12 15  1  0
 11 16  1  0
 15 17  1  0
 16 17  1  0
  9 18  1  0
 12 19  1  0
 19 20  2  0
 19 21  1  0
  1  2  2  0
  2  5  1  0
  5  6  2  0
  6  4  1  0
  4  3  2  0
  3  1  1  0
M  END

$$$$
