No_2610-gen_results/8p0m/2024-11-27-11-27-31/
     RDKit          3D

 35 38  0  0  0  0  0  0  0  0999 V2000
  -28.0162   -0.8135   28.8779 C   0  0  0  0  0  0  0  0  0  0  0  0
  -27.0636   -0.1189   28.6079 C   0  0  0  0  0  0  0  0  0  0  0  0
  -26.9287    1.1713   29.0083 C   0  0  0  0  0  0  0  0  0  0  0  0
  -27.9560    1.7411   29.7840 C   0  0  0  0  0  0  0  0  0  0  0  0
  -29.0569   -0.3271   29.7466 C   0  0  0  0  0  0  0  0  0  0  0  0
  -28.9828    0.9722   30.1516 C   0  0  0  0  0  0  0  0  0  0  0  0
  -25.9911   -0.6119   27.8566 O   0  0  0  0  0  0  0  0  0  0  0  0
  -24.9038   -1.1483   28.5775 C   0  0  0  0  0  0  0  0  0  0  0  0
  -24.6578   -0.7271   29.6228 C   0  0  0  0  0  0  0  0  0  0  0  0
  -23.4938   -0.8218   30.2233 C   0  0  0  0  0  0  0  0  0  0  0  0
  -23.1266   -0.3429   31.5597 C   0  0  0  0  0  0  0  0  0  0  0  0
  -24.2111    0.1891   32.2839 C   0  0  0  0  0  0  0  0  0  0  0  0
  -25.4693    0.3598   31.7132 C   0  0  0  0  0  0  0  0  0  0  0  0
  -25.6969   -0.0924   30.5096 C   0  0  0  0  0  0  0  0  0  0  0  0
  -26.7378   -0.8926   30.5702 O   0  0  0  0  0  0  0  0  0  0  0  0
  -26.4477   -2.1735   31.1065 C   0  0  0  0  0  0  0  0  0  0  0  0
  -26.4569    1.0130   32.6384 C   0  0  0  0  0  0  0  0  0  0  0  0
  -27.4303    0.9574   32.9684 C   0  0  0  0  0  0  0  0  0  0  0  0
  -28.1740    1.6768   33.9073 C   0  0  0  0  0  0  0  0  0  0  0  0
  -25.9674    2.2385   33.4583 C   0  0  0  0  0  0  0  0  0  0  0  0
  -27.1598    2.5937   34.2382 C   0  0  0  0  0  0  0  0  0  0  0  0
  -27.1548    3.7453   35.1643 C   0  0  0  0  0  0  0  0  0  0  0  0
  -26.9749    4.7934   34.8306 O   0  0  0  0  0  0  0  0  0  0  0  0
  -27.3672    3.3668   36.4183 O   0  0  0  0  0  0  0  0  0  0  0  0
  -30.2194   -1.1461   30.0897 C   0  0  0  0  0  0  0  0  0  0  0  0
  -31.0592   -0.8308   30.7221 O   0  0  0  0  0  0  0  0  0  0  0  0
  -30.0854   -2.4119   29.7036 O   0  0  0  0  0  0  0  0  0  0  0  0
  -27.8991    3.2081   30.2130 C   0  0  0  0  0  0  0  0  0  0  0  0
  -26.8983    3.9699   29.9784 N   0  0  0  0  0  0  0  0  0  0  0  0
  -29.0501    3.8023   30.8284 C   0  0  0  0  0  0  0  0  0  0  0  0
  -26.7505    5.1394   30.1219 C   0  0  0  0  0  0  0  0  0  0  0  0
  -28.9588    5.1842   31.1868 C   0  0  0  0  0  0  0  0  0  0  0  0
  -29.9961    5.8875   31.8849 C   0  0  0  0  0  0  0  0  0  0  0  0
  -27.7457    5.8773   30.8497 C   0  0  0  0  0  0  0  0  0  0  0  0
  -31.0475    5.5339   31.8631 O   0  0  0  0  0  0  0  0  0  0  0  0
  2  7  1  0
  7  8  1  0
 14 15  1  0
 15 16  1  0
 13 17  1  0
 17 18  1  0
 18 19  2  0
 17 20  1  0
 19 21  1  0
 20 21  1  0
 21 22  1  0
 22 23  2  0
 22 24  1  0
  5 25  1  0
 25 26  2  0
 25 27  1  0
  4 28  1  0
 32 33  1  0
 33 35  2  0
  8  9  1  0
 28 29  2  0
 29 31  1  0
 31 34  2  0
 34 32  1  0
 32 30  2  0
 30 28  1  0
  1  2  2  0
  2  3  1  0
  3  4  2  0
  4  6  1  0
  6  5  2  0
  5  1  1  0
  9 10  2  0
 10 11  1  0
 11 12  2  0
 12 13  1  0
 13 14  2  0
 14  9  1  0
M  END

$$$$
