No_2004-gen_results/8p0m/2024-11-27-11-27-31/
     RDKit          3D

 19 21  0  0  0  0  0  0  0  0999 V2000
  -28.0162   -0.8135   28.8779 C   0  0  0  0  0  0  0  0  0  0  0  0
  -27.0636   -0.1189   28.6079 C   0  0  0  0  0  0  0  0  0  0  0  0
  -25.7923   -0.4302   29.0761 C   0  0  0  0  0  0  0  0  0  0  0  0
  -25.5681   -1.2411   29.7572 C   0  0  0  0  0  0  0  0  0  0  0  0
  -26.6114   -2.1840   30.2439 C   0  0  0  0  0  0  0  0  0  0  0  0
  -27.8191   -1.9189   29.8034 C   0  0  0  0  0  0  0  0  0  0  0  0
  -28.8528   -2.7193   30.2109 O   0  0  0  0  0  0  0  0  0  0  0  0
  -30.0219   -2.1966   30.5974 C   0  0  0  0  0  0  0  0  0  0  0  0
  -30.2426   -1.1990   30.9799 C   0  0  0  0  0  0  0  0  0  0  0  0
  -31.1122   -3.2348   30.3667 C   0  0  0  0  0  0  0  0  0  0  0  0
  -31.5187   -0.6884   31.3707 C   0  0  0  0  0  0  0  0  0  0  0  0
  -32.3990   -2.7907   30.6484 C   0  0  0  0  0  0  0  0  0  0  0  0
  -32.5990   -1.5367   31.2033 C   0  0  0  0  0  0  0  0  0  0  0  0
  -27.2624    1.0438   27.6232 C   0  0  0  0  0  0  0  0  0  0  0  0
  -28.2250    1.4464   27.4184 O   0  0  0  0  0  0  0  0  0  0  0  0
  -26.1051    1.4657   26.9212 N   0  0  0  0  0  0  0  0  0  0  0  0
  -26.2203    2.5562   25.9556 C   0  0  0  0  0  0  0  0  0  0  0  0
  -24.8375    0.9002   26.9788 C   0  0  0  0  0  0  0  0  0  0  0  0
  -24.6665    0.1573   28.1580 C   0  0  0  0  0  0  0  0  0  0  0  0
  6  7  1  0
  7  8  1  0
  2 14  1  0
 14 15  2  0
 14 16  1  0
 16 17  1  0
 16 18  1  0
  3 19  1  0
 19 18  1  0
  8  9  2  0
  9 11  1  0
 11 13  2  0
 13 12  1  0
 12 10  2  0
 10  8  1  0
  1  2  2  0
  2  3  1  0
  3  4  2  0
  4  5  1  0
  5  6  2  0
  6  1  1  0
M  END

$$$$
