No_2765-gen_results/8p0m/2024-11-27-11-27-31/
     RDKit          3D

 32 36  0  0  0  0  0  0  0  0999 V2000
  -28.0162   -0.8135   28.8779 C   0  0  0  0  0  0  0  0  0  0  0  0
  -28.4690   -0.7850   29.8287 C   0  0  0  0  0  0  0  0  0  0  0  0
  -26.5455   -0.8762   28.8500 C   0  0  0  0  0  0  0  0  0  0  0  0
  -25.8041   -1.0324   30.0571 C   0  0  0  0  0  0  0  0  0  0  0  0
  -27.9437   -0.9869   31.2075 C   0  0  0  0  0  0  0  0  0  0  0  0
  -26.5825   -1.0386   31.2231 C   0  0  0  0  0  0  0  0  0  0  0  0
  -24.3810   -1.1082   30.0855 C   0  0  0  0  0  0  0  0  0  0  0  0
  -23.7397    0.0683   29.8430 N   0  0  0  0  0  0  0  0  0  0  0  0
  -22.5879    0.1899   29.0935 C   0  0  0  0  0  0  0  0  0  0  0  0
  -23.6150    0.9784   30.9467 C   0  0  0  0  0  0  0  0  0  0  0  0
  -22.6245    1.0630   27.9545 C   0  0  0  0  0  0  0  0  0  0  0  0
  -23.2695    2.2561   28.0571 C   0  0  0  0  0  0  0  0  0  0  0  0
  -23.5261    3.0002   26.8275 C   0  0  0  0  0  0  0  0  0  0  0  0
  -24.5210    3.9868   26.7759 C   0  0  0  0  0  0  0  0  0  0  0  0
  -25.1239    4.4433   27.9328 C   0  0  0  0  0  0  0  0  0  0  0  0
  -24.9833    3.6351   29.0784 C   0  0  0  0  0  0  0  0  0  0  0  0
  -24.1582    2.5855   29.1245 C   0  0  0  0  0  0  0  0  0  0  0  0
  -24.1365    1.9168   30.4166 C   0  0  0  0  0  0  0  0  0  0  0  0
  -24.9052    2.8222   31.3770 C   0  0  0  0  0  0  0  0  0  0  0  0
  -25.3939    3.8439   30.5885 O   0  0  0  0  0  0  0  0  0  0  0  0
  -25.3647    2.6882   32.6658 C   0  0  0  0  0  0  0  0  0  0  0  0
  -26.0030   -0.7029   27.6162 N   0  0  0  0  0  0  0  0  0  0  0  0
  -26.7356    2.9878   33.0152 C   0  0  0  0  0  0  0  0  0  0  0  0
  -26.9400    3.9462   33.9502 C   0  0  0  0  0  0  0  0  0  0  0  0
  -26.5663    4.9588   33.6825 O   0  0  0  0  0  0  0  0  0  0  0  0
  -27.3199    1.6794   33.4033 O   0  0  0  0  0  0  0  0  0  0  0  0
  -27.2278    5.8870   33.0198 C   0  0  0  0  0  0  0  0  0  0  0  0
  -27.1607    7.1660   33.6167 C   0  0  0  0  0  0  0  0  0  0  0  0
  -27.8315    8.0314   33.1372 C   0  0  0  0  0  0  0  0  0  0  0  0
  -28.3415    8.1185   32.0721 C   0  0  0  0  0  0  0  0  0  0  0  0
  -28.3634    6.8431   31.2979 C   0  0  0  0  0  0  0  0  0  0  0  0
  -27.7220    5.7603   31.8043 C   0  0  0  0  0  0  0  0  0  0  0  0
  4  7  1  0
  7  8  1  0
  8  9  1  0
  8 10  1  0
  9 11  1  0
 10 18  1  0
 17 18  1  0
 18 19  1  0
 16 20  1  0
 19 20  1  0
 19 21  1  0
  3 22  1  0
 21 23  1  0
 23 24  1  0
 24 25  1  0
 23 26  1  0
 25 27  1  0
 11 12  1  0
 12 13  2  0
 13 14  1  0
 14 15  2  0
 15 16  1  0
 16 17  2  0
 17 12  1  0
 27 28  2  0
 28 29  1  0
 29 30  2  0
 30 31  1  0
 31 32  2  0
 32 27  1  0
  1  2  2  0
  2  5  1  0
  5  6  2  0
  6  4  1  0
  4  3  2  0
  3  1  1  0
M  END

$$$$
