No_2233-gen_results/8p0m/2024-11-27-11-27-31/
     RDKit          3D

 19 20  0  0  0  0  0  0  0  0999 V2000
  -28.0162   -0.8135   28.8779 C   0  0  0  0  0  0  0  0  0  0  0  0
  -28.4690   -0.7850   29.8287 C   0  0  0  0  0  0  0  0  0  0  0  0
  -27.0871    0.2903   28.6377 C   0  0  0  0  0  0  0  0  0  0  0  0
  -26.2516    0.4114   27.4223 C   0  0  0  0  0  0  0  0  0  0  0  0
  -28.3913    0.1041   30.9805 C   0  0  0  0  0  0  0  0  0  0  0  0
  -27.5332    1.1666   30.7866 C   0  0  0  0  0  0  0  0  0  0  0  0
  -26.8281    1.2557   29.6454 C   0  0  0  0  0  0  0  0  0  0  0  0
  -25.7856    1.5766   27.1547 N   0  0  0  0  0  0  0  0  0  0  0  0
  -24.9255    2.1825   27.9539 C   0  0  0  0  0  0  0  0  0  0  0  0
  -23.8310    1.9492   28.2348 C   0  0  0  0  0  0  0  0  0  0  0  0
  -23.2487    0.7144   28.3134 C   0  0  0  0  0  0  0  0  0  0  0  0
  -21.8514    0.4927   28.6188 C   0  0  0  0  0  0  0  0  0  0  0  0
  -21.4594   -0.7341   29.1560 C   0  0  0  0  0  0  0  0  0  0  0  0
  -22.4207   -1.7306   29.3109 C   0  0  0  0  0  0  0  0  0  0  0  0
  -23.7735   -1.5807   28.9557 C   0  0  0  0  0  0  0  0  0  0  0  0
  -24.1709   -0.2942   28.6426 C   0  0  0  0  0  0  0  0  0  0  0  0
  -25.7049   -0.6468   27.1456 O   0  0  0  0  0  0  0  0  0  0  0  0
  -25.6191   -0.3352   27.7696 Cl  0  0  0  0  0  0  0  0  0  0  0  0
  -24.5453   -0.0042   29.9721 F   0  0  0  0  0  0  0  0  0  0  0  0
  3  4  1  0
  4  8  1  0
  8  9  1  0
  9 10  1  0
  4 17  1  0
 17 18  1  0
 16 19  1  0
 10 11  1  0
 11 12  2  0
 12 13  1  0
 13 14  2  0
 14 15  1  0
 15 16  2  0
 16 11  1  0
  1  2  2  0
  2  5  1  0
  5  6  2  0
  6  7  1  0
  7  3  2  0
  3  1  1  0
M  END

$$$$
