No_2663-gen_results/8p0m/2024-11-27-11-27-31/
     RDKit          3D

 34 38  0  0  0  0  0  0  0  0999 V2000
  -28.0162   -0.8135   28.8779 C   0  0  0  0  0  0  0  0  0  0  0  0
  -27.0636   -0.1189   28.6079 C   0  0  0  0  0  0  0  0  0  0  0  0
  -26.9287    1.1713   29.0083 C   0  0  0  0  0  0  0  0  0  0  0  0
  -27.9560    1.7411   29.7840 C   0  0  0  0  0  0  0  0  0  0  0  0
  -29.0569   -0.3271   29.7466 C   0  0  0  0  0  0  0  0  0  0  0  0
  -28.9828    0.9722   30.1516 C   0  0  0  0  0  0  0  0  0  0  0  0
  -25.8815   -0.6260   27.7945 C   0  0  0  0  0  0  0  0  0  0  0  0
  -25.4215    0.1302   26.7096 C   0  0  0  0  0  0  0  0  0  0  0  0
  -25.0332   -1.6821   28.2396 C   0  0  0  0  0  0  0  0  0  0  0  0
  -23.8635   -1.4377   29.0263 C   0  0  0  0  0  0  0  0  0  0  0  0
  -23.2760   -0.1790   29.0491 C   0  0  0  0  0  0  0  0  0  0  0  0
  -22.0804   -0.0387   29.8714 C   0  0  0  0  0  0  0  0  0  0  0  0
  -22.7572    0.3574   27.6592 C   0  0  0  0  0  0  0  0  0  0  0  0
  -21.9076    1.4347   27.8019 C   0  0  0  0  0  0  0  0  0  0  0  0
  -24.2175    0.8946   29.7345 C   0  0  0  0  0  0  0  0  0  0  0  0
  -23.1358    0.0973   26.7649 C   0  0  0  0  0  0  0  0  0  0  0  0
  -24.5246    0.4102   26.2902 C   0  0  0  0  0  0  0  0  0  0  0  0
  -23.8543    0.9936   31.2212 C   0  0  0  0  0  0  0  0  0  0  0  0
  -22.9868   -0.0188   31.5057 C   0  0  0  0  0  0  0  0  0  0  0  0
  -25.1048    0.9996   32.1416 C   0  0  0  0  0  0  0  0  0  0  0  0
  -25.5380    2.1714   32.7572 C   0  0  0  0  0  0  0  0  0  0  0  0
  -26.6506    2.1654   33.6155 C   0  0  0  0  0  0  0  0  0  0  0  0
  -27.2418    0.9260   33.8855 C   0  0  0  0  0  0  0  0  0  0  0  0
  -26.8166   -0.2150   33.2648 C   0  0  0  0  0  0  0  0  0  0  0  0
  -25.7046   -0.1979   32.3884 C   0  0  0  0  0  0  0  0  0  0  0  0
  -27.8979    3.2101   30.2241 C   0  0  0  0  0  0  0  0  0  0  0  0
  -26.4688    3.9426   30.1767 Cl  0  0  0  0  0  0  0  0  0  0  0  0
  -29.0429    3.8971   30.6441 C   0  0  0  0  0  0  0  0  0  0  0  0
  -28.8571    5.1475   31.1425 C   0  0  0  0  0  0  0  0  0  0  0  0
  -29.6875    6.1430   30.8607 C   0  0  0  0  0  0  0  0  0  0  0  0
  -29.4325    7.4513   31.2986 C   0  0  0  0  0  0  0  0  0  0  0  0
  -28.3196    7.7071   32.1026 C   0  0  0  0  0  0  0  0  0  0  0  0
  -27.4519    6.6662   32.4432 C   0  0  0  0  0  0  0  0  0  0  0  0
  -27.7220    5.3927   31.9440 C   0  0  0  0  0  0  0  0  0  0  0  0
  2  7  1  0
  7  8  1  0
  7  9  1  0
  9 10  1  0
 10 11  1  0
 11 12  1  0
 11 13  1  0
 13 14  1  0
 11 15  1  0
 13 16  1  0
  8 17  2  3
 16 17  1  0
 15 18  1  0
 12 19  1  0
 18 19  1  0
 18 20  1  0
  4 26  1  0
 26 27  1  0
 26 28  1  0
 28 29  1  0
 29 30  2  0
 30 31  1  0
 31 32  2  0
 32 33  1  0
 33 34  2  0
 34 29  1  0
  1  2  2  0
  2  3  1  0
  3  4  2  0
  4  6  1  0
  6  5  2  0
  5  1  1  0
 20 21  2  0
 21 22  1  0
 22 23  2  0
 23 24  1  0
 24 25  2  0
 25 20  1  0
M  END

$$$$
