No_206-gen_results/8p0m/2024-11-27-11-27-31/
     RDKit          3D

 23 25  0  0  0  0  0  0  0  0999 V2000
  -28.0162   -0.8135   28.8779 C   0  0  0  0  0  0  0  0  0  0  0  0
  -27.0636   -0.1189   28.6079 C   0  0  0  0  0  0  0  0  0  0  0  0
  -26.9716    0.7139   27.5060 C   0  0  0  0  0  0  0  0  0  0  0  0
  -28.1053    0.7744   26.6421 C   0  0  0  0  0  0  0  0  0  0  0  0
  -29.2008    0.1044   27.0527 C   0  0  0  0  0  0  0  0  0  0  0  0
  -29.2096   -0.6029   28.1853 C   0  0  0  0  0  0  0  0  0  0  0  0
  -30.3749    0.2232   26.1670 C   0  0  0  0  0  0  0  0  0  0  0  0
  -30.9604    1.2364   26.1300 O   0  0  0  0  0  0  0  0  0  0  0  0
  -30.7251   -0.8756   25.5014 O   0  0  0  0  0  0  0  0  0  0  0  0
  -25.6933   -0.2150   29.4258 C   0  0  0  0  0  0  0  0  0  0  0  0
  -25.2500    0.9608   30.1413 C   0  0  0  0  0  0  0  0  0  0  0  0
  -24.2368    1.7814   29.6619 C   0  0  0  0  0  0  0  0  0  0  0  0
  -25.3045    0.9070   31.5905 C   0  0  0  0  0  0  0  0  0  0  0  0
  -25.1645    2.1057   32.3047 C   0  0  0  0  0  0  0  0  0  0  0  0
  -23.9589    1.7433   28.2329 C   0  0  0  0  0  0  0  0  0  0  0  0
  -24.3338    3.1020   31.7457 C   0  0  0  0  0  0  0  0  0  0  0  0
  -23.9054    2.9861   30.3751 C   0  0  0  0  0  0  0  0  0  0  0  0
  -23.0776    1.9095   27.7697 C   0  0  0  0  0  0  0  0  0  0  0  0
  -22.8017    1.9271   26.2690 C   0  0  0  0  0  0  0  0  0  0  0  0
  -23.9403    1.5605   25.5583 C   0  0  0  0  0  0  0  0  0  0  0  0
  -25.0559    1.2646   26.1094 C   0  0  0  0  0  0  0  0  0  0  0  0
  -25.1740    1.3497   27.5295 C   0  0  0  0  0  0  0  0  0  0  0  0
  -25.5845    2.2526   27.6683 F   0  0  0  0  0  0  0  0  0  0  0  0
  5  7  1  0
  7  8  2  0
  7  9  1  0
  2 10  1  0
 10 11  1  0
 12 15  1  0
 22 23  1  0
  1  2  2  0
  2  3  1  0
  3  4  2  0
  4  5  1  0
  5  6  2  0
  6  1  1  0
 11 12  2  0
 12 17  1  0
 17 16  2  0
 16 14  1  0
 14 13  2  0
 13 11  1  0
 15 18  2  0
 18 19  1  0
 19 20  2  0
 20 21  1  0
 21 22  2  0
 22 15  1  0
M  END

$$$$
