No_2333-gen_results/8p0m/2024-11-27-11-27-31/
     RDKit          3D

 14 14  0  0  0  0  0  0  0  0999 V2000
  -28.0162   -0.8135   28.8779 C   0  0  0  0  0  0  0  0  0  0  0  0
  -28.4690   -0.7850   29.8287 C   0  0  0  0  0  0  0  0  0  0  0  0
  -28.1960    0.3478   28.0550 C   0  0  0  0  0  0  0  0  0  0  0  0
  -29.0191    1.3501   28.3782 C   0  0  0  0  0  0  0  0  0  0  0  0
  -29.4107    0.1803   30.3782 C   0  0  0  0  0  0  0  0  0  0  0  0
  -29.6059    1.2495   29.6193 C   0  0  0  0  0  0  0  0  0  0  0  0
  -27.5426    0.5225   26.6829 C   0  0  0  0  0  0  0  0  0  0  0  0
  -28.1445    0.4578   25.5334 C   0  0  0  0  0  0  0  0  0  0  0  0
  -26.0726    0.4915   26.6690 C   0  0  0  0  0  0  0  0  0  0  0  0
  -25.2764    0.1897   27.7480 C   0  0  0  0  0  0  0  0  0  0  0  0
  -23.9458    0.4365   27.8164 C   0  0  0  0  0  0  0  0  0  0  0  0
  -23.3455    1.1953   26.8254 C   0  0  0  0  0  0  0  0  0  0  0  0
  -21.9583    1.5862   26.9468 C   0  0  0  0  0  0  0  0  0  0  0  0
  -21.2693    1.1576   28.0973 C   0  0  0  0  0  0  0  0  0  0  0  0
  3  7  1  0
  7  8  1  0
  7  9  1  0
  9 10  1  0
 10 11  2  3
 11 12  1  0
 12 13  2  3
 13 14  1  0
  1  2  2  0
  2  5  1  0
  5  6  2  0
  6  4  1  0
  4  3  2  0
  3  1  1  0
M  END

$$$$
