No_2673-gen_results/8p0m/2024-11-27-11-27-31/
     RDKit          3D

 35 38  0  0  0  0  0  0  0  0999 V2000
  -28.0162   -0.8135   28.8779 C   0  0  0  0  0  0  0  0  0  0  0  0
  -28.4690   -0.7850   29.8287 C   0  0  0  0  0  0  0  0  0  0  0  0
  -27.0871    0.2903   28.6377 C   0  0  0  0  0  0  0  0  0  0  0  0
  -26.2516    0.4114   27.4223 C   0  0  0  0  0  0  0  0  0  0  0  0
  -28.3913    0.1041   30.9805 C   0  0  0  0  0  0  0  0  0  0  0  0
  -27.5747    1.0426   30.7755 C   0  0  0  0  0  0  0  0  0  0  0  0
  -26.8283    1.2193   29.6629 C   0  0  0  0  0  0  0  0  0  0  0  0
  -24.9353    0.3311   27.6511 C   0  0  0  0  0  0  0  0  0  0  0  0
  -24.0510    1.2358   26.9144 C   0  0  0  0  0  0  0  0  0  0  0  0
  -24.5247    1.8349   25.7208 C   0  0  0  0  0  0  0  0  0  0  0  0
  -26.6742    1.4621   26.5512 C   0  0  0  0  0  0  0  0  0  0  0  0
  -25.8025    1.9998   25.5805 C   0  0  0  0  0  0  0  0  0  0  0  0
  -22.4452    1.1967   27.4877 Cl  0  0  0  0  0  0  0  0  0  0  0  0
  -28.1308    1.6049   26.1780 C   0  0  0  0  0  0  0  0  0  0  0  0
  -29.0008    0.9142   26.5691 C   0  0  0  0  0  0  0  0  0  0  0  0
  -30.4101    1.0620   26.3079 C   0  0  0  0  0  0  0  0  0  0  0  0
  -30.7088    2.1459   25.5381 C   0  0  0  0  0  0  0  0  0  0  0  0
  -28.7048    2.7003   25.3549 C   0  0  0  0  0  0  0  0  0  0  0  0
  -29.8023    2.9684   25.0235 C   0  0  0  0  0  0  0  0  0  0  0  0
  -29.5071   -2.0116   30.1475 C   0  0  0  0  0  0  0  0  0  0  0  0
  -29.3257   -3.0452   30.2247 O   0  0  0  0  0  0  0  0  0  0  0  0
  -30.7297   -1.6070   30.5847 O   0  0  0  0  0  0  0  0  0  0  0  0
  -31.4590    0.1648   26.8469 C   0  0  0  0  0  0  0  0  0  0  0  0
  -31.7380    0.0996   28.0400 N   0  0  0  0  0  0  0  0  0  0  0  0
  -31.6011    1.1592   28.9026 C   0  0  0  0  0  0  0  0  0  0  0  0
  -32.7156   -0.8853   28.4755 C   0  0  0  0  0  0  0  0  0  0  0  0
  -31.7108   -0.7192   25.9922 O   0  0  0  0  0  0  0  0  0  0  0  0
  -32.6192    2.1169   29.2374 C   0  0  0  0  0  0  0  0  0  0  0  0
  -33.6353    2.0304   29.3228 C   0  0  0  0  0  0  0  0  0  0  0  0
  -34.6152    3.0955   29.6731 C   0  0  0  0  0  0  0  0  0  0  0  0
  -34.0546    4.3261   29.9525 C   0  0  0  0  0  0  0  0  0  0  0  0
  -32.7018    4.5183   29.8698 C   0  0  0  0  0  0  0  0  0  0  0  0
  -31.8534    3.4723   29.5608 C   0  0  0  0  0  0  0  0  0  0  0  0
  -32.0739    5.8376   30.2010 C   0  0  0  0  0  0  0  0  0  0  0  0
  -32.5622    6.7613   30.6845 O   0  0  0  0  0  0  0  0  0  0  0  0
  3  4  1  0
  9 13  1  0
 11 14  1  0
  2 20  1  0
 20 21  1  0
 20 22  2  0
 16 23  1  0
 23 24  1  0
 24 25  1  0
 24 26  1  0
 23 27  2  0
 32 34  1  0
 34 35  2  0
 25 28  1  0
 28 29  2  0
 29 30  1  0
 30 31  2  0
 31 32  1  0
 32 33  2  0
 33 28  1  0
  4  8  2  0
  8  9  1  0
  9 10  2  0
 10 12  1  0
 12 11  2  0
 11  4  1  0
 14 15  2  0
 15 16  1  0
 16 17  2  0
 17 19  1  0
 19 18  2  0
 18 14  1  0
  1  2  2  0
  2  5  1  0
  5  6  2  0
  6  7  1  0
  7  3  2  0
  3  1  1  0
M  END

$$$$
