No_2810-gen_results/8p0m/2024-11-27-11-27-31/
     RDKit          3D

 25 27  0  0  0  0  0  0  0  0999 V2000
  -28.0162   -0.8135   28.8779 C   0  0  0  0  0  0  0  0  0  0  0  0
  -27.0636   -0.1190   28.6079 C   0  0  0  0  0  0  0  0  0  0  0  0
  -26.9716    0.7139   27.5060 C   0  0  0  0  0  0  0  0  0  0  0  0
  -28.1053    0.7744   26.6421 C   0  0  0  0  0  0  0  0  0  0  0  0
  -29.2041    0.1179   27.0477 C   0  0  0  0  0  0  0  0  0  0  0  0
  -29.2127   -0.6088   28.1281 C   0  0  0  0  0  0  0  0  0  0  0  0
  -25.7106    1.4518   27.1380 C   0  0  0  0  0  0  0  0  0  0  0  0
  -25.2074    2.4128   27.9320 C   0  0  0  0  0  0  0  0  0  0  0  0
  -25.5899    2.8790   29.0377 C   0  0  0  0  0  0  0  0  0  0  0  0
  -26.0366    3.5617   29.6461 C   0  0  0  0  0  0  0  0  0  0  0  0
  -26.6461    4.1271   30.7778 C   0  0  0  0  0  0  0  0  0  0  0  0
  -27.0707    3.4387   31.8403 C   0  0  0  0  0  0  0  0  0  0  0  0
  -27.8213    4.0018   32.9013 C   0  0  0  0  0  0  0  0  0  0  0  0
  -25.0477    1.0368   25.8862 C   0  0  0  0  0  0  0  0  0  0  0  0
  -23.8940    2.9357   27.3231 C   0  0  0  0  0  0  0  0  0  0  0  0
  -28.1011    5.3807   32.7804 C   0  0  0  0  0  0  0  0  0  0  0  0
  -27.7050    6.1247   31.7369 C   0  0  0  0  0  0  0  0  0  0  0  0
  -26.9812    5.5243   30.6910 C   0  0  0  0  0  0  0  0  0  0  0  0
  -28.1177   -1.6587   30.1253 C   0  0  0  0  0  0  0  0  0  0  0  0
  -28.9693   -2.4343   30.3035 O   0  0  0  0  0  0  0  0  0  0  0  0
  -26.9165   -1.7525   30.8207 O   0  0  0  0  0  0  0  0  0  0  0  0
  -23.0453    2.1320   26.8916 C   0  0  0  0  0  0  0  0  0  0  0  0
  -23.6818    1.2885   25.8387 C   0  0  0  0  0  0  0  0  0  0  0  0
  -28.0541    1.8246   25.2682 Cl  0  0  0  0  0  0  0  0  0  0  0  0
  -26.5785    6.2770   29.5671 C   0  0  0  0  0  0  0  0  0  0  0  0
  3  7  1  0
  9 10  1  0
  1 19  1  0
 19 20  2  0
 19 21  1  0
  4 24  1  0
 18 25  1  0
 10 11  1  0
  9  8  1  0
  1  2  2  0
  2  3  1  0
  3  4  2  0
  4  5  1  0
  5  6  2  0
  6  1  1  0
  7  8  2  0
  8 15  1  0
 15 22  2  0
 22 23  1  0
 23 14  2  0
 14  7  1  0
 11 12  2  0
 12 13  1  0
 13 16  2  0
 16 17  1  0
 17 18  2  0
 18 11  1  0
M  END

$$$$
