No_2773-gen_results/8p0m/2024-11-27-11-27-31/
     RDKit          3D

 16 17  0  0  0  0  0  0  0  0999 V2000
  -28.0162   -0.8135   28.8779 C   0  0  0  0  0  0  0  0  0  0  0  0
  -28.4690   -0.7850   29.8287 C   0  0  0  0  0  0  0  0  0  0  0  0
  -26.5042   -0.7777   28.8766 C   0  0  0  0  0  0  0  0  0  0  0  0
  -25.6540   -0.6597   27.7191 C   0  0  0  0  0  0  0  0  0  0  0  0
  -27.9180   -0.9374   31.1824 C   0  0  0  0  0  0  0  0  0  0  0  0
  -26.5424   -0.9399   31.2606 C   0  0  0  0  0  0  0  0  0  0  0  0
  -25.7832   -0.8935   30.1201 C   0  0  0  0  0  0  0  0  0  0  0  0
  -24.3096   -0.3015   27.8531 C   0  0  0  0  0  0  0  0  0  0  0  0
  -23.6669   -0.4595   29.0986 C   0  0  0  0  0  0  0  0  0  0  0  0
  -24.3700   -0.6645   30.2027 C   0  0  0  0  0  0  0  0  0  0  0  0
  -22.1946   -0.2290   29.1314 C   0  0  0  0  0  0  0  0  0  0  0  0
  -21.2882    0.5665   28.7715 N   0  0  0  0  0  0  0  0  0  0  0  0
  -21.6347   -1.3705   29.7205 O   0  0  0  0  0  0  0  0  0  0  0  0
  -30.0671   -0.8830   29.8766 C   0  0  0  0  0  0  0  0  0  0  0  0
  -30.6995   -1.7285   30.2619 O   0  0  0  0  0  0  0  0  0  0  0  0
  -30.6316    0.1650   29.3188 O   0  0  0  0  0  0  0  0  0  0  0  0
  9 11  1  0
 11 12  1  0
 11 13  2  0
  2 14  1  0
 14 15  1  0
 14 16  2  0
  1  2  2  0
  2  5  1  0
  5  6  2  0
  6  7  1  0
  3  1  1  0
  3  4  2  0
  4  8  1  0
  8  9  2  0
  9 10  1  0
 10  7  2  0
  7  3  1  0
M  END

$$$$
