No_2736-gen_results/8p0m/2024-11-27-11-27-31/
     RDKit          3D

 18 19  0  0  0  0  0  0  0  0999 V2000
  -28.1229   -1.3353   28.4874 O   0  0  0  0  0  0  0  0  0  0  0  0
  -27.0637   -0.8242   28.8687 C   0  0  0  0  0  0  0  0  0  0  0  0
  -27.0246    0.1877   29.7358 C   0  0  0  0  0  0  0  0  0  0  0  0
  -25.8391    0.8513   29.9958 C   0  0  0  0  0  0  0  0  0  0  0  0
  -25.8151   -1.4332   28.6128 N   0  0  0  0  0  0  0  0  0  0  0  0
  -24.5772   -0.8898   28.9213 C   0  0  0  0  0  0  0  0  0  0  0  0
  -24.5527    0.2625   29.6408 C   0  0  0  0  0  0  0  0  0  0  0  0
  -23.2733    0.8840   29.9125 C   0  0  0  0  0  0  0  0  0  0  0  0
  -22.6170    1.3198   29.2018 O   0  0  0  0  0  0  0  0  0  0  0  0
  -22.8837    0.6798   31.2677 O   0  0  0  0  0  0  0  0  0  0  0  0
  -29.2376   -0.8386   29.2000 C   0  0  0  0  0  0  0  0  0  0  0  0
  -28.3602    0.5196   30.0162 C   0  0  0  0  0  0  0  0  0  0  0  0
  -29.9401   -1.5281   29.9719 O   0  0  0  0  0  0  0  0  0  0  0  0
  -28.6308    0.4080   31.4200 O   0  0  0  0  0  0  0  0  0  0  0  0
  -28.8985    1.7814   29.5098 C   0  0  0  0  0  0  0  0  0  0  0  0
  -30.0099    2.1655   29.5448 C   0  0  0  0  0  0  0  0  0  0  0  0
  -30.6704    2.3649   30.5833 C   0  0  0  0  0  0  0  0  0  0  0  0
  -32.0193    2.8873   30.6911 C   0  0  0  0  0  0  0  0  0  0  0  0
  1  2  1  0
  7  8  1  0
  8  9  2  0
  8 10  1  0
  1 11  1  0
  3 12  1  0
 11 12  1  0
 11 13  1  0
 12 14  1  0
 12 15  1  0
 15 16  1  0
 16 17  2  3
 17 18  1  0
  2  3  2  0
  3  4  1  0
  4  7  2  0
  7  6  1  0
  6  5  2  0
  5  2  1  0
M  END

$$$$
