No_2572-gen_results/8p0m/2024-11-27-11-27-31/
     RDKit          3D

 19 20  0  0  0  0  0  0  0  0999 V2000
  -28.0162   -0.8135   28.8779 C   0  0  0  0  0  0  0  0  0  0  0  0
  -28.4690   -0.7850   29.8287 C   0  0  0  0  0  0  0  0  0  0  0  0
  -27.0871    0.2903   28.6377 C   0  0  0  0  0  0  0  0  0  0  0  0
  -26.2516    0.4114   27.4223 C   0  0  0  0  0  0  0  0  0  0  0  0
  -28.3913    0.1041   30.9805 C   0  0  0  0  0  0  0  0  0  0  0  0
  -27.5332    1.1666   30.7866 C   0  0  0  0  0  0  0  0  0  0  0  0
  -26.8281    1.2557   29.6454 C   0  0  0  0  0  0  0  0  0  0  0  0
  -25.0638    0.2673   27.5265 N   0  0  0  0  0  0  0  0  0  0  0  0
  -26.8721    0.6383   26.1615 C   0  0  0  0  0  0  0  0  0  0  0  0
  -28.2288    0.8284   25.9289 C   0  0  0  0  0  0  0  0  0  0  0  0
  -29.0169    1.0669   27.0057 C   0  0  0  0  0  0  0  0  0  0  0  0
  -30.4513    1.4022   26.6044 C   0  0  0  0  0  0  0  0  0  0  0  0
  -30.7758    1.3366   25.2862 C   0  0  0  0  0  0  0  0  0  0  0  0
  -28.6938    0.9659   24.6277 C   0  0  0  0  0  0  0  0  0  0  0  0
  -29.9218    1.2318   24.2835 C   0  0  0  0  0  0  0  0  0  0  0  0
  -25.8826    0.6325   25.0782 C   0  0  0  0  0  0  0  0  0  0  0  0
  -28.9302    1.2978   28.2233 O   0  0  0  0  0  0  0  0  0  0  0  0
  -24.5455    0.4786   25.2965 C   0  0  0  0  0  0  0  0  0  0  0  0
  -24.4381    0.0740   28.8579 C   0  0  0  0  0  0  0  0  0  0  0  0
  3  4  1  0
  4  8  2  3
  4  9  1  0
  9 10  1  0
  9 16  1  0
 11 17  1  0
 16 18  2  0
  8 19  1  0
 10 11  2  0
 11 12  1  0
 12 13  2  0
 13 15  1  0
 15 14  2  0
 14 10  1  0
  1  2  2  0
  2  5  1  0
  5  6  2  0
  6  7  1  0
  7  3  2  0
  3  1  1  0
M  END

$$$$
