No_2929-gen_results/8p0m/2024-11-27-11-27-31/
     RDKit          3D

 14 15  0  0  0  0  0  0  0  0999 V2000
  -28.0544   -1.0498   28.7246 N   0  0  0  0  0  0  0  0  0  0  0  0
  -26.9659   -0.4722   28.7709 C   0  0  0  0  0  0  0  0  0  0  0  0
  -26.4477    0.3414   27.9328 C   0  0  0  0  0  0  0  0  0  0  0  0
  -27.3171    0.7634   26.8203 C   0  0  0  0  0  0  0  0  0  0  0  0
  -28.5583    0.2335   26.8450 C   0  0  0  0  0  0  0  0  0  0  0  0
  -28.9112   -0.5803   27.7881 C   0  0  0  0  0  0  0  0  0  0  0  0
  -29.4223    0.6572   25.7181 C   0  0  0  0  0  0  0  0  0  0  0  0
  -28.9680    0.8215   24.6198 N   0  0  0  0  0  0  0  0  0  0  0  0
  -30.7347    0.6520   25.8775 N   0  0  0  0  0  0  0  0  0  0  0  0
  -31.4109    0.3897   27.0153 C   0  0  0  0  0  0  0  0  0  0  0  0
  -26.0181   -0.9327   29.8404 N   0  0  0  0  0  0  0  0  0  0  0  0
  -24.7355   -0.7732   29.8012 C   0  0  0  0  0  0  0  0  0  0  0  0
  -24.2492    0.2518   29.0480 C   0  0  0  0  0  0  0  0  0  0  0  0
  -25.0125    0.7574   27.9588 C   0  0  0  0  0  0  0  0  0  0  0  0
  5  7  1  0
  7  8  2  0
  7  9  1  0
  9 10  1  0
  1  2  2  0
  3  4  2  0
  4  5  1  0
  5  6  2  0
  6  1  1  0
  2  3  1  0
  3 14  1  0
 14 13  2  0
 13 12  1  0
 12 11  2  0
 11  2  1  0
M  END

$$$$
