No_2054-gen_results/8p0m/2024-11-27-11-27-31/
     RDKit          3D

 26 27  0  0  0  0  0  0  0  0999 V2000
  -28.0162   -0.8135   28.8779 C   0  0  0  0  0  0  0  0  0  0  0  0
  -27.0636   -0.1189   28.6079 C   0  0  0  0  0  0  0  0  0  0  0  0
  -26.9716    0.7139   27.5060 C   0  0  0  0  0  0  0  0  0  0  0  0
  -28.1053    0.7744   26.6421 C   0  0  0  0  0  0  0  0  0  0  0  0
  -29.2008    0.1044   27.0527 C   0  0  0  0  0  0  0  0  0  0  0  0
  -29.2096   -0.6029   28.1853 C   0  0  0  0  0  0  0  0  0  0  0  0
  -30.3702    0.2264   26.1604 C   0  0  0  0  0  0  0  0  0  0  0  0
  -30.9870    1.1892   26.1601 O   0  0  0  0  0  0  0  0  0  0  0  0
  -30.6716   -0.8717   25.4396 O   0  0  0  0  0  0  0  0  0  0  0  0
  -25.6973   -0.2129   29.4270 C   0  0  0  0  0  0  0  0  0  0  0  0
  -24.5332    0.0502   28.9007 C   0  0  0  0  0  0  0  0  0  0  0  0
  -23.3092   -0.0566   29.6118 C   0  0  0  0  0  0  0  0  0  0  0  0
  -23.3461   -0.6911   30.8254 C   0  0  0  0  0  0  0  0  0  0  0  0
  -24.5727   -1.0062   31.4466 C   0  0  0  0  0  0  0  0  0  0  0  0
  -25.7629   -0.8570   30.7210 C   0  0  0  0  0  0  0  0  0  0  0  0
  -22.0699    0.3303   28.9818 C   0  0  0  0  0  0  0  0  0  0  0  0
  -22.0687    1.2748   28.0435 N   0  0  0  0  0  0  0  0  0  0  0  0
  -20.9169   -0.0857   29.3925 O   0  0  0  0  0  0  0  0  0  0  0  0
  -23.1185    2.0835   27.5811 C   0  0  0  0  0  0  0  0  0  0  0  0
  -23.2639    2.2325   26.1841 C   0  0  0  0  0  0  0  0  0  0  0  0
  -22.5171    1.4801   25.3635 C   0  0  0  0  0  0  0  0  0  0  0  0
  -24.4114    2.9716   25.7272 C   0  0  0  0  0  0  0  0  0  0  0  0
  -23.7907    2.7558   28.3806 O   0  0  0  0  0  0  0  0  0  0  0  0
  -22.9035    1.5056   23.9462 C   0  0  0  0  0  0  0  0  0  0  0  0
  -25.0397    3.7878   26.7211 C   0  0  0  0  0  0  0  0  0  0  0  0
  -26.1845    4.5985   26.3821 N   0  0  0  0  0  0  0  0  0  0  0  0
  5  7  1  0
  7  8  2  0
  7  9  1  0
  2 10  1  0
 12 16  1  0
 16 17  1  0
 16 18  2  0
 17 19  1  0
 19 20  1  0
 20 21  2  3
 20 22  1  0
 19 23  2  0
 21 24  1  0
 22 25  1  0
 25 26  1  0
  1  2  2  0
  2  3  1  0
  3  4  2  0
  4  5  1  0
  5  6  2  0
  6  1  1  0
 10 11  2  0
 11 12  1  0
 12 13  2  0
 13 14  1  0
 14 15  2  0
 15 10  1  0
M  END

$$$$
