No_2439-gen_results/8p0m/2024-11-27-11-27-31/
     RDKit          3D

 15 16  0  0  0  0  0  0  0  0999 V2000
  -28.0162   -0.8135   28.8779 C   0  0  0  0  0  0  0  0  0  0  0  0
  -28.4690   -0.7850   29.8287 C   0  0  0  0  0  0  0  0  0  0  0  0
  -26.5455   -0.8762   28.8500 C   0  0  0  0  0  0  0  0  0  0  0  0
  -25.8041   -1.0324   30.0571 C   0  0  0  0  0  0  0  0  0  0  0  0
  -27.9437   -0.9869   31.2075 C   0  0  0  0  0  0  0  0  0  0  0  0
  -26.5825   -1.0386   31.2231 C   0  0  0  0  0  0  0  0  0  0  0  0
  -30.0279   -0.6588   29.6965 C   0  0  0  0  0  0  0  0  0  0  0  0
  -30.5919    0.4106   30.2160 N   0  0  0  0  0  0  0  0  0  0  0  0
  -31.7445    0.7196   30.1550 C   0  0  0  0  0  0  0  0  0  0  0  0
  -32.2280    1.9859   30.6762 C   0  0  0  0  0  0  0  0  0  0  0  0
  -32.6916   -0.1267   29.4582 C   0  0  0  0  0  0  0  0  0  0  0  0
  -34.0467    0.1931   29.3370 C   0  0  0  0  0  0  0  0  0  0  0  0
  -33.6106    2.2571   30.5465 C   0  0  0  0  0  0  0  0  0  0  0  0
  -34.4648    1.4244   29.9175 C   0  0  0  0  0  0  0  0  0  0  0  0
  -30.6375   -1.5387   29.2080 O   0  0  0  0  0  0  0  0  0  0  0  0
  2  7  1  0
  7  8  1  0
  8  9  1  0
  7 15  2  0
  9 10  2  0
 10 13  1  0
 13 14  2  0
 14 12  1  0
 12 11  2  0
 11  9  1  0
  1  2  2  0
  2  5  1  0
  5  6  2  0
  6  4  1  0
  4  3  2  0
  3  1  1  0
M  END

$$$$
