No_2224-gen_results/8p0m/2024-11-27-11-27-31/
     RDKit          3D

 19 21  0  0  0  0  0  0  0  0999 V2000
  -28.0162   -0.8135   28.8779 C   0  0  0  0  0  0  0  0  0  0  0  0
  -28.4690   -0.7850   29.8287 C   0  0  0  0  0  0  0  0  0  0  0  0
  -26.5042   -0.7777   28.8766 C   0  0  0  0  0  0  0  0  0  0  0  0
  -25.8103   -0.8531   30.1028 C   0  0  0  0  0  0  0  0  0  0  0  0
  -27.9906   -0.8916   31.2257 C   0  0  0  0  0  0  0  0  0  0  0  0
  -26.6042   -0.8676   31.2652 C   0  0  0  0  0  0  0  0  0  0  0  0
  -24.3894   -0.8049   30.1638 C   0  0  0  0  0  0  0  0  0  0  0  0
  -23.6350   -0.8621   29.1472 C   0  0  0  0  0  0  0  0  0  0  0  0
  -22.1747   -0.6734   29.2132 C   0  0  0  0  0  0  0  0  0  0  0  0
  -23.6708    0.1976   30.9737 C   0  0  0  0  0  0  0  0  0  0  0  0
  -22.1827    0.0982   30.3707 C   0  0  0  0  0  0  0  0  0  0  0  0
  -30.0896   -0.7779   29.8343 C   0  0  0  0  0  0  0  0  0  0  0  0
  -30.7692   -1.5974   30.2806 O   0  0  0  0  0  0  0  0  0  0  0  0
  -30.5814    0.4576   29.5120 N   0  0  0  0  0  0  0  0  0  0  0  0
  -31.6222    0.7760   29.2207 C   0  0  0  0  0  0  0  0  0  0  0  0
  -32.1625    1.5569   28.6036 C   0  0  0  0  0  0  0  0  0  0  0  0
  -31.2365    2.6517   28.1122 C   0  0  0  0  0  0  0  0  0  0  0  0
  -29.8571    2.4478   28.2727 C   0  0  0  0  0  0  0  0  0  0  0  0
  -29.5050    1.3278   28.9084 C   0  0  0  0  0  0  0  0  0  0  0  0
  4  7  1  0
  7  8  2  0
  8  9  1  0
  7 10  1  0
  9 11  1  0
 10 11  2  0
  2 12  1  0
 12 13  2  0
 12 14  1  0
 14 15  1  0
 16 17  1  0
 14 19  1  0
 18 19  1  0
 15 16  1  0
 17 18  1  0
  1  2  2  0
  2  5  1  0
  5  6  2  0
  6  4  1  0
  4  3  2  0
  3  1  1  0
M  END

$$$$
