No_2649-gen_results/8p0m/2024-11-27-11-27-31/
     RDKit          3D

 21 23  0  0  0  0  0  0  0  0999 V2000
  -28.0162   -0.8135   28.8779 C   0  0  0  0  0  0  0  0  0  0  0  0
  -28.4690   -0.7850   29.8287 C   0  0  0  0  0  0  0  0  0  0  0  0
  -26.5455   -0.8762   28.8500 C   0  0  0  0  0  0  0  0  0  0  0  0
  -25.8041   -1.0324   30.0571 C   0  0  0  0  0  0  0  0  0  0  0  0
  -27.9437   -0.9869   31.2075 C   0  0  0  0  0  0  0  0  0  0  0  0
  -26.5825   -1.0386   31.2231 C   0  0  0  0  0  0  0  0  0  0  0  0
  -30.3060   -0.8044   29.9704 Cl  0  0  0  0  0  0  0  0  0  0  0  0
  -24.3683   -1.1026   30.0591 C   0  0  0  0  0  0  0  0  0  0  0  0
  -23.6006   -0.5434   29.0827 C   0  0  0  0  0  0  0  0  0  0  0  0
  -22.1744   -0.5308   29.2340 C   0  0  0  0  0  0  0  0  0  0  0  0
  -24.1575    0.1961   28.0279 C   0  0  0  0  0  0  0  0  0  0  0  0
  -23.3477    1.2023   27.3633 C   0  0  0  0  0  0  0  0  0  0  0  0
  -21.3579    0.2985   28.4430 C   0  0  0  0  0  0  0  0  0  0  0  0
  -21.9256    1.1590   27.5221 C   0  0  0  0  0  0  0  0  0  0  0  0
  -23.9000    2.1592   26.3953 C   0  0  0  0  0  0  0  0  0  0  0  0
  -25.0371    2.8404   26.6861 C   0  0  0  0  0  0  0  0  0  0  0  0
  -25.4979    3.1590   27.7427 C   0  0  0  0  0  0  0  0  0  0  0  0
  -26.2671    3.8248   28.2554 C   0  0  0  0  0  0  0  0  0  0  0  0
  -27.1419    4.4135   27.2166 C   0  0  0  0  0  0  0  0  0  0  0  0
  -26.9149    4.1007   25.9060 C   0  0  0  0  0  0  0  0  0  0  0  0
  -25.7773    3.4148   25.5757 C   0  0  0  0  0  0  0  0  0  0  0  0
  2  7  1  0
  4  8  1  0
  8  9  1  0
 12 15  1  0
 15 16  1  0
  9 10  2  0
 10 13  1  0
 13 14  2  0
 14 12  1  0
 12 11  2  0
 11  9  1  0
  1  2  2  0
  2  5  1  0
  5  6  2  0
  6  4  1  0
  4  3  2  0
  3  1  1  0
 16 17  2  0
 17 18  1  0
 18 19  2  0
 19 20  1  0
 20 21  2  0
 21 16  1  0
M  END

$$$$
