No_2879-gen_results/8p0m/2024-11-27-11-27-31/
     RDKit          3D

 35 38  0  0  0  0  0  0  0  0999 V2000
  -28.0162   -0.8135   28.8779 C   0  0  0  0  0  0  0  0  0  0  0  0
  -27.0636   -0.1189   28.6079 C   0  0  0  0  0  0  0  0  0  0  0  0
  -25.7647   -0.3897   29.0360 C   0  0  0  0  0  0  0  0  0  0  0  0
  -25.5296   -1.5302   29.9014 C   0  0  0  0  0  0  0  0  0  0  0  0
  -26.6888   -2.2893   30.1810 C   0  0  0  0  0  0  0  0  0  0  0  0
  -27.8727   -1.9508   29.7373 C   0  0  0  0  0  0  0  0  0  0  0  0
  -24.5491    0.4100   28.7341 C   0  0  0  0  0  0  0  0  0  0  0  0
  -24.0931    1.3779   29.5761 C   0  0  0  0  0  0  0  0  0  0  0  0
  -23.0089    2.0595   29.1847 N   0  0  0  0  0  0  0  0  0  0  0  0
  -24.7048    1.7156   30.6626 O   0  0  0  0  0  0  0  0  0  0  0  0
  -22.2184    1.8298   28.0476 C   0  0  0  0  0  0  0  0  0  0  0  0
  -23.8059    0.1744   27.5018 C   0  0  0  0  0  0  0  0  0  0  0  0
  -22.7245    0.9109   27.2566 C   0  0  0  0  0  0  0  0  0  0  0  0
  -28.9765   -2.6909   30.1009 O   0  0  0  0  0  0  0  0  0  0  0  0
  -30.0926   -2.1265   30.5656 C   0  0  0  0  0  0  0  0  0  0  0  0
  -30.5289   -2.8010   31.7093 C   0  0  0  0  0  0  0  0  0  0  0  0
  -29.8302   -3.7335   32.2892 C   0  0  0  0  0  0  0  0  0  0  0  0
  -31.8075   -2.4775   32.2114 N   0  0  0  0  0  0  0  0  0  0  0  0
  -30.2819   -4.4396   33.5450 C   0  0  0  0  0  0  0  0  0  0  0  0
  -32.5629   -1.5075   31.6967 C   0  0  0  0  0  0  0  0  0  0  0  0
  -30.8436   -1.1606   29.9279 C   0  0  0  0  0  0  0  0  0  0  0  0
  -32.0749   -0.8221   30.4835 C   0  0  0  0  0  0  0  0  0  0  0  0
  -29.8517   -5.7998   33.5507 C   0  0  0  0  0  0  0  0  0  0  0  0
  -30.2097   -6.6206   32.5575 C   0  0  0  0  0  0  0  0  0  0  0  0
  -30.1543   -6.2000   31.3417 N   0  0  0  0  0  0  0  0  0  0  0  0
  -28.4995   -3.9677   32.2217 O   0  0  0  0  0  0  0  0  0  0  0  0
  -30.9122   -6.7279   30.2647 C   0  0  0  0  0  0  0  0  0  0  0  0
  -30.8164   -6.0597   28.9909 C   0  0  0  0  0  0  0  0  0  0  0  0
  -31.5640   -6.4639   27.9370 C   0  0  0  0  0  0  0  0  0  0  0  0
  -32.2699   -7.6475   27.9829 C   0  0  0  0  0  0  0  0  0  0  0  0
  -31.6448   -7.8559   30.3067 C   0  0  0  0  0  0  0  0  0  0  0  0
  -32.9786   -8.1108   26.8174 C   0  0  0  0  0  0  0  0  0  0  0  0
  -32.2836   -8.3567   29.1514 C   0  0  0  0  0  0  0  0  0  0  0  0
  -32.8380   -7.4903   25.6453 C   0  0  0  0  0  0  0  0  0  0  0  0
  -32.6239   -6.5256   25.3795 C   0  0  0  0  0  0  0  0  0  0  0  0
  3  7  1  0
  8 10  1  0
  6 14  1  0
 14 15  1  0
 16 17  1  0
 17 19  1  0
 19 23  2  3
 23 24  1  0
 24 25  2  3
 17 26  1  0
 25 27  1  0
 30 32  1  0
 32 34  2  3
 34 35  1  0
  1  2  2  0
  2  3  1  0
  3  4  2  0
  4  5  1  0
  5  6  2  0
  6  1  1  0
  7  8  2  0
  8  9  1  0
  9 11  2  0
 11 13  1  0
 13 12  2  0
 12  7  1  0
 27 28  2  0
 28 29  1  0
 29 30  2  0
 30 33  1  0
 33 31  2  0
 31 27  1  0
 15 16  1  0
 16 18  2  0
 18 20  1  0
 20 22  2  0
 22 21  1  0
 21 15  2  0
M  END

$$$$
