No_2927-gen_results/8p0m/2024-11-27-11-27-31/
     RDKit          3D

 22 24  0  0  0  0  0  0  0  0999 V2000
  -28.0162   -0.8135   28.8779 C   0  0  0  0  0  0  0  0  0  0  0  0
  -27.0636   -0.1189   28.6079 C   0  0  0  0  0  0  0  0  0  0  0  0
  -25.7923   -0.4302   29.0761 C   0  0  0  0  0  0  0  0  0  0  0  0
  -25.5756   -1.5654   29.9363 C   0  0  0  0  0  0  0  0  0  0  0  0
  -26.7354   -2.3004   30.2173 C   0  0  0  0  0  0  0  0  0  0  0  0
  -27.9184   -1.9537   29.7629 C   0  0  0  0  0  0  0  0  0  0  0  0
  -27.1354    0.9934   27.8754 F   0  0  0  0  0  0  0  0  0  0  0  0
  -29.0659   -2.8011   30.1862 C   0  0  0  0  0  0  0  0  0  0  0  0
  -28.9333   -4.0796   30.4492 N   0  0  0  0  0  0  0  0  0  0  0  0
  -29.7564   -2.1501   31.3902 C   0  0  0  0  0  0  0  0  0  0  0  0
  -29.7295   -4.8922   31.1727 C   0  0  0  0  0  0  0  0  0  0  0  0
  -30.8304   -2.8843   31.9771 C   0  0  0  0  0  0  0  0  0  0  0  0
  -30.4832   -4.3320   32.1902 C   0  0  0  0  0  0  0  0  0  0  0  0
  -31.1574   -5.0455   33.0617 O   0  0  0  0  0  0  0  0  0  0  0  0
  -24.5318    0.3398   28.6840 C   0  0  0  0  0  0  0  0  0  0  0  0
  -23.3167    0.0215   29.3004 C   0  0  0  0  0  0  0  0  0  0  0  0
  -22.2189    0.8321   28.9123 C   0  0  0  0  0  0  0  0  0  0  0  0
  -22.3023    1.7265   27.8246 C   0  0  0  0  0  0  0  0  0  0  0  0
  -23.5200    2.0049   27.2547 C   0  0  0  0  0  0  0  0  0  0  0  0
  -24.6269    1.3032   27.6866 C   0  0  0  0  0  0  0  0  0  0  0  0
  -23.5955    2.9321   26.3404 F   0  0  0  0  0  0  0  0  0  0  0  0
  -27.8215   -4.7896   29.7318 C   0  0  0  0  0  0  0  0  0  0  0  0
  2  7  1  0
  6  8  1  0
  8  9  1  0
  8 10  1  0
  9 11  1  0
 11 13  1  0
 12 13  1  0
 13 14  2  0
  3 15  1  0
 19 21  1  0
  9 22  1  0
 10 12  1  0
  1  2  2  0
  2  3  1  0
  3  4  2  0
  4  5  1  0
  5  6  2  0
  6  1  1  0
 15 16  2  0
 16 17  1  0
 17 18  2  0
 18 19  1  0
 19 20  2  0
 20 15  1  0
M  END

$$$$
