No_2208-gen_results/8p0m/2024-11-27-11-27-31/
     RDKit          3D

 20 22  0  0  0  0  0  0  0  0999 V2000
  -28.0162   -0.8135   28.8779 C   0  0  0  0  0  0  0  0  0  0  0  0
  -27.0636   -0.1189   28.6079 C   0  0  0  0  0  0  0  0  0  0  0  0
  -26.9716    0.7139   27.5060 C   0  0  0  0  0  0  0  0  0  0  0  0
  -28.1053    0.7744   26.6421 C   0  0  0  0  0  0  0  0  0  0  0  0
  -29.2008    0.1044   27.0527 C   0  0  0  0  0  0  0  0  0  0  0  0
  -29.2096   -0.6029   28.1853 C   0  0  0  0  0  0  0  0  0  0  0  0
  -30.3044    0.2267   26.2604 O   0  0  0  0  0  0  0  0  0  0  0  0
  -25.7141   -0.2197   29.4065 C   0  0  0  0  0  0  0  0  0  0  0  0
  -25.4132   -1.0544   30.0373 C   0  0  0  0  0  0  0  0  0  0  0  0
  -24.3506   -1.3580   30.4692 C   0  0  0  0  0  0  0  0  0  0  0  0
  -23.1809   -0.4571   30.4236 C   0  0  0  0  0  0  0  0  0  0  0  0
  -23.4488    0.6621   29.6053 C   0  0  0  0  0  0  0  0  0  0  0  0
  -24.7357    0.7947   29.0090 C   0  0  0  0  0  0  0  0  0  0  0  0
  -30.8522    1.0600   25.8194 C   0  0  0  0  0  0  0  0  0  0  0  0
  -31.1658    2.1129   26.3903 C   0  0  0  0  0  0  0  0  0  0  0  0
  -31.2164    2.1829   27.7757 C   0  0  0  0  0  0  0  0  0  0  0  0
  -31.4946    3.4014   28.4889 C   0  0  0  0  0  0  0  0  0  0  0  0
  -31.8547    4.5163   27.6700 C   0  0  0  0  0  0  0  0  0  0  0  0
  -31.8451    4.5250   26.3054 C   0  0  0  0  0  0  0  0  0  0  0  0
  -31.4612    3.3267   25.6517 C   0  0  0  0  0  0  0  0  0  0  0  0
  5  7  1  0
  2  8  1  0
  7 14  1  0
 14 15  1  0
 15 16  2  0
 16 17  1  0
 17 18  2  0
 18 19  1  0
 19 20  2  0
 20 15  1  0
  1  2  2  0
  2  3  1  0
  3  4  2  0
  4  5  1  0
  5  6  2  0
  6  1  1  0
  8  9  2  0
  9 10  1  0
 10 11  2  0
 11 12  1  0
 12 13  2  0
 13  8  1  0
M  END

$$$$
