No_2454-gen_results/8p0m/2024-11-27-11-27-31/
     RDKit          3D

 10 10  0  0  0  0  0  0  0  0999 V2000
  -28.1229   -1.3353   28.4874 O   0  0  0  0  0  0  0  0  0  0  0  0
  -27.4806   -0.4044   28.7094 C   0  0  0  0  0  0  0  0  0  0  0  0
  -26.4599   -0.1104   28.0051 N   0  0  0  0  0  0  0  0  0  0  0  0
  -25.8102    0.6599   28.0792 C   0  0  0  0  0  0  0  0  0  0  0  0
  -24.5746    0.9445   27.2765 C   0  0  0  0  0  0  0  0  0  0  0  0
  -27.5365    0.2439   30.0828 C   0  0  0  0  0  0  0  0  0  0  0  0
  -23.5490    1.8994   27.6353 C   0  0  0  0  0  0  0  0  0  0  0  0
  -22.3871    1.9582   26.9169 C   0  0  0  0  0  0  0  0  0  0  0  0
  -26.7116    1.3269   30.2931 C   0  0  0  0  0  0  0  0  0  0  0  0
  -25.6360    1.5407   29.3309 C   0  0  0  0  0  0  0  0  0  0  0  0
  1  2  2  0
  2  3  1  0
  3  4  1  0
  4  5  1  0
  2  6  1  0
  5  7  2  3
  7  8  1  0
  4 10  1  0
  9 10  1  0
  9  6  1  0
M  END

$$$$
