No_2423-gen_results/8p0m/2024-11-27-11-27-31/
     RDKit          3D

 35 37  0  0  0  0  0  0  0  0999 V2000
  -28.0162   -0.8135   28.8779 C   0  0  0  0  0  0  0  0  0  0  0  0
  -27.0636   -0.1190   28.6079 C   0  0  0  0  0  0  0  0  0  0  0  0
  -27.0010    0.6913   27.4910 C   0  0  0  0  0  0  0  0  0  0  0  0
  -28.1373    0.7363   26.6350 C   0  0  0  0  0  0  0  0  0  0  0  0
  -29.2360    0.0765   27.0690 C   0  0  0  0  0  0  0  0  0  0  0  0
  -29.2177   -0.6429   28.1747 C   0  0  0  0  0  0  0  0  0  0  0  0
  -28.0030   -1.6604   30.1266 C   0  0  0  0  0  0  0  0  0  0  0  0
  -28.6910   -1.7921   30.8886 O   0  0  0  0  0  0  0  0  0  0  0  0
  -26.9877   -2.6919   29.9394 O   0  0  0  0  0  0  0  0  0  0  0  0
  -30.4824    0.0729   26.4246 N   0  0  0  0  0  0  0  0  0  0  0  0
  -30.5551    0.0415   25.1372 C   0  0  0  0  0  0  0  0  0  0  0  0
  -31.6970    0.0523   27.1070 C   0  0  0  0  0  0  0  0  0  0  0  0
  -32.7679   -0.2380   26.5097 C   0  0  0  0  0  0  0  0  0  0  0  0
  -29.3866   -0.1036   24.3265 C   0  0  0  0  0  0  0  0  0  0  0  0
  -31.7342   -0.1102   24.3937 C   0  0  0  0  0  0  0  0  0  0  0  0
  -32.9145   -0.2410   25.1139 C   0  0  0  0  0  0  0  0  0  0  0  0
  -25.9284    1.4906   26.9376 C   0  0  0  0  0  0  0  0  0  0  0  0
  -24.8795    1.8356   27.8510 C   0  0  0  0  0  0  0  0  0  0  0  0
  -24.8964    2.6340   28.6507 C   0  0  0  0  0  0  0  0  0  0  0  0
  -26.0686    3.4381   28.8203 C   0  0  0  0  0  0  0  0  0  0  0  0
  -26.6218    3.7569   29.7340 C   0  0  0  0  0  0  0  0  0  0  0  0
  -26.0566    4.1419   30.9610 C   0  0  0  0  0  0  0  0  0  0  0  0
  -26.6349    4.7036   32.0427 C   0  0  0  0  0  0  0  0  0  0  0  0
  -28.1206    3.7720   29.9155 C   0  0  0  0  0  0  0  0  0  0  0  0
  -28.8119    4.2240   31.0763 C   0  0  0  0  0  0  0  0  0  0  0  0
  -28.0419    4.6570   32.1728 C   0  0  0  0  0  0  0  0  0  0  0  0
  -26.3477    4.3268   27.6331 C   0  0  0  0  0  0  0  0  0  0  0  0
  -25.8022    1.7824   25.5977 C   0  0  0  0  0  0  0  0  0  0  0  0
  -23.7191    0.8611   27.6863 C   0  0  0  0  0  0  0  0  0  0  0  0
  -23.1112    0.3756   28.5691 C   0  0  0  0  0  0  0  0  0  0  0  0
  -22.8716   -0.6098   29.2883 C   0  0  0  0  0  0  0  0  0  0  0  0
  -21.9760   -0.9692   30.3200 C   0  0  0  0  0  0  0  0  0  0  0  0
  -23.7689   -1.8104   28.9295 C   0  0  0  0  0  0  0  0  0  0  0  0
  -24.3309   -2.5476   29.6035 C   0  0  0  0  0  0  0  0  0  0  0  0
  -22.4324   -1.7774   31.2858 N   0  0  0  0  0  0  0  0  0  0  0  0
  1  7  1  0
  7  8  2  0
  7  9  1  0
  5 10  1  0
 10 11  1  0
 10 12  1  0
 11 14  1  0
 11 15  1  0
 13 16  1  0
 15 16  1  0
  3 17  1  0
 17 18  1  0
 18 19  2  3
 19 20  1  0
 20 27  1  0
 17 28  1  0
 18 29  1  0
 29 30  1  0
 30 31  2  3
 31 32  1  0
 31 33  1  0
 33 34  2  0
 32 35  1  0
 20 21  1  0
 13 12  1  0
  1  2  2  0
  2  3  1  0
  3  4  2  0
  4  5  1  0
  5  6  2  0
  6  1  1  0
 21 22  2  0
 22 23  1  0
 23 26  2  0
 26 25  1  0
 25 24  2  0
 24 21  1  0
M  END

$$$$
