No_2829-gen_results/8p0m/2024-11-27-11-27-31/
     RDKit          3D

 18 20  0  0  0  0  0  0  0  0999 V2000
  -28.0162   -0.8135   28.8779 C   0  0  0  0  0  0  0  0  0  0  0  0
  -28.4690   -0.7850   29.8287 C   0  0  0  0  0  0  0  0  0  0  0  0
  -26.5455   -0.8762   28.8500 C   0  0  0  0  0  0  0  0  0  0  0  0
  -25.8041   -1.0324   30.0571 C   0  0  0  0  0  0  0  0  0  0  0  0
  -30.0055   -0.7457   29.8978 C   0  0  0  0  0  0  0  0  0  0  0  0
  -26.5747   -1.0565   31.2005 C   0  0  0  0  0  0  0  0  0  0  0  0
  -27.9251   -0.9738   31.1683 C   0  0  0  0  0  0  0  0  0  0  0  0
  -30.7095   -1.5277   30.1699 O   0  0  0  0  0  0  0  0  0  0  0  0
  -30.4885    0.5590   29.8412 O   0  0  0  0  0  0  0  0  0  0  0  0
  -24.3611   -1.1142   30.0442 C   0  0  0  0  0  0  0  0  0  0  0  0
  -23.5754   -0.4933   29.1339 C   0  0  0  0  0  0  0  0  0  0  0  0
  -22.9282    0.6208   29.3066 C   0  0  0  0  0  0  0  0  0  0  0  0
  -22.1216    1.2372   28.2610 C   0  0  0  0  0  0  0  0  0  0  0  0
  -22.8406    1.6158   27.1001 C   0  0  0  0  0  0  0  0  0  0  0  0
  -23.9885    0.7740   26.8347 C   0  0  0  0  0  0  0  0  0  0  0  0
  -24.3842   -0.3123   27.7642 C   0  0  0  0  0  0  0  0  0  0  0  0
  -25.7389   -0.4241   27.6913 C   0  0  0  0  0  0  0  0  0  0  0  0
  -26.2338   -0.6411   26.5332 O   0  0  0  0  0  0  0  0  0  0  0  0
  2  5  1  0
  5  8  2  0
  5  9  1  0
  4 10  1  0
 10 11  1  0
  3 17  1  0
 16 17  1  0
 17 18  2  0
 11 12  2  0
 12 13  1  0
 13 14  2  0
 14 15  1  0
 15 16  2  0
 16 11  1  0
  1  2  2  0
  2  7  1  0
  7  6  2  0
  6  4  1  0
  4  3  2  0
  3  1  1  0
M  END

$$$$
