No_2636-gen_results/8p0m/2024-11-27-11-27-31/
     RDKit          3D

 24 25  0  0  0  0  0  0  0  0999 V2000
  -28.0162   -0.8135   28.8779 C   0  0  0  0  0  0  0  0  0  0  0  0
  -27.0636   -0.1190   28.6079 C   0  0  0  0  0  0  0  0  0  0  0  0
  -26.9716    0.7139   27.5060 C   0  0  0  0  0  0  0  0  0  0  0  0
  -28.1053    0.7744   26.6421 C   0  0  0  0  0  0  0  0  0  0  0  0
  -29.2008    0.1044   27.0527 C   0  0  0  0  0  0  0  0  0  0  0  0
  -29.2096   -0.6029   28.1853 C   0  0  0  0  0  0  0  0  0  0  0  0
  -30.3702    0.2264   26.1604 C   0  0  0  0  0  0  0  0  0  0  0  0
  -31.3925   -0.4782   26.4616 C   0  0  0  0  0  0  0  0  0  0  0  0
  -31.4721   -1.1854   27.7411 C   0  0  0  0  0  0  0  0  0  0  0  0
  -30.4100   -1.2868   28.5170 C   0  0  0  0  0  0  0  0  0  0  0  0
  -25.6635    1.4124   27.1378 C   0  0  0  0  0  0  0  0  0  0  0  0
  -25.4431    1.6366   25.9604 F   0  0  0  0  0  0  0  0  0  0  0  0
  -24.5891    0.6902   27.6504 F   0  0  0  0  0  0  0  0  0  0  0  0
  -25.6845    2.6268   27.7819 F   0  0  0  0  0  0  0  0  0  0  0  0
  -32.6316   -1.8279   28.0272 F   0  0  0  0  0  0  0  0  0  0  0  0
  -28.0064   -1.6372   30.1481 C   0  0  0  0  0  0  0  0  0  0  0  0
  -28.4084   -1.3844   31.1622 O   0  0  0  0  0  0  0  0  0  0  0  0
  -27.4191   -2.8151   29.8456 O   0  0  0  0  0  0  0  0  0  0  0  0
  -27.9372   -3.9518   30.4533 C   0  0  0  0  0  0  0  0  0  0  0  0
  -29.1403   -4.4575   29.7056 C   0  0  0  0  0  0  0  0  0  0  0  0
  -30.0784   -5.1127   30.6157 C   0  0  0  0  0  0  0  0  0  0  0  0
  -29.5868   -5.6815   31.8208 C   0  0  0  0  0  0  0  0  0  0  0  0
  -30.5780   -6.3339   32.5658 C   0  0  0  0  0  0  0  0  0  0  0  0
  -31.8597   -6.5104   32.1108 C   0  0  0  0  0  0  0  0  0  0  0  0
  3 11  1  0
 11 12  1  0
 11 13  1  0
 11 14  1  0
  9 15  1  0
  1 16  1  0
 16 17  2  0
 16 18  1  0
 18 19  1  0
 19 20  1  0
 20 21  2  3
 21 22  1  0
 22 23  2  3
 23 24  1  0
  1  2  2  0
  2  3  1  0
  3  4  2  0
  4  5  1  0
  6  1  1  0
  5  6  2  0
  6 10  1  0
 10  9  2  0
  9  8  1  0
  8  7  2  0
  7  5  1  0
M  END

$$$$
