No_2303-gen_results/8p0m/2024-11-27-11-27-31/
     RDKit          3D

 35 38  0  0  0  0  0  0  0  0999 V2000
  -28.0162   -0.8135   28.8779 C   0  0  0  0  0  0  0  0  0  0  0  0
  -27.0636   -0.1189   28.6079 C   0  0  0  0  0  0  0  0  0  0  0  0
  -26.8756    1.1325   28.9134 C   0  0  0  0  0  0  0  0  0  0  0  0
  -27.9014    1.8066   29.6436 C   0  0  0  0  0  0  0  0  0  0  0  0
  -29.0458   -0.2316   29.7181 C   0  0  0  0  0  0  0  0  0  0  0  0
  -28.9402    1.0517   30.0597 C   0  0  0  0  0  0  0  0  0  0  0  0
  -26.0208   -0.6774   27.8774 F   0  0  0  0  0  0  0  0  0  0  0  0
  -30.0213    1.6852   30.8724 C   0  0  0  0  0  0  0  0  0  0  0  0
  -29.6464    2.6297   31.6630 C   0  0  0  0  0  0  0  0  0  0  0  0
  -28.6528    3.5960   31.2048 C   0  0  0  0  0  0  0  0  0  0  0  0
  -27.5798    3.0456   30.3607 C   0  0  0  0  0  0  0  0  0  0  0  0
  -26.4961    3.8019   30.0579 N   0  0  0  0  0  0  0  0  0  0  0  0
  -26.5055    4.9967   29.5911 C   0  0  0  0  0  0  0  0  0  0  0  0
  -25.3045    5.4573   28.8524 C   0  0  0  0  0  0  0  0  0  0  0  0
  -25.1926    3.2875   30.3702 C   0  0  0  0  0  0  0  0  0  0  0  0
  -25.0774    2.5453   31.5697 C   0  0  0  0  0  0  0  0  0  0  0  0
  -25.3505    6.8503   28.5458 C   0  0  0  0  0  0  0  0  0  0  0  0
  -27.5915    5.6239   29.6406 F   0  0  0  0  0  0  0  0  0  0  0  0
  -24.3830    1.3598   31.6526 C   0  0  0  0  0  0  0  0  0  0  0  0
  -24.6879    0.3472   32.5548 C   0  0  0  0  0  0  0  0  0  0  0  0
  -25.6917    0.6314   33.5588 C   0  0  0  0  0  0  0  0  0  0  0  0
  -26.3442    1.9013   33.5439 C   0  0  0  0  0  0  0  0  0  0  0  0
  -26.0875    2.7995   32.5796 C   0  0  0  0  0  0  0  0  0  0  0  0
  -25.0429    7.7717   29.5221 C   0  0  0  0  0  0  0  0  0  0  0  0
  -24.8160    7.4698   30.8279 C   0  0  0  0  0  0  0  0  0  0  0  0
  -24.4360    8.4311   31.7776 C   0  0  0  0  0  0  0  0  0  0  0  0
  -24.1860    8.0121   33.1676 C   0  0  0  0  0  0  0  0  0  0  0  0
  -24.4355    6.6662   33.5006 C   0  0  0  0  0  0  0  0  0  0  0  0
  -24.7899    5.7626   32.5464 C   0  0  0  0  0  0  0  0  0  0  0  0
  -24.9641    6.1542   31.2803 C   0  0  0  0  0  0  0  0  0  0  0  0
  -23.4290    0.9826   30.5834 C   0  0  0  0  0  0  0  0  0  0  0  0
  -23.1436    1.7664   29.5111 C   0  0  0  0  0  0  0  0  0  0  0  0
  -22.2197    1.1646   28.5563 C   0  0  0  0  0  0  0  0  0  0  0  0
  -21.6904   -0.0637   28.7258 C   0  0  0  0  0  0  0  0  0  0  0  0
  -22.6261    0.1625   31.0458 F   0  0  0  0  0  0  0  0  0  0  0  0
  2  7  1  0
 11 12  1  0
 12 13  1  0
 13 14  2  3
 12 15  1  0
 15 16  1  0
 14 17  1  0
 13 18  1  0
 17 24  1  0
 19 31  1  0
 31 32  2  3
 32 33  1  0
 33 34  2  0
 31 35  1  0
 24 25  1  0
  6  8  1  0
  8  9  2  0
  9 10  1  0
 10 11  2  0
 11  4  1  0
 25 26  2  0
 26 27  1  0
 27 28  2  0
 28 29  1  0
 29 30  2  0
 30 25  1  0
  1  2  2  0
  2  3  1  0
  3  4  2  0
  4  6  1  0
  6  5  2  0
  5  1  1  0
 16 19  2  0
 19 20  1  0
 20 21  2  0
 21 22  1  0
 22 23  2  0
 23 16  1  0
M  END

$$$$
