No_2626-gen_results/8p0m/2024-11-27-11-27-31/
     RDKit          3D

 16 18  0  0  0  0  0  0  0  0999 V2000
  -28.0162   -0.8135   28.8779 C   0  0  0  0  0  0  0  0  0  0  0  0
  -27.0636   -0.1189   28.6079 C   0  0  0  0  0  0  0  0  0  0  0  0
  -25.8176   -0.3427   29.0488 N   0  0  0  0  0  0  0  0  0  0  0  0
  -24.6757    0.3814   28.7496 C   0  0  0  0  0  0  0  0  0  0  0  0
  -24.7608    1.3095   27.7159 C   0  0  0  0  0  0  0  0  0  0  0  0
  -27.2322    1.1407   27.8970 C   0  0  0  0  0  0  0  0  0  0  0  0
  -26.0435    1.8203   27.4131 C   0  0  0  0  0  0  0  0  0  0  0  0
  -28.6049   -0.5708   30.2119 C   0  0  0  0  0  0  0  0  0  0  0  0
  -29.6657   -1.4323   30.6866 C   0  0  0  0  0  0  0  0  0  0  0  0
  -29.9401   -2.4672   30.0466 C   0  0  0  0  0  0  0  0  0  0  0  0
  -29.2105   -3.2658   29.5315 C   0  0  0  0  0  0  0  0  0  0  0  0
  -27.9564   -2.5692   29.0448 C   0  0  0  0  0  0  0  0  0  0  0  0
  -23.5591    2.0918   27.3915 C   0  0  0  0  0  0  0  0  0  0  0  0
  -22.2956    1.5274   27.7262 C   0  0  0  0  0  0  0  0  0  0  0  0
  -22.2172    0.4506   28.6637 C   0  0  0  0  0  0  0  0  0  0  0  0
  -23.4230   -0.1968   29.1057 C   0  0  0  0  0  0  0  0  0  0  0  0
  1  2  1  0
  5 13  2  0
 13 14  1  0
 14 15  2  0
 15 16  1  0
 16  4  2  0
  2  3  2  0
  3  4  1  0
  4  5  1  0
  5  7  1  0
  7  6  2  0
  6  2  1  0
  1  8  2  0
  8  9  1  0
  9 10  2  0
 10 11  1  0
 11 12  2  0
 12  1  1  0
M  END

$$$$
