No_2634-gen_results/8p0m/2024-11-27-11-27-31/
     RDKit          3D

 13 14  0  0  0  0  0  0  0  0999 V2000
  -28.0162   -0.8135   28.8779 C   0  0  0  0  0  0  0  0  0  0  0  0
  -28.4690   -0.7850   29.8287 C   0  0  0  0  0  0  0  0  0  0  0  0
  -26.5455   -0.8762   28.8500 C   0  0  0  0  0  0  0  0  0  0  0  0
  -25.8974   -0.8267   29.8894 C   0  0  0  0  0  0  0  0  0  0  0  0
  -27.9129   -0.8385   31.1942 C   0  0  0  0  0  0  0  0  0  0  0  0
  -26.5519   -0.8324   31.1775 C   0  0  0  0  0  0  0  0  0  0  0  0
  -30.2908   -0.7905   29.9223 Cl  0  0  0  0  0  0  0  0  0  0  0  0
  -24.3620   -0.8644   29.9312 C   0  0  0  0  0  0  0  0  0  0  0  0
  -23.7430    0.4586   30.0659 C   0  0  0  0  0  0  0  0  0  0  0  0
  -22.5865    0.6908   29.2862 C   0  0  0  0  0  0  0  0  0  0  0  0
  -21.8245   -0.4319   28.8926 C   0  0  0  0  0  0  0  0  0  0  0  0
  -22.3861   -1.6731   28.8824 C   0  0  0  0  0  0  0  0  0  0  0  0
  -23.6800   -1.8648   29.3328 C   0  0  0  0  0  0  0  0  0  0  0  0
  2  7  1  0
  4  8  1  0
  8  9  2  0
  9 10  1  0
 10 11  2  0
 11 12  1  0
 12 13  2  0
 13  8  1  0
  1  2  2  0
  2  5  1  0
  5  6  2  0
  6  4  1  0
  4  3  2  0
  3  1  1  0
M  END

$$$$
