No_2784-gen_results/8p0m/2024-11-27-11-27-31/
     RDKit          3D

 19 19  0  0  0  0  0  0  0  0999 V2000
  -28.0162   -0.8135   28.8779 C   0  0  0  0  0  0  0  0  0  0  0  0
  -27.0636   -0.1189   28.6079 C   0  0  0  0  0  0  0  0  0  0  0  0
  -26.9716    0.7139   27.5060 C   0  0  0  0  0  0  0  0  0  0  0  0
  -25.8205    1.4909   27.1160 C   0  0  0  0  0  0  0  0  0  0  0  0
  -24.6562    1.4242   27.9180 C   0  0  0  0  0  0  0  0  0  0  0  0
  -24.6847    0.5901   29.0659 C   0  0  0  0  0  0  0  0  0  0  0  0
  -25.8099   -0.1266   29.3338 C   0  0  0  0  0  0  0  0  0  0  0  0
  -29.2186   -0.0422   29.3127 C   0  0  0  0  0  0  0  0  0  0  0  0
  -29.6481    0.7353   28.6841 O   0  0  0  0  0  0  0  0  0  0  0  0
  -29.5804   -0.2545   30.5747 O   0  0  0  0  0  0  0  0  0  0  0  0
  -23.4837    2.2139   27.5959 C   0  0  0  0  0  0  0  0  0  0  0  0
  -22.3005    2.2648   28.7293 Cl  0  0  0  0  0  0  0  0  0  0  0  0
  -23.2140    2.5881   26.4551 F   0  0  0  0  0  0  0  0  0  0  0  0
  -25.6924   -1.0122   30.5568 C   0  0  0  0  0  0  0  0  0  0  0  0
  -25.0809   -0.7708   31.4997 C   0  0  0  0  0  0  0  0  0  0  0  0
  -25.2863   -1.4323   32.7628 C   0  0  0  0  0  0  0  0  0  0  0  0
  -26.5648   -1.3157   33.3281 C   0  0  0  0  0  0  0  0  0  0  0  0
  -26.7359   -1.3918   34.6476 C   0  0  0  0  0  0  0  0  0  0  0  0
  -27.9810   -1.5468   35.2174 N   0  0  0  0  0  0  0  0  0  0  0  0
  1  2  2  3
  2  3  1  0
  3  4  1  0
  4  5  1  0
  5  6  1  0
  2  7  1  0
  6  7  1  0
  1  8  1  0
  8  9  2  0
  8 10  1  0
  5 11  1  0
 11 12  1  0
 11 13  1  0
  7 14  1  0
 14 15  2  3
 15 16  1  0
 16 17  2  3
 17 18  1  0
 18 19  2  0
M  END

$$$$
