No_2907-gen_results/8p0m/2024-11-27-11-27-31/
     RDKit          3D

 13 14  0  0  0  0  0  0  0  0999 V2000
  -28.0162   -0.8135   28.8779 C   0  0  0  0  0  0  0  0  0  0  0  0
  -27.0636   -0.1189   28.6079 C   0  0  0  0  0  0  0  0  0  0  0  0
  -26.9849    0.5972   27.5218 N   0  0  0  0  0  0  0  0  0  0  0  0
  -27.9930   -1.5759   30.1509 C   0  0  0  0  0  0  0  0  0  0  0  0
  -26.8106   -1.6889   30.8356 C   0  0  0  0  0  0  0  0  0  0  0  0
  -25.6677   -1.0633   30.4296 C   0  0  0  0  0  0  0  0  0  0  0  0
  -25.7501   -0.2429   29.2785 C   0  0  0  0  0  0  0  0  0  0  0  0
  -26.6207    1.9040   27.4244 C   0  0  0  0  0  0  0  0  0  0  0  0
  -26.1138    2.4881   28.4355 C   0  0  0  0  0  0  0  0  0  0  0  0
  -25.2688    3.6033   28.1038 C   0  0  0  0  0  0  0  0  0  0  0  0
  -25.0668    4.0337   26.8201 C   0  0  0  0  0  0  0  0  0  0  0  0
  -25.5190    3.2383   25.7590 C   0  0  0  0  0  0  0  0  0  0  0  0
  -26.3389    2.2069   26.0427 C   0  0  0  0  0  0  0  0  0  0  0  0
  1  2  1  0
  2  3  2  3
  1  4  1  0
  4  5  1  0
  5  6  1  0
  2  7  1  0
  6  7  1  0
  3  8  1  0
  8  9  2  0
  9 10  1  0
 10 11  2  0
 11 12  1  0
 12 13  2  0
 13  8  1  0
M  END

$$$$
