No_2991-gen_results/8p0m/2024-11-27-11-27-31/
     RDKit          3D

 26 28  0  0  0  0  0  0  0  0999 V2000
  -28.0162   -0.8135   28.8779 C   0  0  0  0  0  0  0  0  0  0  0  0
  -27.0636   -0.1190   28.6079 C   0  0  0  0  0  0  0  0  0  0  0  0
  -26.9287    1.1713   29.0083 C   0  0  0  0  0  0  0  0  0  0  0  0
  -25.7702    2.0341   28.6884 C   0  0  0  0  0  0  0  0  0  0  0  0
  -24.7141    1.4431   27.9188 C   0  0  0  0  0  0  0  0  0  0  0  0
  -24.8590    0.0783   27.5836 C   0  0  0  0  0  0  0  0  0  0  0  0
  -25.9647   -0.6606   27.9164 C   0  0  0  0  0  0  0  0  0  0  0  0
  -28.0422   -1.5426   30.2417 C   0  0  0  0  0  0  0  0  0  0  0  0
  -29.0328   -2.4276   30.5592 N   0  0  0  0  0  0  0  0  0  0  0  0
  -23.5403    2.1625   27.5556 C   0  0  0  0  0  0  0  0  0  0  0  0
  -22.3984    2.1943   27.9306 N   0  0  0  0  0  0  0  0  0  0  0  0
  -23.8461    3.2560   26.8961 F   0  0  0  0  0  0  0  0  0  0  0  0
  -30.1673   -2.2736   30.1460 C   0  0  0  0  0  0  0  0  0  0  0  0
  -31.0546   -3.3409   30.4098 C   0  0  0  0  0  0  0  0  0  0  0  0
  -28.6994   -3.6604   31.1784 C   0  0  0  0  0  0  0  0  0  0  0  0
  -29.2827   -4.6776   30.8586 C   0  0  0  0  0  0  0  0  0  0  0  0
  -30.7249   -4.6126   30.7185 C   0  0  0  0  0  0  0  0  0  0  0  0
  -26.8235   -1.6401   30.7763 O   0  0  0  0  0  0  0  0  0  0  0  0
  -21.6099    0.9916   28.1704 C   0  0  0  0  0  0  0  0  0  0  0  0
  -22.0790   -0.0100   29.0306 C   0  0  0  0  0  0  0  0  0  0  0  0
  -22.5921    0.3329   30.2906 C   0  0  0  0  0  0  0  0  0  0  0  0
  -23.1271   -0.7102   31.1180 C   0  0  0  0  0  0  0  0  0  0  0  0
  -23.3056   -1.9552   30.5230 C   0  0  0  0  0  0  0  0  0  0  0  0
  -23.0011   -2.2762   29.2432 C   0  0  0  0  0  0  0  0  0  0  0  0
  -22.2940   -1.2899   28.5541 C   0  0  0  0  0  0  0  0  0  0  0  0
  -20.4761    0.8620   27.5568 O   0  0  0  0  0  0  0  0  0  0  0  0
  1  2  1  0
  1  8  1  0
  8  9  1  0
  5 10  1  0
 10 11  1  0
 10 12  1  0
  9 13  1  0
  9 15  1  0
 14 17  1  0
 16 17  1  0
  8 18  2  0
 11 19  1  0
 19 20  1  0
 19 26  2  0
 13 14  1  0
 16 15  1  0
  2  3  2  0
  3  4  1  0
  4  5  2  0
  5  6  1  0
  6  7  2  0
  7  2  1  0
 20 21  2  0
 21 22  1  0
 22 23  2  0
 23 24  1  0
 24 25  2  0
 25 20  1  0
M  END

$$$$
