No_2339-gen_results/8p0m/2024-11-27-11-27-31/
     RDKit          3D

 18 19  0  0  0  0  0  0  0  0999 V2000
  -28.0162   -0.8135   28.8779 C   0  0  0  0  0  0  0  0  0  0  0  0
  -27.0636   -0.1189   28.6079 C   0  0  0  0  0  0  0  0  0  0  0  0
  -25.7647   -0.3897   29.0360 C   0  0  0  0  0  0  0  0  0  0  0  0
  -25.5296   -1.5302   29.9014 C   0  0  0  0  0  0  0  0  0  0  0  0
  -26.6888   -2.2893   30.1810 C   0  0  0  0  0  0  0  0  0  0  0  0
  -27.8727   -1.9508   29.7373 C   0  0  0  0  0  0  0  0  0  0  0  0
  -24.4208    0.2303   28.7927 C   0  0  0  0  0  0  0  0  0  0  0  0
  -23.2515   -0.1398   29.1486 C   0  0  0  0  0  0  0  0  0  0  0  0
  -22.0589    0.5740   28.8097 C   0  0  0  0  0  0  0  0  0  0  0  0
  -22.0262    1.5744   27.8848 C   0  0  0  0  0  0  0  0  0  0  0  0
  -24.3976    1.3949   27.8347 C   0  0  0  0  0  0  0  0  0  0  0  0
  -23.2400    2.0289   27.4744 C   0  0  0  0  0  0  0  0  0  0  0  0
  -29.0426   -2.7685   30.1688 C   0  0  0  0  0  0  0  0  0  0  0  0
  -29.3254   -2.7622   31.4095 N   0  0  0  0  0  0  0  0  0  0  0  0
  -29.5192   -1.7189   32.0562 C   0  0  0  0  0  0  0  0  0  0  0  0
  -29.7486   -1.8238   33.5078 C   0  0  0  0  0  0  0  0  0  0  0  0
  -29.6023   -3.9779   32.2777 C   0  0  0  0  0  0  0  0  0  0  0  0
  -29.7931   -0.8657   34.3668 C   0  0  0  0  0  0  0  0  0  0  0  0
  3  7  1  0
  6 13  1  0
 13 14  1  0
 14 15  1  0
 15 16  2  3
 14 17  1  0
 16 18  1  0
  7  8  2  0
  8  9  1  0
  9 10  2  0
 10 12  1  0
 12 11  2  0
 11  7  1  0
  1  2  2  0
  2  3  1  0
  3  4  2  0
  4  5  1  0
  5  6  2  0
  6  1  1  0
M  END

$$$$
