No_2692-gen_results/8p0m/2024-11-27-11-27-31/
     RDKit          3D

 18 19  0  0  0  0  0  0  0  0999 V2000
  -28.1493   -0.8198   28.9079 Cl  0  0  0  0  0  0  0  0  0  0  0  0
  -26.9116   -0.0797   28.9452 C   0  0  0  0  0  0  0  0  0  0  0  0
  -25.9665   -0.2123   29.6235 C   0  0  0  0  0  0  0  0  0  0  0  0
  -24.7040    0.5534   29.6218 C   0  0  0  0  0  0  0  0  0  0  0  0
  -24.6011    1.5437   28.6212 C   0  0  0  0  0  0  0  0  0  0  0  0
  -25.6671    1.7162   27.8026 C   0  0  0  0  0  0  0  0  0  0  0  0
  -26.7607    0.9618   27.8836 C   0  0  0  0  0  0  0  0  0  0  0  0
  -23.3668    2.3130   28.5678 C   0  0  0  0  0  0  0  0  0  0  0  0
  -22.3950    1.7771   27.6913 N   0  0  0  0  0  0  0  0  0  0  0  0
  -21.8097    0.6461   28.0010 C   0  0  0  0  0  0  0  0  0  0  0  0
  -22.9670    1.6665   26.2685 C   0  0  0  0  0  0  0  0  0  0  0  0
  -27.8959    1.1768   26.9206 C   0  0  0  0  0  0  0  0  0  0  0  0
  -27.6612    0.6788   25.6377 C   0  0  0  0  0  0  0  0  0  0  0  0
  -28.7597    0.4739   24.7591 C   0  0  0  0  0  0  0  0  0  0  0  0
  -30.0378    0.7961   25.1568 C   0  0  0  0  0  0  0  0  0  0  0  0
  -30.2139    1.3944   26.4134 C   0  0  0  0  0  0  0  0  0  0  0  0
  -29.1722    1.4829   27.3634 C   0  0  0  0  0  0  0  0  0  0  0  0
  -26.3252    0.2914   25.4044 N   0  0  0  0  0  0  0  0  0  0  0  0
  1  2  1  0
  5  8  1  0
  8  9  1  0
  9 10  1  0
  9 11  1  0
  7 12  1  0
 13 18  1  0
 12 13  2  0
 13 14  1  0
 14 15  2  0
 15 16  1  0
 16 17  2  0
 17 12  1  0
  2  3  2  0
  3  4  1  0
  4  5  2  0
  5  6  1  0
  6  7  2  0
  7  2  1  0
M  END

$$$$
