No_2098-gen_results/8p0m/2024-11-27-11-27-31/
     RDKit          3D

 24 25  0  0  0  0  0  0  0  0999 V2000
  -28.0162   -0.8135   28.8779 C   0  0  0  0  0  0  0  0  0  0  0  0
  -27.0636   -0.1189   28.6079 C   0  0  0  0  0  0  0  0  0  0  0  0
  -25.7923   -0.4302   29.0761 C   0  0  0  0  0  0  0  0  0  0  0  0
  -25.5756   -1.5654   29.9363 C   0  0  0  0  0  0  0  0  0  0  0  0
  -26.7354   -2.3004   30.2173 C   0  0  0  0  0  0  0  0  0  0  0  0
  -27.9184   -1.9537   29.7629 C   0  0  0  0  0  0  0  0  0  0  0  0
  -27.1057    1.1023   27.7593 C   0  0  0  0  0  0  0  0  0  0  0  0
  -27.8576    1.5309   27.2156 C   0  0  0  0  0  0  0  0  0  0  0  0
  -27.8433    2.7213   26.2861 C   0  0  0  0  0  0  0  0  0  0  0  0
  -26.6217    3.3253   26.0566 C   0  0  0  0  0  0  0  0  0  0  0  0
  -25.4854    2.7960   26.6725 C   0  0  0  0  0  0  0  0  0  0  0  0
  -25.5761    1.8318   27.5096 C   0  0  0  0  0  0  0  0  0  0  0  0
  -29.0753   -2.7607   30.2130 C   0  0  0  0  0  0  0  0  0  0  0  0
  -29.4851   -2.6513   31.1600 O   0  0  0  0  0  0  0  0  0  0  0  0
  -29.5468   -3.7670   29.3729 O   0  0  0  0  0  0  0  0  0  0  0  0
  -23.8333    3.6652   26.3932 Br  0  0  0  0  0  0  0  0  0  0  0  0
  -24.2577   -1.9014   30.3980 C   0  0  0  0  0  0  0  0  0  0  0  0
  -24.0761   -1.8821   31.5768 F   0  0  0  0  0  0  0  0  0  0  0  0
  -23.3558   -0.9825   29.8326 F   0  0  0  0  0  0  0  0  0  0  0  0
  -23.9354   -3.1166   29.8683 F   0  0  0  0  0  0  0  0  0  0  0  0
  -29.0617    3.1908   25.6074 C   0  0  0  0  0  0  0  0  0  0  0  0
  -30.0333    2.6027   26.2685 F   0  0  0  0  0  0  0  0  0  0  0  0
  -29.1395    4.5131   25.7233 F   0  0  0  0  0  0  0  0  0  0  0  0
  -29.0298    2.8483   24.3205 F   0  0  0  0  0  0  0  0  0  0  0  0
  2  7  1  0
  6 13  1  0
 13 14  2  0
 13 15  1  0
 11 16  1  0
  4 17  1  0
 17 18  1  0
 17 19  1  0
 17 20  1  0
  9 21  1  0
 21 22  1  0
 21 23  1  0
 21 24  1  0
  1  2  2  0
  2  3  1  0
  3  4  2  0
  4  5  1  0
  5  6  2  0
  6  1  1  0
  7  8  2  0
  8  9  1  0
  9 10  2  0
 10 11  1  0
 11 12  2  0
 12  7  1  0
M  END

$$$$
