No_2332-gen_results/8p0m/2024-11-27-11-27-31/
     RDKit          3D

 13 14  0  0  0  0  0  0  0  0999 V2000
  -28.0162   -0.8135   28.8779 C   0  0  0  0  0  0  0  0  0  0  0  0
  -27.0636   -0.1189   28.6079 C   0  0  0  0  0  0  0  0  0  0  0  0
  -26.9716    0.7139   27.5060 C   0  0  0  0  0  0  0  0  0  0  0  0
  -28.1053    0.7744   26.6421 C   0  0  0  0  0  0  0  0  0  0  0  0
  -29.2008    0.1044   27.0527 C   0  0  0  0  0  0  0  0  0  0  0  0
  -29.2096   -0.6029   28.1853 C   0  0  0  0  0  0  0  0  0  0  0  0
  -30.3077    0.2215   26.2218 N   0  0  0  0  0  0  0  0  0  0  0  0
  -30.2379    0.2364   24.9221 C   0  0  0  0  0  0  0  0  0  0  0  0
  -29.2465    0.1191   24.3917 C   0  0  0  0  0  0  0  0  0  0  0  0
  -27.9555    0.6618   25.1470 C   0  0  0  0  0  0  0  0  0  0  0  0
  -28.0647   -1.5071   30.2568 C   0  0  0  0  0  0  0  0  0  0  0  0
  -27.0722   -2.2036   30.5686 O   0  0  0  0  0  0  0  0  0  0  0  0
  -29.0939   -1.5354   30.9595 O   0  0  0  0  0  0  0  0  0  0  0  0
  1 11  1  0
 11 12  2  0
 11 13  1  0
  5  7  1  0
  7  8  2  0
  8  9  1  0
  9 10  2  0
 10  4  1  0
  1  2  2  0
  2  3  1  0
  3  4  2  0
  4  5  1  0
  5  6  2  0
  6  1  1  0
M  END

$$$$
