No_2948-gen_results/8p0m/2024-11-27-11-27-31/
     RDKit          3D

 14 14  0  0  0  0  0  0  0  0999 V2000
  -28.0162   -0.8135   28.8779 C   0  0  0  0  0  0  0  0  0  0  0  0
  -27.0636   -0.1189   28.6079 C   0  0  0  0  0  0  0  0  0  0  0  0
  -26.9716    0.7139   27.5060 C   0  0  0  0  0  0  0  0  0  0  0  0
  -25.8205    1.4909   27.1160 C   0  0  0  0  0  0  0  0  0  0  0  0
  -24.8579    1.3421   27.6008 C   0  0  0  0  0  0  0  0  0  0  0  0
  -23.5687    2.1107   27.3209 C   0  0  0  0  0  0  0  0  0  0  0  0
  -22.3971    1.9189   28.0868 C   0  0  0  0  0  0  0  0  0  0  0  0
  -22.4384    0.9641   29.1108 C   0  0  0  0  0  0  0  0  0  0  0  0
  -24.4954    0.5206   28.8295 C   0  0  0  0  0  0  0  0  0  0  0  0
  -23.3667    0.3516   29.4580 C   0  0  0  0  0  0  0  0  0  0  0  0
  -25.7750   -0.2380   29.1635 C   0  0  0  0  0  0  0  0  0  0  0  0
  -24.8731    0.7815   27.9005 Cl  0  0  0  0  0  0  0  0  0  0  0  0
  -25.6010   -1.1318   30.2540 C   0  0  0  0  0  0  0  0  0  0  0  0
  -25.9975   -1.5676   29.1983 C   0  0  0  0  0  0  0  0  0  0  0  0
  1  2  2  0
  2  3  1  0
  3  4  1  0
  4  5  1  0
  5  6  1  0
  6  7  2  0
  7  8  1  0
  5  9  1  0
  8 10  2  0
  9 10  2  0
  2 11  1  0
  5 12  1  0
 11 13  2  3
 13 14  1  0
M  END

$$$$
