No_2479-gen_results/8p0m/2024-11-27-11-27-31/
     RDKit          3D

 28 30  0  0  0  0  0  0  0  0999 V2000
  -28.0162   -0.8135   28.8779 C   0  0  0  0  0  0  0  0  0  0  0  0
  -28.4690   -0.7850   29.8287 C   0  0  0  0  0  0  0  0  0  0  0  0
  -26.5455   -0.8762   28.8500 C   0  0  0  0  0  0  0  0  0  0  0  0
  -25.8974   -0.8267   29.8894 C   0  0  0  0  0  0  0  0  0  0  0  0
  -27.9129   -0.8385   31.1942 C   0  0  0  0  0  0  0  0  0  0  0  0
  -26.5519   -0.8324   31.1775 C   0  0  0  0  0  0  0  0  0  0  0  0
  -30.0664   -0.7969   29.9410 C   0  0  0  0  0  0  0  0  0  0  0  0
  -30.5082    0.0287   30.8804 F   0  0  0  0  0  0  0  0  0  0  0  0
  -30.4761   -2.0484   30.1831 F   0  0  0  0  0  0  0  0  0  0  0  0
  -30.7118   -0.3168   28.9158 F   0  0  0  0  0  0  0  0  0  0  0  0
  -24.3774   -0.8302   29.9521 C   0  0  0  0  0  0  0  0  0  0  0  0
  -23.8117    0.5033   30.0113 C   0  0  0  0  0  0  0  0  0  0  0  0
  -22.5614    0.6891   29.3460 C   0  0  0  0  0  0  0  0  0  0  0  0
  -21.8094   -0.4575   29.0019 C   0  0  0  0  0  0  0  0  0  0  0  0
  -22.3930   -1.6913   28.9751 C   0  0  0  0  0  0  0  0  0  0  0  0
  -23.7095   -1.8589   29.3640 C   0  0  0  0  0  0  0  0  0  0  0  0
  -24.1939   -3.0301   29.2551 F   0  0  0  0  0  0  0  0  0  0  0  0
  -20.0489   -0.1282   28.4757 Br  0  0  0  0  0  0  0  0  0  0  0  0
  -25.9428   -0.8044   27.5991 O   0  0  0  0  0  0  0  0  0  0  0  0
  -26.3237    0.0744   26.6284 C   0  0  0  0  0  0  0  0  0  0  0  0
  -25.6182   -0.0940   25.4228 C   0  0  0  0  0  0  0  0  0  0  0  0
  -27.2033    1.0709   26.7264 C   0  0  0  0  0  0  0  0  0  0  0  0
  -27.4065    1.8396   27.7651 C   0  0  0  0  0  0  0  0  0  0  0  0
  -26.4431    2.3524   28.7035 C   0  0  0  0  0  0  0  0  0  0  0  0
  -26.7061    3.2683   29.7672 C   0  0  0  0  0  0  0  0  0  0  0  0
  -28.0693    3.4665   30.0726 C   0  0  0  0  0  0  0  0  0  0  0  0
  -29.0891    2.9894   29.2439 C   0  0  0  0  0  0  0  0  0  0  0  0
  -28.7754    2.1906   28.1678 C   0  0  0  0  0  0  0  0  0  0  0  0
  2  7  1  0
  7  8  1  0
  7  9  1  0
  7 10  1  0
  4 11  1  0
 16 17  1  0
 14 18  1  0
  3 19  1  0
 19 20  1  0
 20 21  1  0
 20 22  1  0
 22 23  1  0
 11 12  2  0
 12 13  1  0
 13 14  2  0
 14 15  1  0
 15 16  2  0
 16 11  1  0
 23 24  2  0
 24 25  1  0
 25 26  2  0
 26 27  1  0
 27 28  2  0
 28 23  1  0
  1  2  2  0
  2  5  1  0
  5  6  2  0
  6  4  1  0
  4  3  2  0
  3  1  1  0
M  END

$$$$
