No_2406-gen_results/8p0m/2024-11-27-11-27-31/
     RDKit          3D

 24 25  0  0  0  0  0  0  0  0999 V2000
  -28.0162   -0.8135   28.8779 C   0  0  0  0  0  0  0  0  0  0  0  0
  -28.4690   -0.7850   29.8287 C   0  0  0  0  0  0  0  0  0  0  0  0
  -26.5455   -0.8762   28.8500 C   0  0  0  0  0  0  0  0  0  0  0  0
  -25.8041   -1.0324   30.0571 C   0  0  0  0  0  0  0  0  0  0  0  0
  -27.9437   -0.9869   31.2075 C   0  0  0  0  0  0  0  0  0  0  0  0
  -26.5825   -1.0386   31.2231 C   0  0  0  0  0  0  0  0  0  0  0  0
  -24.3810   -1.1082   30.0855 C   0  0  0  0  0  0  0  0  0  0  0  0
  -23.6421   -1.1177   29.0487 C   0  0  0  0  0  0  0  0  0  0  0  0
  -22.1825   -0.9779   29.1035 C   0  0  0  0  0  0  0  0  0  0  0  0
  -23.9807   -2.1285   31.1201 C   0  0  0  0  0  0  0  0  0  0  0  0
  -30.0860   -0.6455   29.8698 C   0  0  0  0  0  0  0  0  0  0  0  0
  -30.6030    0.3033   30.5136 O   0  0  0  0  0  0  0  0  0  0  0  0
  -30.7227   -1.4407   29.1825 O   0  0  0  0  0  0  0  0  0  0  0  0
  -24.1675   -0.6318   27.7687 C   0  0  0  0  0  0  0  0  0  0  0  0
  -25.7026   -0.6828   27.6628 C   0  0  0  0  0  0  0  0  0  0  0  0
  -26.1959   -0.3112   26.5480 F   0  0  0  0  0  0  0  0  0  0  0  0
  -21.2594   -0.0632   29.3909 N   0  0  0  0  0  0  0  0  0  0  0  0
  -21.7157    1.2370   29.1616 C   0  0  0  0  0  0  0  0  0  0  0  0
  -21.4090    1.8045   27.7724 C   0  0  0  0  0  0  0  0  0  0  0  0
  -22.4891    2.1429   27.0792 O   0  0  0  0  0  0  0  0  0  0  0  0
  -22.5430    2.1886   25.7287 C   0  0  0  0  0  0  0  0  0  0  0  0
  -23.8654    2.2709   25.1965 C   0  0  0  0  0  0  0  0  0  0  0  0
  -24.8459    1.7610   26.0019 C   0  0  0  0  0  0  0  0  0  0  0  0
  -24.9326    1.8168   27.2726 C   0  0  0  0  0  0  0  0  0  0  0  0
  8  9  1  0
  7 10  1  0
  2 11  1  0
 11 12  2  0
 11 13  1  0
 15 16  1  0
  9 17  1  0
 17 18  1  0
 18 19  1  0
 19 20  1  0
 20 21  1  0
 21 22  2  3
 22 23  1  0
 23 24  1  0
  1  2  2  0
  2  5  1  0
  5  6  2  0
  6  4  1  0
  3  1  1  0
  3  4  2  0
  4  7  1  0
  7  8  2  0
  8 14  1  0
 14 15  2  0
 15  3  1  0
M  END

$$$$
