No_2498-gen_results/8p0m/2024-11-27-11-27-31/
     RDKit          3D

 10 10  0  0  0  0  0  0  0  0999 V2000
  -28.0162   -0.8135   28.8779 C   0  0  0  0  0  0  0  0  0  0  0  0
  -28.4690   -0.7850   29.8287 C   0  0  0  0  0  0  0  0  0  0  0  0
  -26.5042   -0.7777   28.8766 C   0  0  0  0  0  0  0  0  0  0  0  0
  -25.8305   -1.6807   29.6849 C   0  0  0  0  0  0  0  0  0  0  0  0
  -29.9580   -0.6751   29.9291 C   0  0  0  0  0  0  0  0  0  0  0  0
  -30.6709   -1.2801   30.9450 C   0  0  0  0  0  0  0  0  0  0  0  0
  -26.4481   -1.8950   30.9729 C   0  0  0  0  0  0  0  0  0  0  0  0
  -27.8858   -1.5577   31.0660 C   0  0  0  0  0  0  0  0  0  0  0  0
  -30.5890    0.1086   28.9807 C   0  0  0  0  0  0  0  0  0  0  0  0
  -29.7898    1.1615   28.0830 Cl  0  0  0  0  0  0  0  0  0  0  0  0
  2  5  1  0
  5  6  1  0
  5  9  1  0
  9 10  1  0
  1  2  2  0
  2  8  1  0
  8  7  2  0
  7  4  1  0
  4  3  2  0
  3  1  1  0
M  END

$$$$
