No_2166-gen_results/8p0m/2024-11-27-11-27-31/
     RDKit          3D

 20 22  0  0  0  0  0  0  0  0999 V2000
  -28.0162   -0.8135   28.8779 C   0  0  0  0  0  0  0  0  0  0  0  0
  -27.1876   -0.3590   28.4524 N   0  0  0  0  0  0  0  0  0  0  0  0
  -28.0973   -1.9580   29.2071 F   0  0  0  0  0  0  0  0  0  0  0  0
  -29.3453   -0.0773   29.1077 C   0  0  0  0  0  0  0  0  0  0  0  0
  -29.3793    1.2472   28.6369 C   0  0  0  0  0  0  0  0  0  0  0  0
  -27.0528    0.9907   27.9802 C   0  0  0  0  0  0  0  0  0  0  0  0
  -28.1795    1.7907   28.0630 C   0  0  0  0  0  0  0  0  0  0  0  0
  -25.7779    1.4849   27.4052 C   0  0  0  0  0  0  0  0  0  0  0  0
  -25.5755    2.7029   27.1739 Br  0  0  0  0  0  0  0  0  0  0  0  0
  -25.2957    0.4107   26.4495 C   0  0  0  0  0  0  0  0  0  0  0  0
  -24.7061    0.9458   28.5774 C   0  0  0  0  0  0  0  0  0  0  0  0
  -24.1720    1.8280   29.4090 C   0  0  0  0  0  0  0  0  0  0  0  0
  -24.2798   -0.3866   28.6467 C   0  0  0  0  0  0  0  0  0  0  0  0
  -23.3482   -0.6829   29.7435 C   0  0  0  0  0  0  0  0  0  0  0  0
  -23.1754    1.5470   30.4450 C   0  0  0  0  0  0  0  0  0  0  0  0
  -22.8028    0.2151   30.5442 C   0  0  0  0  0  0  0  0  0  0  0  0
  -24.5551   -1.0420   27.5717 N   0  0  0  0  0  0  0  0  0  0  0  0
  -25.1033   -0.6874   26.5629 N   0  0  0  0  0  0  0  0  0  0  0  0
  -25.7345    0.9128   25.0309 C   0  0  0  0  0  0  0  0  0  0  0  0
  -30.3299   -0.6769   29.5892 F   0  0  0  0  0  0  0  0  0  0  0  0
  1  3  1  0
  6  8  1  0
  8  9  1  0
  8 10  1  0
  8 11  1  0
 13 17  1  0
 10 18  2  0
 17 18  1  0
 10 19  1  0
  4 20  1  0
 11 12  2  0
 12 15  1  0
 15 16  2  0
 16 14  1  0
 14 13  2  0
 13 11  1  0
  1  2  2  0
  2  6  1  0
  6  7  2  0
  7  5  1  0
  5  4  2  0
  4  1  1  0
M  END

$$$$
