No_2873-gen_results/8p0m/2024-11-27-11-27-31/
     RDKit          3D

 32 34  0  0  0  0  0  0  0  0999 V2000
  -28.0162   -0.8135   28.8779 C   0  0  0  0  0  0  0  0  0  0  0  0
  -27.0636   -0.1190   28.6079 C   0  0  0  0  0  0  0  0  0  0  0  0
  -26.9716    0.7139   27.5060 C   0  0  0  0  0  0  0  0  0  0  0  0
  -28.1053    0.7744   26.6421 C   0  0  0  0  0  0  0  0  0  0  0  0
  -29.2041    0.1179   27.0477 C   0  0  0  0  0  0  0  0  0  0  0  0
  -29.2127   -0.6088   28.1281 C   0  0  0  0  0  0  0  0  0  0  0  0
  -25.7106    1.4518   27.1380 C   0  0  0  0  0  0  0  0  0  0  0  0
  -25.3772    2.0455   26.1738 C   0  0  0  0  0  0  0  0  0  0  0  0
  -24.0750    2.7193   25.9782 C   0  0  0  0  0  0  0  0  0  0  0  0
  -23.0770    2.4988   26.9483 C   0  0  0  0  0  0  0  0  0  0  0  0
  -23.3638    1.6220   28.0103 C   0  0  0  0  0  0  0  0  0  0  0  0
  -24.6236    1.0878   28.1747 C   0  0  0  0  0  0  0  0  0  0  0  0
  -22.3822    1.4671   28.8736 F   0  0  0  0  0  0  0  0  0  0  0  0
  -30.6030    0.2812   26.0581 Cl  0  0  0  0  0  0  0  0  0  0  0  0
  -28.0967   -1.6819   30.1123 C   0  0  0  0  0  0  0  0  0  0  0  0
  -28.5723   -1.5502   31.0524 O   0  0  0  0  0  0  0  0  0  0  0  0
  -27.3258   -2.8374   29.8709 O   0  0  0  0  0  0  0  0  0  0  0  0
  -27.7981   -4.0298   30.2845 C   0  0  0  0  0  0  0  0  0  0  0  0
  -29.0166   -4.3615   29.7918 C   0  0  0  0  0  0  0  0  0  0  0  0
  -29.6377   -5.1163   30.7158 O   0  0  0  0  0  0  0  0  0  0  0  0
  -30.9838   -4.7800   30.9891 C   0  0  0  0  0  0  0  0  0  0  0  0
  -31.8616   -5.7504   30.8582 C   0  0  0  0  0  0  0  0  0  0  0  0
  -31.5479   -6.9225   30.8891 F   0  0  0  0  0  0  0  0  0  0  0  0
  -32.4727   -5.6113   29.5486 F   0  0  0  0  0  0  0  0  0  0  0  0
  -33.0228   -5.6904   31.6611 F   0  0  0  0  0  0  0  0  0  0  0  0
  -30.8920   -4.3768   32.4903 N   0  0  0  0  0  0  0  0  0  0  0  0
  -30.1348   -4.8646   33.3719 C   0  0  0  0  0  0  0  0  0  0  0  0
  -31.6315   -3.1546   32.8294 C   0  0  0  0  0  0  0  0  0  0  0  0
  -31.4654   -2.6341   34.0319 C   0  0  0  0  0  0  0  0  0  0  0  0
  -29.1043   -6.4661   32.9359 Br  0  0  0  0  0  0  0  0  0  0  0  0
  -30.0137   -4.4809   34.7264 C   0  0  0  0  0  0  0  0  0  0  0  0
  -30.6785   -3.2922   35.0425 C   0  0  0  0  0  0  0  0  0  0  0  0
  3  7  1  0
 11 13  1  0
  5 14  1  0
  1 15  1  0
 15 16  2  0
 15 17  1  0
 17 18  1  0
 18 19  1  0
 19 20  1  0
 20 21  1  0
 21 22  1  0
 22 23  1  0
 22 24  1  0
 22 25  1  0
 21 26  1  0
 26 27  1  0
 26 28  1  0
 27 30  1  0
 27 31  1  0
 29 32  1  0
 31 32  1  0
 29 28  1  0
  1  2  2  0
  2  3  1  0
  3  4  2  0
  4  5  1  0
  5  6  2  0
  6  1  1  0
  7  8  2  0
  8  9  1  0
  9 10  2  0
 10 11  1  0
 11 12  2  0
 12  7  1  0
M  END

$$$$
