No_2367-gen_results/8p0m/2024-11-27-11-27-31/
     RDKit          3D

 23 24  0  0  0  0  0  0  0  0999 V2000
  -28.0162   -0.8135   28.8779 C   0  0  0  0  0  0  0  0  0  0  0  0
  -27.0636   -0.1189   28.6079 C   0  0  0  0  0  0  0  0  0  0  0  0
  -25.7647   -0.3897   29.0360 C   0  0  0  0  0  0  0  0  0  0  0  0
  -24.5516    0.4058   28.7646 C   0  0  0  0  0  0  0  0  0  0  0  0
  -23.2300    0.1178   29.2575 C   0  0  0  0  0  0  0  0  0  0  0  0
  -23.0942   -1.1309   29.8730 C   0  0  0  0  0  0  0  0  0  0  0  0
  -27.7981   -1.9341   29.8560 C   0  0  0  0  0  0  0  0  0  0  0  0
  -26.5420   -2.3269   30.2580 C   0  0  0  0  0  0  0  0  0  0  0  0
  -25.4514   -1.5516   29.9079 C   0  0  0  0  0  0  0  0  0  0  0  0
  -24.1562   -1.9097   30.2809 C   0  0  0  0  0  0  0  0  0  0  0  0
  -24.6450    1.6582   27.9464 C   0  0  0  0  0  0  0  0  0  0  0  0
  -25.0764    1.5784   26.6992 C   0  0  0  0  0  0  0  0  0  0  0  0
  -24.3307    2.9033   28.6159 C   0  0  0  0  0  0  0  0  0  0  0  0
  -23.7662    2.8717   29.6930 F   0  0  0  0  0  0  0  0  0  0  0  0
  -24.6630    3.9449   28.0932 F   0  0  0  0  0  0  0  0  0  0  0  0
  -29.0314   -2.7295   30.2001 C   0  0  0  0  0  0  0  0  0  0  0  0
  -28.9626   -3.8963   30.4037 O   0  0  0  0  0  0  0  0  0  0  0  0
  -30.1675   -2.1110   30.4206 N   0  0  0  0  0  0  0  0  0  0  0  0
  -31.3710   -2.8020   30.8115 C   0  0  0  0  0  0  0  0  0  0  0  0
  -31.4426   -3.6695   31.5595 C   0  0  0  0  0  0  0  0  0  0  0  0
  -32.5020   -2.1972   30.1247 C   0  0  0  0  0  0  0  0  0  0  0  0
  -32.3894   -1.1278   29.6253 F   0  0  0  0  0  0  0  0  0  0  0  0
  -33.5189   -2.1270   31.0445 F   0  0  0  0  0  0  0  0  0  0  0  0
  4 11  1  0
 11 12  1  0
 11 13  1  0
 13 14  1  0
 13 15  1  0
  7 16  1  0
 16 17  2  0
 16 18  1  0
 18 19  1  0
 19 20  1  0
 19 21  1  0
 21 22  1  0
 21 23  1  0
  1  2  2  0
  2  3  1  0
  9  8  1  0
  8  7  2  0
  7  1  1  0
  3  4  2  0
  4  5  1  0
  5  6  2  0
  6 10  1  0
 10  9  2  0
  9  3  1  0
M  END

$$$$
