No_2555-gen_results/8p0m/2024-11-27-11-27-31/
     RDKit          3D

 35 38  0  0  0  0  0  0  0  0999 V2000
  -28.0162   -0.8135   28.8779 C   0  0  0  0  0  0  0  0  0  0  0  0
  -28.4690   -0.7850   29.8287 C   0  0  0  0  0  0  0  0  0  0  0  0
  -26.5455   -0.8762   28.8500 C   0  0  0  0  0  0  0  0  0  0  0  0
  -25.8041   -1.0324   30.0571 C   0  0  0  0  0  0  0  0  0  0  0  0
  -27.9437   -0.9869   31.2075 C   0  0  0  0  0  0  0  0  0  0  0  0
  -26.5825   -1.0386   31.2231 C   0  0  0  0  0  0  0  0  0  0  0  0
  -30.0606   -0.7371   29.9024 C   0  0  0  0  0  0  0  0  0  0  0  0
  -30.6956   -1.6968   30.2945 N   0  0  0  0  0  0  0  0  0  0  0  0
  -30.2730   -2.6492   30.8951 C   0  0  0  0  0  0  0  0  0  0  0  0
  -30.4567    0.3228   29.3329 O   0  0  0  0  0  0  0  0  0  0  0  0
  -31.2368   -3.8425   31.0281 C   0  0  0  0  0  0  0  0  0  0  0  0
  -32.2796   -3.7164   30.4440 C   0  0  0  0  0  0  0  0  0  0  0  0
  -32.0086   -2.1540   29.8432 C   0  0  0  0  0  0  0  0  0  0  0  0
  -24.3735   -1.0669   30.0693 C   0  0  0  0  0  0  0  0  0  0  0  0
  -23.7624   -1.6987   30.6741 N   0  0  0  0  0  0  0  0  0  0  0  0
  -23.6574   -0.1252   29.1353 C   0  0  0  0  0  0  0  0  0  0  0  0
  -24.0816    0.8740   28.3260 C   0  0  0  0  0  0  0  0  0  0  0  0
  -23.1798    1.5976   27.6013 C   0  0  0  0  0  0  0  0  0  0  0  0
  -21.7870    1.3849   27.7674 C   0  0  0  0  0  0  0  0  0  0  0  0
  -22.1510   -0.0932   29.1833 C   0  0  0  0  0  0  0  0  0  0  0  0
  -21.3059    0.5926   28.5998 C   0  0  0  0  0  0  0  0  0  0  0  0
  -23.6155    2.6145   26.7248 N   0  0  0  0  0  0  0  0  0  0  0  0
  -24.5547    3.4843   27.1180 C   0  0  0  0  0  0  0  0  0  0  0  0
  -25.6987    3.4906   27.1459 C   0  0  0  0  0  0  0  0  0  0  0  0
  -26.5753    4.5120   27.6144 C   0  0  0  0  0  0  0  0  0  0  0  0
  -27.9783    4.3925   27.8054 C   0  0  0  0  0  0  0  0  0  0  0  0
  -28.5390    3.2069   27.3417 C   0  0  0  0  0  0  0  0  0  0  0  0
  -27.7965    2.2158   26.7890 C   0  0  0  0  0  0  0  0  0  0  0  0
  -26.3912    2.3605   26.7227 C   0  0  0  0  0  0  0  0  0  0  0  0
  -23.3245    2.4695   25.3496 C   0  0  0  0  0  0  0  0  0  0  0  0
  -32.8856   -1.4767   29.0515 C   0  0  0  0  0  0  0  0  0  0  0  0
  -33.5124   -1.9180   28.2081 N   0  0  0  0  0  0  0  0  0  0  0  0
  -33.3019   -2.0187   27.0426 C   0  0  0  0  0  0  0  0  0  0  0  0
  -32.6648   -1.1236   26.4699 F   0  0  0  0  0  0  0  0  0  0  0  0
  -32.9913   -3.1218   26.5115 F   0  0  0  0  0  0  0  0  0  0  0  0
  2  7  1  0
  7  8  1  0
  8  9  1  0
  7 10  2  0
  9 11  2  0
 11 12  1  0
  8 13  1  0
 12 13  2  0
  4 14  1  0
 14 15  2  0
 14 16  1  0
 18 22  1  0
 22 23  1  0
 23 24  1  0
 22 30  1  0
 13 31  1  0
 31 32  1  0
 32 33  2  3
 33 34  1  0
 33 35  1  0
 24 25  2  0
 25 26  1  0
 26 27  2  0
 27 28  1  0
 28 29  2  0
 29 24  1  0
  1  2  2  0
  2  5  1  0
  5  6  2  0
  6  4  1  0
  4  3  2  0
  3  1  1  0
 16 17  2  0
 17 18  1  0
 18 19  2  0
 19 21  1  0
 21 20  2  0
 20 16  1  0
M  END

$$$$
