No_2484-gen_results/8p0m/2024-11-27-11-27-31/
     RDKit          3D

 25 28  0  0  0  0  0  0  0  0999 V2000
  -28.0162   -0.8135   28.8779 C   0  0  0  0  0  0  0  0  0  0  0  0
  -28.4690   -0.7850   29.8287 C   0  0  0  0  0  0  0  0  0  0  0  0
  -27.0871    0.2903   28.6377 C   0  0  0  0  0  0  0  0  0  0  0  0
  -26.2516    0.4114   27.4223 C   0  0  0  0  0  0  0  0  0  0  0  0
  -28.3913    0.1041   30.9805 C   0  0  0  0  0  0  0  0  0  0  0  0
  -27.5332    1.1666   30.7866 C   0  0  0  0  0  0  0  0  0  0  0  0
  -26.8281    1.2557   29.6454 C   0  0  0  0  0  0  0  0  0  0  0  0
  -25.1384    0.6748   27.2307 C   0  0  0  0  0  0  0  0  0  0  0  0
  -24.3157    0.8670   28.4418 C   0  0  0  0  0  0  0  0  0  0  0  0
  -24.4957    1.5112   29.5560 C   0  0  0  0  0  0  0  0  0  0  0  0
  -25.5260    1.8221   30.0101 C   0  0  0  0  0  0  0  0  0  0  0  0
  -22.9278    0.8454   27.9170 F   0  0  0  0  0  0  0  0  0  0  0  0
  -25.5467    2.5331   31.3664 C   0  0  0  0  0  0  0  0  0  0  0  0
  -26.6467    2.5645   32.0248 C   0  0  0  0  0  0  0  0  0  0  0  0
  -27.3582    1.9430   31.8608 C   0  0  0  0  0  0  0  0  0  0  0  0
  -27.1436    0.4489   26.3704 O   0  0  0  0  0  0  0  0  0  0  0  0
  -27.2987    1.4667   25.6260 C   0  0  0  0  0  0  0  0  0  0  0  0
  -28.6620    1.9184   25.5906 C   0  0  0  0  0  0  0  0  0  0  0  0
  -29.5005    1.5675   26.5684 C   0  0  0  0  0  0  0  0  0  0  0  0
  -30.8752    2.0328   26.5529 C   0  0  0  0  0  0  0  0  0  0  0  0
  -31.7926    1.7384   27.5517 C   0  0  0  0  0  0  0  0  0  0  0  0
  -31.3673    0.8710   28.5784 C   0  0  0  0  0  0  0  0  0  0  0  0
  -30.1314    0.3077   28.5758 C   0  0  0  0  0  0  0  0  0  0  0  0
  -29.2586    0.7297   27.5635 C   0  0  0  0  0  0  0  0  0  0  0  0
  -29.3541   -0.4459   26.7337 C   0  0  0  0  0  0  0  0  0  0  0  0
  3  4  1  0
  4  8  2  0
  8  9  1  0
  9 10  2  0
 10 11  1  0
  9 12  1  0
  4 16  1  0
 16 17  1  0
 17 18  1  0
 18 19  1  0
 24 25  1  0
  7 11  1  0
 11 13  2  0
 13 14  1  0
 14 15  2  0
 15  6  1  0
  1  2  2  0
  2  5  1  0
  5  6  2  0
  6  7  1  0
  7  3  2  0
  3  1  1  0
 19 20  2  0
 20 21  1  0
 21 22  2  0
 22 23  1  0
 23 24  2  0
 24 19  1  0
M  END

$$$$
