No_269-gen_results/8p0m/2024-11-27-11-27-31/
     RDKit          3D

 30 33  0  0  0  0  0  0  0  0999 V2000
  -28.0162   -0.8135   28.8779 C   0  0  0  0  0  0  0  0  0  0  0  0
  -27.0636   -0.1190   28.6079 C   0  0  0  0  0  0  0  0  0  0  0  0
  -25.7923   -0.4302   29.0761 C   0  0  0  0  0  0  0  0  0  0  0  0
  -25.5756   -1.5654   29.9363 C   0  0  0  0  0  0  0  0  0  0  0  0
  -26.7354   -2.3004   30.2173 C   0  0  0  0  0  0  0  0  0  0  0  0
  -27.9184   -1.9537   29.7629 C   0  0  0  0  0  0  0  0  0  0  0  0
  -27.1057    1.1023   27.7593 C   0  0  0  0  0  0  0  0  0  0  0  0
  -26.1219    1.4820   27.0232 C   0  0  0  0  0  0  0  0  0  0  0  0
  -24.7142    1.1299   27.4889 C   0  0  0  0  0  0  0  0  0  0  0  0
  -24.5718    0.0966   28.4066 C   0  0  0  0  0  0  0  0  0  0  0  0
  -23.5495    1.7790   26.9027 C   0  0  0  0  0  0  0  0  0  0  0  0
  -22.3889    1.9020   27.6778 C   0  0  0  0  0  0  0  0  0  0  0  0
  -22.1526    0.9106   28.6954 C   0  0  0  0  0  0  0  0  0  0  0  0
  -23.2851    0.0463   29.1460 C   0  0  0  0  0  0  0  0  0  0  0  0
  -28.5005    1.0737   26.9773 C   0  0  0  0  0  0  0  0  0  0  0  0
  -28.6650    2.1576   26.5072 O   0  0  0  0  0  0  0  0  0  0  0  0
  -29.3037    0.1984   27.0024 O   0  0  0  0  0  0  0  0  0  0  0  0
  -29.0169   -2.6514   30.1760 O   0  0  0  0  0  0  0  0  0  0  0  0
  -30.1510   -2.0737   30.6284 C   0  0  0  0  0  0  0  0  0  0  0  0
  -30.2343   -1.3301   31.5599 C   0  0  0  0  0  0  0  0  0  0  0  0
  -30.6020   -0.3587   31.8305 C   0  0  0  0  0  0  0  0  0  0  0  0
  -30.6609    0.4903   33.0709 C   0  0  0  0  0  0  0  0  0  0  0  0
  -30.0334   -0.1116   34.1441 C   0  0  0  0  0  0  0  0  0  0  0  0
  -29.4276   -1.3404   34.0104 C   0  0  0  0  0  0  0  0  0  0  0  0
  -29.4250   -1.9964   32.7632 C   0  0  0  0  0  0  0  0  0  0  0  0
  -31.2147   -2.2585   29.7823 N   0  0  0  0  0  0  0  0  0  0  0  0
  -32.3260   -1.5888   29.8742 C   0  0  0  0  0  0  0  0  0  0  0  0
  -33.3908   -1.9692   28.9293 C   0  0  0  0  0  0  0  0  0  0  0  0
  -33.0607   -2.8589   28.0210 C   0  0  0  0  0  0  0  0  0  0  0  0
  -31.8831   -3.6020   27.9549 C   0  0  0  0  0  0  0  0  0  0  0  0
  7 15  1  0
 15 16  2  0
 15 17  1  0
  6 18  1  0
 18 19  1  0
 19 20  1  0
 19 26  2  3
 26 27  1  0
 27 28  2  3
 28 29  1  0
 29 30  1  0
  1  2  2  0
  3  4  2  0
  4  5  1  0
  5  6  2  0
  6  1  1  0
  2  3  1  0
  3 10  1  0
  9  8  1  0
  8  7  2  0
  7  2  1  0
  9 10  2  0
 10 14  1  0
 14 13  2  0
 13 12  1  0
 12 11  2  0
 11  9  1  0
 20 21  2  0
 21 22  1  0
 22 23  2  0
 23 24  1  0
 24 25  2  0
 25 20  1  0
M  END

$$$$
