No_2519-gen_results/8p0m/2024-11-27-11-27-31/
     RDKit          3D

 25 26  0  0  0  0  0  0  0  0999 V2000
  -28.0727   -1.2542   28.5316 F   0  0  0  0  0  0  0  0  0  0  0  0
  -27.3591   -0.3792   28.7224 C   0  0  0  0  0  0  0  0  0  0  0  0
  -26.3323   -0.6441   29.4520 C   0  0  0  0  0  0  0  0  0  0  0  0
  -25.2562    0.3203   29.7818 C   0  0  0  0  0  0  0  0  0  0  0  0
  -25.4242    1.6275   29.2026 C   0  0  0  0  0  0  0  0  0  0  0  0
  -26.5263    1.8254   28.4032 C   0  0  0  0  0  0  0  0  0  0  0  0
  -27.4513    0.8601   28.1355 C   0  0  0  0  0  0  0  0  0  0  0  0
  -28.4408    1.1266   27.3636 F   0  0  0  0  0  0  0  0  0  0  0  0
  -24.4040    2.6011   29.5368 C   0  0  0  0  0  0  0  0  0  0  0  0
  -24.7281    3.4485   30.3771 O   0  0  0  0  0  0  0  0  0  0  0  0
  -23.1738    2.3004   29.2071 O   0  0  0  0  0  0  0  0  0  0  0  0
  -26.0745   -1.8407   30.0920 O   0  0  0  0  0  0  0  0  0  0  0  0
  -25.6152   -2.8150   29.3615 C   0  0  0  0  0  0  0  0  0  0  0  0
  -26.1192   -4.1234   29.5536 C   0  0  0  0  0  0  0  0  0  0  0  0
  -25.5219   -5.1426   29.0439 O   0  0  0  0  0  0  0  0  0  0  0  0
  -27.4471   -4.2449   29.9580 O   0  0  0  0  0  0  0  0  0  0  0  0
  -24.3670   -2.7679   29.0460 O   0  0  0  0  0  0  0  0  0  0  0  0
  -22.9077    2.2100   27.8036 C   0  0  0  0  0  0  0  0  0  0  0  0
  -23.7437    2.2925   26.9016 C   0  0  0  0  0  0  0  0  0  0  0  0
  -23.3635    1.9888   25.5398 C   0  0  0  0  0  0  0  0  0  0  0  0
  -21.5358    1.8266   27.5067 C   0  0  0  0  0  0  0  0  0  0  0  0
  -20.6863    1.5867   28.5896 N   0  0  0  0  0  0  0  0  0  0  0  0
  -24.3653    1.7431   24.6877 C   0  0  0  0  0  0  0  0  0  0  0  0
  -25.7290    1.5129   25.2421 C   0  0  0  0  0  0  0  0  0  0  0  0
  -25.0415    2.2353   26.9287 O   0  0  0  0  0  0  0  0  0  0  0  0
  1  2  1  0
  7  8  1  0
  5  9  1  0
  9 10  2  0
  9 11  1  0
  3 12  1  0
 12 13  1  0
 13 14  1  0
 14 15  2  0
 14 16  1  0
 13 17  2  0
 11 18  1  0
 18 19  1  0
 19 20  2  0
 18 21  1  0
 21 22  1  0
 20 23  1  0
 23 24  2  0
 19 25  1  0
 24 25  1  0
  2  3  2  0
  3  4  1  0
  4  5  2  0
  5  6  1  0
  6  7  2  0
  7  2  1  0
M  END

$$$$
