No_2374-gen_results/8p0m/2024-11-27-11-27-31/
     RDKit          3D

 19 19  0  0  0  0  0  0  0  0999 V2000
  -28.0162   -0.8135   28.8779 C   0  0  0  0  0  0  0  0  0  0  0  0
  -27.0636   -0.1189   28.6079 C   0  0  0  0  0  0  0  0  0  0  0  0
  -26.9716    0.7139   27.5060 C   0  0  0  0  0  0  0  0  0  0  0  0
  -28.1053    0.7744   26.6421 C   0  0  0  0  0  0  0  0  0  0  0  0
  -29.2008    0.1044   27.0527 C   0  0  0  0  0  0  0  0  0  0  0  0
  -29.2096   -0.6029   28.1853 C   0  0  0  0  0  0  0  0  0  0  0  0
  -30.3749    0.2232   26.1670 C   0  0  0  0  0  0  0  0  0  0  0  0
  -30.2997    0.0795   24.9312 N   0  0  0  0  0  0  0  0  0  0  0  0
  -31.5284   -0.6982   26.6677 C   0  0  0  0  0  0  0  0  0  0  0  0
  -25.6917   -0.2066   29.4190 C   0  0  0  0  0  0  0  0  0  0  0  0
  -24.5891   -0.0745   28.9261 N   0  0  0  0  0  0  0  0  0  0  0  0
  -23.8615    0.7956   28.6653 C   0  0  0  0  0  0  0  0  0  0  0  0
  -22.7069    1.1753   28.8641 C   0  0  0  0  0  0  0  0  0  0  0  0
  -21.9161    2.1765   28.0896 C   0  0  0  0  0  0  0  0  0  0  0  0
  -22.5294    2.5783   26.9241 C   0  0  0  0  0  0  0  0  0  0  0  0
  -23.9552    1.3253   27.1183 F   0  0  0  0  0  0  0  0  0  0  0  0
  -23.4807    2.2250   26.0420 C   0  0  0  0  0  0  0  0  0  0  0  0
  -23.9748    2.4596   25.1145 F   0  0  0  0  0  0  0  0  0  0  0  0
  -23.1833    1.0400   25.6014 F   0  0  0  0  0  0  0  0  0  0  0  0
  5  7  1  0
  7  8  2  0
  7  9  1  0
  2 10  1  0
 10 11  1  0
 11 12  1  0
 12 13  2  3
 13 14  1  0
 14 15  2  3
 12 16  1  0
 15 17  1  0
 17 18  1  0
 17 19  1  0
  1  2  2  0
  2  3  1  0
  3  4  2  0
  4  5  1  0
  5  6  2  0
  6  1  1  0
M  END

$$$$
