No_2856-gen_results/8p0m/2024-11-27-11-27-31/
     RDKit          3D

 26 29  0  0  0  0  0  0  0  0999 V2000
  -28.0162   -0.8135   28.8779 C   0  0  0  0  0  0  0  0  0  0  0  0
  -28.4690   -0.7850   29.8287 C   0  0  0  0  0  0  0  0  0  0  0  0
  -27.0871    0.2903   28.6377 C   0  0  0  0  0  0  0  0  0  0  0  0
  -26.2516    0.4114   27.4223 C   0  0  0  0  0  0  0  0  0  0  0  0
  -28.3141   -0.1267   30.7102 C   0  0  0  0  0  0  0  0  0  0  0  0
  -27.4825    1.0076   30.8097 C   0  0  0  0  0  0  0  0  0  0  0  0
  -26.7770    1.1718   29.6871 C   0  0  0  0  0  0  0  0  0  0  0  0
  -26.8024    0.7203   26.2421 C   0  0  0  0  0  0  0  0  0  0  0  0
  -25.9394    0.6753   25.1407 C   0  0  0  0  0  0  0  0  0  0  0  0
  -25.1090   -0.2882   27.3314 C   0  0  0  0  0  0  0  0  0  0  0  0
  -24.4925   -0.7804   28.7120 C   0  0  0  0  0  0  0  0  0  0  0  0
  -24.5959    0.2449   25.1577 C   0  0  0  0  0  0  0  0  0  0  0  0
  -24.1748   -0.1317   26.3318 C   0  0  0  0  0  0  0  0  0  0  0  0
  -24.7131   -2.0911   29.1289 C   0  0  0  0  0  0  0  0  0  0  0  0
  -23.5625    0.0218   29.4345 C   0  0  0  0  0  0  0  0  0  0  0  0
  -22.9852   -0.4558   30.5954 C   0  0  0  0  0  0  0  0  0  0  0  0
  -24.2212   -2.5275   30.3652 C   0  0  0  0  0  0  0  0  0  0  0  0
  -23.3700   -1.6573   31.1259 C   0  0  0  0  0  0  0  0  0  0  0  0
  -28.1873    1.2024   26.0735 C   0  0  0  0  0  0  0  0  0  0  0  0
  -28.9925    0.6314   25.2348 C   0  0  0  0  0  0  0  0  0  0  0  0
  -30.3529    0.9958   25.0840 C   0  0  0  0  0  0  0  0  0  0  0  0
  -30.8790    1.9428   25.9713 C   0  0  0  0  0  0  0  0  0  0  0  0
  -30.0698    2.5413   26.9413 C   0  0  0  0  0  0  0  0  0  0  0  0
  -28.7276    2.1825   27.0455 C   0  0  0  0  0  0  0  0  0  0  0  0
  -25.7095    2.5209   29.5232 Cl  0  0  0  0  0  0  0  0  0  0  0  0
  -29.6965   -2.2075   30.0709 Cl  0  0  0  0  0  0  0  0  0  0  0  0
  3  4  1  0
 10 11  1  0
  8 19  1  0
  7 25  1  0
  2 26  1  0
  4  8  1  0
  8  9  2  0
  9 12  1  0
 12 13  2  0
 13 10  1  0
 10  4  2  0
 19 20  2  0
 20 21  1  0
 21 22  2  0
 22 23  1  0
 23 24  2  0
 24 19  1  0
  1  2  2  0
  2  5  1  0
  5  6  2  0
  6  7  1  0
  7  3  2  0
  3  1  1  0
 11 14  2  0
 14 17  1  0
 17 18  2  0
 18 16  1  0
 16 15  2  0
 15 11  1  0
M  END

$$$$
