No_2862-gen_results/8p0m/2024-11-27-11-27-31/
     RDKit          3D

 16 17  0  0  0  0  0  0  0  0999 V2000
  -28.1229   -1.3353   28.4874 O   0  0  0  0  0  0  0  0  0  0  0  0
  -27.0637   -0.8242   28.8687 C   0  0  0  0  0  0  0  0  0  0  0  0
  -26.9592    0.0926   29.7582 C   0  0  0  0  0  0  0  0  0  0  0  0
  -25.8472   -1.5491   28.6589 N   0  0  0  0  0  0  0  0  0  0  0  0
  -25.7222    0.7177   30.1925 C   0  0  0  0  0  0  0  0  0  0  0  0
  -24.5648   -1.0740   29.0510 C   0  0  0  0  0  0  0  0  0  0  0  0
  -24.4401   -0.0998   29.5457 C   0  0  0  0  0  0  0  0  0  0  0  0
  -23.1442    0.5597   29.9947 C   0  0  0  0  0  0  0  0  0  0  0  0
  -23.2019    1.4665   30.8001 F   0  0  0  0  0  0  0  0  0  0  0  0
  -22.0652    0.1974   29.5415 F   0  0  0  0  0  0  0  0  0  0  0  0
  -28.1516    0.8383   30.1601 C   0  0  0  0  0  0  0  0  0  0  0  0
  -28.9817    0.1954   30.9611 C   0  0  0  0  0  0  0  0  0  0  0  0
  -30.1981    0.8407   31.4313 C   0  0  0  0  0  0  0  0  0  0  0  0
  -30.4228    2.1216   30.9904 C   0  0  0  0  0  0  0  0  0  0  0  0
  -29.5134    2.7746   30.1821 C   0  0  0  0  0  0  0  0  0  0  0  0
  -28.3329    2.1731   29.7858 C   0  0  0  0  0  0  0  0  0  0  0  0
  1  2  2  0
  2  3  1  0
  2  4  1  0
  3  5  1  0
  4  6  1  0
  5  7  1  0
  6  7  1  0
  7  8  1  0
  8  9  1  0
  8 10  1  0
  3 11  1  0
 11 12  2  0
 12 13  1  0
 13 14  2  0
 14 15  1  0
 15 16  2  0
 16 11  1  0
M  END

$$$$
