No_2294-gen_results/8p0m/2024-11-27-11-27-31/
     RDKit          3D

 35 40  0  0  0  0  0  0  0  0999 V2000
  -28.0162   -0.8135   28.8779 C   0  0  0  0  0  0  0  0  0  0  0  0
  -27.0636   -0.1189   28.6079 C   0  0  0  0  0  0  0  0  0  0  0  0
  -26.9716    0.7139   27.5060 C   0  0  0  0  0  0  0  0  0  0  0  0
  -28.1053    0.7744   26.6421 C   0  0  0  0  0  0  0  0  0  0  0  0
  -29.2041    0.1179   27.0477 C   0  0  0  0  0  0  0  0  0  0  0  0
  -29.2127   -0.6088   28.1281 C   0  0  0  0  0  0  0  0  0  0  0  0
  -30.4805    0.1928   26.3238 C   0  0  0  0  0  0  0  0  0  0  0  0
  -31.4030   -0.5753   26.4865 N   0  0  0  0  0  0  0  0  0  0  0  0
  -30.5676    1.0438   25.2871 O   0  0  0  0  0  0  0  0  0  0  0  0
  -32.6219   -0.6207   25.6248 C   0  0  0  0  0  0  0  0  0  0  0  0
  -25.6867    1.4096   27.1062 C   0  0  0  0  0  0  0  0  0  0  0  0
  -25.1400    2.3075   28.1004 C   0  0  0  0  0  0  0  0  0  0  0  0
  -23.8345    2.7860   27.7736 C   0  0  0  0  0  0  0  0  0  0  0  0
  -23.1644    2.3627   26.5997 C   0  0  0  0  0  0  0  0  0  0  0  0
  -24.8356    1.0631   26.0442 C   0  0  0  0  0  0  0  0  0  0  0  0
  -23.7080    1.5051   25.7742 C   0  0  0  0  0  0  0  0  0  0  0  0
  -25.7664    2.7492   29.2816 C   0  0  0  0  0  0  0  0  0  0  0  0
  -25.3260    2.3738   30.4828 C   0  0  0  0  0  0  0  0  0  0  0  0
  -26.9079    3.6015   29.1560 C   0  0  0  0  0  0  0  0  0  0  0  0
  -27.9969    3.4457   30.0716 C   0  0  0  0  0  0  0  0  0  0  0  0
  -27.5897    3.1274   31.3981 C   0  0  0  0  0  0  0  0  0  0  0  0
  -28.5415    3.0197   32.4950 C   0  0  0  0  0  0  0  0  0  0  0  0
  -26.3007    2.4976   31.6344 C   0  0  0  0  0  0  0  0  0  0  0  0
  -28.3267    2.4738   33.4407 C   0  0  0  0  0  0  0  0  0  0  0  0
  -26.9772    2.0455   33.9097 C   0  0  0  0  0  0  0  0  0  0  0  0
  -25.9585    1.9766   32.9207 C   0  0  0  0  0  0  0  0  0  0  0  0
  -29.0864    2.5394   29.5574 C   0  0  0  0  0  0  0  0  0  0  0  0
  -30.2316    2.4740   30.3925 C   0  0  0  0  0  0  0  0  0  0  0  0
  -29.9271    2.2192   31.8704 C   0  0  0  0  0  0  0  0  0  0  0  0
  -29.0020    4.5096   32.5833 C   0  0  0  0  0  0  0  0  0  0  0  0
  -28.2367    5.5194   32.5309 C   0  0  0  0  0  0  0  0  0  0  0  0
  -28.6679    6.8223   32.5113 C   0  0  0  0  0  0  0  0  0  0  0  0
  -29.9949    7.0521   32.5941 C   0  0  0  0  0  0  0  0  0  0  0  0
  -30.9010    6.0275   32.6295 C   0  0  0  0  0  0  0  0  0  0  0  0
  -30.4524    4.7473   32.6181 C   0  0  0  0  0  0  0  0  0  0  0  0
  5  7  1  0
  7  8  1  0
  7  9  2  0
  8 10  1  0
  3 11  1  0
 12 17  1  0
 21 22  1  0
 22 24  1  0
 23 26  1  0
 25 26  1  0
 20 27  1  0
 27 28  1  0
 22 29  1  0
 28 29  1  0
 22 30  1  0
 25 24  1  0
  1  2  2  0
  2  3  1  0
  3  4  2  0
  4  5  1  0
  5  6  2  0
  6  1  1  0
 17 18  2  0
 18 23  1  0
 23 21  2  0
 21 20  1  0
 20 19  2  0
 19 17  1  0
 30 31  2  0
 31 32  1  0
 32 33  2  0
 33 34  1  0
 34 35  2  0
 35 30  1  0
 11 12  1  0
 12 13  2  0
 13 14  1  0
 14 16  2  0
 16 15  1  0
 15 11  2  0
M  END

$$$$
