No_2561-gen_results/8p0m/2024-11-27-11-27-31/
     RDKit          3D

 16 16  0  0  0  0  0  0  0  0999 V2000
  -28.0162   -0.8135   28.8779 C   0  0  0  0  0  0  0  0  0  0  0  0
  -28.4690   -0.7850   29.8287 C   0  0  0  0  0  0  0  0  0  0  0  0
  -26.5455   -0.8762   28.8500 C   0  0  0  0  0  0  0  0  0  0  0  0
  -25.8041   -1.0324   30.0571 C   0  0  0  0  0  0  0  0  0  0  0  0
  -27.9437   -0.9869   31.2075 C   0  0  0  0  0  0  0  0  0  0  0  0
  -24.4008   -1.0969   30.0965 C   0  0  0  0  0  0  0  0  0  0  0  0
  -26.5612   -1.0746   31.2270 C   0  0  0  0  0  0  0  0  0  0  0  0
  -23.9261   -1.6230   30.8776 O   0  0  0  0  0  0  0  0  0  0  0  0
  -23.7531   -0.1943   29.3266 O   0  0  0  0  0  0  0  0  0  0  0  0
  -22.8763    0.6336   29.7263 C   0  0  0  0  0  0  0  0  0  0  0  0
  -30.0642   -0.5792   29.6967 C   0  0  0  0  0  0  0  0  0  0  0  0
  -30.4712   -0.2284   28.7504 O   0  0  0  0  0  0  0  0  0  0  0  0
  -30.8527   -1.2001   30.7308 N   0  0  0  0  0  0  0  0  0  0  0  0
  -32.2651   -1.1146   30.6051 C   0  0  0  0  0  0  0  0  0  0  0  0
  -32.9305   -0.3156   30.2717 C   0  0  0  0  0  0  0  0  0  0  0  0
  -34.3684   -0.3126   30.1954 C   0  0  0  0  0  0  0  0  0  0  0  0
  4  6  1  0
  6  8  2  0
  6  9  1  0
  9 10  1  0
  2 11  1  0
 11 12  2  0
 11 13  1  0
 13 14  1  0
 14 15  2  3
 15 16  1  0
  1  2  2  0
  2  5  1  0
  5  7  2  0
  7  4  1  0
  4  3  2  0
  3  1  1  0
M  END

$$$$
