No_260-gen_results/8p0m/2024-11-27-11-27-31/
     RDKit          3D

 25 27  0  0  0  0  0  0  0  0999 V2000
  -28.0162   -0.8135   28.8779 C   0  0  0  0  0  0  0  0  0  0  0  0
  -28.4690   -0.7850   29.8287 C   0  0  0  0  0  0  0  0  0  0  0  0
  -27.1356    0.2359   28.5352 C   0  0  0  0  0  0  0  0  0  0  0  0
  -26.8745    1.2825   29.3982 C   0  0  0  0  0  0  0  0  0  0  0  0
  -25.9742    2.3797   29.0831 C   0  0  0  0  0  0  0  0  0  0  0  0
  -28.3915    0.1302   30.9603 C   0  0  0  0  0  0  0  0  0  0  0  0
  -27.5035    1.2424   30.6700 C   0  0  0  0  0  0  0  0  0  0  0  0
  -25.3582    2.9659   29.8272 C   0  0  0  0  0  0  0  0  0  0  0  0
  -25.9208    2.7194   27.6546 C   0  0  0  0  0  0  0  0  0  0  0  0
  -24.9873    3.7419   27.2573 C   0  0  0  0  0  0  0  0  0  0  0  0
  -24.4250    4.1431   29.5317 C   0  0  0  0  0  0  0  0  0  0  0  0
  -24.2917    4.4902   28.1636 C   0  0  0  0  0  0  0  0  0  0  0  0
  -26.5007    0.2230   27.3156 O   0  0  0  0  0  0  0  0  0  0  0  0
  -25.3118   -0.3522   27.1134 C   0  0  0  0  0  0  0  0  0  0  0  0
  -29.4401   -2.0134   30.3288 C   0  0  0  0  0  0  0  0  0  0  0  0
  -30.2377   -1.9089   31.0173 O   0  0  0  0  0  0  0  0  0  0  0  0
  -28.7825   -3.2073   30.2423 O   0  0  0  0  0  0  0  0  0  0  0  0
  -27.5871   -3.5383   30.6259 C   0  0  0  0  0  0  0  0  0  0  0  0
  -27.0340   -4.6834   29.7523 C   0  0  0  0  0  0  0  0  0  0  0  0
  -25.6363   -4.4899   29.4232 C   0  0  0  0  0  0  0  0  0  0  0  0
  -25.1807   -3.4073   28.6640 C   0  0  0  0  0  0  0  0  0  0  0  0
  -23.7709   -3.2868   28.5414 C   0  0  0  0  0  0  0  0  0  0  0  0
  -24.7982   -5.6145   29.4239 C   0  0  0  0  0  0  0  0  0  0  0  0
  -23.5392   -5.5322   29.0659 N   0  0  0  0  0  0  0  0  0  0  0  0
  -23.0569   -4.3559   28.5371 C   0  0  0  0  0  0  0  0  0  0  0  0
  4  5  1  0
  3 13  1  0
 13 14  1  0
  2 15  1  0
 15 16  2  0
 15 17  1  0
 17 18  1  0
 18 19  2  3
 19 20  1  0
  1  2  2  0
  2  6  1  0
  6  7  2  0
  7  4  1  0
  4  3  2  0
  3  1  1  0
  5  8  2  0
  8 11  1  0
 11 12  2  0
 12 10  1  0
 10  9  2  0
  9  5  1  0
 20 21  2  0
 21 22  1  0
 22 25  2  0
 25 24  1  0
 24 23  2  0
 23 20  1  0
M  END

$$$$
