No_2341-gen_results/8p0m/2024-11-27-11-27-31/
     RDKit          3D

 11 11  0  0  0  0  0  0  0  0999 V2000
  -28.0162   -0.8135   28.8779 C   0  0  0  0  0  0  0  0  0  0  0  0
  -28.4690   -0.7850   29.8287 C   0  0  0  0  0  0  0  0  0  0  0  0
  -26.5042   -0.7777   28.8766 C   0  0  0  0  0  0  0  0  0  0  0  0
  -25.9150   -0.6580   29.9230 C   0  0  0  0  0  0  0  0  0  0  0  0
  -27.9537   -0.7071   31.0412 C   0  0  0  0  0  0  0  0  0  0  0  0
  -26.5877   -0.6326   31.1651 C   0  0  0  0  0  0  0  0  0  0  0  0
  -24.1785   -0.5632   30.0193 Cl  0  0  0  0  0  0  0  0  0  0  0  0
  -29.9479   -0.8830   29.8005 O   0  0  0  0  0  0  0  0  0  0  0  0
  -30.6130   -1.7961   30.3933 C   0  0  0  0  0  0  0  0  0  0  0  0
  -30.3594   -2.7115   30.8805 C   0  0  0  0  0  0  0  0  0  0  0  0
  -31.2094   -3.7827   31.4422 C   0  0  0  0  0  0  0  0  0  0  0  0
  4  7  1  0
  2  8  1  0
  8  9  1  0
  9 10  2  3
 10 11  1  0
  1  2  2  0
  2  5  1  0
  5  6  2  0
  6  4  1  0
  4  3  2  0
  3  1  1  0
M  END

$$$$
