No_249-gen_results/8p0m/2024-11-27-11-27-31/
     RDKit          3D

 12 13  0  0  0  0  0  0  0  0999 V2000
  -28.1229   -1.3353   28.4874 O   0  0  0  0  0  0  0  0  0  0  0  0
  -27.4806   -0.4044   28.7094 C   0  0  0  0  0  0  0  0  0  0  0  0
  -27.2412    0.3910   29.5098 N   0  0  0  0  0  0  0  0  0  0  0  0
  -26.4066   -0.1069   27.4496 C   0  0  0  0  0  0  0  0  0  0  0  0
  -25.4358    0.8473   27.6341 C   0  0  0  0  0  0  0  0  0  0  0  0
  -25.4244    1.6272   28.7628 C   0  0  0  0  0  0  0  0  0  0  0  0
  -26.3010    1.3576   29.7736 C   0  0  0  0  0  0  0  0  0  0  0  0
  -24.4942    1.1226   26.5520 C   0  0  0  0  0  0  0  0  0  0  0  0
  -23.3969    1.9879   26.8320 C   0  0  0  0  0  0  0  0  0  0  0  0
  -23.3383    2.6733   28.0923 C   0  0  0  0  0  0  0  0  0  0  0  0
  -24.2668    2.5064   28.9535 C   0  0  0  0  0  0  0  0  0  0  0  0
  -22.4857    2.3175   25.9408 O   0  0  0  0  0  0  0  0  0  0  0  0
  1  2  2  0
  2  3  1  0
  2  4  1  0
  6  7  1  0
  9 12  1  0
  3  7  1  0
  5  4  1  0
  5  6  2  0
  6 11  1  0
 11 10  2  0
 10  9  1  0
  9  8  2  0
  8  5  1  0
M  END

$$$$
