No_2251-gen_results/8p0m/2024-11-27-11-27-31/
     RDKit          3D

 13 14  0  0  0  0  0  0  0  0999 V2000
  -28.0162   -0.8135   28.8779 C   0  0  0  0  0  0  0  0  0  0  0  0
  -27.0636   -0.1189   28.6079 C   0  0  0  0  0  0  0  0  0  0  0  0
  -27.0010    0.6913   27.4910 C   0  0  0  0  0  0  0  0  0  0  0  0
  -28.1373    0.7363   26.6350 C   0  0  0  0  0  0  0  0  0  0  0  0
  -29.2360    0.0765   27.0690 C   0  0  0  0  0  0  0  0  0  0  0  0
  -29.2177   -0.6429   28.1747 C   0  0  0  0  0  0  0  0  0  0  0  0
  -30.6116    0.1653   26.0711 Cl  0  0  0  0  0  0  0  0  0  0  0  0
  -25.7122   -0.2157   29.4104 C   0  0  0  0  0  0  0  0  0  0  0  0
  -24.5659   -0.4815   28.8147 C   0  0  0  0  0  0  0  0  0  0  0  0
  -23.5256   -1.1533   29.4621 C   0  0  0  0  0  0  0  0  0  0  0  0
  -23.4952   -1.1934   30.8514 C   0  0  0  0  0  0  0  0  0  0  0  0
  -24.6707   -0.8265   31.5708 C   0  0  0  0  0  0  0  0  0  0  0  0
  -25.7771   -0.3954   30.8320 C   0  0  0  0  0  0  0  0  0  0  0  0
  5  7  1  0
  2  8  1  0
  1  2  2  0
  2  3  1  0
  3  4  2  0
  4  5  1  0
  5  6  2  0
  6  1  1  0
  8  9  2  0
  9 10  1  0
 10 11  2  0
 11 12  1  0
 12 13  2  0
 13  8  1  0
M  END

$$$$
