No_295-gen_results/8p0m/2024-11-27-11-27-31/
     RDKit          3D

 35 38  0  0  0  0  0  0  0  0999 V2000
  -28.0162   -0.8135   28.8779 C   0  0  0  0  0  0  0  0  0  0  0  0
  -27.0636   -0.1189   28.6079 C   0  0  0  0  0  0  0  0  0  0  0  0
  -27.0010    0.6913   27.4910 C   0  0  0  0  0  0  0  0  0  0  0  0
  -25.8548    1.4825   27.0830 C   0  0  0  0  0  0  0  0  0  0  0  0
  -24.6901    1.4526   27.8807 C   0  0  0  0  0  0  0  0  0  0  0  0
  -24.7379    0.6010   29.0416 C   0  0  0  0  0  0  0  0  0  0  0  0
  -25.8234   -0.1688   29.3887 C   0  0  0  0  0  0  0  0  0  0  0  0
  -28.7350   -0.4637   30.1419 C   0  0  0  0  0  0  0  0  0  0  0  0
  -29.8111   -1.3049   30.6008 C   0  0  0  0  0  0  0  0  0  0  0  0
  -23.5152    2.1989   27.5480 C   0  0  0  0  0  0  0  0  0  0  0  0
  -22.7560    1.7136   26.9988 F   0  0  0  0  0  0  0  0  0  0  0  0
  -22.9583    2.7175   28.7505 F   0  0  0  0  0  0  0  0  0  0  0  0
  -23.9536    3.3804   26.9639 F   0  0  0  0  0  0  0  0  0  0  0  0
  -30.8458   -1.3578   30.4533 C   0  0  0  0  0  0  0  0  0  0  0  0
  -31.5034   -0.2569   29.8815 C   0  0  0  0  0  0  0  0  0  0  0  0
  -32.7134   -0.3137   29.2833 C   0  0  0  0  0  0  0  0  0  0  0  0
  -31.6618   -1.8641   31.4051 F   0  0  0  0  0  0  0  0  0  0  0  0
  -33.2479    0.8210   28.5918 C   0  0  0  0  0  0  0  0  0  0  0  0
  -32.4700    1.9511   28.4798 C   0  0  0  0  0  0  0  0  0  0  0  0
  -31.2117    2.0346   29.0301 C   0  0  0  0  0  0  0  0  0  0  0  0
  -30.7291    0.9593   29.6790 C   0  0  0  0  0  0  0  0  0  0  0  0
  -29.4462    0.9817   29.8866 C   0  0  0  0  0  0  0  0  0  0  0  0
  -27.7890   -0.1129   31.3823 C   0  0  0  0  0  0  0  0  0  0  0  0
  -28.1399    0.8090   26.5424 C   0  0  0  0  0  0  0  0  0  0  0  0
  -28.4393    0.8996   25.5765 O   0  0  0  0  0  0  0  0  0  0  0  0
  -27.4105    0.7122   31.9146 C   0  0  0  0  0  0  0  0  0  0  0  0
  -26.7342    0.8954   33.0542 C   0  0  0  0  0  0  0  0  0  0  0  0
  -26.1810   -0.2481   33.6248 C   0  0  0  0  0  0  0  0  0  0  0  0
  -26.3650   -1.4226   32.9460 C   0  0  0  0  0  0  0  0  0  0  0  0
  -27.2477   -1.4951   31.8736 C   0  0  0  0  0  0  0  0  0  0  0  0
  -34.6176    0.7314   28.0479 C   0  0  0  0  0  0  0  0  0  0  0  0
  -35.0887    1.2685   27.2309 O   0  0  0  0  0  0  0  0  0  0  0  0
  -35.3878   -0.1913   28.6710 O   0  0  0  0  0  0  0  0  0  0  0  0
  -29.3211    0.9708   27.3941 O   0  0  0  0  0  0  0  0  0  0  0  0
  -30.4658    1.0824   26.4796 C   0  0  0  0  0  0  0  0  0  0  0  0
  1  2  1  0
  1  8  1  0
  8  9  1  0
  5 10  1  0
 10 11  1  0
 10 12  1  0
 10 13  1  0
  9 14  1  0
 14 15  1  0
 14 17  1  0
  8 22  1  0
 21 22  1  0
  8 23  1  0
  3 24  1  0
 24 25  2  0
 18 31  1  0
 31 32  2  0
 31 33  1  0
 24 34  1  0
 34 35  1  0
  2  3  2  0
  3  4  1  0
  4  5  2  0
  5  6  1  0
  6  7  2  0
  7  2  1  0
 23 26  2  0
 26 27  1  0
 27 28  2  0
 28 29  1  0
 29 30  2  0
 30 23  1  0
 15 16  2  0
 16 18  1  0
 18 19  2  0
 19 20  1  0
 20 21  2  0
 21 15  1  0
M  END

$$$$
