No_2382-gen_results/8p0m/2024-11-27-11-27-31/
     RDKit          3D

 10 11  0  0  0  0  0  0  0  0999 V2000
  -28.1229   -1.3353   28.4874 O   0  0  0  0  0  0  0  0  0  0  0  0
  -27.4806   -0.4044   28.7094 C   0  0  0  0  0  0  0  0  0  0  0  0
  -26.4599   -0.1104   28.0051 N   0  0  0  0  0  0  0  0  0  0  0  0
  -25.8102    0.6598   28.0792 C   0  0  0  0  0  0  0  0  0  0  0  0
  -25.8032    1.6173   29.1338 C   0  0  0  0  0  0  0  0  0  0  0  0
  -27.7918    0.3736   29.9159 N   0  0  0  0  0  0  0  0  0  0  0  0
  -26.9012    1.4172   30.0625 C   0  0  0  0  0  0  0  0  0  0  0  0
  -24.6681    1.1771   27.3531 N   0  0  0  0  0  0  0  0  0  0  0  0
  -24.1226    2.1928   27.9524 C   0  0  0  0  0  0  0  0  0  0  0  0
  -24.7978    2.5482   29.0577 C   0  0  0  0  0  0  0  0  0  0  0  0
  1  2  2  0
  2  3  1  0
  3  4  1  0
  4  5  1  0
  2  6  1  0
  4  8  1  0
  8  9  1  0
  5 10  1  0
  9 10  1  0
  5  7  1  0
  7  6  1  0
M  END

$$$$
