No_2893-gen_results/8p0m/2024-11-27-11-27-31/
     RDKit          3D

 25 27  0  0  0  0  0  0  0  0999 V2000
  -28.0162   -0.8135   28.8779 C   0  0  0  0  0  0  0  0  0  0  0  0
  -28.4690   -0.7850   29.8287 C   0  0  0  0  0  0  0  0  0  0  0  0
  -27.0871    0.2903   28.6377 C   0  0  0  0  0  0  0  0  0  0  0  0
  -26.2516    0.4114   27.4223 C   0  0  0  0  0  0  0  0  0  0  0  0
  -28.3913    0.1041   30.9805 C   0  0  0  0  0  0  0  0  0  0  0  0
  -27.5332    1.1666   30.7866 C   0  0  0  0  0  0  0  0  0  0  0  0
  -26.8281    1.2557   29.6454 C   0  0  0  0  0  0  0  0  0  0  0  0
  -25.7329    1.6893   27.1546 C   0  0  0  0  0  0  0  0  0  0  0  0
  -25.3981    2.5582   28.1598 C   0  0  0  0  0  0  0  0  0  0  0  0
  -26.1221    2.4683   29.3701 C   0  0  0  0  0  0  0  0  0  0  0  0
  -25.8643    3.5352   30.3766 C   0  0  0  0  0  0  0  0  0  0  0  0
  -26.8383    3.7419   31.1095 O   0  0  0  0  0  0  0  0  0  0  0  0
  -24.7167    3.9621   30.6100 O   0  0  0  0  0  0  0  0  0  0  0  0
  -26.5631    4.5814   32.2308 C   0  0  0  0  0  0  0  0  0  0  0  0
  -26.7696    4.1190   33.4833 C   0  0  0  0  0  0  0  0  0  0  0  0
  -26.7479    2.9016   33.6037 N   0  0  0  0  0  0  0  0  0  0  0  0
  -27.7911    2.0149   33.8876 C   0  0  0  0  0  0  0  0  0  0  0  0
  -28.8733    2.4418   33.8285 O   0  0  0  0  0  0  0  0  0  0  0  0
  -27.3877    0.6064   34.2631 C   0  0  0  0  0  0  0  0  0  0  0  0
  -26.6551    0.4060   35.3470 C   0  0  0  0  0  0  0  0  0  0  0  0
  -26.0938   -0.5824   35.7091 C   0  0  0  0  0  0  0  0  0  0  0  0
  -25.6801   -1.5273   34.7604 C   0  0  0  0  0  0  0  0  0  0  0  0
  -26.1868   -1.3055   33.4436 C   0  0  0  0  0  0  0  0  0  0  0  0
  -26.5330    0.0753   33.0795 C   0  0  0  0  0  0  0  0  0  0  0  0
  -26.1740   -2.1633   32.4418 O   0  0  0  0  0  0  0  0  0  0  0  0
 10 11  1  0
 11 12  1  0
 11 13  2  0
 12 14  1  0
 14 15  1  0
 15 16  1  0
 16 17  1  0
 17 18  2  0
 17 19  1  0
 23 25  1  0
  1  2  2  0
  2  5  1  0
  5  6  2  0
  6  7  1  0
  3  1  1  0
 19 20  2  0
 20 21  1  0
 21 22  2  0
 22 23  1  0
 23 24  2  0
 24 19  1  0
  3  4  2  0
  4  8  1  0
  8  9  2  0
  9 10  1  0
 10  7  2  0
  7  3  1  0
M  END

$$$$
