No_2901-gen_results/8p0m/2024-11-27-11-27-31/
     RDKit          3D

 13 13  0  0  0  0  0  0  0  0999 V2000
  -28.0162   -0.8135   28.8779 C   0  0  0  0  0  0  0  0  0  0  0  0
  -28.4690   -0.7850   29.8287 C   0  0  0  0  0  0  0  0  0  0  0  0
  -27.1356    0.2359   28.5352 C   0  0  0  0  0  0  0  0  0  0  0  0
  -26.8745    1.2825   29.3982 C   0  0  0  0  0  0  0  0  0  0  0  0
  -28.3613    0.1987   30.9244 C   0  0  0  0  0  0  0  0  0  0  0  0
  -27.5277    1.2234   30.6356 C   0  0  0  0  0  0  0  0  0  0  0  0
  -26.3879    0.2914   27.2334 C   0  0  0  0  0  0  0  0  0  0  0  0
  -25.3397    0.0456   27.1370 N   0  0  0  0  0  0  0  0  0  0  0  0
  -27.1078    0.5721   26.1727 O   0  0  0  0  0  0  0  0  0  0  0  0
  -24.3207    0.5932   26.8848 C   0  0  0  0  0  0  0  0  0  0  0  0
  -23.1894    0.8717   27.8336 C   0  0  0  0  0  0  0  0  0  0  0  0
  -22.0883    1.6623   27.4739 C   0  0  0  0  0  0  0  0  0  0  0  0
  -21.0808    1.7679   28.4773 C   0  0  0  0  0  0  0  0  0  0  0  0
  3  7  1  0
  7  8  1  0
  7  9  2  0
  8 10  1  0
 10 11  2  3
 11 12  1  0
 12 13  1  0
  1  2  2  0
  2  5  1  0
  5  6  2  0
  6  4  1  0
  4  3  2  0
  3  1  1  0
M  END

$$$$
