No_2552-gen_results/8p0m/2024-11-27-11-27-31/
     RDKit          3D

 25 28  0  0  0  0  0  0  0  0999 V2000
  -28.0162   -0.8135   28.8779 C   0  0  0  0  0  0  0  0  0  0  0  0
  -27.0636   -0.1189   28.6079 C   0  0  0  0  0  0  0  0  0  0  0  0
  -25.7923   -0.4302   29.0761 C   0  0  0  0  0  0  0  0  0  0  0  0
  -25.5756   -1.5654   29.9363 C   0  0  0  0  0  0  0  0  0  0  0  0
  -26.7354   -2.3004   30.2173 C   0  0  0  0  0  0  0  0  0  0  0  0
  -27.9184   -1.9537   29.7629 C   0  0  0  0  0  0  0  0  0  0  0  0
  -26.8968    1.1016   27.7052 C   0  0  0  0  0  0  0  0  0  0  0  0
  -26.6638    2.1999   27.9486 C   0  0  0  0  0  0  0  0  0  0  0  0
  -26.2089    3.1603   27.5711 C   0  0  0  0  0  0  0  0  0  0  0  0
  -25.8603    4.4902   28.1739 C   0  0  0  0  0  0  0  0  0  0  0  0
  -26.0058    4.5289   29.5277 C   0  0  0  0  0  0  0  0  0  0  0  0
  -26.4244    3.4146   30.2049 C   0  0  0  0  0  0  0  0  0  0  0  0
  -26.6864    2.2817   29.5306 C   0  0  0  0  0  0  0  0  0  0  0  0
  -27.2704    0.7978   26.2923 C   0  0  0  0  0  0  0  0  0  0  0  0
  -28.3493    1.0200   25.7542 N   0  0  0  0  0  0  0  0  0  0  0  0
  -26.2923    0.2071   25.5376 N   0  0  0  0  0  0  0  0  0  0  0  0
  -28.1182    0.5345   24.4849 C   0  0  0  0  0  0  0  0  0  0  0  0
  -26.9059    0.0248   24.3938 C   0  0  0  0  0  0  0  0  0  0  0  0
  -29.3561    1.9919   25.9437 C   0  0  0  0  0  0  0  0  0  0  0  0
  -30.5679    1.3966   26.4697 C   0  0  0  0  0  0  0  0  0  0  0  0
  -31.5975    1.8420   26.2417 C   0  0  0  0  0  0  0  0  0  0  0  0
  -29.3005    3.2997   25.7596 C   0  0  0  0  0  0  0  0  0  0  0  0
  -30.4754    4.1053   25.7845 C   0  0  0  0  0  0  0  0  0  0  0  0
  -31.6927    3.3910   26.0571 C   0  0  0  0  0  0  0  0  0  0  0  0
  -25.6011    6.0555   30.2139 Cl  0  0  0  0  0  0  0  0  0  0  0  0
  2  7  1  0
  7 14  1  0
 14 15  1  0
 14 16  2  0
 15 17  1  0
 16 18  1  0
 17 18  2  0
 15 19  1  0
 11 25  1  0
  7  8  1  0
  1  2  2  0
  2  3  1  0
  3  4  2  0
  4  5  1  0
  5  6  2  0
  6  1  1  0
 19 20  2  0
 20 21  1  0
 21 24  2  0
 24 23  1  0
 23 22  2  0
 22 19  1  0
  8  9  2  0
  9 10  1  0
 10 11  2  0
 11 12  1  0
 12 13  2  0
 13  8  1  0
M  END

$$$$
