No_2164-gen_results/8p0m/2024-11-27-11-27-31/
     RDKit          3D

 35 36  0  0  0  0  0  0  0  0999 V2000
  -28.0162   -0.8135   28.8779 C   0  0  0  0  0  0  0  0  0  0  0  0
  -27.0636   -0.1189   28.6079 C   0  0  0  0  0  0  0  0  0  0  0  0
  -26.9716    0.7139   27.5060 C   0  0  0  0  0  0  0  0  0  0  0  0
  -28.1053    0.7744   26.6421 C   0  0  0  0  0  0  0  0  0  0  0  0
  -29.2008    0.1044   27.0527 C   0  0  0  0  0  0  0  0  0  0  0  0
  -29.2096   -0.6029   28.1853 C   0  0  0  0  0  0  0  0  0  0  0  0
  -30.4185    0.1274   26.3886 N   0  0  0  0  0  0  0  0  0  0  0  0
  -31.3229    1.0430   26.5965 C   0  0  0  0  0  0  0  0  0  0  0  0
  -31.3503    1.7902   27.5397 C   0  0  0  0  0  0  0  0  0  0  0  0
  -32.4448    2.8177   27.7139 C   0  0  0  0  0  0  0  0  0  0  0  0
  -33.4173    2.7771   26.7175 C   0  0  0  0  0  0  0  0  0  0  0  0
  -32.3459    1.0250   25.5197 C   0  0  0  0  0  0  0  0  0  0  0  0
  -33.3477    1.9573   25.6527 C   0  0  0  0  0  0  0  0  0  0  0  0
  -30.4943   -0.9051   25.3346 C   0  0  0  0  0  0  0  0  0  0  0  0
  -31.3509   -1.5912   25.2013 O   0  0  0  0  0  0  0  0  0  0  0  0
  -29.4383   -0.8232   24.4185 O   0  0  0  0  0  0  0  0  0  0  0  0
  -28.0096   -1.7059   30.1108 C   0  0  0  0  0  0  0  0  0  0  0  0
  -28.6655   -1.7484   30.9383 O   0  0  0  0  0  0  0  0  0  0  0  0
  -26.8205   -2.4063   30.0706 O   0  0  0  0  0  0  0  0  0  0  0  0
  -26.9491   -3.7993   29.8091 C   0  0  0  0  0  0  0  0  0  0  0  0
  -25.6846   -4.4314   29.4431 C   0  0  0  0  0  0  0  0  0  0  0  0
  -24.6600   -3.5743   29.0925 C   0  0  0  0  0  0  0  0  0  0  0  0
  -24.4291   -2.4663   29.0569 C   0  0  0  0  0  0  0  0  0  0  0  0
  -23.1336   -1.7441   28.7109 C   0  0  0  0  0  0  0  0  0  0  0  0
  -22.7437   -0.4680   29.2447 C   0  0  0  0  0  0  0  0  0  0  0  0
  -21.7384    0.2377   28.6464 C   0  0  0  0  0  0  0  0  0  0  0  0
  -23.4986    0.1126   30.3767 C   0  0  0  0  0  0  0  0  0  0  0  0
  -23.5749    1.5954   30.3990 C   0  0  0  0  0  0  0  0  0  0  0  0
  -22.5395    2.1754   29.8982 F   0  0  0  0  0  0  0  0  0  0  0  0
  -24.4942    2.1262   30.9653 F   0  0  0  0  0  0  0  0  0  0  0  0
  -28.0692   -4.3064   29.8765 O   0  0  0  0  0  0  0  0  0  0  0  0
  -25.7099    1.4673   27.1219 C   0  0  0  0  0  0  0  0  0  0  0  0
  -25.6489    2.1772   26.2563 O   0  0  0  0  0  0  0  0  0  0  0  0
  -24.7045    1.2429   28.0234 O   0  0  0  0  0  0  0  0  0  0  0  0
  -23.4727    1.8075   27.6009 C   0  0  0  0  0  0  0  0  0  0  0  0
  5  7  1  0
  7  8  1  0
  7 14  1  0
 14 15  2  0
 14 16  1  0
  1 17  1  0
 17 18  2  0
 17 19  1  0
 19 20  1  0
 20 21  1  0
 21 22  1  0
 22 23  2  3
 23 24  1  0
 24 25  2  3
 25 26  1  0
 25 27  1  0
 27 28  1  0
 28 29  1  0
 28 30  1  0
 20 31  2  0
  3 32  1  0
 32 33  2  0
 32 34  1  0
 34 35  1  0
  1  2  2  0
  2  3  1  0
  3  4  2  0
  4  5  1  0
  5  6  2  0
  6  1  1  0
  8  9  2  0
  9 10  1  0
 10 11  2  0
 11 13  1  0
 13 12  2  0
 12  8  1  0
M  END

$$$$
