No_2684-gen_results/8p0m/2024-11-27-11-27-31/
     RDKit          3D

 17 18  0  0  0  0  0  0  0  0999 V2000
  -28.0162   -0.8135   28.8779 C   0  0  0  0  0  0  0  0  0  0  0  0
  -27.0636   -0.1189   28.6079 C   0  0  0  0  0  0  0  0  0  0  0  0
  -27.0010    0.6913   27.4910 C   0  0  0  0  0  0  0  0  0  0  0  0
  -25.8548    1.4825   27.0830 C   0  0  0  0  0  0  0  0  0  0  0  0
  -24.9008    1.3894   27.5922 C   0  0  0  0  0  0  0  0  0  0  0  0
  -24.6783    0.5764   28.8299 C   0  0  0  0  0  0  0  0  0  0  0  0
  -25.7704   -0.2051   29.2800 C   0  0  0  0  0  0  0  0  0  0  0  0
  -29.2813   -0.1474   29.2516 C   0  0  0  0  0  0  0  0  0  0  0  0
  -29.7799    0.6317   28.6137 N   0  0  0  0  0  0  0  0  0  0  0  0
  -29.9877   -0.6826   30.2548 O   0  0  0  0  0  0  0  0  0  0  0  0
  -30.9831    1.1562   28.6480 C   0  0  0  0  0  0  0  0  0  0  0  0
  -23.3991    2.3178   27.2600 Cl  0  0  0  0  0  0  0  0  0  0  0  0
  -31.5317    1.7615   27.9928 C   0  0  0  0  0  0  0  0  0  0  0  0
  -32.9193    2.3128   28.1115 C   0  0  0  0  0  0  0  0  0  0  0  0
  -33.5834    1.9355   29.2846 C   0  0  0  0  0  0  0  0  0  0  0  0
  -32.9450    1.1147   30.1554 C   0  0  0  0  0  0  0  0  0  0  0  0
  -31.6782    0.7321   29.9691 C   0  0  0  0  0  0  0  0  0  0  0  0
  1  2  1  0
  1  8  1  0
  8  9  1  0
  8 10  2  0
  9 11  1  0
  5 12  1  0
  2  3  2  0
  3  4  1  0
  4  5  2  0
  5  6  1  0
  6  7  2  0
  7  2  1  0
 11 13  2  0
 13 14  1  0
 14 15  2  0
 15 16  1  0
 16 17  2  0
 17 11  1  0
M  END

$$$$
