No_2681-gen_results/8p0m/2024-11-27-11-27-31/
     RDKit          3D

 35 38  0  0  0  0  0  0  0  0999 V2000
  -28.0162   -0.8135   28.8779 C   0  0  0  0  0  0  0  0  0  0  0  0
  -27.0636   -0.1189   28.6079 C   0  0  0  0  0  0  0  0  0  0  0  0
  -26.9287    1.1713   29.0083 C   0  0  0  0  0  0  0  0  0  0  0  0
  -25.7702    2.0341   28.6884 C   0  0  0  0  0  0  0  0  0  0  0  0
  -24.7141    1.4431   27.9188 C   0  0  0  0  0  0  0  0  0  0  0  0
  -24.8590    0.0783   27.5836 C   0  0  0  0  0  0  0  0  0  0  0  0
  -25.9647   -0.6606   27.9164 C   0  0  0  0  0  0  0  0  0  0  0  0
  -29.1701   -0.2984   28.9471 N   0  0  0  0  0  0  0  0  0  0  0  0
  -29.8110    0.1551   29.8586 C   0  0  0  0  0  0  0  0  0  0  0  0
  -31.1377    0.6648   29.6224 C   0  0  0  0  0  0  0  0  0  0  0  0
  -29.9350   -0.1551   27.7186 C   0  0  0  0  0  0  0  0  0  0  0  0
  -31.0749    0.2742   27.6729 N   0  0  0  0  0  0  0  0  0  0  0  0
  -31.7464    0.7271   28.5548 C   0  0  0  0  0  0  0  0  0  0  0  0
  -23.5117    2.1366   27.6034 C   0  0  0  0  0  0  0  0  0  0  0  0
  -23.1765    2.7646   26.7386 N   0  0  0  0  0  0  0  0  0  0  0  0
  -22.3111    1.7458   28.5153 C   0  0  0  0  0  0  0  0  0  0  0  0
  -22.5016    1.0317   29.5686 O   0  0  0  0  0  0  0  0  0  0  0  0
  -21.0944    2.0839   28.1108 N   0  0  0  0  0  0  0  0  0  0  0  0
  -33.0179    1.1667   28.3833 N   0  0  0  0  0  0  0  0  0  0  0  0
  -24.3110    3.2618   25.9956 C   0  0  0  0  0  0  0  0  0  0  0  0
  -27.8729   -1.8305   29.6894 O   0  0  0  0  0  0  0  0  0  0  0  0
  -33.3754    1.9453   27.4631 C   0  0  0  0  0  0  0  0  0  0  0  0
  -32.6191    2.8179   26.9749 C   0  0  0  0  0  0  0  0  0  0  0  0
  -33.0481    3.7261   25.8461 C   0  0  0  0  0  0  0  0  0  0  0  0
  -34.2746    3.5214   25.3306 C   0  0  0  0  0  0  0  0  0  0  0  0
  -34.7025    1.8422   26.8960 C   0  0  0  0  0  0  0  0  0  0  0  0
  -34.7043    4.3435   24.2174 C   0  0  0  0  0  0  0  0  0  0  0  0
  -35.0798    2.5922   25.8705 C   0  0  0  0  0  0  0  0  0  0  0  0
  -35.7577    4.4473   23.7748 C   0  0  0  0  0  0  0  0  0  0  0  0
  -36.1072    5.2653   22.5751 C   0  0  0  0  0  0  0  0  0  0  0  0
  -35.0495    5.9216   21.9434 C   0  0  0  0  0  0  0  0  0  0  0  0
  -33.7741    5.7724   22.3599 C   0  0  0  0  0  0  0  0  0  0  0  0
  -33.5197    5.0338   23.4999 C   0  0  0  0  0  0  0  0  0  0  0  0
  -33.9867    0.6351   29.3477 C   0  0  0  0  0  0  0  0  0  0  0  0
  -33.6825   -0.1145   30.3707 C   0  0  0  0  0  0  0  0  0  0  0  0
  1  2  1  0
  1  8  1  0
  8  9  1  0
  8 11  1  0
 10 13  1  0
 12 13  1  0
  5 14  1  0
 14 15  2  3
 14 16  1  0
 16 17  1  0
 16 18  1  0
 13 19  1  0
 15 20  1  0
  1 21  2  0
 19 22  1  0
 25 27  1  0
 19 34  1  0
 34 35  1  0
  9 10  1  0
 12 11  1  0
  2  3  2  0
  3  4  1  0
  4  5  2  0
  5  6  1  0
  6  7  2  0
  7  2  1  0
 27 29  2  0
 29 30  1  0
 30 31  2  0
 31 32  1  0
 32 33  2  0
 33 27  1  0
 22 23  2  0
 23 24  1  0
 24 25  2  0
 25 28  1  0
 28 26  2  0
 26 22  1  0
M  END

$$$$
