No_2909-gen_results/8p0m/2024-11-27-11-27-31/
     RDKit          3D

 13 13  0  0  0  0  0  0  0  0999 V2000
  -28.0162   -0.8135   28.8779 C   0  0  0  0  0  0  0  0  0  0  0  0
  -27.0636   -0.1189   28.6079 C   0  0  0  0  0  0  0  0  0  0  0  0
  -26.9716    0.7139   27.5060 C   0  0  0  0  0  0  0  0  0  0  0  0
  -28.1053    0.7744   26.6421 C   0  0  0  0  0  0  0  0  0  0  0  0
  -29.2008    0.1044   27.0527 C   0  0  0  0  0  0  0  0  0  0  0  0
  -29.2096   -0.6029   28.1853 C   0  0  0  0  0  0  0  0  0  0  0  0
  -30.2994    0.2279   26.2570 O   0  0  0  0  0  0  0  0  0  0  0  0
  -25.8064   -0.2145   29.3586 N   0  0  0  0  0  0  0  0  0  0  0  0
  -24.8297   -1.0287   29.0455 C   0  0  0  0  0  0  0  0  0  0  0  0
  -23.6309   -1.0203   29.7548 C   0  0  0  0  0  0  0  0  0  0  0  0
  -22.4499   -1.5162   29.4044 C   0  0  0  0  0  0  0  0  0  0  0  0
  -22.3692   -1.5663   28.0973 C   0  0  0  0  0  0  0  0  0  0  0  0
  -23.5656   -1.2964   27.3481 C   0  0  0  0  0  0  0  0  0  0  0  0
  5  7  1  0
  2  8  1  0
  8  9  1  0
  9 10  2  3
 10 11  1  0
 11 12  2  3
 12 13  1  0
  1  2  2  0
  2  3  1  0
  3  4  2  0
  4  5  1  0
  5  6  2  0
  6  1  1  0
M  END

$$$$
