No_2762-gen_results/8p0m/2024-11-27-11-27-31/
     RDKit          3D

 18 19  0  0  0  0  0  0  0  0999 V2000
  -28.1229   -1.3353   28.4874 O   0  0  0  0  0  0  0  0  0  0  0  0
  -27.0637   -0.8242   28.8687 C   0  0  0  0  0  0  0  0  0  0  0  0
  -26.0496   -0.9362   28.7578 C   0  0  0  0  0  0  0  0  0  0  0  0
  -24.8633   -0.1666   29.1258 C   0  0  0  0  0  0  0  0  0  0  0  0
  -25.1917    0.9808   29.8734 C   0  0  0  0  0  0  0  0  0  0  0  0
  -26.5062    1.2130   30.1127 C   0  0  0  0  0  0  0  0  0  0  0  0
  -27.4860    0.4548   29.7296 C   0  0  0  0  0  0  0  0  0  0  0  0
  -23.5602   -0.4109   28.9213 O   0  0  0  0  0  0  0  0  0  0  0  0
  -22.5258    0.1046   29.6076 C   0  0  0  0  0  0  0  0  0  0  0  0
  -21.2390   -0.2423   29.0120 C   0  0  0  0  0  0  0  0  0  0  0  0
  -20.6038    0.6528   28.2900 O   0  0  0  0  0  0  0  0  0  0  0  0
  -26.8148    2.4873   30.9686 C   0  0  0  0  0  0  0  0  0  0  0  0
  -27.3228    2.4068   31.9917 C   0  0  0  0  0  0  0  0  0  0  0  0
  -27.8022    1.2191   32.6612 C   0  0  0  0  0  0  0  0  0  0  0  0
  -28.3844    1.2550   33.9518 C   0  0  0  0  0  0  0  0  0  0  0  0
  -28.5081    2.4666   34.5727 C   0  0  0  0  0  0  0  0  0  0  0  0
  -28.1089    3.6580   34.0906 C   0  0  0  0  0  0  0  0  0  0  0  0
  -27.4941    3.6797   32.8743 C   0  0  0  0  0  0  0  0  0  0  0  0
  1  2  1  0
  4  8  1  0
  8  9  1  0
  9 10  1  0
 10 11  1  0
  6 12  1  0
 12 13  1  0
  2  3  2  0
  3  4  1  0
  4  5  2  0
  5  6  1  0
  6  7  2  0
  7  2  1  0
 13 14  2  0
 14 15  1  0
 15 16  2  0
 16 17  1  0
 17 18  2  0
 18 13  1  0
M  END

$$$$
