No_2620-gen_results/8p0m/2024-11-27-11-27-31/
     RDKit          3D

 30 33  0  0  0  0  0  0  0  0999 V2000
  -28.0162   -0.8135   28.8779 C   0  0  0  0  0  0  0  0  0  0  0  0
  -28.4690   -0.7850   29.8287 C   0  0  0  0  0  0  0  0  0  0  0  0
  -27.1356    0.2359   28.5352 C   0  0  0  0  0  0  0  0  0  0  0  0
  -26.8745    1.2825   29.3982 C   0  0  0  0  0  0  0  0  0  0  0  0
  -28.3613    0.1987   30.9244 C   0  0  0  0  0  0  0  0  0  0  0  0
  -25.9723    2.3852   29.1040 C   0  0  0  0  0  0  0  0  0  0  0  0
  -27.5118    1.2316   30.6323 C   0  0  0  0  0  0  0  0  0  0  0  0
  -25.4925    3.0751   29.8094 C   0  0  0  0  0  0  0  0  0  0  0  0
  -24.5824    4.1870   29.4674 C   0  0  0  0  0  0  0  0  0  0  0  0
  -24.8968    4.6145   28.2052 C   0  0  0  0  0  0  0  0  0  0  0  0
  -25.9888    2.9930   27.6977 C   0  0  0  0  0  0  0  0  0  0  0  0
  -25.4306    4.0231   27.3052 C   0  0  0  0  0  0  0  0  0  0  0  0
  -26.2659    0.2204   26.8245 Br  0  0  0  0  0  0  0  0  0  0  0  0
  -29.4321   -1.9869   30.3158 C   0  0  0  0  0  0  0  0  0  0  0  0
  -30.3398   -1.8750   29.8544 O   0  0  0  0  0  0  0  0  0  0  0  0
  -28.9523   -2.9475   31.0818 O   0  0  0  0  0  0  0  0  0  0  0  0
  -25.1554    2.6548   31.5471 Cl  0  0  0  0  0  0  0  0  0  0  0  0
  -29.0101    0.1389   32.2593 C   0  0  0  0  0  0  0  0  0  0  0  0
  -29.1736    0.9035   32.9314 N   0  0  0  0  0  0  0  0  0  0  0  0
  -29.6985    0.7905   34.2188 C   0  0  0  0  0  0  0  0  0  0  0  0
  -28.9564    2.3949   32.7361 C   0  0  0  0  0  0  0  0  0  0  0  0
  -29.9391    3.1446   32.6256 C   0  0  0  0  0  0  0  0  0  0  0  0
  -30.7577    3.1355   31.9849 C   0  0  0  0  0  0  0  0  0  0  0  0
  -31.8670    4.1343   31.8685 C   0  0  0  0  0  0  0  0  0  0  0  0
  -31.7957    5.1610   32.7692 C   0  0  0  0  0  0  0  0  0  0  0  0
  -30.7964    5.2639   33.6485 C   0  0  0  0  0  0  0  0  0  0  0  0
  -29.7918    4.3655   33.6210 C   0  0  0  0  0  0  0  0  0  0  0  0
  -30.4845   -0.2633   34.4435 C   0  0  0  0  0  0  0  0  0  0  0  0
  -30.2193   -1.3878   33.7520 N   0  0  0  0  0  0  0  0  0  0  0  0
  -29.5839   -1.2038   32.5940 C   0  0  0  0  0  0  0  0  0  0  0  0
  4  6  1  0
  3 13  1  0
  2 14  1  0
 14 15  1  0
 14 16  2  0
  8 17  1  0
  5 18  1  0
 18 19  1  0
 19 20  1  0
 19 21  1  0
 20 28  1  0
 28 29  1  0
 18 30  1  0
 29 30  1  0
 21 22  1  0
  6  8  2  0
  8  9  1  0
  9 10  2  0
 10 12  1  0
 12 11  2  0
 11  6  1  0
 22 23  2  0
 23 24  1  0
 24 25  2  0
 25 26  1  0
 26 27  2  0
 27 22  1  0
  1  2  2  0
  2  5  1  0
  5  7  2  0
  7  4  1  0
  4  3  2  0
  3  1  1  0
M  END

$$$$
