No_259-gen_results/8p0m/2024-11-27-11-27-31/
     RDKit          3D

 22 23  0  0  0  0  0  0  0  0999 V2000
  -28.0544   -1.0498   28.7246 N   0  0  0  0  0  0  0  0  0  0  0  0
  -27.7460   -0.0733   29.0098 C   0  0  0  0  0  0  0  0  0  0  0  0
  -27.1737    0.7565   28.1070 C   0  0  0  0  0  0  0  0  0  0  0  0
  -26.5770    2.0960   28.3920 C   0  0  0  0  0  0  0  0  0  0  0  0
  -26.5762    2.4337   29.7569 C   0  0  0  0  0  0  0  0  0  0  0  0
  -27.0953    1.5387   30.7175 C   0  0  0  0  0  0  0  0  0  0  0  0
  -27.5988    0.3077   30.4002 C   0  0  0  0  0  0  0  0  0  0  0  0
  -27.7930   -2.1260   29.6217 C   0  0  0  0  0  0  0  0  0  0  0  0
  -28.0537   -3.4621   29.3295 N   0  0  0  0  0  0  0  0  0  0  0  0
  -27.5750   -2.0161   30.9514 F   0  0  0  0  0  0  0  0  0  0  0  0
  -27.1266    0.5248   26.6687 C   0  0  0  0  0  0  0  0  0  0  0  0
  -27.9486    0.8746   25.8201 N   0  0  0  0  0  0  0  0  0  0  0  0
  -25.5964    0.0823   26.0864 Cl  0  0  0  0  0  0  0  0  0  0  0  0
  -28.0282    0.3970   24.6464 C   0  0  0  0  0  0  0  0  0  0  0  0
  -29.1399    1.6175   26.1521 C   0  0  0  0  0  0  0  0  0  0  0  0
  -26.0570    3.5869   30.0973 F   0  0  0  0  0  0  0  0  0  0  0  0
  -30.1849    1.7676   25.3706 C   0  0  0  0  0  0  0  0  0  0  0  0
  -29.0890    0.4893   23.6792 C   0  0  0  0  0  0  0  0  0  0  0  0
  -30.0802    1.3263   24.0892 C   0  0  0  0  0  0  0  0  0  0  0  0
  -31.1863    1.4830   23.1171 C   0  0  0  0  0  0  0  0  0  0  0  0
  -31.4205    1.2249   22.1346 F   0  0  0  0  0  0  0  0  0  0  0  0
  -32.0994    2.5581   23.5996 F   0  0  0  0  0  0  0  0  0  0  0  0
  1  2  1  0
  1  8  2  3
  8  9  1  0
  8 10  1  0
  3 11  1  0
 11 12  1  0
 11 13  1  0
 12 14  1  0
 12 15  1  0
  5 16  1  0
 17 19  1  0
 18 19  1  0
 19 20  1  0
 20 21  1  0
 20 22  1  0
 14 18  1  0
 17 15  1  0
  2  3  2  0
  3  4  1  0
  4  5  2  0
  5  6  1  0
  6  7  2  0
  7  2  1  0
M  END

$$$$
