No_2786-gen_results/8p0m/2024-11-27-11-27-31/
     RDKit          3D

 13 13  0  0  0  0  0  0  0  0999 V2000
  -28.0162   -0.8135   28.8779 C   0  0  0  0  0  0  0  0  0  0  0  0
  -27.0636   -0.1190   28.6079 C   0  0  0  0  0  0  0  0  0  0  0  0
  -27.0010    0.6913   27.4910 C   0  0  0  0  0  0  0  0  0  0  0  0
  -25.8548    1.4825   27.0830 C   0  0  0  0  0  0  0  0  0  0  0  0
  -24.6901    1.4526   27.8807 C   0  0  0  0  0  0  0  0  0  0  0  0
  -24.7379    0.6010   29.0416 C   0  0  0  0  0  0  0  0  0  0  0  0
  -25.8234   -0.1688   29.3887 C   0  0  0  0  0  0  0  0  0  0  0  0
  -28.6427   -0.4541   29.9763 F   0  0  0  0  0  0  0  0  0  0  0  0
  -23.5167    2.1985   27.5779 C   0  0  0  0  0  0  0  0  0  0  0  0
  -22.5234    2.5461   28.7743 Cl  0  0  0  0  0  0  0  0  0  0  0  0
  -23.0952    2.5408   25.9946 Cl  0  0  0  0  0  0  0  0  0  0  0  0
  -27.6288   -2.1458   29.1358 F   0  0  0  0  0  0  0  0  0  0  0  0
  -29.0256   -0.7889   27.9821 F   0  0  0  0  0  0  0  0  0  0  0  0
  1  2  1  0
  1  8  1  0
  5  9  1  0
  9 10  1  0
  9 11  1  0
  1 12  1  0
  1 13  1  0
  2  3  2  0
  3  4  1  0
  4  5  2  0
  5  6  1  0
  6  7  2  0
  7  2  1  0
M  END

$$$$
