No_2345-gen_results/8p0m/2024-11-27-11-27-31/
     RDKit          3D

 10 10  0  0  0  0  0  0  0  0999 V2000
  -28.1493   -0.8198   28.9079 Cl  0  0  0  0  0  0  0  0  0  0  0  0
  -26.9116   -0.0797   28.9452 C   0  0  0  0  0  0  0  0  0  0  0  0
  -26.0490   -0.0718   27.8591 C   0  0  0  0  0  0  0  0  0  0  0  0
  -24.6574   -0.0370   27.9638 C   0  0  0  0  0  0  0  0  0  0  0  0
  -24.0330    0.3795   29.2055 C   0  0  0  0  0  0  0  0  0  0  0  0
  -24.8800    0.4305   30.3096 C   0  0  0  0  0  0  0  0  0  0  0  0
  -26.1988    0.1664   30.1892 C   0  0  0  0  0  0  0  0  0  0  0  0
  -22.6193    0.6104   29.2241 C   0  0  0  0  0  0  0  0  0  0  0  0
  -21.7149   -0.0794   29.5008 N   0  0  0  0  0  0  0  0  0  0  0  0
  -22.2718    1.7897   28.6384 O   0  0  0  0  0  0  0  0  0  0  0  0
  1  2  1  0
  5  8  1  0
  8  9  1  0
  8 10  2  0
  2  3  2  0
  3  4  1  0
  4  5  2  0
  5  6  1  0
  6  7  2  0
  7  2  1  0
M  END

$$$$
