No_2560-gen_results/8p0m/2024-11-27-11-27-31/
     RDKit          3D

 14 15  0  0  0  0  0  0  0  0999 V2000
  -28.0162   -0.8135   28.8779 C   0  0  0  0  0  0  0  0  0  0  0  0
  -28.4690   -0.7850   29.8287 C   0  0  0  0  0  0  0  0  0  0  0  0
  -26.5041   -0.7777   28.8766 C   0  0  0  0  0  0  0  0  0  0  0  0
  -25.8103   -0.8531   30.1028 C   0  0  0  0  0  0  0  0  0  0  0  0
  -27.9906   -0.8916   31.2257 C   0  0  0  0  0  0  0  0  0  0  0  0
  -26.6042   -0.8676   31.2652 C   0  0  0  0  0  0  0  0  0  0  0  0
  -29.9222   -0.7307   29.6847 F   0  0  0  0  0  0  0  0  0  0  0  0
  -24.3803   -0.8299   30.1524 C   0  0  0  0  0  0  0  0  0  0  0  0
  -23.6249   -0.3504   29.1333 C   0  0  0  0  0  0  0  0  0  0  0  0
  -22.1800   -0.2850   29.2648 C   0  0  0  0  0  0  0  0  0  0  0  0
  -21.4366    0.2619   28.1991 C   0  0  0  0  0  0  0  0  0  0  0  0
  -22.0781    1.3338   27.6096 C   0  0  0  0  0  0  0  0  0  0  0  0
  -23.4488    1.5551   27.5495 C   0  0  0  0  0  0  0  0  0  0  0  0
  -24.1806    0.8034   28.4474 C   0  0  0  0  0  0  0  0  0  0  0  0
  2  7  1  0
  4  8  1  0
  8  9  1  0
  9 10  2  0
 10 11  1  0
 11 12  2  0
 12 13  1  0
 13 14  2  0
 14  9  1  0
  1  2  2  0
  2  5  1  0
  5  6  2  0
  6  4  1  0
  4  3  2  0
  3  1  1  0
M  END

$$$$
