No_2687-gen_results/8p0m/2024-11-27-11-27-31/
     RDKit          3D

 16 17  0  0  0  0  0  0  0  0999 V2000
  -28.0162   -0.8135   28.8779 C   0  0  0  0  0  0  0  0  0  0  0  0
  -28.4690   -0.7850   29.8287 C   0  0  0  0  0  0  0  0  0  0  0  0
  -26.5455   -0.8762   28.8500 C   0  0  0  0  0  0  0  0  0  0  0  0
  -25.8041   -1.0324   30.0571 C   0  0  0  0  0  0  0  0  0  0  0  0
  -27.9437   -0.9869   31.2075 C   0  0  0  0  0  0  0  0  0  0  0  0
  -26.5825   -1.0386   31.2231 C   0  0  0  0  0  0  0  0  0  0  0  0
  -24.3810   -1.1082   30.0855 C   0  0  0  0  0  0  0  0  0  0  0  0
  -23.7054    0.0955   29.8440 C   0  0  0  0  0  0  0  0  0  0  0  0
  -22.4285    0.1160   29.2171 C   0  0  0  0  0  0  0  0  0  0  0  0
  -21.8144   -1.1910   29.0752 C   0  0  0  0  0  0  0  0  0  0  0  0
  -23.7994   -2.1889   29.1482 C   0  0  0  0  0  0  0  0  0  0  0  0
  -22.4708   -2.1721   28.9623 N   0  0  0  0  0  0  0  0  0  0  0  0
  -23.8853   -1.5907   31.5913 C   0  0  0  0  0  0  0  0  0  0  0  0
  -24.2306    1.4008   30.3531 C   0  0  0  0  0  0  0  0  0  0  0  0
  -24.1905    1.7764   31.4612 O   0  0  0  0  0  0  0  0  0  0  0  0
  -24.8573    2.0971   29.4028 O   0  0  0  0  0  0  0  0  0  0  0  0
  4  7  1  0
  7  8  1  0
  9 10  1  0
  7 11  1  0
 10 12  1  0
 11 12  1  0
  7 13  1  0
  8 14  1  0
 14 15  2  0
 14 16  1  0
  8  9  1  0
  1  2  2  0
  2  5  1  0
  5  6  2  0
  6  4  1  0
  4  3  2  0
  3  1  1  0
M  END

$$$$
