No_2877-gen_results/8p0m/2024-11-27-11-27-31/
     RDKit          3D

 15 16  0  0  0  0  0  0  0  0999 V2000
  -28.0162   -0.8135   28.8779 C   0  0  0  0  0  0  0  0  0  0  0  0
  -28.4690   -0.7850   29.8287 C   0  0  0  0  0  0  0  0  0  0  0  0
  -27.1356    0.2359   28.5352 C   0  0  0  0  0  0  0  0  0  0  0  0
  -26.3351    0.2900   27.2835 C   0  0  0  0  0  0  0  0  0  0  0  0
  -28.2789    0.0305   30.6941 C   0  0  0  0  0  0  0  0  0  0  0  0
  -27.4578    1.1551   30.6624 C   0  0  0  0  0  0  0  0  0  0  0  0
  -26.7863    1.2369   29.4971 C   0  0  0  0  0  0  0  0  0  0  0  0
  -25.8995    1.5432   26.8798 C   0  0  0  0  0  0  0  0  0  0  0  0
  -24.9519    1.6591   26.0662 C   0  0  0  0  0  0  0  0  0  0  0  0
  -24.1868    2.9351   25.9201 C   0  0  0  0  0  0  0  0  0  0  0  0
  -24.7217    4.0820   26.5686 C   0  0  0  0  0  0  0  0  0  0  0  0
  -25.7394    3.9008   27.4591 C   0  0  0  0  0  0  0  0  0  0  0  0
  -26.3233    2.6615   27.6689 C   0  0  0  0  0  0  0  0  0  0  0  0
  -27.3923    2.6447   28.3889 N   0  0  0  0  0  0  0  0  0  0  0  0
  -28.4163    3.2477   28.7259 C   0  0  0  0  0  0  0  0  0  0  0  0
  3  4  1  0
  4  8  1  0
 13 14  1  0
 14 15  1  0
  8  9  2  0
  9 10  1  0
 10 11  2  0
 11 12  1  0
 12 13  2  0
 13  8  1  0
  1  2  2  0
  2  5  1  0
  5  6  2  0
  6  7  1  0
  7  3  2  0
  3  1  1  0
M  END

$$$$
