No_2456-gen_results/8p0m/2024-11-27-11-27-31/
     RDKit          3D

 17 18  0  0  0  0  0  0  0  0999 V2000
  -28.0162   -0.8135   28.8779 C   0  0  0  0  0  0  0  0  0  0  0  0
  -27.0636   -0.1189   28.6079 C   0  0  0  0  0  0  0  0  0  0  0  0
  -25.7647   -0.3897   29.0360 C   0  0  0  0  0  0  0  0  0  0  0  0
  -25.5296   -1.5302   29.9014 C   0  0  0  0  0  0  0  0  0  0  0  0
  -26.6888   -2.2893   30.1810 C   0  0  0  0  0  0  0  0  0  0  0  0
  -27.8727   -1.9508   29.7373 C   0  0  0  0  0  0  0  0  0  0  0  0
  -24.6993    0.3604   28.7753 F   0  0  0  0  0  0  0  0  0  0  0  0
  -28.9352   -2.7184   30.0509 F   0  0  0  0  0  0  0  0  0  0  0  0
  -27.1383    1.1380   27.7288 C   0  0  0  0  0  0  0  0  0  0  0  0
  -26.6532    1.1113   26.4709 C   0  0  0  0  0  0  0  0  0  0  0  0
  -25.8707    0.1783   26.0617 C   0  0  0  0  0  0  0  0  0  0  0  0
  -25.4126    0.1058   24.6596 C   0  0  0  0  0  0  0  0  0  0  0  0
  -28.0434    2.1335   28.2778 C   0  0  0  0  0  0  0  0  0  0  0  0
  -28.2425    3.2021   27.5376 C   0  0  0  0  0  0  0  0  0  0  0  0
  -26.8575    2.2822   25.7784 C   0  0  0  0  0  0  0  0  0  0  0  0
  -27.6423    3.3771   26.2240 C   0  0  0  0  0  0  0  0  0  0  0  0
  -26.2880   -1.2015   25.7739 C   0  0  0  0  0  0  0  0  0  0  0  0
  3  7  1  0
  6  8  1  0
  2  9  1  0
 10 11  1  0
 11 12  2  0
 11 17  1  0
  1  2  2  0
  2  3  1  0
  3  4  2  0
  4  5  1  0
  5  6  2  0
  6  1  1  0
  9 10  2  0
 10 15  1  0
 15 16  2  0
 16 14  1  0
 14 13  2  0
 13  9  1  0
M  END

$$$$
