No_2325-gen_results/8p0m/2024-11-27-11-27-31/
     RDKit          3D

 14 16  0  0  0  0  0  0  0  0999 V2000
  -28.0162   -0.8135   28.8779 C   0  0  0  0  0  0  0  0  0  0  0  0
  -27.0636   -0.1189   28.6079 C   0  0  0  0  0  0  0  0  0  0  0  0
  -25.7923   -0.4302   29.0761 C   0  0  0  0  0  0  0  0  0  0  0  0
  -25.5756   -1.5654   29.9363 C   0  0  0  0  0  0  0  0  0  0  0  0
  -24.3722   -1.9422   30.4466 C   0  0  0  0  0  0  0  0  0  0  0  0
  -27.9614   -1.9130   29.8182 C   0  0  0  0  0  0  0  0  0  0  0  0
  -26.7388   -2.3048   30.3196 C   0  0  0  0  0  0  0  0  0  0  0  0
  -23.2164   -0.9664   30.3235 C   0  0  0  0  0  0  0  0  0  0  0  0
  -23.3919    0.1486   29.3972 C   0  0  0  0  0  0  0  0  0  0  0  0
  -24.6334    0.4303   28.8389 C   0  0  0  0  0  0  0  0  0  0  0  0
  -24.6507    1.5727   27.9615 C   0  0  0  0  0  0  0  0  0  0  0  0
  -23.5778    1.7960   27.0915 C   0  0  0  0  0  0  0  0  0  0  0  0
  -22.2570    1.5995   27.7248 C   0  0  0  0  0  0  0  0  0  0  0  0
  -22.1369    0.6986   28.8462 C   0  0  0  0  0  0  0  0  0  0  0  0
  4  5  2  0
  5  8  1  0
  8  9  2  0
 10  3  2  0
  9 10  1  0
 10 11  1  0
 11 12  2  0
 12 13  1  0
 13 14  2  0
 14  9  1  0
  1  2  2  0
  2  3  1  0
  3  4  1  0
  4  7  1  0
  7  6  2  0
  6  1  1  0
M  END

$$$$
