No_2024-gen_results/8p0m/2024-11-27-11-27-31/
     RDKit          3D

 23 25  0  0  0  0  0  0  0  0999 V2000
  -28.0162   -0.8135   28.8779 C   0  0  0  0  0  0  0  0  0  0  0  0
  -28.4690   -0.7850   29.8287 C   0  0  0  0  0  0  0  0  0  0  0  0
  -27.1356    0.2359   28.5352 C   0  0  0  0  0  0  0  0  0  0  0  0
  -26.8050    1.0509   29.2763 C   0  0  0  0  0  0  0  0  0  0  0  0
  -25.8146    2.2032   28.9592 C   0  0  0  0  0  0  0  0  0  0  0  0
  -28.2509    0.1046   30.9594 C   0  0  0  0  0  0  0  0  0  0  0  0
  -27.3176    1.1647   30.6285 C   0  0  0  0  0  0  0  0  0  0  0  0
  -25.2314    2.8324   29.6908 C   0  0  0  0  0  0  0  0  0  0  0  0
  -26.2012    2.9305   27.7563 C   0  0  0  0  0  0  0  0  0  0  0  0
  -25.3406    3.9940   27.2807 C   0  0  0  0  0  0  0  0  0  0  0  0
  -24.2990    3.9810   29.3996 C   0  0  0  0  0  0  0  0  0  0  0  0
  -24.4828    4.6432   28.1487 C   0  0  0  0  0  0  0  0  0  0  0  0
  -26.5280    0.1584   27.0960 C   0  0  0  0  0  0  0  0  0  0  0  0
  -27.3334    0.4467   25.9737 C   0  0  0  0  0  0  0  0  0  0  0  0
  -28.5786    0.9032   26.1313 C   0  0  0  0  0  0  0  0  0  0  0  0
  -29.2696    1.0152   25.2847 C   0  0  0  0  0  0  0  0  0  0  0  0
  -26.8927    0.1801   24.7211 C   0  0  0  0  0  0  0  0  0  0  0  0
  -27.6471    0.3865   23.6224 C   0  0  0  0  0  0  0  0  0  0  0  0
  -28.9145    0.8202   23.8914 C   0  0  0  0  0  0  0  0  0  0  0  0
  -25.1715   -0.2843   27.0129 C   0  0  0  0  0  0  0  0  0  0  0  0
  -30.7788    1.5851   25.3742 C   0  0  0  0  0  0  0  0  0  0  0  0
  -31.2409    2.3106   25.9267 O   0  0  0  0  0  0  0  0  0  0  0  0
  -31.6179    0.7647   24.5990 O   0  0  0  0  0  0  0  0  0  0  0  0
  4  5  1  0
  3 13  1  0
 13 14  1  0
 13 20  1  0
 16 21  1  0
 21 22  2  0
 21 23  1  0
  1  2  2  0
  2  6  1  0
  6  7  2  0
  7  4  1  0
  4  3  2  0
  3  1  1  0
  5  8  2  0
  8 11  1  0
 11 12  2  0
 12 10  1  0
 10  9  2  0
  9  5  1  0
 14 15  2  0
 15 16  1  0
 16 19  2  0
 19 18  1  0
 18 17  2  0
 17 14  1  0
M  END

$$$$
