No_2350-gen_results/8p0m/2024-11-27-11-27-31/
     RDKit          3D

 12 13  0  0  0  0  0  0  0  0999 V2000
  -28.0727   -1.2542   28.5316 F   0  0  0  0  0  0  0  0  0  0  0  0
  -27.0607   -0.6291   28.8721 C   0  0  0  0  0  0  0  0  0  0  0  0
  -27.1759    0.6153   29.3693 C   0  0  0  0  0  0  0  0  0  0  0  0
  -25.7305   -1.2692   28.7241 C   0  0  0  0  0  0  0  0  0  0  0  0
  -24.5526   -0.5078   29.0132 C   0  0  0  0  0  0  0  0  0  0  0  0
  -25.9545    1.3798   29.6888 C   0  0  0  0  0  0  0  0  0  0  0  0
  -24.6583    0.8010   29.5182 C   0  0  0  0  0  0  0  0  0  0  0  0
  -23.2083   -1.0227   28.9061 C   0  0  0  0  0  0  0  0  0  0  0  0
  -22.1145   -0.1156   28.9197 C   0  0  0  0  0  0  0  0  0  0  0  0
  -22.2607    1.2271   29.1422 C   0  0  0  0  0  0  0  0  0  0  0  0
  -23.4864    1.6605   29.5583 C   0  0  0  0  0  0  0  0  0  0  0  0
  -20.8679   -0.5818   28.6904 O   0  0  0  0  0  0  0  0  0  0  0  0
  1  2  1  0
  9 12  1  0
  2  3  2  0
  3  6  1  0
  6  7  2  0
  5  4  2  0
  4  2  1  0
  5  7  1  0
  7 11  1  0
 11 10  2  0
 10  9  1  0
  9  8  2  0
  8  5  1  0
M  END

$$$$
