No_2002-gen_results/8p0m/2024-11-27-11-27-31/
     RDKit          3D

 22 24  0  0  0  0  0  0  0  0999 V2000
  -28.0162   -0.8135   28.8779 C   0  0  0  0  0  0  0  0  0  0  0  0
  -27.0636   -0.1189   28.6079 C   0  0  0  0  0  0  0  0  0  0  0  0
  -27.0010    0.6913   27.4910 C   0  0  0  0  0  0  0  0  0  0  0  0
  -25.7770    1.0214   26.9135 C   0  0  0  0  0  0  0  0  0  0  0  0
  -24.6982    0.6762   27.4835 C   0  0  0  0  0  0  0  0  0  0  0  0
  -24.6104   -0.1076   28.6413 C   0  0  0  0  0  0  0  0  0  0  0  0
  -25.8358   -0.5515   29.0863 C   0  0  0  0  0  0  0  0  0  0  0  0
  -28.6241   -0.4090   30.1849 C   0  0  0  0  0  0  0  0  0  0  0  0
  -28.4283    0.6841   30.6221 C   0  0  0  0  0  0  0  0  0  0  0  0
  -28.9807    1.0427   31.9689 C   0  0  0  0  0  0  0  0  0  0  0  0
  -28.7787    2.3436   32.5792 C   0  0  0  0  0  0  0  0  0  0  0  0
  -28.1725    3.0868   32.1432 C   0  0  0  0  0  0  0  0  0  0  0  0
  -27.4234    2.9111   30.8359 C   0  0  0  0  0  0  0  0  0  0  0  0
  -27.5481    1.6856   30.1875 C   0  0  0  0  0  0  0  0  0  0  0  0
  -23.2916   -0.4916   29.1816 C   0  0  0  0  0  0  0  0  0  0  0  0
  -23.1602   -1.4303   30.0856 C   0  0  0  0  0  0  0  0  0  0  0  0
  -22.1379    0.3039   28.7450 C   0  0  0  0  0  0  0  0  0  0  0  0
  -22.1358    1.3994   27.9413 C   0  0  0  0  0  0  0  0  0  0  0  0
  -23.3943    1.6375   27.1965 C   0  0  0  0  0  0  0  0  0  0  0  0
  -29.5518   -1.4655   30.8104 C   0  0  0  0  0  0  0  0  0  0  0  0
  -29.6849   -2.5239   30.3909 O   0  0  0  0  0  0  0  0  0  0  0  0
  -30.1191   -1.1177   32.0363 N   0  0  0  0  0  0  0  0  0  0  0  0
  1  2  1  0
  1  8  1  0
  8  9  1  0
  8 20  1  0
 20 21  2  0
 20 22  1  0
 16 15  1  0
  9 10  2  0
 10 11  1  0
 11 12  2  0
 12 13  1  0
 13 14  2  0
 14  9  1  0
  2  3  2  0
  3  4  1  0
  4  5  2  0
  6  7  2  0
  7  2  1  0
  5  6  1  0
  6 15  1  0
 15 17  2  0
 17 18  1  0
 18 19  2  0
 19  5  1  0
M  END

$$$$
