No_2966-gen_results/8p0m/2024-11-27-11-27-31/
     RDKit          3D

 13 14  0  0  0  0  0  0  0  0999 V2000
  -28.0162   -0.8135   28.8779 C   0  0  0  0  0  0  0  0  0  0  0  0
  -28.4690   -0.7850   29.8287 C   0  0  0  0  0  0  0  0  0  0  0  0
  -26.5042   -0.7777   28.8766 C   0  0  0  0  0  0  0  0  0  0  0  0
  -25.8103   -0.8531   30.1028 C   0  0  0  0  0  0  0  0  0  0  0  0
  -27.9906   -0.8916   31.2257 C   0  0  0  0  0  0  0  0  0  0  0  0
  -24.3976   -0.8364   30.1775 C   0  0  0  0  0  0  0  0  0  0  0  0
  -26.5754   -0.8899   31.2661 C   0  0  0  0  0  0  0  0  0  0  0  0
  -23.7964    0.4357   29.9090 C   0  0  0  0  0  0  0  0  0  0  0  0
  -22.4944    0.4757   29.3632 C   0  0  0  0  0  0  0  0  0  0  0  0
  -22.1323   -0.2466   28.5311 C   0  0  0  0  0  0  0  0  0  0  0  0
  -22.5104   -1.6649   28.8180 C   0  0  0  0  0  0  0  0  0  0  0  0
  -23.8169   -1.8123   29.1042 C   0  0  0  0  0  0  0  0  0  0  0  0
  -23.8176   -1.3291   31.6039 C   0  0  0  0  0  0  0  0  0  0  0  0
  4  6  1  0
  6  8  1  0
  9 10  1  0
  6 12  1  0
 11 12  1  0
  6 13  1  0
  8  9  1  0
 10 11  1  0
  1  2  2  0
  2  5  1  0
  5  7  2  0
  7  4  1  0
  4  3  2  0
  3  1  1  0
M  END

$$$$
