No_2682-gen_results/8p0m/2024-11-27-11-27-31/
     RDKit          3D

 13 13  0  0  0  0  0  0  0  0999 V2000
  -28.0162   -0.8135   28.8779 C   0  0  0  0  0  0  0  0  0  0  0  0
  -27.0636   -0.1190   28.6079 C   0  0  0  0  0  0  0  0  0  0  0  0
  -27.0010    0.6913   27.4910 C   0  0  0  0  0  0  0  0  0  0  0  0
  -25.8548    1.4825   27.0830 C   0  0  0  0  0  0  0  0  0  0  0  0
  -24.6901    1.4526   27.8807 C   0  0  0  0  0  0  0  0  0  0  0  0
  -24.7379    0.6010   29.0416 C   0  0  0  0  0  0  0  0  0  0  0  0
  -25.8234   -0.1688   29.3887 C   0  0  0  0  0  0  0  0  0  0  0  0
  -27.7845   -2.0034   29.3006 F   0  0  0  0  0  0  0  0  0  0  0  0
  -28.8418   -0.2261   29.8572 F   0  0  0  0  0  0  0  0  0  0  0  0
  -23.5194    2.2219   27.5818 C   0  0  0  0  0  0  0  0  0  0  0  0
  -23.5378    3.1427   26.8046 O   0  0  0  0  0  0  0  0  0  0  0  0
  -22.2516    1.6662   27.8377 O   0  0  0  0  0  0  0  0  0  0  0  0
  -28.9533   -0.8090   27.8579 F   0  0  0  0  0  0  0  0  0  0  0  0
  1  2  1  0
  1  8  1  0
  1  9  1  0
  5 10  1  0
 10 11  2  0
 10 12  1  0
  1 13  1  0
  2  3  2  0
  3  4  1  0
  4  5  2  0
  5  6  1  0
  6  7  2  0
  7  2  1  0
M  END

$$$$
