No_2937-gen_results/8p0m/2024-11-27-11-27-31/
     RDKit          3D

 29 31  0  0  0  0  0  0  0  0999 V2000
  -28.1229   -1.3353   28.4874 O   0  0  0  0  0  0  0  0  0  0  0  0
  -27.4806   -0.4044   28.7094 C   0  0  0  0  0  0  0  0  0  0  0  0
  -26.4599   -0.1104   28.0051 N   0  0  0  0  0  0  0  0  0  0  0  0
  -25.4297    0.8788   28.3572 C   0  0  0  0  0  0  0  0  0  0  0  0
  -25.6985    1.5873   29.3706 C   0  0  0  0  0  0  0  0  0  0  0  0
  -27.6883    0.2536   30.0459 N   0  0  0  0  0  0  0  0  0  0  0  0
  -26.7237    1.2439   30.3605 C   0  0  0  0  0  0  0  0  0  0  0  0
  -24.1345    0.4870   28.0486 C   0  0  0  0  0  0  0  0  0  0  0  0
  -23.1566   -0.1499   28.8388 C   0  0  0  0  0  0  0  0  0  0  0  0
  -21.7898   -0.1527   28.5755 C   0  0  0  0  0  0  0  0  0  0  0  0
  -21.2236    0.8715   27.8152 C   0  0  0  0  0  0  0  0  0  0  0  0
  -22.1585    1.8909   27.4031 C   0  0  0  0  0  0  0  0  0  0  0  0
  -23.4907    1.7441   27.4237 C   0  0  0  0  0  0  0  0  0  0  0  0
  -28.7123   -0.2547   30.7325 C   0  0  0  0  0  0  0  0  0  0  0  0
  -23.5816   -1.4560   29.5181 C   0  0  0  0  0  0  0  0  0  0  0  0
  -24.2740    2.7337   26.7380 C   0  0  0  0  0  0  0  0  0  0  0  0
  -27.0465    2.1837   31.7091 Cl  0  0  0  0  0  0  0  0  0  0  0  0
  -23.7493   -1.4526   30.7667 O   0  0  0  0  0  0  0  0  0  0  0  0
  -23.7248   -2.4820   28.8103 O   0  0  0  0  0  0  0  0  0  0  0  0
  -24.6429    3.8013   27.3130 N   0  0  0  0  0  0  0  0  0  0  0  0
  -25.3052    4.8668   26.7526 C   0  0  0  0  0  0  0  0  0  0  0  0
  -24.7722    2.3666   25.6836 O   0  0  0  0  0  0  0  0  0  0  0  0
  -26.4869    5.1790   27.2625 C   0  0  0  0  0  0  0  0  0  0  0  0
  -27.6434    4.4509   27.1792 C   0  0  0  0  0  0  0  0  0  0  0  0
  -28.8484    4.7662   27.8105 C   0  0  0  0  0  0  0  0  0  0  0  0
  -29.9553    3.8866   27.8328 C   0  0  0  0  0  0  0  0  0  0  0  0
  -29.7528    2.6233   27.2473 C   0  0  0  0  0  0  0  0  0  0  0  0
  -28.5743    2.2550   26.6426 C   0  0  0  0  0  0  0  0  0  0  0  0
  -27.4780    3.1985   26.6557 C   0  0  0  0  0  0  0  0  0  0  0  0
  1  2  2  0
  2  3  1  0
  3  4  1  0
  4  5  1  0
  2  6  1  0
  5  7  1  0
  6  7  1  0
  4  8  1  0
  6 14  1  0
  9 15  1  0
 13 16  1  0
  7 17  1  0
 15 18  1  0
 15 19  2  0
 16 20  1  0
 20 21  2  3
 16 22  2  0
 21 23  1  0
 23 24  1  0
 24 25  2  0
 25 26  1  0
 26 27  2  0
 27 28  1  0
 28 29  2  0
 29 24  1  0
  8  9  2  0
  9 10  1  0
 10 11  2  0
 11 12  1  0
 12 13  2  0
 13  8  1  0
M  END

$$$$
