No_2194-gen_results/8p0m/2024-11-27-11-27-31/
     RDKit          3D

 35 38  0  0  0  0  0  0  0  0999 V2000
  -28.0162   -0.8135   28.8779 C   0  0  0  0  0  0  0  0  0  0  0  0
  -27.0636   -0.1190   28.6079 C   0  0  0  0  0  0  0  0  0  0  0  0
  -25.7647   -0.3897   29.0360 C   0  0  0  0  0  0  0  0  0  0  0  0
  -25.5296   -1.5302   29.9014 C   0  0  0  0  0  0  0  0  0  0  0  0
  -26.6577   -2.2915   30.2035 C   0  0  0  0  0  0  0  0  0  0  0  0
  -27.8548   -1.9555   29.7630 C   0  0  0  0  0  0  0  0  0  0  0  0
  -24.5349    0.4128   28.7431 C   0  0  0  0  0  0  0  0  0  0  0  0
  -24.4835    1.2431   27.7398 C   0  0  0  0  0  0  0  0  0  0  0  0
  -23.2788    1.9376   27.4159 C   0  0  0  0  0  0  0  0  0  0  0  0
  -22.0791    1.6508   28.0213 C   0  0  0  0  0  0  0  0  0  0  0  0
  -23.2748    0.1108   29.4386 C   0  0  0  0  0  0  0  0  0  0  0  0
  -22.0811    0.7712   29.0650 C   0  0  0  0  0  0  0  0  0  0  0  0
  -29.0091   -2.7990   30.1893 C   0  0  0  0  0  0  0  0  0  0  0  0
  -29.3533   -2.7445   31.2546 O   0  0  0  0  0  0  0  0  0  0  0  0
  -29.3680   -3.7557   29.4170 O   0  0  0  0  0  0  0  0  0  0  0  0
  -23.3281    2.8334   26.3727 O   0  0  0  0  0  0  0  0  0  0  0  0
  -24.5922    3.0758   25.8433 C   0  0  0  0  0  0  0  0  0  0  0  0
  -27.1318    0.9730   27.7825 F   0  0  0  0  0  0  0  0  0  0  0  0
  -29.2720   -0.6057   28.4840 O   0  0  0  0  0  0  0  0  0  0  0  0
  -29.5590    0.4994   27.7918 C   0  0  0  0  0  0  0  0  0  0  0  0
  -30.2927    1.3374   28.6045 C   0  0  0  0  0  0  0  0  0  0  0  0
  -30.8571    0.9980   29.6094 O   0  0  0  0  0  0  0  0  0  0  0  0
  -30.3814    2.6693   28.2180 N   0  0  0  0  0  0  0  0  0  0  0  0
  -31.0540    3.7075   28.9919 C   0  0  0  0  0  0  0  0  0  0  0  0
  -29.6826    3.1342   27.0540 C   0  0  0  0  0  0  0  0  0  0  0  0
  -31.7459    4.4500   28.4139 C   0  0  0  0  0  0  0  0  0  0  0  0
  -30.4223    4.2580   26.3473 C   0  0  0  0  0  0  0  0  0  0  0  0
  -31.1202    5.2076   27.1614 C   0  0  0  0  0  0  0  0  0  0  0  0
  -30.1161    0.1883   26.4543 C   0  0  0  0  0  0  0  0  0  0  0  0
  -31.3940   -0.4219   26.3856 C   0  0  0  0  0  0  0  0  0  0  0  0
  -31.7919   -0.8502   25.1917 C   0  0  0  0  0  0  0  0  0  0  0  0
  -30.9448   -0.7647   24.0471 C   0  0  0  0  0  0  0  0  0  0  0  0
  -29.6901   -0.1989   24.1142 C   0  0  0  0  0  0  0  0  0  0  0  0
  -29.2665    0.3063   25.3943 C   0  0  0  0  0  0  0  0  0  0  0  0
  -33.0687    4.9640   28.7198 C   0  0  0  0  0  0  0  0  0  0  0  0
  3  7  1  0
  6 13  1  0
 13 14  1  0
 13 15  2  0
  9 16  1  0
 16 17  1  0
  2 18  1  0
  1 19  1  0
 19 20  1  0
 20 21  1  0
 21 22  2  0
 21 23  1  0
 23 24  1  0
 23 25  1  0
 26 28  1  0
 27 28  1  0
 20 29  1  0
 26 35  1  0
 24 26  1  0
 27 25  1  0
  7  8  2  0
  8  9  1  0
  9 10  2  0
 10 12  1  0
 12 11  2  0
 11  7  1  0
  1  2  2  0
  2  3  1  0
  3  4  2  0
  4  5  1  0
  5  6  2  0
  6  1  1  0
 29 30  2  0
 30 31  1  0
 31 32  2  0
 32 33  1  0
 33 34  2  0
 34 29  1  0
M  END

$$$$
