No_2517-gen_results/8p0m/2024-11-27-11-27-31/
     RDKit          3D

 14 14  0  0  0  0  0  0  0  0999 V2000
  -28.0162   -0.8135   28.8779 C   0  0  0  0  0  0  0  0  0  0  0  0
  -27.0636   -0.1189   28.6079 C   0  0  0  0  0  0  0  0  0  0  0  0
  -27.0010    0.6913   27.4910 C   0  0  0  0  0  0  0  0  0  0  0  0
  -25.8548    1.4825   27.0830 C   0  0  0  0  0  0  0  0  0  0  0  0
  -24.6901    1.4526   27.8807 C   0  0  0  0  0  0  0  0  0  0  0  0
  -24.7379    0.6010   29.0416 C   0  0  0  0  0  0  0  0  0  0  0  0
  -25.8234   -0.1688   29.3887 C   0  0  0  0  0  0  0  0  0  0  0  0
  -29.2150   -0.1725   29.0132 N   0  0  0  0  0  0  0  0  0  0  0  0
  -30.2463   -0.7735   29.6388 C   0  0  0  0  0  0  0  0  0  0  0  0
  -23.5190    2.2034   27.5550 C   0  0  0  0  0  0  0  0  0  0  0  0
  -22.5145    2.1984   28.3585 N   0  0  0  0  0  0  0  0  0  0  0  0
  -23.4844    2.8071   26.4255 O   0  0  0  0  0  0  0  0  0  0  0  0
  -30.4198   -0.8059   30.8424 C   0  0  0  0  0  0  0  0  0  0  0  0
  -31.5240   -1.4638   31.5601 C   0  0  0  0  0  0  0  0  0  0  0  0
  1  2  1  0
  1  8  1  0
  8  9  1  0
  5 10  1  0
 10 11  1  0
 10 12  2  0
  9 13  2  3
 13 14  1  0
  2  3  2  0
  3  4  1  0
  4  5  2  0
  5  6  1  0
  6  7  2  0
  7  2  1  0
M  END

$$$$
