No_210-gen_results/8p0m/2024-11-27-11-27-31/
     RDKit          3D

 25 26  0  0  0  0  0  0  0  0999 V2000
  -28.0162   -0.8135   28.8779 C   0  0  0  0  0  0  0  0  0  0  0  0
  -27.0636   -0.1190   28.6079 C   0  0  0  0  0  0  0  0  0  0  0  0
  -26.9287    1.1713   29.0083 C   0  0  0  0  0  0  0  0  0  0  0  0
  -27.9560    1.7411   29.7840 C   0  0  0  0  0  0  0  0  0  0  0  0
  -29.0569   -0.3271   29.7466 C   0  0  0  0  0  0  0  0  0  0  0  0
  -28.9828    0.9722   30.1516 C   0  0  0  0  0  0  0  0  0  0  0  0
  -26.0345   -0.5985   27.8629 F   0  0  0  0  0  0  0  0  0  0  0  0
  -30.0735    1.5046   31.0074 C   0  0  0  0  0  0  0  0  0  0  0  0
  -29.8345    2.4576   31.7347 N   0  0  0  0  0  0  0  0  0  0  0  0
  -31.1807    0.9222   30.9546 O   0  0  0  0  0  0  0  0  0  0  0  0
  -30.8410    3.0785   32.6239 C   0  0  0  0  0  0  0  0  0  0  0  0
  -30.4801    4.1280   33.1040 C   0  0  0  0  0  0  0  0  0  0  0  0
  -31.3682    4.9398   34.0295 C   0  0  0  0  0  0  0  0  0  0  0  0
  -32.6540    4.3453   34.2195 C   0  0  0  0  0  0  0  0  0  0  0  0
  -32.9445    3.1479   33.5912 C   0  0  0  0  0  0  0  0  0  0  0  0
  -32.0322    2.4914   32.7768 C   0  0  0  0  0  0  0  0  0  0  0  0
  -34.1554    2.3517   33.7595 C   0  0  0  0  0  0  0  0  0  0  0  0
  -34.9938    2.7394   34.6589 N   0  0  0  0  0  0  0  0  0  0  0  0
  -34.2851    1.2075   33.3028 O   0  0  0  0  0  0  0  0  0  0  0  0
  -36.2310    2.0431   34.9240 C   0  0  0  0  0  0  0  0  0  0  0  0
  -37.1323    2.3890   35.4640 C   0  0  0  0  0  0  0  0  0  0  0  0
  -38.3513    1.5671   35.7121 C   0  0  0  0  0  0  0  0  0  0  0  0
  -39.5024    1.9805   36.3904 C   0  0  0  0  0  0  0  0  0  0  0  0
  -39.5216    3.3173   36.8464 C   0  0  0  0  0  0  0  0  0  0  0  0
  -38.4467    4.1675   36.6439 C   0  0  0  0  0  0  0  0  0  0  0  0
  2  7  1  0
  6  8  1  0
  8  9  1  0
  8 10  2  0
  9 11  1  0
 15 17  1  0
 17 18  1  0
 17 19  2  0
 18 20  1  0
 20 21  2  3
 21 22  1  0
 22 23  1  0
 23 24  2  3
 24 25  1  0
 11 12  2  0
 12 13  1  0
 13 14  2  0
 14 15  1  0
 15 16  2  0
 16 11  1  0
  1  2  2  0
  2  3  1  0
  3  4  2  0
  4  6  1  0
  6  5  2  0
  5  1  1  0
M  END

$$$$
