No_2760-gen_results/8p0m/2024-11-27-11-27-31/
     RDKit          3D

 31 34  0  0  0  0  0  0  0  0999 V2000
  -28.0727   -1.2542   28.5316 F   0  0  0  0  0  0  0  0  0  0  0  0
  -27.0607   -0.6291   28.8721 C   0  0  0  0  0  0  0  0  0  0  0  0
  -26.3579   -0.0711   28.0115 C   0  0  0  0  0  0  0  0  0  0  0  0
  -25.0715    0.5530   28.2555 C   0  0  0  0  0  0  0  0  0  0  0  0
  -24.5772    0.4803   29.5696 C   0  0  0  0  0  0  0  0  0  0  0  0
  -25.3317   -0.2027   30.5060 C   0  0  0  0  0  0  0  0  0  0  0  0
  -26.4956   -0.7357   30.1606 C   0  0  0  0  0  0  0  0  0  0  0  0
  -24.2552    1.2560   27.2599 C   0  0  0  0  0  0  0  0  0  0  0  0
  -24.0079    2.4028   27.2818 C   0  0  0  0  0  0  0  0  0  0  0  0
  -24.5013    3.2425   28.3967 C   0  0  0  0  0  0  0  0  0  0  0  0
  -24.9740    4.5550   28.0037 N   0  0  0  0  0  0  0  0  0  0  0  0
  -24.3326    3.0991   29.5946 O   0  0  0  0  0  0  0  0  0  0  0  0
  -25.2656    4.8656   26.6989 C   0  0  0  0  0  0  0  0  0  0  0  0
  -25.5217    5.4704   28.9920 C   0  0  0  0  0  0  0  0  0  0  0  0
  -26.9189    5.4468   28.9612 C   0  0  0  0  0  0  0  0  0  0  0  0
  -27.4349    6.0579   27.7177 C   0  0  0  0  0  0  0  0  0  0  0  0
  -26.8910    5.1416   26.5478 C   0  0  0  0  0  0  0  0  0  0  0  0
  -27.4642    6.3438   30.1395 C   0  0  0  0  0  0  0  0  0  0  0  0
  -28.3724    5.7674   30.8308 C   0  0  0  0  0  0  0  0  0  0  0  0
  -28.5670    4.4877   30.7223 C   0  0  0  0  0  0  0  0  0  0  0  0
  -28.0922    3.6741   29.6373 C   0  0  0  0  0  0  0  0  0  0  0  0
  -28.4008    2.2769   29.5294 C   0  0  0  0  0  0  0  0  0  0  0  0
  -27.4070    4.3908   28.8999 C   0  0  0  0  0  0  0  0  0  0  0  0
  -27.2061    3.6421   27.7996 O   0  0  0  0  0  0  0  0  0  0  0  0
  -28.2374    3.3272   27.0430 C   0  0  0  0  0  0  0  0  0  0  0  0
  -27.5755    4.5368   25.8222 O   0  0  0  0  0  0  0  0  0  0  0  0
  -29.4348    1.6877   29.7288 C   0  0  0  0  0  0  0  0  0  0  0  0
  -30.5114    1.9555   29.9026 C   0  0  0  0  0  0  0  0  0  0  0  0
  -31.6878    1.1176   30.1192 C   0  0  0  0  0  0  0  0  0  0  0  0
  -31.3907   -0.2393   30.1217 C   0  0  0  0  0  0  0  0  0  0  0  0
  -30.1459   -0.7211   30.0082 C   0  0  0  0  0  0  0  0  0  0  0  0
  1  2  1  0
  4  8  1  0
  8  9  2  3
  9 10  1  0
 10 11  1  0
 10 12  2  0
 11 13  1  0
 11 14  1  0
 14 15  1  0
 15 16  1  0
 13 17  1  0
 16 17  1  0
 15 18  1  0
 18 19  1  0
 20 21  1  0
 21 22  1  0
 15 23  1  0
 21 23  1  0
 23 24  1  0
 24 25  1  0
 17 26  1  0
 25 26  1  0
 22 27  2  3
 27 28  1  0
 28 29  1  0
 29 30  2  3
 30 31  1  0
 19 20  1  0
  2  3  2  0
  3  4  1  0
  4  5  2  0
  5  6  1  0
  6  7  2  0
  7  2  1  0
M  END

$$$$
