No_2969-gen_results/8p0m/2024-11-27-11-27-31/
     RDKit          3D

 17 19  0  0  0  0  0  0  0  0999 V2000
  -28.0162   -0.8135   28.8779 C   0  0  0  0  0  0  0  0  0  0  0  0
  -28.4690   -0.7850   29.8287 C   0  0  0  0  0  0  0  0  0  0  0  0
  -27.0871    0.2903   28.6377 C   0  0  0  0  0  0  0  0  0  0  0  0
  -26.0238    0.3644   29.2526 C   0  0  0  0  0  0  0  0  0  0  0  0
  -27.5370   -0.6187   31.0883 C   0  0  0  0  0  0  0  0  0  0  0  0
  -26.3844    0.1834   30.8012 C   0  0  0  0  0  0  0  0  0  0  0  0
  -29.5100   -1.6195   30.2653 O   0  0  0  0  0  0  0  0  0  0  0  0
  -30.7241   -1.2384   29.8510 C   0  0  0  0  0  0  0  0  0  0  0  0
  -31.5691   -2.3374   29.6639 C   0  0  0  0  0  0  0  0  0  0  0  0
  -32.8126   -2.1391   28.9632 C   0  0  0  0  0  0  0  0  0  0  0  0
  -33.1076   -0.8095   28.5644 C   0  0  0  0  0  0  0  0  0  0  0  0
  -32.1979    0.1817   28.7641 C   0  0  0  0  0  0  0  0  0  0  0  0
  -30.9352   -0.0421   29.3629 C   0  0  0  0  0  0  0  0  0  0  0  0
  -26.8263    0.6339   27.1237 C   0  0  0  0  0  0  0  0  0  0  0  0
  -25.6396    0.8448   26.6075 C   0  0  0  0  0  0  0  0  0  0  0  0
  -24.4891    0.9405   27.5385 C   0  0  0  0  0  0  0  0  0  0  0  0
  -24.7059    0.7458   28.8949 C   0  0  0  0  0  0  0  0  0  0  0  0
  2  7  1  0
  7  8  1  0
  4 17  2  0
 17 16  1  0
 16 15  2  0
 15 14  1  0
 14  3  2  0
  8  9  2  0
  9 10  1  0
 10 11  2  0
 11 12  1  0
 12 13  2  0
 13  8  1  0
  1  2  2  0
  2  5  1  0
  5  6  2  0
  6  4  1  0
  4  3  1  0
  3  1  1  0
M  END

$$$$
