No_2946-gen_results/8p0m/2024-11-27-11-27-31/
     RDKit          3D

 22 25  0  0  0  0  0  0  0  0999 V2000
  -28.1146   -0.6256   29.0813 Br  0  0  0  0  0  0  0  0  0  0  0  0
  -28.0686    0.2105   30.1716 C   0  0  0  0  0  0  0  0  0  0  0  0
  -27.5204    1.4889   30.0130 C   0  0  0  0  0  0  0  0  0  0  0  0
  -27.3846    2.3069   31.0888 C   0  0  0  0  0  0  0  0  0  0  0  0
  -27.7615    1.9211   32.4140 C   0  0  0  0  0  0  0  0  0  0  0  0
  -28.2549    0.6731   32.5937 C   0  0  0  0  0  0  0  0  0  0  0  0
  -28.3625   -0.1713   31.5402 C   0  0  0  0  0  0  0  0  0  0  0  0
  -26.7972    3.6818   30.9160 C   0  0  0  0  0  0  0  0  0  0  0  0
  -26.1412    3.9903   30.0873 N   0  0  0  0  0  0  0  0  0  0  0  0
  -25.6032    3.2062   29.1216 C   0  0  0  0  0  0  0  0  0  0  0  0
  -24.9085    3.9703   28.0160 C   0  0  0  0  0  0  0  0  0  0  0  0
  -24.3727    3.1665   26.9706 C   0  0  0  0  0  0  0  0  0  0  0  0
  -24.1870    1.8038   27.0509 C   0  0  0  0  0  0  0  0  0  0  0  0
  -24.7506    1.1823   28.1736 C   0  0  0  0  0  0  0  0  0  0  0  0
  -25.3584    1.8591   29.1590 C   0  0  0  0  0  0  0  0  0  0  0  0
  -26.5998    1.6250   28.8786 C   0  0  0  0  0  0  0  0  0  0  0  0
  -27.2800    1.8698   27.5873 C   0  0  0  0  0  0  0  0  0  0  0  0
  -26.9639    1.2807   26.4918 C   0  0  0  0  0  0  0  0  0  0  0  0
  -27.8858    1.2294   25.3879 C   0  0  0  0  0  0  0  0  0  0  0  0
  -28.9904    1.9924   25.3622 C   0  0  0  0  0  0  0  0  0  0  0  0
  -28.5093    2.6143   27.6202 C   0  0  0  0  0  0  0  0  0  0  0  0
  -29.3339    2.6936   26.5261 C   0  0  0  0  0  0  0  0  0  0  0  0
  1  2  1  0
  4  8  1  0
  8  9  2  0
  9 10  1  0
  3 16  1  0
 15 16  1  0
 16 17  1  0
  2  3  2  0
  3  4  1  0
  4  5  2  0
  5  6  1  0
  6  7  2  0
  7  2  1  0
 17 18  2  0
 18 19  1  0
 19 20  2  0
 20 22  1  0
 22 21  2  0
 21 17  1  0
 10 11  2  0
 11 12  1  0
 12 13  2  0
 13 14  1  0
 14 15  2  0
 15 10  1  0
M  END

$$$$
