No_2009-gen_results/8p0m/2024-11-27-11-27-31/
     RDKit          3D

 20 22  0  0  0  0  0  0  0  0999 V2000
  -28.0162   -0.8135   28.8779 C   0  0  0  0  0  0  0  0  0  0  0  0
  -27.0636   -0.1189   28.6079 C   0  0  0  0  0  0  0  0  0  0  0  0
  -25.7647   -0.3897   29.0360 C   0  0  0  0  0  0  0  0  0  0  0  0
  -25.5296   -1.5302   29.9014 C   0  0  0  0  0  0  0  0  0  0  0  0
  -26.6577   -2.2915   30.2035 C   0  0  0  0  0  0  0  0  0  0  0  0
  -27.6860   -1.9196   29.6994 C   0  0  0  0  0  0  0  0  0  0  0  0
  -24.5358    0.4438   28.7505 C   0  0  0  0  0  0  0  0  0  0  0  0
  -24.4785    1.2440   27.7352 C   0  0  0  0  0  0  0  0  0  0  0  0
  -23.2799    1.9638   27.4027 C   0  0  0  0  0  0  0  0  0  0  0  0
  -22.0825    1.7119   28.0123 C   0  0  0  0  0  0  0  0  0  0  0  0
  -23.2833    0.1499   29.4606 C   0  0  0  0  0  0  0  0  0  0  0  0
  -22.0842    0.8238   29.0727 C   0  0  0  0  0  0  0  0  0  0  0  0
  -28.9697   -2.8295   30.1411 C   0  0  0  0  0  0  0  0  0  0  0  0
  -28.8464   -4.0526   30.1700 O   0  0  0  0  0  0  0  0  0  0  0  0
  -30.1389   -2.2865   30.3731 N   0  0  0  0  0  0  0  0  0  0  0  0
  -31.2809   -3.0795   30.7227 C   0  0  0  0  0  0  0  0  0  0  0  0
  -32.2371   -3.0783   29.7370 C   0  0  0  0  0  0  0  0  0  0  0  0
  -32.4320   -1.9470   29.0072 C   0  0  0  0  0  0  0  0  0  0  0  0
  -31.5208   -0.8658   29.0980 C   0  0  0  0  0  0  0  0  0  0  0  0
  -30.4268   -1.0071   29.8009 C   0  0  0  0  0  0  0  0  0  0  0  0
  3  7  1  0
  6 13  1  0
 13 14  2  0
 13 15  1  0
 15 16  1  0
 16 17  1  0
 18 19  1  0
 15 20  1  0
 17 18  1  0
 19 20  1  0
  7  8  2  0
  8  9  1  0
  9 10  2  0
 10 12  1  0
 12 11  2  0
 11  7  1  0
  1  2  2  0
  2  3  1  0
  3  4  2  0
  4  5  1  0
  5  6  2  0
  6  1  1  0
M  END

$$$$
