No_2119-gen_results/8p0m/2024-11-27-11-27-31/
     RDKit          3D

 21 22  0  0  0  0  0  0  0  0999 V2000
  -28.0162   -0.8135   28.8779 C   0  0  0  0  0  0  0  0  0  0  0  0
  -28.4690   -0.7850   29.8287 C   0  0  0  0  0  0  0  0  0  0  0  0
  -28.1960    0.3478   28.0550 C   0  0  0  0  0  0  0  0  0  0  0  0
  -29.0191    1.3501   28.3782 C   0  0  0  0  0  0  0  0  0  0  0  0
  -29.6249    1.2683   29.6012 C   0  0  0  0  0  0  0  0  0  0  0  0
  -29.3791    0.1469   30.3923 C   0  0  0  0  0  0  0  0  0  0  0  0
  -27.4551    0.3822   26.7102 C   0  0  0  0  0  0  0  0  0  0  0  0
  -26.7926    1.4594   26.3918 N   0  0  0  0  0  0  0  0  0  0  0  0
  -25.4911    1.3943   25.9926 C   0  0  0  0  0  0  0  0  0  0  0  0
  -24.6101    0.4305   25.9950 C   0  0  0  0  0  0  0  0  0  0  0  0
  -24.6516    2.5064   26.7853 C   0  0  0  0  0  0  0  0  0  0  0  0
  -24.2178    2.3839   27.9209 C   0  0  0  0  0  0  0  0  0  0  0  0
  -24.1161    1.4028   28.3648 C   0  0  0  0  0  0  0  0  0  0  0  0
  -24.1740    0.1177   27.3957 C   0  0  0  0  0  0  0  0  0  0  0  0
  -27.5098    2.7142   26.3467 C   0  0  0  0  0  0  0  0  0  0  0  0
  -23.4024    0.9203   29.6505 C   0  0  0  0  0  0  0  0  0  0  0  0
  -24.0314    0.1699   30.4410 O   0  0  0  0  0  0  0  0  0  0  0  0
  -22.5512    1.7510   30.1857 O   0  0  0  0  0  0  0  0  0  0  0  0
  -30.5376    2.3469   30.0797 C   0  0  0  0  0  0  0  0  0  0  0  0
  -30.8715    2.5256   31.1105 O   0  0  0  0  0  0  0  0  0  0  0  0
  -30.5828    3.3196   29.1730 O   0  0  0  0  0  0  0  0  0  0  0  0
  3  7  1  0
  7  8  1  0
  8  9  1  0
  8 15  1  0
 13 16  1  0
 16 17  2  0
 16 18  1  0
  5 19  1  0
 19 20  2  0
 19 21  1  0
  1  2  2  0
  2  6  1  0
  6  5  2  0
  5  4  1  0
  4  3  2  0
  3  1  1  0
  9 10  2  0
 10 14  1  0
 14 13  2  0
 13 12  1  0
 12 11  2  0
 11  9  1  0
M  END

$$$$
