No_2547-gen_results/8p0m/2024-11-27-11-27-31/
     RDKit          3D

 16 18  0  0  0  0  0  0  0  0999 V2000
  -28.0544   -1.0498   28.7246 N   0  0  0  0  0  0  0  0  0  0  0  0
  -26.9659   -0.4722   28.7709 C   0  0  0  0  0  0  0  0  0  0  0  0
  -25.9289   -1.0196   29.5059 C   0  0  0  0  0  0  0  0  0  0  0  0
  -25.9372   -1.9154   29.9715 C   0  0  0  0  0  0  0  0  0  0  0  0
  -27.1238   -2.7578   30.0756 C   0  0  0  0  0  0  0  0  0  0  0  0
  -28.1665   -2.2164   29.4731 C   0  0  0  0  0  0  0  0  0  0  0  0
  -26.8565    0.7803   28.0917 N   0  0  0  0  0  0  0  0  0  0  0  0
  -25.6686    1.4008   27.9562 C   0  0  0  0  0  0  0  0  0  0  0  0
  -25.4977    2.6306   27.2824 C   0  0  0  0  0  0  0  0  0  0  0  0
  -24.2092    3.2074   27.0490 C   0  0  0  0  0  0  0  0  0  0  0  0
  -23.0780    2.4740   27.4188 C   0  0  0  0  0  0  0  0  0  0  0  0
  -23.2076    1.2140   28.0647 C   0  0  0  0  0  0  0  0  0  0  0  0
  -24.4224    0.6798   28.2922 C   0  0  0  0  0  0  0  0  0  0  0  0
  -24.5725   -0.2635   29.1633 C   0  0  0  0  0  0  0  0  0  0  0  0
  -23.3594   -0.9742   29.7220 C   0  0  0  0  0  0  0  0  0  0  0  0
  -22.6734   -1.6759   28.9779 O   0  0  0  0  0  0  0  0  0  0  0  0
 14 15  1  0
 15 16  2  0
  1  2  2  0
  3  4  2  0
  4  5  1  0
  5  6  2  0
  6  1  1  0
  2  3  1  0
  3 14  1  0
 14 13  2  0
  8  7  2  0
  7  2  1  0
  8  9  1  0
  9 10  2  0
 10 11  1  0
 11 12  2  0
 12 13  1  0
 13  8  1  0
M  END

$$$$
