No_2453-gen_results/8p0m/2024-11-27-11-27-31/
     RDKit          3D

 12 12  0  0  0  0  0  0  0  0999 V2000
  -28.0162   -0.8135   28.8779 C   0  0  0  0  0  0  0  0  0  0  0  0
  -28.4690   -0.7850   29.8287 C   0  0  0  0  0  0  0  0  0  0  0  0
  -26.5455   -0.8762   28.8500 C   0  0  0  0  0  0  0  0  0  0  0  0
  -25.8974   -0.8267   29.8894 C   0  0  0  0  0  0  0  0  0  0  0  0
  -27.9129   -0.8385   31.1942 C   0  0  0  0  0  0  0  0  0  0  0  0
  -26.5519   -0.8324   31.1775 C   0  0  0  0  0  0  0  0  0  0  0  0
  -30.0638   -0.8434   30.1137 C   0  0  0  0  0  0  0  0  0  0  0  0
  -30.6706   -1.7645   30.3576 N   0  0  0  0  0  0  0  0  0  0  0  0
  -31.9602   -1.9357   30.2162 C   0  0  0  0  0  0  0  0  0  0  0  0
  -30.5404    0.3119   30.1888 O   0  0  0  0  0  0  0  0  0  0  0  0
  -32.7241   -1.7884   29.4578 C   0  0  0  0  0  0  0  0  0  0  0  0
  -34.1367   -2.0462   29.4230 C   0  0  0  0  0  0  0  0  0  0  0  0
  2  7  1  0
  7  8  1  0
  8  9  1  0
  7 10  2  0
  9 11  2  3
 11 12  1  0
  1  2  2  0
  2  5  1  0
  5  6  2  0
  6  4  1  0
  4  3  2  0
  3  1  1  0
M  END

$$$$
