No_2398-gen_results/8p0m/2024-11-27-11-27-31/
     RDKit          3D

 16 16  0  0  0  0  0  0  0  0999 V2000
  -28.0162   -0.8135   28.8779 C   0  0  0  0  0  0  0  0  0  0  0  0
  -27.0636   -0.1190   28.6079 C   0  0  0  0  0  0  0  0  0  0  0  0
  -26.9716    0.7139   27.5060 C   0  0  0  0  0  0  0  0  0  0  0  0
  -28.1053    0.7744   26.6421 C   0  0  0  0  0  0  0  0  0  0  0  0
  -29.0421    0.3521   26.9673 C   0  0  0  0  0  0  0  0  0  0  0  0
  -29.1962   -0.5113   28.1033 C   0  0  0  0  0  0  0  0  0  0  0  0
  -28.1365   -1.5437   29.9388 F   0  0  0  0  0  0  0  0  0  0  0  0
  -30.4074    0.3705   26.2745 C   0  0  0  0  0  0  0  0  0  0  0  0
  -30.9751   -0.6397   25.8524 N   0  0  0  0  0  0  0  0  0  0  0  0
  -25.7230   -0.1415   29.1907 O   0  0  0  0  0  0  0  0  0  0  0  0
  -25.3489   -1.0279   29.9464 C   0  0  0  0  0  0  0  0  0  0  0  0
  -31.0802    1.4493   26.2502 O   0  0  0  0  0  0  0  0  0  0  0  0
  -31.7336   -0.8444   25.2327 C   0  0  0  0  0  0  0  0  0  0  0  0
  -24.5902   -0.6325   31.0107 C   0  0  0  0  0  0  0  0  0  0  0  0
  -23.4925   -1.1982   31.4041 C   0  0  0  0  0  0  0  0  0  0  0  0
  -25.0879    0.5888   31.7524 C   0  0  0  0  0  0  0  0  0  0  0  0
  1  7  1  0
  5  8  1  0
  8  9  1  0
  2 10  1  0
 10 11  1  0
  8 12  2  0
  9 13  1  0
 11 14  1  0
 14 15  2  0
 14 16  1  0
  1  2  2  0
  2  3  1  0
  3  4  2  0
  4  5  1  0
  5  6  2  0
  6  1  1  0
M  END

$$$$
