No_227-gen_results/8p0m/2024-11-27-11-27-31/
     RDKit          3D

 17 17  0  0  0  0  0  0  0  0999 V2000
  -28.0162   -0.8135   28.8779 C   0  0  0  0  0  0  0  0  0  0  0  0
  -27.0636   -0.1189   28.6079 C   0  0  0  0  0  0  0  0  0  0  0  0
  -25.7647   -0.3897   29.0360 C   0  0  0  0  0  0  0  0  0  0  0  0
  -25.5296   -1.5302   29.9014 C   0  0  0  0  0  0  0  0  0  0  0  0
  -26.6888   -2.2893   30.1810 C   0  0  0  0  0  0  0  0  0  0  0  0
  -27.8727   -1.9508   29.7373 C   0  0  0  0  0  0  0  0  0  0  0  0
  -28.9304   -2.7298   30.1154 O   0  0  0  0  0  0  0  0  0  0  0  0
  -24.3649    0.5656   28.6892 Cl  0  0  0  0  0  0  0  0  0  0  0  0
  -28.7767   -3.9664   30.6537 C   0  0  0  0  0  0  0  0  0  0  0  0
  -28.8760   -4.9882   29.8525 C   0  0  0  0  0  0  0  0  0  0  0  0
  -29.6336   -4.6459   28.7455 C   0  0  0  0  0  0  0  0  0  0  0  0
  -30.6626   -5.7615   28.3838 C   0  0  0  0  0  0  0  0  0  0  0  0
  -32.0145   -5.3185   28.6154 C   0  0  0  0  0  0  0  0  0  0  0  0
  -32.4820   -4.9956   29.5631 O   0  0  0  0  0  0  0  0  0  0  0  0
  -32.8763   -5.7794   27.4871 N   0  0  0  0  0  0  0  0  0  0  0  0
  -32.5043   -6.3726   26.3375 C   0  0  0  0  0  0  0  0  0  0  0  0
  -34.3276   -5.4381   27.5766 C   0  0  0  0  0  0  0  0  0  0  0  0
  6  7  1  0
  3  8  1  0
  7  9  1  0
  9 10  1  0
 10 11  1  0
 11 12  1  0
 12 13  1  0
 13 14  2  0
 13 15  1  0
 15 16  1  0
 15 17  1  0
  1  2  2  0
  2  3  1  0
  3  4  2  0
  4  5  1  0
  5  6  2  0
  6  1  1  0
M  END

$$$$
