No_212-gen_results/8p0m/2024-11-27-11-27-31/
     RDKit          3D

 14 16  0  0  0  0  0  0  0  0999 V2000
  -28.0162   -0.8135   28.8779 C   0  0  0  0  0  0  0  0  0  0  0  0
  -27.0636   -0.1189   28.6079 C   0  0  0  0  0  0  0  0  0  0  0  0
  -25.8176   -0.3427   29.0488 N   0  0  0  0  0  0  0  0  0  0  0  0
  -24.6506    0.4444   28.7649 C   0  0  0  0  0  0  0  0  0  0  0  0
  -24.7153    1.3122   27.7191 C   0  0  0  0  0  0  0  0  0  0  0  0
  -25.9996    1.5243   27.1533 C   0  0  0  0  0  0  0  0  0  0  0  0
  -27.0905    0.8203   27.5377 C   0  0  0  0  0  0  0  0  0  0  0  0
  -29.3079   -0.1658   29.1469 C   0  0  0  0  0  0  0  0  0  0  0  0
  -30.3283   -0.8431   29.7299 C   0  0  0  0  0  0  0  0  0  0  0  0
  -31.6077   -0.3362   29.7194 C   0  0  0  0  0  0  0  0  0  0  0  0
  -31.8082    0.9421   29.1927 C   0  0  0  0  0  0  0  0  0  0  0  0
  -30.7603    1.6046   28.6130 C   0  0  0  0  0  0  0  0  0  0  0  0
  -29.4960    1.0642   28.5033 C   0  0  0  0  0  0  0  0  0  0  0  0
  -28.3164    1.6247   27.7962 C   0  0  0  0  0  0  0  0  0  0  0  0
  2  3  1  0
  3  4  2  0
  4  5  1  0
  5  6  2  0
  6  7  1  0
  8  9  2  0
  9 10  1  0
 10 11  2  0
 11 12  1  0
 12 13  2  0
  1  2  2  0
  2  7  1  0
  7 14  2  0
 14 13  1  0
 13  8  1  0
  8  1  1  0
M  END

$$$$
