No_2828-gen_results/8p0m/2024-11-27-11-27-31/
     RDKit          3D

 20 22  0  0  0  0  0  0  0  0999 V2000
  -28.0162   -0.8135   28.8779 C   0  0  0  0  0  0  0  0  0  0  0  0
  -27.0636   -0.1190   28.6079 C   0  0  0  0  0  0  0  0  0  0  0  0
  -26.8756    1.1325   28.9134 C   0  0  0  0  0  0  0  0  0  0  0  0
  -27.9014    1.8066   29.6436 C   0  0  0  0  0  0  0  0  0  0  0  0
  -29.0458   -0.2316   29.7181 C   0  0  0  0  0  0  0  0  0  0  0  0
  -28.9402    1.0517   30.0597 C   0  0  0  0  0  0  0  0  0  0  0  0
  -25.8732   -0.7125   27.8045 C   0  0  0  0  0  0  0  0  0  0  0  0
  -24.5444   -0.3956   28.3291 C   0  0  0  0  0  0  0  0  0  0  0  0
  -23.7448   -0.9854   28.8520 C   0  0  0  0  0  0  0  0  0  0  0  0
  -22.3932   -0.4846   29.2503 C   0  0  0  0  0  0  0  0  0  0  0  0
  -22.1257    0.8085   28.8290 C   0  0  0  0  0  0  0  0  0  0  0  0
  -23.8919    1.0339   28.0059 C   0  0  0  0  0  0  0  0  0  0  0  0
  -23.7537    1.7417   26.9603 C   0  0  0  0  0  0  0  0  0  0  0  0
  -24.6305    2.8739   26.9418 C   0  0  0  0  0  0  0  0  0  0  0  0
  -24.6545    3.7939   25.8521 C   0  0  0  0  0  0  0  0  0  0  0  0
  -25.4668    4.9142   26.0072 C   0  0  0  0  0  0  0  0  0  0  0  0
  -26.2329    5.1784   27.1868 C   0  0  0  0  0  0  0  0  0  0  0  0
  -26.0926    4.3119   28.2353 C   0  0  0  0  0  0  0  0  0  0  0  0
  -25.2381    3.2439   28.2005 C   0  0  0  0  0  0  0  0  0  0  0  0
  -23.0965    1.5293   25.9341 O   0  0  0  0  0  0  0  0  0  0  0  0
  2  7  1  0
  7  8  1  0
  8  9  2  0
  9 10  1  0
 10 11  2  0
  8 12  1  0
 11 12  1  0
 12 13  1  0
 13 14  1  0
 13 20  2  0
 14 15  2  0
 15 16  1  0
 16 17  2  0
 17 18  1  0
 18 19  2  0
 19 14  1  0
  1  2  2  0
  2  3  1  0
  3  4  2  0
  4  6  1  0
  6  5  2  0
  5  1  1  0
M  END

$$$$
