No_2867-gen_results/8p0m/2024-11-27-11-27-31/
     RDKit          3D

 23 25  0  0  0  0  0  0  0  0999 V2000
  -28.0162   -0.8135   28.8779 C   0  0  0  0  0  0  0  0  0  0  0  0
  -27.0636   -0.1190   28.6079 C   0  0  0  0  0  0  0  0  0  0  0  0
  -26.9849    0.5972   27.5218 N   0  0  0  0  0  0  0  0  0  0  0  0
  -27.9606   -1.5421   30.1660 C   0  0  0  0  0  0  0  0  0  0  0  0
  -26.7814   -1.6198   30.8836 C   0  0  0  0  0  0  0  0  0  0  0  0
  -25.6460   -0.9698   30.4630 C   0  0  0  0  0  0  0  0  0  0  0  0
  -25.7563   -0.1767   29.2863 C   0  0  0  0  0  0  0  0  0  0  0  0
  -27.9271    1.1434   26.9162 C   0  0  0  0  0  0  0  0  0  0  0  0
  -29.0786    1.1509   27.4036 C   0  0  0  0  0  0  0  0  0  0  0  0
  -27.6155    1.7687   25.5979 C   0  0  0  0  0  0  0  0  0  0  0  0
  -30.2134    1.8150   26.6452 C   0  0  0  0  0  0  0  0  0  0  0  0
  -28.6351    2.4420   24.8619 C   0  0  0  0  0  0  0  0  0  0  0  0
  -29.9219    2.5017   25.4383 C   0  0  0  0  0  0  0  0  0  0  0  0
  -25.5677    0.2670   26.8563 C   0  0  0  0  0  0  0  0  0  0  0  0
  -24.6765    0.1312   28.5316 N   0  0  0  0  0  0  0  0  0  0  0  0
  -23.3817    0.3410   28.5936 C   0  0  0  0  0  0  0  0  0  0  0  0
  -24.0620   -0.5552   28.0843 C   0  0  0  0  0  0  0  0  0  0  0  0
  -23.9031   -1.7056   29.0326 C   0  0  0  0  0  0  0  0  0  0  0  0
  -25.0584    1.6787   26.3422 C   0  0  0  0  0  0  0  0  0  0  0  0
  -25.4919   -0.6899   25.9295 C   0  0  0  0  0  0  0  0  0  0  0  0
  -23.5722   -0.9197   26.7778 C   0  0  0  0  0  0  0  0  0  0  0  0
  -24.3460   -1.2157   25.8330 N   0  0  0  0  0  0  0  0  0  0  0  0
  -25.3443    1.1980   26.2906 C   0  0  0  0  0  0  0  0  0  0  0  0
  2  3  1  0
  3  8  1  0
  3 14  1  0
  7 15  1  0
 15 16  1  0
 15 17  1  0
 17 18  1  0
 14 19  1  0
 14 20  1  0
 17 21  1  0
 20 22  1  0
 21 22  1  0
 19 23  1  0
  8  9  2  0
  9 11  1  0
 11 13  2  0
 13 12  1  0
 12 10  2  0
 10  8  1  0
  1  2  2  0
  2  7  1  0
  7  6  2  0
  6  5  1  0
  5  4  2  0
  4  1  1  0
M  END

$$$$
